MODEL 1
REMARK VINA RESULT:     -14.3      0.000      0.000
REMARK SMILES CC1=C(C)C[C@@H](C(=O)NCCCNC(=O)c2ccc(-c3c4nc(c(-c5cccc(S(=O)(=O)[O-])c5F)c5ccc([nH]5)c(-c5cccc(S(=O)(=O)[O-])c5F)c5nc(c(-c6cccc(S(=O)(=O)[O-])c6F)c6ccc3[nH]6)C=C5)C=C4)cc2)[C@@H](C(=O)N2CCN(c3cccc(C(F)(F)F)c3)CC2)C1
REMARK SMILES IDX 11 1 10 2 9 3 7 4 8 5 6 7 1 8 2 9 3 10 98 11 4 12 5 13 79 14
REMARK SMILES IDX 80 15 81 16 82 17 83 18 97 19 84 20 96 21 85 22 86 23 87 24
REMARK SMILES IDX 95 25 88 26 90 27 89 28 91 29 92 30 93 31 94 32 12 33 13 34
REMARK SMILES IDX 14 35 15 37 16 38 17 39 78 40 18 41 77 42 19 43 20 44 21 45
REMARK SMILES IDX 71 46 22 47 76 48 70 49 72 50 23 51 75 52 69 53 68 54 24 56
REMARK SMILES IDX 56 57 36 58 55 59 37 60 40 61 54 62 73 63 38 64 39 65 53 67
REMARK SMILES IDX 74 68 41 69 25 70 26 71 34 72 27 73 29 74 35 75 28 76 30 77
REMARK SMILES IDX 31 78 32 79 33 80 57 81 58 82 66 83 59 84 61 85 67 86 60 87
REMARK SMILES IDX 62 88 63 89 64 90 65 91 42 92 43 93 51 94 44 95 46 96 52 97
REMARK SMILES IDX 45 98 47 99 48 100 49 101 50 102
REMARK H PARENT 9 6 13 36 72 55 40 66
REMARK Flexibility Score: inf
ROOT
ATOM      1  C   UNL A   1      41.711  39.686  27.782  1.00  0.00     0.042 C 
ENDROOT
BRANCH   1   2
ATOM      2  C   UNL A   1      41.558  40.496  29.730  1.00  0.00     0.117 C 
BRANCH   2   3
ATOM      3  N   UNL A   1      41.835  42.042  30.194  1.00  0.00    -0.356 N 
ATOM      4  C   UNL A   1      42.681  42.630  31.095  1.00  0.00     0.224 C 
ATOM      5  O   UNL A   1      42.298  43.669  31.641  1.00  0.00    -0.275 OA
ATOM      6  H   UNL A   1      41.267  42.691  29.721  1.00  0.00     0.163 HD
BRANCH   4   7
ATOM      7  C   UNL A   1      44.102  42.167  31.237  1.00  0.00     0.095 C 
ATOM      8  C   UNL A   1      46.271  44.555  34.227  1.00  0.00     0.039 C 
ATOM      9  C   UNL A   1      45.650  43.571  33.274  1.00  0.00    -0.074 C 
ATOM     10  C   UNL A   1      44.654  42.744  33.653  1.00  0.00    -0.074 C 
ATOM     11  C   UNL A   1      46.189  43.526  31.844  1.00  0.00     0.045 C 
ATOM     12  C   UNL A   1      43.942  42.758  34.982  1.00  0.00     0.039 C 
ATOM     13  C   UNL A   1      44.154  41.700  32.694  1.00  0.00     0.045 C 
ATOM     14  C   UNL A   1      45.189  43.128  30.728  1.00  0.00     0.095 C 
BRANCH  14  15
ATOM     15  C   UNL A   1      44.531  44.136  29.725  1.00  0.00     0.226 C 
ATOM     16  O   UNL A   1      44.093  45.210  30.146  1.00  0.00    -0.275 OA
ATOM     17  N   UNL A   1      44.792  43.975  28.376  1.00  0.00    -0.339 N 
ATOM     18  C   UNL A   1      45.899  45.242  27.506  1.00  0.00     0.141 C 
ATOM     19  C   UNL A   1      44.379  42.372  27.577  1.00  0.00     0.141 C 
ATOM     20  C   UNL A   1      47.168  44.467  26.143  1.00  0.00     0.138 C 
ATOM     21  C   UNL A   1      45.648  41.631  26.323  1.00  0.00     0.138 C 
ATOM     22  N   UNL A   1      46.738  42.773  25.323  1.00  0.00    -0.368 N 
BRANCH  22  23
ATOM     23  C   UNL A   1      46.351  42.432  23.818  1.00  0.00     0.037 A 
ATOM     24  C   UNL A   1      47.436  42.277  22.420  1.00  0.00     0.026 A 
ATOM     25  C   UNL A   1      44.765  42.906  23.562  1.00  0.00     0.039 A 
ATOM     26  C   UNL A   1      47.029  42.805  20.719  1.00  0.00     0.003 A 
ATOM     27  C   UNL A   1      44.125  43.507  22.025  1.00  0.00     0.058 A 
ATOM     28  C   UNL A   1      45.363  43.548  20.409  1.00  0.00     0.013 A 
BRANCH  27  29
ATOM     29  C   UNL A   1      42.630  43.198  22.397  1.00  0.00     0.416 C 
ATOM     30  F   UNL A   1      42.072  44.264  23.037  1.00  0.00    -0.166 F 
ATOM     31  F   UNL A   1      41.722  43.115  21.360  1.00  0.00    -0.166 F 
ATOM     32  F   UNL A   1      42.466  42.014  23.018  1.00  0.00    -0.166 F 
ENDBRANCH  27  29
ENDBRANCH  22  23
ENDBRANCH  14  15
ENDBRANCH   4   7
ENDBRANCH   2   3
ENDBRANCH   1   2
BRANCH   1  33
ATOM     33  C   UNL A   1      42.713  38.600  26.940  1.00  0.00     0.118 C 
BRANCH  33  34
ATOM     34  N   UNL A   1      44.151  38.795  26.913  1.00  0.00    -0.352 N 
ATOM     35  C   UNL A   1      45.138  37.901  26.973  1.00  0.00     0.251 C 
ATOM     36  H   UNL A   1      44.442  39.732  26.839  1.00  0.00     0.163 HD
ATOM     37  O   UNL A   1      46.241  38.134  26.503  1.00  0.00    -0.269 OA
BRANCH  35  38
ATOM     38  C   UNL A   1      44.718  36.722  27.849  1.00  0.00     0.039 A 
ATOM     39  C   UNL A   1      44.873  35.981  29.739  1.00  0.00     0.014 A 
ATOM     40  C   UNL A   1      44.474  35.617  26.497  1.00  0.00     0.014 A 
ATOM     41  C   UNL A   1      44.887  34.121  29.832  1.00  0.00     0.010 A 
ATOM     42  C   UNL A   1      44.355  33.981  26.779  1.00  0.00     0.010 A 
ATOM     43  C   UNL A   1      44.556  33.161  28.321  1.00  0.00    -0.014 A 
BRANCH  43  44
ATOM     44  C   UNL A   1      44.004  31.648  28.061  1.00  0.00     0.031 A 
ATOM     45  C   UNL A   1      42.656  31.233  28.805  1.00  0.00     0.074 A 
ATOM     46  C   UNL A   1      44.726  30.556  27.614  1.00  0.00     0.049 A 
ATOM     47  N   UNL A   1      42.108  30.039  28.943  1.00  0.00    -0.248 NA
ATOM     48  C   UNL A   1      41.919  32.260  29.582  1.00  0.00     0.031 C 
ATOM     49  C   UNL A   1      46.124  30.473  27.201  1.00  0.00     0.029 A 
ATOM     50  N   UNL A   1      44.389  29.200  27.493  1.00  0.00    -0.354 N 
ATOM     51  C   UNL A   1      41.041  30.178  29.842  1.00  0.00     0.074 A 
ATOM     52  C   UNL A   1      41.101  31.531  30.333  1.00  0.00     0.031 C 
ATOM     53  C   UNL A   1      46.504  29.272  26.806  1.00  0.00     0.029 A 
ATOM     54  C   UNL A   1      45.411  28.391  26.994  1.00  0.00     0.049 A 
ATOM     55  H   UNL A   1      43.503  28.847  27.739  1.00  0.00     0.167 HD
ATOM     56  C   UNL A   1      40.046  29.309  30.178  1.00  0.00     0.034 A 
ATOM     57  C   UNL A   1      45.601  27.093  26.700  1.00  0.00     0.034 A 
ATOM     58  C   UNL A   1      39.931  27.988  29.616  1.00  0.00     0.049 A 
ATOM     59  C   UNL A   1      44.440  26.211  26.870  1.00  0.00     0.074 A 
ATOM     60  C   UNL A   1      38.859  27.113  29.669  1.00  0.00     0.029 A 
ATOM     61  N   UNL A   1      40.933  27.349  28.906  1.00  0.00    -0.354 N 
ATOM     62  N   UNL A   1      43.318  26.487  27.472  1.00  0.00    -0.248 NA
ATOM     63  C   UNL A   1      44.526  24.885  26.259  1.00  0.00     0.031 C 
ATOM     64  C   UNL A   1      39.229  25.929  29.020  1.00  0.00     0.029 A 
ATOM     65  C   UNL A   1      40.512  26.087  28.526  1.00  0.00     0.049 A 
ATOM     66  H   UNL A   1      41.815  27.736  28.702  1.00  0.00     0.167 HD
ATOM     67  C   UNL A   1      42.532  25.374  27.288  1.00  0.00     0.074 A 
ATOM     68  C   UNL A   1      43.302  24.437  26.489  1.00  0.00     0.031 C 
ATOM     69  C   UNL A   1      41.285  25.159  27.752  1.00  0.00     0.034 A 
BRANCH  56  70
ATOM     70  C   UNL A   1      38.915  29.790  31.085  1.00  0.00     0.023 A 
ATOM     71  C   UNL A   1      38.910  29.409  32.447  1.00  0.00     0.012 A 
ATOM     72  C   UNL A   1      37.918  30.687  30.637  1.00  0.00     0.148 A 
ATOM     73  C   UNL A   1      37.910  29.843  33.319  1.00  0.00     0.002 A 
ATOM     74  C   UNL A   1      36.953  31.159  31.528  1.00  0.00     0.091 A 
ATOM     75  F   UNL A   1      37.929  31.066  29.352  1.00  0.00    -0.205 F 
ATOM     76  C   UNL A   1      36.936  30.722  32.862  1.00  0.00     0.022 A 
BRANCH  74  77
ATOM     77  S   UNL A   1      35.698  32.368  31.077  1.00  0.00     0.127 S 
ATOM     78  O   UNL A   1      35.153  31.786  29.850  1.00  0.00    -0.237 OA
ATOM     79  O   UNL A   1      34.794  32.315  32.228  1.00  0.00    -0.237 OA
ATOM     80  O   UNL A   1      36.397  33.634  30.905  1.00  0.00    -0.744 OA
ENDBRANCH  74  77
ENDBRANCH  56  70
BRANCH  57  81
ATOM     81  C   UNL A   1      46.872  26.642  26.030  1.00  0.00     0.023 A 
ATOM     82  C   UNL A   1      47.038  26.924  24.657  1.00  0.00     0.012 A 
ATOM     83  C   UNL A   1      47.967  26.113  26.750  1.00  0.00     0.148 A 
ATOM     84  C   UNL A   1      48.246  26.657  24.010  1.00  0.00     0.002 A 
ATOM     85  C   UNL A   1      49.189  25.908  26.110  1.00  0.00     0.091 A 
ATOM     86  F   UNL A   1      47.817  25.899  28.065  1.00  0.00    -0.205 F 
ATOM     87  C   UNL A   1      49.323  26.159  24.736  1.00  0.00     0.022 A 
BRANCH  85  88
ATOM     88  S   UNL A   1      50.689  25.454  26.999  1.00  0.00     0.127 S 
ATOM     89  O   UNL A   1      50.915  26.634  27.828  1.00  0.00    -0.237 OA
ATOM     90  O   UNL A   1      50.263  24.260  27.734  1.00  0.00    -0.237 OA
ATOM     91  O   UNL A   1      51.688  25.192  25.973  1.00  0.00    -0.744 OA
ENDBRANCH  85  88
ENDBRANCH  57  81
BRANCH  69  92
ATOM     92  C   UNL A   1      40.682  23.847  27.385  1.00  0.00     0.023 A 
ATOM     93  C   UNL A   1      41.280  22.652  27.827  1.00  0.00     0.012 A 
ATOM     94  C   UNL A   1      39.528  23.813  26.590  1.00  0.00     0.148 A 
ATOM     95  C   UNL A   1      40.753  21.426  27.440  1.00  0.00     0.002 A 
ATOM     96  C   UNL A   1      38.969  22.591  26.266  1.00  0.00     0.091 A 
ATOM     97  F   UNL A   1      39.015  24.973  26.152  1.00  0.00    -0.205 F 
ATOM     98  C   UNL A   1      39.589  21.396  26.673  1.00  0.00     0.022 A 
BRANCH  96  99
ATOM     99  S   UNL A   1      37.420  22.461  25.377  1.00  0.00     0.127 S 
ATOM    100  O   UNL A   1      37.337  21.022  25.135  1.00  0.00    -0.237 OA
ATOM    101  O   UNL A   1      36.466  22.976  26.357  1.00  0.00    -0.237 OA
ATOM    102  O   UNL A   1      37.568  23.283  24.182  1.00  0.00    -0.744 OA
ENDBRANCH  96  99
ENDBRANCH  69  92
ENDBRANCH  43  44
ENDBRANCH  35  38
ENDBRANCH  33  34
ENDBRANCH   1  33
TORSDOF 16
ENDMDL
MODEL 2
REMARK VINA RESULT:     -14.3      5.073     16.406
REMARK SMILES CC1=C(C)C[C@@H](C(=O)NCCCNC(=O)c2ccc(-c3c4nc(c(-c5cccc(S(=O)(=O)[O-])c5F)c5ccc([nH]5)c(-c5cccc(S(=O)(=O)[O-])c5F)c5nc(c(-c6cccc(S(=O)(=O)[O-])c6F)c6ccc3[nH]6)C=C5)C=C4)cc2)[C@@H](C(=O)N2CCN(c3cccc(C(F)(F)F)c3)CC2)C1
REMARK SMILES IDX 11 1 10 2 9 3 7 4 8 5 6 7 1 8 2 9 3 10 98 11 4 12 5 13 79 14
REMARK SMILES IDX 80 15 81 16 82 17 83 18 97 19 84 20 96 21 85 22 86 23 87 24
REMARK SMILES IDX 95 25 88 26 90 27 89 28 91 29 92 30 93 31 94 32 12 33 13 34
REMARK SMILES IDX 14 35 15 37 16 38 17 39 78 40 18 41 77 42 19 43 20 44 21 45
REMARK SMILES IDX 71 46 22 47 76 48 70 49 72 50 23 51 75 52 69 53 68 54 24 56
REMARK SMILES IDX 56 57 36 58 55 59 37 60 40 61 54 62 73 63 38 64 39 65 53 67
REMARK SMILES IDX 74 68 41 69 25 70 26 71 34 72 27 73 29 74 35 75 28 76 30 77
REMARK SMILES IDX 31 78 32 79 33 80 57 81 58 82 66 83 59 84 61 85 67 86 60 87
REMARK SMILES IDX 62 88 63 89 64 90 65 91 42 92 43 93 51 94 44 95 46 96 52 97
REMARK SMILES IDX 45 98 47 99 48 100 49 101 50 102
REMARK H PARENT 9 6 13 36 72 55 40 66
REMARK Flexibility Score: inf
ROOT
ATOM      1  C   UNL A   1      39.536  23.149  26.833  1.00  0.00     0.042 C 
ENDROOT
BRANCH   1   2
ATOM      2  C   UNL A   1      37.614  23.699  26.143  1.00  0.00     0.117 C 
BRANCH   2   3
ATOM      3  N   UNL A   1      36.964  23.417  24.665  1.00  0.00    -0.356 N 
ATOM      4  C   UNL A   1      36.020  22.549  24.189  1.00  0.00     0.224 C 
ATOM      5  O   UNL A   1      36.141  22.163  23.022  1.00  0.00    -0.275 OA
ATOM      6  H   UNL A   1      37.334  24.003  23.967  1.00  0.00     0.163 HD
BRANCH   4   7
ATOM      7  C   UNL A   1      34.769  22.263  24.967  1.00  0.00     0.095 C 
ATOM      8  C   UNL A   1      32.657  18.751  23.368  1.00  0.00     0.039 C 
ATOM      9  C   UNL A   1      33.309  19.886  24.109  1.00  0.00    -0.074 C 
ATOM     10  C   UNL A   1      34.503  19.745  24.721  1.00  0.00    -0.074 C 
ATOM     11  C   UNL A   1      32.570  21.223  24.161  1.00  0.00     0.045 C 
ATOM     12  C   UNL A   1      35.400  18.534  24.653  1.00  0.00     0.039 C 
ATOM     13  C   UNL A   1      35.049  20.875  25.547  1.00  0.00     0.045 C 
ATOM     14  C   UNL A   1      33.438  22.504  24.236  1.00  0.00     0.095 C 
BRANCH  14  15
ATOM     15  C   UNL A   1      33.702  23.470  23.031  1.00  0.00     0.226 C 
ATOM     16  O   UNL A   1      33.916  22.997  21.911  1.00  0.00    -0.275 OA
ATOM     17  N   UNL A   1      33.322  24.794  23.162  1.00  0.00    -0.339 N 
ATOM     18  C   UNL A   1      31.841  25.419  22.160  1.00  0.00     0.141 C 
ATOM     19  C   UNL A   1      34.007  25.781  24.553  1.00  0.00     0.141 C 
ATOM     20  C   UNL A   1      30.637  26.710  23.137  1.00  0.00     0.138 C 
ATOM     21  C   UNL A   1      32.810  26.961  25.504  1.00  0.00     0.138 C 
ATOM     22  N   UNL A   1      31.360  27.728  24.610  1.00  0.00    -0.368 N 
BRANCH  22  23
ATOM     23  C   UNL A   1      31.626  29.291  24.741  1.00  0.00     0.037 A 
ATOM     24  C   UNL A   1      32.662  30.127  25.917  1.00  0.00     0.026 A 
ATOM     25  C   UNL A   1      30.310  30.104  24.100  1.00  0.00     0.039 A 
ATOM     26  C   UNL A   1      32.289  31.751  26.667  1.00  0.00     0.003 A 
ATOM     27  C   UNL A   1      29.708  31.665  24.677  1.00  0.00     0.058 A 
ATOM     28  C   UNL A   1      30.728  32.608  26.166  1.00  0.00     0.013 A 
BRANCH  27  29
ATOM     29  C   UNL A   1      28.936  31.987  23.346  1.00  0.00     0.416 C 
ATOM     30  F   UNL A   1      29.163  33.276  22.967  1.00  0.00    -0.166 F 
ATOM     31  F   UNL A   1      29.384  31.378  22.190  1.00  0.00    -0.166 F 
ATOM     32  F   UNL A   1      27.639  31.624  23.378  1.00  0.00    -0.166 F 
ENDBRANCH  27  29
ENDBRANCH  22  23
ENDBRANCH  14  15
ENDBRANCH   4   7
ENDBRANCH   2   3
ENDBRANCH   1   2
BRANCH   1  33
ATOM     33  C   UNL A   1      40.686  21.932  26.535  1.00  0.00     0.118 C 
BRANCH  33  34
ATOM     34  N   UNL A   1      41.592  22.037  25.406  1.00  0.00    -0.352 N 
ATOM     35  C   UNL A   1      42.905  22.269  25.379  1.00  0.00     0.251 C 
ATOM     36  H   UNL A   1      41.173  21.917  24.524  1.00  0.00     0.163 HD
ATOM     37  O   UNL A   1      43.601  21.896  24.448  1.00  0.00    -0.269 OA
BRANCH  35  38
ATOM     38  C   UNL A   1      43.293  23.189  26.535  1.00  0.00     0.039 A 
ATOM     39  C   UNL A   1      43.616  23.206  28.545  1.00  0.00     0.014 A 
ATOM     40  C   UNL A   1      42.776  24.667  25.723  1.00  0.00     0.014 A 
ATOM     41  C   UNL A   1      43.173  24.812  29.377  1.00  0.00     0.010 A 
ATOM     42  C   UNL A   1      42.574  26.065  26.603  1.00  0.00     0.010 A 
ATOM     43  C   UNL A   1      42.717  26.242  28.346  1.00  0.00    -0.014 A 
BRANCH  43  44
ATOM     44  C   UNL A   1      42.751  27.853  28.598  1.00  0.00     0.031 A 
ATOM     45  C   UNL A   1      44.176  28.565  28.526  1.00  0.00     0.074 A 
ATOM     46  C   UNL A   1      41.801  28.623  29.245  1.00  0.00     0.049 A 
ATOM     47  N   UNL A   1      44.522  29.787  28.888  1.00  0.00    -0.248 NA
ATOM     48  C   UNL A   1      45.359  27.765  28.121  1.00  0.00     0.031 C 
ATOM     49  C   UNL A   1      40.513  28.228  29.807  1.00  0.00     0.029 A 
ATOM     50  N   UNL A   1      41.798  29.970  29.634  1.00  0.00    -0.354 N 
ATOM     51  C   UNL A   1      45.921  29.860  28.809  1.00  0.00     0.074 A 
ATOM     52  C   UNL A   1      46.377  28.526  28.508  1.00  0.00     0.031 C 
ATOM     53  C   UNL A   1      39.829  29.221  30.348  1.00  0.00     0.029 A 
ATOM     54  C   UNL A   1      40.633  30.385  30.279  1.00  0.00     0.049 A 
ATOM     55  H   UNL A   1      42.557  30.575  29.465  1.00  0.00     0.167 HD
ATOM     56  C   UNL A   1      46.759  30.931  28.889  1.00  0.00     0.034 A 
ATOM     57  C   UNL A   1      40.143  31.512  30.826  1.00  0.00     0.034 A 
ATOM     58  C   UNL A   1      46.297  32.279  29.095  1.00  0.00     0.049 A 
ATOM     59  C   UNL A   1      40.982  32.710  30.708  1.00  0.00     0.074 A 
ATOM     60  C   UNL A   1      46.992  33.468  28.947  1.00  0.00     0.029 A 
ATOM     61  N   UNL A   1      45.018  32.614  29.507  1.00  0.00    -0.354 N 
ATOM     62  N   UNL A   1      42.229  32.769  30.334  1.00  0.00    -0.248 NA
ATOM     63  C   UNL A   1      40.342  33.992  30.999  1.00  0.00     0.031 C 
ATOM     64  C   UNL A   1      46.141  34.519  29.305  1.00  0.00     0.029 A 
ATOM     65  C   UNL A   1      44.905  33.988  29.631  1.00  0.00     0.049 A 
ATOM     66  H   UNL A   1      44.295  31.970  29.685  1.00  0.00     0.167 HD
ATOM     67  C   UNL A   1      42.528  34.111  30.308  1.00  0.00     0.074 A 
ATOM     68  C   UNL A   1      41.319  34.825  30.674  1.00  0.00     0.031 C 
ATOM     69  C   UNL A   1      43.711  34.686  30.011  1.00  0.00     0.034 A 
BRANCH  56  70
ATOM     70  C   UNL A   1      48.248  30.732  28.612  1.00  0.00     0.023 A 
ATOM     71  C   UNL A   1      48.734  30.887  27.294  1.00  0.00     0.012 A 
ATOM     72  C   UNL A   1      49.183  30.491  29.646  1.00  0.00     0.148 A 
ATOM     73  C   UNL A   1      50.090  30.738  26.997  1.00  0.00     0.002 A 
ATOM     74  C   UNL A   1      50.543  30.398  29.350  1.00  0.00     0.091 A 
ATOM     75  F   UNL A   1      48.729  30.363  30.901  1.00  0.00    -0.205 F 
ATOM     76  C   UNL A   1      50.994  30.500  28.024  1.00  0.00     0.022 A 
BRANCH  74  77
ATOM     77  S   UNL A   1      51.816  30.182  30.604  1.00  0.00     0.127 S 
ATOM     78  O   UNL A   1      51.586  31.343  31.463  1.00  0.00    -0.237 OA
ATOM     79  O   UNL A   1      51.442  28.899  31.202  1.00  0.00    -0.237 OA
ATOM     80  O   UNL A   1      53.087  30.178  29.893  1.00  0.00    -0.744 OA
ENDBRANCH  74  77
ENDBRANCH  56  70
BRANCH  57  81
ATOM     81  C   UNL A   1      38.723  31.561  31.325  1.00  0.00     0.023 A 
ATOM     82  C   UNL A   1      38.490  31.343  32.700  1.00  0.00     0.012 A 
ATOM     83  C   UNL A   1      37.645  31.988  30.515  1.00  0.00     0.148 A 
ATOM     84  C   UNL A   1      37.218  31.511  33.249  1.00  0.00     0.002 A 
ATOM     85  C   UNL A   1      36.392  32.213  31.084  1.00  0.00     0.091 A 
ATOM     86  F   UNL A   1      37.887  32.244  29.222  1.00  0.00    -0.205 F 
ATOM     87  C   UNL A   1      36.172  31.954  32.446  1.00  0.00     0.022 A 
BRANCH  85  88
ATOM     88  S   UNL A   1      35.032  32.968  30.175  1.00  0.00     0.127 S 
ATOM     89  O   UNL A   1      35.679  34.134  29.582  1.00  0.00    -0.237 OA
ATOM     90  O   UNL A   1      34.675  31.914  29.222  1.00  0.00    -0.237 OA
ATOM     91  O   UNL A   1      34.003  33.243  31.167  1.00  0.00    -0.744 OA
ENDBRANCH  85  88
ENDBRANCH  57  81
BRANCH  69  92
ATOM     92  C   UNL A   1      43.731  36.174  30.064  1.00  0.00     0.023 A 
ATOM     93  C   UNL A   1      44.095  36.828  31.257  1.00  0.00     0.012 A 
ATOM     94  C   UNL A   1      43.375  36.914  28.927  1.00  0.00     0.148 A 
ATOM     95  C   UNL A   1      44.060  38.216  31.327  1.00  0.00     0.002 A 
ATOM     96  C   UNL A   1      43.410  38.294  28.984  1.00  0.00     0.091 A 
ATOM     97  F   UNL A   1      42.992  36.252  27.826  1.00  0.00    -0.205 F 
ATOM     98  C   UNL A   1      43.733  38.948  30.187  1.00  0.00     0.022 A 
BRANCH  96  99
ATOM     99  S   UNL A   1      43.109  39.311  27.541  1.00  0.00     0.127 S 
ATOM    100  O   UNL A   1      43.343  40.654  28.071  1.00  0.00    -0.237 OA
ATOM    101  O   UNL A   1      44.131  38.830  26.615  1.00  0.00    -0.237 OA
ATOM    102  O   UNL A   1      41.738  39.037  27.131  1.00  0.00    -0.744 OA
ENDBRANCH  96  99
ENDBRANCH  69  92
ENDBRANCH  43  44
ENDBRANCH  35  38
ENDBRANCH  33  34
ENDBRANCH   1  33
TORSDOF 16
ENDMDL
MODEL 3
REMARK VINA RESULT:     -13.3      5.277     16.567
REMARK SMILES CC1=C(C)C[C@@H](C(=O)NCCCNC(=O)c2ccc(-c3c4nc(c(-c5cccc(S(=O)(=O)[O-])c5F)c5ccc([nH]5)c(-c5cccc(S(=O)(=O)[O-])c5F)c5nc(c(-c6cccc(S(=O)(=O)[O-])c6F)c6ccc3[nH]6)C=C5)C=C4)cc2)[C@@H](C(=O)N2CCN(c3cccc(C(F)(F)F)c3)CC2)C1
REMARK SMILES IDX 11 1 10 2 9 3 7 4 8 5 6 7 1 8 2 9 3 10 98 11 4 12 5 13 79 14
REMARK SMILES IDX 80 15 81 16 82 17 83 18 97 19 84 20 96 21 85 22 86 23 87 24
REMARK SMILES IDX 95 25 88 26 90 27 89 28 91 29 92 30 93 31 94 32 12 33 13 34
REMARK SMILES IDX 14 35 15 37 16 38 17 39 78 40 18 41 77 42 19 43 20 44 21 45
REMARK SMILES IDX 71 46 22 47 76 48 70 49 72 50 23 51 75 52 69 53 68 54 24 56
REMARK SMILES IDX 56 57 36 58 55 59 37 60 40 61 54 62 73 63 38 64 39 65 53 67
REMARK SMILES IDX 74 68 41 69 25 70 26 71 34 72 27 73 29 74 35 75 28 76 30 77
REMARK SMILES IDX 31 78 32 79 33 80 57 81 58 82 66 83 59 84 61 85 67 86 60 87
REMARK SMILES IDX 62 88 63 89 64 90 65 91 42 92 43 93 51 94 44 95 46 96 52 97
REMARK SMILES IDX 45 98 47 99 48 100 49 101 50 102
REMARK H PARENT 9 6 13 36 72 55 40 66
REMARK Flexibility Score: inf
ROOT
ATOM      1  C   UNL A   1      39.604  23.267  26.610  1.00  0.00     0.042 C 
ENDROOT
BRANCH   1   2
ATOM      2  C   UNL A   1      37.551  23.033  26.155  1.00  0.00     0.117 C 
BRANCH   2   3
ATOM      3  N   UNL A   1      36.822  23.217  24.700  1.00  0.00    -0.356 N 
ATOM      4  C   UNL A   1      35.765  22.609  24.080  1.00  0.00     0.224 C 
ATOM      5  O   UNL A   1      35.798  22.529  22.848  1.00  0.00    -0.275 OA
ATOM      6  H   UNL A   1      37.236  23.921  24.151  1.00  0.00     0.163 HD
BRANCH   4   7
ATOM      7  C   UNL A   1      34.515  22.267  24.838  1.00  0.00     0.095 C 
ATOM      8  C   UNL A   1      32.638  18.613  23.266  1.00  0.00     0.039 C 
ATOM      9  C   UNL A   1      33.209  19.797  23.998  1.00  0.00    -0.074 C 
ATOM     10  C   UNL A   1      34.397  19.734  24.635  1.00  0.00    -0.074 C 
ATOM     11  C   UNL A   1      32.395  21.090  24.009  1.00  0.00     0.045 C 
ATOM     12  C   UNL A   1      35.361  18.575  24.609  1.00  0.00     0.039 C 
ATOM     13  C   UNL A   1      34.861  20.908  25.451  1.00  0.00     0.045 C 
ATOM     14  C   UNL A   1      33.189  22.420  24.077  1.00  0.00     0.095 C 
BRANCH  14  15
ATOM     15  C   UNL A   1      33.423  23.377  22.859  1.00  0.00     0.226 C 
ATOM     16  O   UNL A   1      33.598  22.896  21.736  1.00  0.00    -0.275 OA
ATOM     17  N   UNL A   1      33.058  24.705  22.995  1.00  0.00    -0.339 N 
ATOM     18  C   UNL A   1      31.552  25.336  22.035  1.00  0.00     0.141 C 
ATOM     19  C   UNL A   1      33.794  25.693  24.358  1.00  0.00     0.141 C 
ATOM     20  C   UNL A   1      30.389  26.642  23.041  1.00  0.00     0.138 C 
ATOM     21  C   UNL A   1      32.636  26.888  25.339  1.00  0.00     0.138 C 
ATOM     22  N   UNL A   1      31.165  27.662  24.486  1.00  0.00    -0.368 N 
BRANCH  22  23
ATOM     23  C   UNL A   1      31.448  29.223  24.601  1.00  0.00     0.037 A 
ATOM     24  C   UNL A   1      32.474  30.064  25.782  1.00  0.00     0.026 A 
ATOM     25  C   UNL A   1      30.152  30.043  23.927  1.00  0.00     0.039 A 
ATOM     26  C   UNL A   1      32.108  31.702  26.503  1.00  0.00     0.003 A 
ATOM     27  C   UNL A   1      29.559  31.619  24.472  1.00  0.00     0.058 A 
ATOM     28  C   UNL A   1      30.566  32.570  25.965  1.00  0.00     0.013 A 
BRANCH  27  29
ATOM     29  C   UNL A   1      28.813  31.932  23.124  1.00  0.00     0.416 C 
ATOM     30  F   UNL A   1      28.024  30.880  22.765  1.00  0.00    -0.166 F 
ATOM     31  F   UNL A   1      27.825  32.896  23.155  1.00  0.00    -0.166 F 
ATOM     32  F   UNL A   1      29.629  32.387  22.154  1.00  0.00    -0.166 F 
ENDBRANCH  27  29
ENDBRANCH  22  23
ENDBRANCH  14  15
ENDBRANCH   4   7
ENDBRANCH   2   3
ENDBRANCH   1   2
BRANCH   1  33
ATOM     33  C   UNL A   1      41.021  22.326  26.580  1.00  0.00     0.118 C 
BRANCH  33  34
ATOM     34  N   UNL A   1      41.881  22.327  25.412  1.00  0.00    -0.352 N 
ATOM     35  C   UNL A   1      43.200  22.498  25.318  1.00  0.00     0.251 C 
ATOM     36  H   UNL A   1      41.419  22.178  24.555  1.00  0.00     0.163 HD
ATOM     37  O   UNL A   1      43.838  22.043  24.381  1.00  0.00    -0.269 OA
BRANCH  35  38
ATOM     38  C   UNL A   1      43.676  23.462  26.402  1.00  0.00     0.039 A 
ATOM     39  C   UNL A   1      44.279  23.534  28.346  1.00  0.00     0.014 A 
ATOM     40  C   UNL A   1      42.938  24.885  25.666  1.00  0.00     0.014 A 
ATOM     41  C   UNL A   1      43.837  25.115  29.226  1.00  0.00     0.010 A 
ATOM     42  C   UNL A   1      42.757  26.277  26.560  1.00  0.00     0.010 A 
ATOM     43  C   UNL A   1      43.132  26.490  28.264  1.00  0.00    -0.014 A 
BRANCH  43  44
ATOM     44  C   UNL A   1      43.079  28.104  28.501  1.00  0.00     0.031 A 
ATOM     45  C   UNL A   1      44.473  28.876  28.525  1.00  0.00     0.074 A 
ATOM     46  C   UNL A   1      42.052  28.836  29.070  1.00  0.00     0.049 A 
ATOM     47  N   UNL A   1      44.739  30.115  28.899  1.00  0.00    -0.248 NA
ATOM     48  C   UNL A   1      45.716  28.126  28.215  1.00  0.00     0.031 C 
ATOM     49  C   UNL A   1      40.744  28.390  29.541  1.00  0.00     0.029 A 
ATOM     50  N   UNL A   1      41.963  30.185  29.444  1.00  0.00    -0.354 N 
ATOM     51  C   UNL A   1      46.135  30.247  28.921  1.00  0.00     0.074 A 
ATOM     52  C   UNL A   1      46.669  28.933  28.668  1.00  0.00     0.031 C 
ATOM     53  C   UNL A   1      39.981  29.355  30.020  1.00  0.00     0.029 A 
ATOM     54  C   UNL A   1      40.737  30.552  29.998  1.00  0.00     0.049 A 
ATOM     55  H   UNL A   1      42.705  30.821  29.324  1.00  0.00     0.167 HD
ATOM     56  C   UNL A   1      46.919  31.354  29.051  1.00  0.00     0.034 A 
ATOM     57  C   UNL A   1      40.161  31.661  30.497  1.00  0.00     0.034 A 
ATOM     58  C   UNL A   1      46.385  32.683  29.208  1.00  0.00     0.049 A 
ATOM     59  C   UNL A   1      40.953  32.893  30.428  1.00  0.00     0.074 A 
ATOM     60  C   UNL A   1      47.038  33.899  29.100  1.00  0.00     0.029 A 
ATOM     61  N   UNL A   1      45.067  32.964  29.523  1.00  0.00    -0.354 N 
ATOM     62  N   UNL A   1      42.221  33.004  30.144  1.00  0.00    -0.248 NA
ATOM     63  C   UNL A   1      40.240  34.149  30.658  1.00  0.00     0.031 C 
ATOM     64  C   UNL A   1      46.119  34.916  29.384  1.00  0.00     0.029 A 
ATOM     65  C   UNL A   1      44.887  34.333  29.625  1.00  0.00     0.049 A 
ATOM     66  H   UNL A   1      44.361  32.291  29.655  1.00  0.00     0.167 HD
ATOM     67  C   UNL A   1      42.464  34.357  30.126  1.00  0.00     0.074 A 
ATOM     68  C   UNL A   1      41.201  35.021  30.396  1.00  0.00     0.031 C 
ATOM     69  C   UNL A   1      43.639  34.981  29.910  1.00  0.00     0.034 A 
BRANCH  56  70
ATOM     70  C   UNL A   1      48.431  31.218  28.884  1.00  0.00     0.023 A 
ATOM     71  C   UNL A   1      49.219  30.838  29.995  1.00  0.00     0.012 A 
ATOM     72  C   UNL A   1      49.069  31.364  27.630  1.00  0.00     0.148 A 
ATOM     73  C   UNL A   1      50.601  30.678  29.885  1.00  0.00     0.002 A 
ATOM     74  C   UNL A   1      50.443  31.150  27.517  1.00  0.00     0.091 A 
ATOM     75  F   UNL A   1      48.324  31.706  26.570  1.00  0.00    -0.205 F 
ATOM     76  C   UNL A   1      51.212  30.827  28.647  1.00  0.00     0.022 A 
BRANCH  74  77
ATOM     77  S   UNL A   1      51.330  31.225  25.952  1.00  0.00     0.127 S 
ATOM     78  O   UNL A   1      50.734  32.407  25.330  1.00  0.00    -0.237 OA
ATOM     79  O   UNL A   1      52.715  31.405  26.394  1.00  0.00    -0.237 OA
ATOM     80  O   UNL A   1      51.063  29.965  25.274  1.00  0.00    -0.744 OA
ENDBRANCH  74  77
ENDBRANCH  56  70
BRANCH  57  81
ATOM     81  C   UNL A   1      38.707  31.652  30.891  1.00  0.00     0.023 A 
ATOM     82  C   UNL A   1      38.386  31.477  32.253  1.00  0.00     0.012 A 
ATOM     83  C   UNL A   1      37.671  31.986  29.988  1.00  0.00     0.148 A 
ATOM     84  C   UNL A   1      37.070  31.596  32.703  1.00  0.00     0.002 A 
ATOM     85  C   UNL A   1      36.369  32.164  30.456  1.00  0.00     0.091 A 
ATOM     86  F   UNL A   1      37.994  32.202  28.705  1.00  0.00    -0.205 F 
ATOM     87  C   UNL A   1      36.064  31.949  31.809  1.00  0.00     0.022 A 
BRANCH  85  88
ATOM     88  S   UNL A   1      35.043  32.805  29.419  1.00  0.00     0.127 S 
ATOM     89  O   UNL A   1      34.163  33.423  30.407  1.00  0.00    -0.237 OA
ATOM     90  O   UNL A   1      35.754  33.749  28.555  1.00  0.00    -0.237 OA
ATOM     91  O   UNL A   1      34.503  31.650  28.716  1.00  0.00    -0.744 OA
ENDBRANCH  85  88
ENDBRANCH  57  81
BRANCH  69  92
ATOM     92  C   UNL A   1      43.592  36.469  29.949  1.00  0.00     0.023 A 
ATOM     93  C   UNL A   1      43.299  37.193  28.777  1.00  0.00     0.012 A 
ATOM     94  C   UNL A   1      43.851  37.140  31.153  1.00  0.00     0.148 A 
ATOM     95  C   UNL A   1      43.310  38.582  28.797  1.00  0.00     0.002 A 
ATOM     96  C   UNL A   1      43.791  38.520  31.180  1.00  0.00     0.091 A 
ATOM     97  F   UNL A   1      44.169  36.415  32.235  1.00  0.00    -0.205 F 
ATOM     98  C   UNL A   1      43.540  39.245  30.001  1.00  0.00     0.022 A 
BRANCH  96  99
ATOM     99  S   UNL A   1      43.968  39.447  32.703  1.00  0.00     0.127 S 
ATOM    100  O   UNL A   1      45.344  39.135  33.082  1.00  0.00    -0.237 OA
ATOM    101  O   UNL A   1      43.753  40.819  32.246  1.00  0.00    -0.237 OA
ATOM    102  O   UNL A   1      42.945  38.940  33.608  1.00  0.00    -0.744 OA
ENDBRANCH  96  99
ENDBRANCH  69  92
ENDBRANCH  43  44
ENDBRANCH  35  38
ENDBRANCH  33  34
ENDBRANCH   1  33
TORSDOF 16
ENDMDL
