MODEL 1
REMARK VINA RESULT:     -12.7      0.000      0.000
REMARK SMILES Nc1cc(C(=O)NCCCNC(=O)c2ccc(-c3c4nc(c(-c5cccc(S(=O)(=O)[O-])c5F)c5ccc([nH]5)c(-c5cccc(S(=O)(=O)[O-])c5F)c5nc(c(-c6cccc(S(=O)(=O)[O-])c6F)c6ccc3[nH]6)C=C5)C=C4)cc2)nc2ccc(F)cc12
REMARK SMILES IDX 10 1 9 2 8 3 7 4 5 5 6 6 4 8 2 9 3 10 84 11 78 12 83 13
REMARK SMILES IDX 77 14 79 15 81 16 80 17 82 18 1 19 11 22 12 23 13 25 14 26
REMARK SMILES IDX 15 27 76 28 16 29 75 30 17 31 18 32 19 33 69 34 20 35 74 36
REMARK SMILES IDX 68 37 70 38 21 39 73 40 67 41 66 42 22 44 54 45 34 46 53 47
REMARK SMILES IDX 35 48 38 49 52 50 71 51 36 52 37 53 51 55 72 56 39 57 23 58
REMARK SMILES IDX 24 59 32 60 25 61 27 62 33 63 26 64 28 65 29 66 30 67 31 68
REMARK SMILES IDX 55 69 56 70 64 71 57 72 59 73 65 74 58 75 60 76 61 77 62 78
REMARK SMILES IDX 63 79 40 80 41 81 49 82 42 83 44 84 50 85 43 86 45 87 46 88
REMARK SMILES IDX 47 89 48 90
REMARK H PARENT 7 7 1 20 1 21 11 24 70 43 38 54
REMARK Flexibility Score: inf
ROOT
ATOM      1  C   UNL A   1      37.859  21.235  25.269  1.00  0.00     0.118 C 
ENDROOT
BRANCH   1   2
ATOM      2  C   UNL A   1      36.525  20.545  24.988  1.00  0.00     0.042 C 
BRANCH   2   3
ATOM      3  C   UNL A   1      35.369  21.108  25.812  1.00  0.00     0.118 C 
BRANCH   3   4
ATOM      4  N   UNL A   1      34.176  20.293  25.679  1.00  0.00    -0.351 N 
ATOM      5  C   UNL A   1      32.920  20.525  25.168  1.00  0.00     0.269 C 
ATOM      6  O   UNL A   1      32.157  19.554  25.176  1.00  0.00    -0.268 OA
ATOM      7  H   UNL A   1      34.289  19.380  26.031  1.00  0.00     0.163 HD
BRANCH   5   8
ATOM      8  C   UNL A   1      32.445  21.839  24.597  1.00  0.00     0.130 A 
ATOM      9  C   UNL A   1      32.263  23.552  22.917  1.00  0.00     0.043 A 
ATOM     10  C   UNL A   1      32.760  22.314  23.336  1.00  0.00     0.060 A 
ATOM     11  C   UNL A   1      31.442  24.295  23.796  1.00  0.00     0.026 A 
ATOM     12  C   UNL A   1      31.213  23.753  25.079  1.00  0.00     0.073 A 
ATOM     13  C   UNL A   1      30.858  25.542  23.472  1.00  0.00     0.051 A 
ATOM     14  N   UNL A   1      31.687  22.563  25.460  1.00  0.00    -0.242 NA
ATOM     15  C   UNL A   1      30.459  24.475  25.997  1.00  0.00     0.032 A 
ATOM     16  C   UNL A   1      30.105  26.234  24.412  1.00  0.00     0.124 A 
ATOM     17  C   UNL A   1      29.906  25.716  25.679  1.00  0.00     0.041 A 
ATOM     18  F   UNL A   1      29.567  27.417  24.089  1.00  0.00    -0.207 F 
BRANCH   9  19
ATOM     19  N   UNL A   1      32.511  23.950  21.603  1.00  0.00    -0.398 N 
ATOM     20  H   UNL A   1      32.420  23.302  20.866  1.00  0.00     0.156 HD
ATOM     21  H   UNL A   1      32.777  24.878  21.412  1.00  0.00     0.156 HD
ENDBRANCH   9  19
ENDBRANCH   5   8
ENDBRANCH   3   4
ENDBRANCH   2   3
ENDBRANCH   1   2
BRANCH   1  22
ATOM     22  N   UNL A   1      38.866  20.308  25.767  1.00  0.00    -0.352 N 
ATOM     23  C   UNL A   1      40.045  20.562  26.432  1.00  0.00     0.251 C 
ATOM     24  H   UNL A   1      38.676  19.356  25.600  1.00  0.00     0.163 HD
ATOM     25  O   UNL A   1      40.858  19.661  26.591  1.00  0.00    -0.269 OA
BRANCH  23  26
ATOM     26  C   UNL A   1      40.335  21.929  26.920  1.00  0.00     0.039 A 
ATOM     27  C   UNL A   1      39.689  23.036  26.365  1.00  0.00     0.014 A 
ATOM     28  C   UNL A   1      41.281  22.104  27.934  1.00  0.00     0.014 A 
ATOM     29  C   UNL A   1      40.110  24.320  26.699  1.00  0.00     0.010 A 
ATOM     30  C   UNL A   1      41.653  23.396  28.318  1.00  0.00     0.010 A 
ATOM     31  C   UNL A   1      41.113  24.514  27.661  1.00  0.00    -0.014 A 
BRANCH  31  32
ATOM     32  C   UNL A   1      41.629  25.880  27.934  1.00  0.00     0.031 A 
ATOM     33  C   UNL A   1      42.993  26.289  27.437  1.00  0.00     0.074 A 
ATOM     34  C   UNL A   1      40.863  26.770  28.595  1.00  0.00     0.049 A 
ATOM     35  N   UNL A   1      43.627  27.420  27.608  1.00  0.00    -0.248 NA
ATOM     36  C   UNL A   1      43.746  25.299  26.644  1.00  0.00     0.031 C 
ATOM     37  C   UNL A   1      39.522  26.505  29.120  1.00  0.00     0.029 A 
ATOM     38  N   UNL A   1      41.100  28.079  28.933  1.00  0.00    -0.354 N 
ATOM     39  C   UNL A   1      44.863  27.263  26.992  1.00  0.00     0.074 A 
ATOM     40  C   UNL A   1      44.894  25.929  26.436  1.00  0.00     0.031 C 
ATOM     41  C   UNL A   1      39.043  27.623  29.687  1.00  0.00     0.029 A 
ATOM     42  C   UNL A   1      40.059  28.669  29.612  1.00  0.00     0.049 A 
ATOM     43  H   UNL A   1      41.935  28.550  28.712  1.00  0.00     0.167 HD
ATOM     44  C   UNL A   1      45.873  28.158  26.881  1.00  0.00     0.034 A 
ATOM     45  C   UNL A   1      39.941  29.906  30.130  1.00  0.00     0.034 A 
ATOM     46  C   UNL A   1      45.819  29.508  27.368  1.00  0.00     0.049 A 
ATOM     47  C   UNL A   1      41.082  30.873  29.999  1.00  0.00     0.074 A 
ATOM     48  C   UNL A   1      46.779  30.499  27.254  1.00  0.00     0.029 A 
ATOM     49  N   UNL A   1      44.750  30.061  28.052  1.00  0.00    -0.354 N 
ATOM     50  N   UNL A   1      42.217  30.723  29.361  1.00  0.00    -0.248 NA
ATOM     51  C   UNL A   1      40.927  32.180  30.655  1.00  0.00     0.031 C 
ATOM     52  C   UNL A   1      46.289  31.652  27.870  1.00  0.00     0.029 A 
ATOM     53  C   UNL A   1      45.027  31.378  28.368  1.00  0.00     0.049 A 
ATOM     54  H   UNL A   1      43.917  29.587  28.278  1.00  0.00     0.167 HD
ATOM     55  C   UNL A   1      42.908  31.916  29.532  1.00  0.00     0.074 A 
ATOM     56  C   UNL A   1      42.054  32.790  30.310  1.00  0.00     0.031 C 
ATOM     57  C   UNL A   1      44.149  32.249  29.104  1.00  0.00     0.034 A 
BRANCH  44  58
ATOM     58  C   UNL A   1      47.120  27.737  26.155  1.00  0.00     0.023 A 
ATOM     59  C   UNL A   1      48.121  27.039  26.858  1.00  0.00     0.012 A 
ATOM     60  C   UNL A   1      47.243  27.922  24.764  1.00  0.00     0.148 A 
ATOM     61  C   UNL A   1      49.230  26.528  26.185  1.00  0.00     0.002 A 
ATOM     62  C   UNL A   1      48.340  27.390  24.097  1.00  0.00     0.091 A 
ATOM     63  F   UNL A   1      46.279  28.599  24.124  1.00  0.00    -0.205 F 
ATOM     64  C   UNL A   1      49.334  26.694  24.807  1.00  0.00     0.022 A 
BRANCH  62  65
ATOM     65  S   UNL A   1      48.551  27.504  22.318  1.00  0.00     0.127 S 
ATOM     66  O   UNL A   1      49.786  28.284  22.219  1.00  0.00    -0.237 OA
ATOM     67  O   UNL A   1      48.685  26.099  21.935  1.00  0.00    -0.237 OA
ATOM     68  O   UNL A   1      47.362  28.173  21.810  1.00  0.00    -0.744 OA
ENDBRANCH  62  65
ENDBRANCH  44  58
BRANCH  45  69
ATOM     69  C   UNL A   1      38.671  30.310  30.794  1.00  0.00     0.023 A 
ATOM     70  C   UNL A   1      38.501  30.040  32.165  1.00  0.00     0.012 A 
ATOM     71  C   UNL A   1      37.660  30.990  30.091  1.00  0.00     0.148 A 
ATOM     72  C   UNL A   1      37.336  30.435  32.824  1.00  0.00     0.002 A 
ATOM     73  C   UNL A   1      36.522  31.419  30.763  1.00  0.00     0.091 A 
ATOM     74  F   UNL A   1      37.841  31.217  28.783  1.00  0.00    -0.205 F 
ATOM     75  C   UNL A   1      36.353  31.132  32.127  1.00  0.00     0.022 A 
BRANCH  73  76
ATOM     76  S   UNL A   1      35.253  32.415  29.973  1.00  0.00     0.127 S 
ATOM     77  O   UNL A   1      34.311  32.622  31.069  1.00  0.00    -0.237 OA
ATOM     78  O   UNL A   1      36.009  33.604  29.575  1.00  0.00    -0.237 OA
ATOM     79  O   UNL A   1      34.762  31.615  28.860  1.00  0.00    -0.744 OA
ENDBRANCH  73  76
ENDBRANCH  45  69
BRANCH  57  80
ATOM     80  C   UNL A   1      44.676  33.608  29.466  1.00  0.00     0.023 A 
ATOM     81  C   UNL A   1      45.413  33.759  30.656  1.00  0.00     0.012 A 
ATOM     82  C   UNL A   1      44.539  34.698  28.586  1.00  0.00     0.148 A 
ATOM     83  C   UNL A   1      46.000  34.984  30.971  1.00  0.00     0.002 A 
ATOM     84  C   UNL A   1      45.153  35.906  28.891  1.00  0.00     0.091 A 
ATOM     85  F   UNL A   1      43.821  34.528  27.466  1.00  0.00    -0.205 F 
ATOM     86  C   UNL A   1      45.880  36.052  30.085  1.00  0.00     0.022 A 
BRANCH  84  87
ATOM     87  S   UNL A   1      45.118  37.316  27.778  1.00  0.00     0.127 S 
ATOM     88  O   UNL A   1      45.548  38.401  28.659  1.00  0.00    -0.237 OA
ATOM     89  O   UNL A   1      46.096  36.932  26.760  1.00  0.00    -0.237 OA
ATOM     90  O   UNL A   1      43.748  37.411  27.295  1.00  0.00    -0.744 OA
ENDBRANCH  84  87
ENDBRANCH  57  80
ENDBRANCH  31  32
ENDBRANCH  23  26
ENDBRANCH   1  22
TORSDOF 14
ENDMDL
MODEL 2
REMARK VINA RESULT:     -12.7      6.190     11.350
REMARK SMILES Nc1cc(C(=O)NCCCNC(=O)c2ccc(-c3c4nc(c(-c5cccc(S(=O)(=O)[O-])c5F)c5ccc([nH]5)c(-c5cccc(S(=O)(=O)[O-])c5F)c5nc(c(-c6cccc(S(=O)(=O)[O-])c6F)c6ccc3[nH]6)C=C5)C=C4)cc2)nc2ccc(F)cc12
REMARK SMILES IDX 10 1 9 2 8 3 7 4 5 5 6 6 4 8 2 9 3 10 84 11 78 12 83 13
REMARK SMILES IDX 77 14 79 15 81 16 80 17 82 18 1 19 11 22 12 23 13 25 14 26
REMARK SMILES IDX 15 27 76 28 16 29 75 30 17 31 18 32 19 33 69 34 20 35 74 36
REMARK SMILES IDX 68 37 70 38 21 39 73 40 67 41 66 42 22 44 54 45 34 46 53 47
REMARK SMILES IDX 35 48 38 49 52 50 71 51 36 52 37 53 51 55 72 56 39 57 23 58
REMARK SMILES IDX 24 59 32 60 25 61 27 62 33 63 26 64 28 65 29 66 30 67 31 68
REMARK SMILES IDX 55 69 56 70 64 71 57 72 59 73 65 74 58 75 60 76 61 77 62 78
REMARK SMILES IDX 63 79 40 80 41 81 49 82 42 83 44 84 50 85 43 86 45 87 46 88
REMARK SMILES IDX 47 89 48 90
REMARK H PARENT 7 7 1 20 1 21 11 24 70 43 38 54
REMARK Flexibility Score: inf
ROOT
ATOM      1  C   UNL A   1      32.844  32.798  27.464  1.00  0.00     0.118 C 
ENDROOT
BRANCH   1   2
ATOM      2  C   UNL A   1      31.664  32.101  26.790  1.00  0.00     0.042 C 
BRANCH   2   3
ATOM      3  C   UNL A   1      31.761  30.578  26.829  1.00  0.00     0.118 C 
BRANCH   3   4
ATOM      4  N   UNL A   1      33.029  30.140  27.381  1.00  0.00    -0.351 N 
ATOM      5  C   UNL A   1      33.967  29.214  26.986  1.00  0.00     0.269 C 
ATOM      6  O   UNL A   1      34.976  29.146  27.696  1.00  0.00    -0.268 OA
ATOM      7  H   UNL A   1      33.269  30.604  28.216  1.00  0.00     0.163 HD
BRANCH   5   8
ATOM      8  C   UNL A   1      33.852  28.326  25.771  1.00  0.00     0.130 A 
ATOM      9  C   UNL A   1      33.527  27.854  23.434  1.00  0.00     0.043 A 
ATOM     10  C   UNL A   1      33.619  28.775  24.483  1.00  0.00     0.060 A 
ATOM     11  C   UNL A   1      33.677  26.478  23.714  1.00  0.00     0.026 A 
ATOM     12  C   UNL A   1      33.864  26.109  25.064  1.00  0.00     0.073 A 
ATOM     13  C   UNL A   1      33.634  25.459  22.734  1.00  0.00     0.051 A 
ATOM     14  N   UNL A   1      33.960  27.003  26.054  1.00  0.00    -0.242 NA
ATOM     15  C   UNL A   1      33.960  24.763  25.395  1.00  0.00     0.032 A 
ATOM     16  C   UNL A   1      33.739  24.122  23.099  1.00  0.00     0.124 A 
ATOM     17  C   UNL A   1      33.893  23.762  24.425  1.00  0.00     0.041 A 
ATOM     18  F   UNL A   1      33.688  23.173  22.156  1.00  0.00    -0.207 F 
BRANCH   9  19
ATOM     19  N   UNL A   1      33.400  28.348  22.135  1.00  0.00    -0.398 N 
ATOM     20  H   UNL A   1      34.204  28.542  21.601  1.00  0.00     0.156 HD
ATOM     21  H   UNL A   1      32.506  28.503  21.753  1.00  0.00     0.156 HD
ENDBRANCH   9  19
ENDBRANCH   5   8
ENDBRANCH   3   4
ENDBRANCH   2   3
ENDBRANCH   1   2
BRANCH   1  22
ATOM     22  N   UNL A   1      32.553  34.189  27.787  1.00  0.00    -0.352 N 
ATOM     23  C   UNL A   1      33.091  34.998  28.763  1.00  0.00     0.251 C 
ATOM     24  H   UNL A   1      31.867  34.614  27.223  1.00  0.00     0.163 HD
ATOM     25  O   UNL A   1      32.573  36.079  29.007  1.00  0.00    -0.269 OA
BRANCH  23  26
ATOM     26  C   UNL A   1      34.272  34.539  29.531  1.00  0.00     0.039 A 
ATOM     27  C   UNL A   1      35.558  34.659  28.999  1.00  0.00     0.014 A 
ATOM     28  C   UNL A   1      34.083  33.967  30.791  1.00  0.00     0.014 A 
ATOM     29  C   UNL A   1      36.631  34.052  29.647  1.00  0.00     0.010 A 
ATOM     30  C   UNL A   1      35.174  33.419  31.472  1.00  0.00     0.010 A 
ATOM     31  C   UNL A   1      36.446  33.405  30.879  1.00  0.00    -0.014 A 
BRANCH  31  32
ATOM     32  C   UNL A   1      37.574  32.672  31.509  1.00  0.00     0.031 A 
ATOM     33  C   UNL A   1      38.043  33.048  32.893  1.00  0.00     0.074 A 
ATOM     34  C   UNL A   1      38.157  31.645  30.861  1.00  0.00     0.049 A 
ATOM     35  N   UNL A   1      39.032  32.551  33.591  1.00  0.00    -0.248 NA
ATOM     36  C   UNL A   1      37.307  34.121  33.586  1.00  0.00     0.031 C 
ATOM     37  C   UNL A   1      37.792  31.174  29.524  1.00  0.00     0.029 A 
ATOM     38  N   UNL A   1      39.176  30.808  31.242  1.00  0.00    -0.354 N 
ATOM     39  C   UNL A   1      39.068  33.279  34.775  1.00  0.00     0.074 A 
ATOM     40  C   UNL A   1      38.000  34.250  34.709  1.00  0.00     0.031 C 
ATOM     41  C   UNL A   1      38.554  30.115  29.207  1.00  0.00     0.029 A 
ATOM     42  C   UNL A   1      39.494  29.862  30.295  1.00  0.00     0.049 A 
ATOM     43  H   UNL A   1      39.635  30.878  32.109  1.00  0.00     0.167 HD
ATOM     44  C   UNL A   1      39.903  33.136  35.831  1.00  0.00     0.034 A 
ATOM     45  C   UNL A   1      40.445  28.909  30.295  1.00  0.00     0.034 A 
ATOM     46  C   UNL A   1      40.918  32.124  35.932  1.00  0.00     0.049 A 
ATOM     47  C   UNL A   1      41.362  28.781  31.477  1.00  0.00     0.074 A 
ATOM     48  C   UNL A   1      41.776  31.875  36.989  1.00  0.00     0.029 A 
ATOM     49  N   UNL A   1      41.208  31.192  34.950  1.00  0.00    -0.354 N 
ATOM     50  N   UNL A   1      41.340  29.440  32.610  1.00  0.00    -0.248 NA
ATOM     51  C   UNL A   1      42.433  27.777  31.384  1.00  0.00     0.031 C 
ATOM     52  C   UNL A   1      42.587  30.791  36.645  1.00  0.00     0.029 A 
ATOM     53  C   UNL A   1      42.233  30.368  35.375  1.00  0.00     0.049 A 
ATOM     54  H   UNL A   1      40.752  31.127  34.081  1.00  0.00     0.167 HD
ATOM     55  C   UNL A   1      42.386  28.928  33.366  1.00  0.00     0.074 A 
ATOM     56  C   UNL A   1      43.007  27.884  32.576  1.00  0.00     0.031 C 
ATOM     57  C   UNL A   1      42.810  29.305  34.596  1.00  0.00     0.034 A 
BRANCH  44  58
ATOM     58  C   UNL A   1      39.730  34.058  37.005  1.00  0.00     0.023 A 
ATOM     59  C   UNL A   1      40.066  35.418  36.864  1.00  0.00     0.012 A 
ATOM     60  C   UNL A   1      39.125  33.607  38.194  1.00  0.00     0.148 A 
ATOM     61  C   UNL A   1      39.801  36.320  37.893  1.00  0.00     0.002 A 
ATOM     62  C   UNL A   1      38.843  34.518  39.206  1.00  0.00     0.091 A 
ATOM     63  F   UNL A   1      38.825  32.305  38.303  1.00  0.00    -0.205 F 
ATOM     64  C   UNL A   1      39.182  35.873  39.057  1.00  0.00     0.022 A 
BRANCH  62  65
ATOM     65  S   UNL A   1      38.006  34.059  40.727  1.00  0.00     0.127 S 
ATOM     66  O   UNL A   1      39.037  33.271  41.403  1.00  0.00    -0.237 OA
ATOM     67  O   UNL A   1      37.739  35.363  41.334  1.00  0.00    -0.237 OA
ATOM     68  O   UNL A   1      36.823  33.308  40.328  1.00  0.00    -0.744 OA
ENDBRANCH  62  65
ENDBRANCH  44  58
BRANCH  45  69
ATOM     69  C   UNL A   1      40.554  27.976  29.140  1.00  0.00     0.023 A 
ATOM     70  C   UNL A   1      39.692  26.864  29.075  1.00  0.00     0.012 A 
ATOM     71  C   UNL A   1      41.469  28.204  28.096  1.00  0.00     0.148 A 
ATOM     72  C   UNL A   1      39.747  25.989  27.990  1.00  0.00     0.002 A 
ATOM     73  C   UNL A   1      41.488  27.353  26.998  1.00  0.00     0.091 A 
ATOM     74  F   UNL A   1      42.290  29.260  28.192  1.00  0.00    -0.205 F 
ATOM     75  C   UNL A   1      40.636  26.239  26.949  1.00  0.00     0.022 A 
BRANCH  73  76
ATOM     76  S   UNL A   1      42.523  27.657  25.561  1.00  0.00     0.127 S 
ATOM     77  O   UNL A   1      42.258  26.473  24.747  1.00  0.00    -0.237 OA
ATOM     78  O   UNL A   1      41.959  28.903  25.042  1.00  0.00    -0.237 OA
ATOM     79  O   UNL A   1      43.881  27.779  26.073  1.00  0.00    -0.744 OA
ENDBRANCH  73  76
ENDBRANCH  45  69
BRANCH  57  80
ATOM     80  C   UNL A   1      44.005  28.602  35.173  1.00  0.00     0.023 A 
ATOM     81  C   UNL A   1      45.295  29.036  34.810  1.00  0.00     0.012 A 
ATOM     82  C   UNL A   1      43.855  27.596  36.147  1.00  0.00     0.148 A 
ATOM     83  C   UNL A   1      46.422  28.470  35.404  1.00  0.00     0.002 A 
ATOM     84  C   UNL A   1      44.982  27.060  36.757  1.00  0.00     0.091 A 
ATOM     85  F   UNL A   1      42.616  27.194  36.464  1.00  0.00    -0.205 F 
ATOM     86  C   UNL A   1      46.266  27.493  36.384  1.00  0.00     0.022 A 
BRANCH  84  87
ATOM     87  S   UNL A   1      44.880  25.850  38.081  1.00  0.00     0.127 S 
ATOM     88  O   UNL A   1      46.282  25.722  38.476  1.00  0.00    -0.237 OA
ATOM     89  O   UNL A   1      44.031  26.531  39.059  1.00  0.00    -0.237 OA
ATOM     90  O   UNL A   1      44.287  24.658  37.491  1.00  0.00    -0.744 OA
ENDBRANCH  84  87
ENDBRANCH  57  80
ENDBRANCH  31  32
ENDBRANCH  23  26
ENDBRANCH   1  22
TORSDOF 14
ENDMDL
MODEL 3
REMARK VINA RESULT:     -12.6      5.516     10.730
REMARK SMILES Nc1cc(C(=O)NCCCNC(=O)c2ccc(-c3c4nc(c(-c5cccc(S(=O)(=O)[O-])c5F)c5ccc([nH]5)c(-c5cccc(S(=O)(=O)[O-])c5F)c5nc(c(-c6cccc(S(=O)(=O)[O-])c6F)c6ccc3[nH]6)C=C5)C=C4)cc2)nc2ccc(F)cc12
REMARK SMILES IDX 10 1 9 2 8 3 7 4 5 5 6 6 4 8 2 9 3 10 84 11 78 12 83 13
REMARK SMILES IDX 77 14 79 15 81 16 80 17 82 18 1 19 11 22 12 23 13 25 14 26
REMARK SMILES IDX 15 27 76 28 16 29 75 30 17 31 18 32 19 33 69 34 20 35 74 36
REMARK SMILES IDX 68 37 70 38 21 39 73 40 67 41 66 42 22 44 54 45 34 46 53 47
REMARK SMILES IDX 35 48 38 49 52 50 71 51 36 52 37 53 51 55 72 56 39 57 23 58
REMARK SMILES IDX 24 59 32 60 25 61 27 62 33 63 26 64 28 65 29 66 30 67 31 68
REMARK SMILES IDX 55 69 56 70 64 71 57 72 59 73 65 74 58 75 60 76 61 77 62 78
REMARK SMILES IDX 63 79 40 80 41 81 49 82 42 83 44 84 50 85 43 86 45 87 46 88
REMARK SMILES IDX 47 89 48 90
REMARK H PARENT 7 7 1 20 1 21 11 24 70 43 38 54
REMARK Flexibility Score: inf
ROOT
ATOM      1  C   UNL A   1      31.958  30.826  26.806  1.00  0.00     0.118 C 
ENDROOT
BRANCH   1   2
ATOM      2  C   UNL A   1      31.597  30.438  25.374  1.00  0.00     0.042 C 
BRANCH   2   3
ATOM      3  C   UNL A   1      32.011  29.013  25.013  1.00  0.00     0.118 C 
BRANCH   3   4
ATOM      4  N   UNL A   1      31.357  28.038  25.865  1.00  0.00    -0.351 N 
ATOM      5  C   UNL A   1      31.438  26.669  25.978  1.00  0.00     0.269 C 
ATOM      6  O   UNL A   1      30.753  26.170  26.876  1.00  0.00    -0.268 OA
ATOM      7  H   UNL A   1      30.720  28.442  26.498  1.00  0.00     0.163 HD
BRANCH   5   8
ATOM      8  C   UNL A   1      32.299  25.778  25.116  1.00  0.00     0.130 A 
ATOM      9  C   UNL A   1      32.845  24.515  23.142  1.00  0.00     0.043 A 
ATOM     10  C   UNL A   1      31.966  25.346  23.844  1.00  0.00     0.060 A 
ATOM     11  C   UNL A   1      34.063  24.136  23.749  1.00  0.00     0.026 A 
ATOM     12  C   UNL A   1      34.296  24.585  25.066  1.00  0.00     0.073 A 
ATOM     13  C   UNL A   1      35.042  23.327  23.126  1.00  0.00     0.051 A 
ATOM     14  N   UNL A   1      33.450  25.387  25.720  1.00  0.00    -0.242 NA
ATOM     15  C   UNL A   1      35.455  24.190  25.725  1.00  0.00     0.032 A 
ATOM     16  C   UNL A   1      36.192  22.955  23.811  1.00  0.00     0.124 A 
ATOM     17  C   UNL A   1      36.405  23.372  25.112  1.00  0.00     0.041 A 
ATOM     18  F   UNL A   1      37.103  22.182  23.206  1.00  0.00    -0.207 F 
BRANCH   9  19
ATOM     19  N   UNL A   1      32.528  24.188  21.823  1.00  0.00    -0.398 N 
ATOM     20  H   UNL A   1      31.923  24.766  21.303  1.00  0.00     0.156 HD
ATOM     21  H   UNL A   1      32.909  23.378  21.412  1.00  0.00     0.156 HD
ENDBRANCH   9  19
ENDBRANCH   5   8
ENDBRANCH   3   4
ENDBRANCH   2   3
ENDBRANCH   1   2
BRANCH   1  22
ATOM     22  N   UNL A   1      32.041  32.270  26.982  1.00  0.00    -0.352 N 
ATOM     23  C   UNL A   1      33.008  33.027  27.607  1.00  0.00     0.251 C 
ATOM     24  H   UNL A   1      31.293  32.781  26.598  1.00  0.00     0.163 HD
ATOM     25  O   UNL A   1      32.800  34.213  27.828  1.00  0.00    -0.269 OA
BRANCH  23  26
ATOM     26  C   UNL A   1      34.276  32.394  28.036  1.00  0.00     0.039 A 
ATOM     27  C   UNL A   1      34.344  31.018  28.261  1.00  0.00     0.014 A 
ATOM     28  C   UNL A   1      35.404  33.195  28.232  1.00  0.00     0.014 A 
ATOM     29  C   UNL A   1      35.484  30.470  28.845  1.00  0.00     0.010 A 
ATOM     30  C   UNL A   1      36.571  32.630  28.754  1.00  0.00     0.010 A 
ATOM     31  C   UNL A   1      36.600  31.275  29.120  1.00  0.00    -0.014 A 
BRANCH  31  32
ATOM     32  C   UNL A   1      37.769  30.703  29.837  1.00  0.00     0.031 A 
ATOM     33  C   UNL A   1      38.013  31.051  31.285  1.00  0.00     0.074 A 
ATOM     34  C   UNL A   1      38.594  29.846  29.207  1.00  0.00     0.049 A 
ATOM     35  N   UNL A   1      38.996  30.683  32.066  1.00  0.00    -0.248 NA
ATOM     36  C   UNL A   1      37.025  31.925  31.945  1.00  0.00     0.031 C 
ATOM     37  C   UNL A   1      38.464  29.420  27.812  1.00  0.00     0.029 A 
ATOM     38  N   UNL A   1      39.702  29.173  29.658  1.00  0.00    -0.354 N 
ATOM     39  C   UNL A   1      38.775  31.315  33.284  1.00  0.00     0.074 A 
ATOM     40  C   UNL A   1      37.561  32.088  33.147  1.00  0.00     0.031 C 
ATOM     41  C   UNL A   1      39.435  28.537  27.529  1.00  0.00     0.029 A 
ATOM     42  C   UNL A   1      40.285  28.371  28.705  1.00  0.00     0.049 A 
ATOM     43  H   UNL A   1      40.047  29.256  30.576  1.00  0.00     0.167 HD
ATOM     44  C   UNL A   1      39.505  31.240  34.421  1.00  0.00     0.034 A 
ATOM     45  C   UNL A   1      41.388  27.600  28.764  1.00  0.00     0.034 A 
ATOM     46  C   UNL A   1      40.670  30.416  34.585  1.00  0.00     0.049 A 
ATOM     47  C   UNL A   1      42.183  27.545  30.037  1.00  0.00     0.074 A 
ATOM     48  C   UNL A   1      41.442  30.242  35.721  1.00  0.00     0.029 A 
ATOM     49  N   UNL A   1      41.226  29.626  33.595  1.00  0.00    -0.354 N 
ATOM     50  N   UNL A   1      41.921  28.104  31.193  1.00  0.00    -0.248 NA
ATOM     51  C   UNL A   1      43.421  26.753  30.015  1.00  0.00     0.031 C 
ATOM     52  C   UNL A   1      42.468  29.344  35.416  1.00  0.00     0.029 A 
ATOM     53  C   UNL A   1      42.333  28.962  34.092  1.00  0.00     0.049 A 
ATOM     54  H   UNL A   1      40.884  29.547  32.676  1.00  0.00     0.167 HD
ATOM     55  C   UNL A   1      42.957  27.726  32.038  1.00  0.00     0.074 A 
ATOM     56  C   UNL A   1      43.837  26.868  31.270  1.00  0.00     0.031 C 
ATOM     57  C   UNL A   1      43.173  28.078  33.328  1.00  0.00     0.034 A 
BRANCH  44  58
ATOM     58  C   UNL A   1      39.044  32.027  35.616  1.00  0.00     0.023 A 
ATOM     59  C   UNL A   1      39.235  33.423  35.633  1.00  0.00     0.012 A 
ATOM     60  C   UNL A   1      38.319  31.409  36.653  1.00  0.00     0.148 A 
ATOM     61  C   UNL A   1      38.709  34.194  36.668  1.00  0.00     0.002 A 
ATOM     62  C   UNL A   1      37.778  32.188  37.669  1.00  0.00     0.091 A 
ATOM     63  F   UNL A   1      38.162  30.078  36.614  1.00  0.00    -0.205 F 
ATOM     64  C   UNL A   1      37.974  33.579  37.678  1.00  0.00     0.022 A 
BRANCH  62  65
ATOM     65  S   UNL A   1      36.775  31.506  38.994  1.00  0.00     0.127 S 
ATOM     66  O   UNL A   1      36.519  30.153  38.501  1.00  0.00    -0.237 OA
ATOM     67  O   UNL A   1      37.687  31.577  40.135  1.00  0.00    -0.237 OA
ATOM     68  O   UNL A   1      35.597  32.357  39.088  1.00  0.00    -0.744 OA
ENDBRANCH  62  65
ENDBRANCH  44  58
BRANCH  45  69
ATOM     69  C   UNL A   1      41.786  26.789  27.581  1.00  0.00     0.023 A 
ATOM     70  C   UNL A   1      42.419  27.426  26.496  1.00  0.00     0.012 A 
ATOM     71  C   UNL A   1      41.579  25.398  27.542  1.00  0.00     0.148 A 
ATOM     72  C   UNL A   1      42.833  26.688  25.387  1.00  0.00     0.002 A 
ATOM     73  C   UNL A   1      42.033  24.663  26.454  1.00  0.00     0.091 A 
ATOM     74  F   UNL A   1      40.957  24.821  28.580  1.00  0.00    -0.205 F 
ATOM     75  C   UNL A   1      42.650  25.308  25.370  1.00  0.00     0.022 A 
BRANCH  73  76
ATOM     76  S   UNL A   1      41.937  22.870  26.393  1.00  0.00     0.127 S 
ATOM     77  O   UNL A   1      40.493  22.649  26.413  1.00  0.00    -0.237 OA
ATOM     78  O   UNL A   1      42.589  22.577  25.116  1.00  0.00    -0.237 OA
ATOM     79  O   UNL A   1      42.664  22.398  27.563  1.00  0.00    -0.744 OA
ENDBRANCH  73  76
ENDBRANCH  45  69
BRANCH  57  80
ATOM     80  C   UNL A   1      44.408  27.552  34.002  1.00  0.00     0.023 A 
ATOM     81  C   UNL A   1      45.592  28.312  33.949  1.00  0.00     0.012 A 
ATOM     82  C   UNL A   1      44.369  26.374  34.772  1.00  0.00     0.148 A 
ATOM     83  C   UNL A   1      46.726  27.901  34.647  1.00  0.00     0.002 A 
ATOM     84  C   UNL A   1      45.493  25.988  35.491  1.00  0.00     0.091 A 
ATOM     85  F   UNL A   1      43.231  25.663  34.795  1.00  0.00    -0.205 F 
ATOM     86  C   UNL A   1      46.673  26.747  35.426  1.00  0.00     0.022 A 
BRANCH  84  87
ATOM     87  S   UNL A   1      45.499  24.559  36.580  1.00  0.00     0.127 S 
ATOM     88  O   UNL A   1      46.905  24.492  36.974  1.00  0.00    -0.237 OA
ATOM     89  O   UNL A   1      44.586  24.975  37.644  1.00  0.00    -0.237 OA
ATOM     90  O   UNL A   1      45.023  23.441  35.777  1.00  0.00    -0.744 OA
ENDBRANCH  84  87
ENDBRANCH  57  80
ENDBRANCH  31  32
ENDBRANCH  23  26
ENDBRANCH   1  22
TORSDOF 14
ENDMDL
