MODEL 1
REMARK VINA RESULT:     -12.6      0.000      0.000
REMARK SMILES C[C@@H](c1cccc(O)c1)[N@H+]1[C@@H]2CC[C@H]1C[C@H](CC(=O)NCCCNC(=O)c1ccc(-c3c4nc(c(-c5cccc(S(=O)(=O)[O-])c5F)c5ccc([nH]5)c(-c5cccc(S(=O)(=O)[O-])c5F)c5nc(c(-c6cccc(S(=O)(=O)[O-])c6F)c6ccc3[nH]6)C=C5)C=C4)cc1)C2
REMARK SMILES IDX 21 1 20 2 18 3 19 4 17 6 16 7 10 8 11 9 14 10 12 12 90 13
REMARK SMILES IDX 13 14 15 15 2 16 1 17 3 18 4 19 9 20 5 21 7 22 6 23 8 24
REMARK SMILES IDX 22 26 23 27 24 28 25 29 26 31 27 32 28 33 89 34 29 35 88 36
REMARK SMILES IDX 30 37 31 38 32 39 82 40 33 41 87 42 81 43 83 44 34 45 86 46
REMARK SMILES IDX 80 47 79 48 35 50 67 51 47 52 66 53 48 54 51 55 65 56 84 57
REMARK SMILES IDX 49 58 50 59 64 61 85 62 52 63 36 64 37 65 45 66 38 67 40 68
REMARK SMILES IDX 46 69 39 70 41 71 42 72 43 73 44 74 68 75 69 76 77 77 70 78
REMARK SMILES IDX 72 79 78 80 71 81 73 82 74 83 75 84 76 85 53 86 54 87 62 88
REMARK SMILES IDX 55 89 57 90 63 91 56 92 58 93 59 94 60 95 61 96
REMARK H PARENT 20 5 10 11 8 25 24 30 83 49 51 60
REMARK Flexibility Score: inf
ROOT
ATOM      1  C   UNL A   1      31.744  30.630  26.747  1.00  0.00     0.117 C 
ENDROOT
BRANCH   1   2
ATOM      2  N   UNL A   1      32.445  30.210  25.540  1.00  0.00    -0.356 N 
ATOM      3  C   UNL A   1      33.244  29.136  25.281  1.00  0.00     0.220 C 
ATOM      4  O   UNL A   1      33.699  29.019  24.141  1.00  0.00    -0.275 OA
ATOM      5  H   UNL A   1      32.318  30.812  24.771  1.00  0.00     0.163 HD
BRANCH   3   6
ATOM      6  C   UNL A   1      33.563  28.101  26.346  1.00  0.00     0.104 C 
BRANCH   6   7
ATOM      7  C   UNL A   1      32.726  26.805  26.235  1.00  0.00     0.010 C 
ATOM      8  N   UNL A   1      30.771  25.987  24.114  1.00  0.00    -0.324 N 
ATOM      9  C   UNL A   1      31.985  25.177  24.358  1.00  0.00     0.185 C 
ATOM     10  C   UNL A   1      30.293  26.199  25.490  1.00  0.00     0.185 C 
ATOM     11  H   UNL A   1      30.079  25.528  23.522  1.00  0.00     0.349 HD
ATOM     12  C   UNL A   1      31.480  24.117  25.348  1.00  0.00     0.071 C 
ATOM     13  C   UNL A   1      33.128  26.016  24.972  1.00  0.00     0.069 C 
ATOM     14  C   UNL A   1      30.332  24.792  26.082  1.00  0.00     0.071 C 
ATOM     15  C   UNL A   1      31.226  27.131  26.274  1.00  0.00     0.069 C 
BRANCH   8  16
ATOM     16  C   UNL A   1      30.935  27.186  23.247  1.00  0.00     0.212 C 
ATOM     17  C   UNL A   1      31.224  26.751  21.789  1.00  0.00     0.081 C 
BRANCH  16  18
ATOM     18  C   UNL A   1      29.769  28.204  23.295  1.00  0.00     0.013 A 
ATOM     19  C   UNL A   1      30.017  29.589  23.272  1.00  0.00     0.010 A 
ATOM     20  C   UNL A   1      28.416  27.815  23.252  1.00  0.00     0.056 A 
ATOM     21  C   UNL A   1      28.986  30.534  23.229  1.00  0.00     0.004 A 
ATOM     22  C   UNL A   1      27.390  28.759  23.172  1.00  0.00     0.116 A 
ATOM     23  C   UNL A   1      27.662  30.119  23.170  1.00  0.00     0.046 A 
BRANCH  22  24
ATOM     24  O   UNL A   1      26.109  28.297  23.074  1.00  0.00    -0.508 OA
ATOM     25  H   UNL A   1      25.929  27.385  23.193  1.00  0.00     0.293 HD
ENDBRANCH  22  24
ENDBRANCH  16  18
ENDBRANCH   8  16
ENDBRANCH   6   7
ENDBRANCH   3   6
ENDBRANCH   1   2
BRANCH   1  26
ATOM     26  C   UNL A   1      31.624  32.151  26.855  1.00  0.00     0.042 C 
BRANCH  26  27
ATOM     27  C   UNL A   1      32.940  32.876  27.097  1.00  0.00     0.118 C 
BRANCH  27  28
ATOM     28  N   UNL A   1      32.714  34.221  27.594  1.00  0.00    -0.352 N 
ATOM     29  C   UNL A   1      33.176  34.829  28.737  1.00  0.00     0.251 C 
ATOM     30  H   UNL A   1      32.142  34.784  27.024  1.00  0.00     0.163 HD
ATOM     31  O   UNL A   1      32.617  35.856  29.119  1.00  0.00    -0.269 OA
BRANCH  29  32
ATOM     32  C   UNL A   1      34.320  34.281  29.514  1.00  0.00     0.039 A 
ATOM     33  C   UNL A   1      35.619  34.505  29.043  1.00  0.00     0.014 A 
ATOM     34  C   UNL A   1      34.135  33.474  30.640  1.00  0.00     0.014 A 
ATOM     35  C   UNL A   1      36.718  33.946  29.706  1.00  0.00     0.010 A 
ATOM     36  C   UNL A   1      35.235  32.995  31.353  1.00  0.00     0.010 A 
ATOM     37  C   UNL A   1      36.538  33.193  30.878  1.00  0.00    -0.014 A 
BRANCH  37  38
ATOM     38  C   UNL A   1      37.689  32.565  31.587  1.00  0.00     0.031 A 
ATOM     39  C   UNL A   1      38.449  31.431  30.942  1.00  0.00     0.074 A 
ATOM     40  C   UNL A   1      38.010  32.958  32.835  1.00  0.00     0.049 A 
ATOM     41  N   UNL A   1      39.435  30.717  31.422  1.00  0.00    -0.248 NA
ATOM     42  C   UNL A   1      38.027  31.025  29.589  1.00  0.00     0.031 C 
ATOM     43  C   UNL A   1      37.315  33.993  33.603  1.00  0.00     0.029 A 
ATOM     44  N   UNL A   1      38.991  32.516  33.690  1.00  0.00    -0.354 N 
ATOM     45  C   UNL A   1      39.714  29.751  30.460  1.00  0.00     0.074 A 
ATOM     46  C   UNL A   1      38.776  29.952  29.379  1.00  0.00     0.031 C 
ATOM     47  C   UNL A   1      37.895  34.112  34.809  1.00  0.00     0.029 A 
ATOM     48  C   UNL A   1      38.982  33.144  34.914  1.00  0.00     0.049 A 
ATOM     49  H   UNL A   1      39.638  31.815  33.450  1.00  0.00     0.167 HD
ATOM     50  C   UNL A   1      40.681  28.803  30.460  1.00  0.00     0.034 A 
ATOM     51  C   UNL A   1      39.761  32.959  36.000  1.00  0.00     0.034 A 
ATOM     52  C   UNL A   1      41.660  28.649  31.500  1.00  0.00     0.049 A 
ATOM     53  C   UNL A   1      40.864  31.937  35.948  1.00  0.00     0.074 A 
ATOM     54  C   UNL A   1      42.745  27.791  31.542  1.00  0.00     0.029 A 
ATOM     55  N   UNL A   1      41.675  29.370  32.685  1.00  0.00    -0.354 N 
ATOM     56  N   UNL A   1      41.213  31.146  34.962  1.00  0.00    -0.248 NA
ATOM     57  C   UNL A   1      41.708  31.807  37.146  1.00  0.00     0.031 C 
ATOM     58  C   UNL A   1      43.406  27.980  32.761  1.00  0.00     0.029 A 
ATOM     59  C   UNL A   1      42.745  28.971  33.467  1.00  0.00     0.049 A 
ATOM     60  H   UNL A   1      41.022  30.064  32.932  1.00  0.00     0.167 HD
ATOM     61  C   UNL A   1      42.337  30.458  35.405  1.00  0.00     0.074 A 
ATOM     62  C   UNL A   1      42.623  30.939  36.740  1.00  0.00     0.031 C 
ATOM     63  C   UNL A   1      43.059  29.503  34.767  1.00  0.00     0.034 A 
BRANCH  50  64
ATOM     64  C   UNL A   1      40.770  27.885  29.266  1.00  0.00     0.023 A 
ATOM     65  C   UNL A   1      39.924  26.759  29.190  1.00  0.00     0.012 A 
ATOM     66  C   UNL A   1      41.634  28.173  28.192  1.00  0.00     0.148 A 
ATOM     67  C   UNL A   1      39.961  25.917  28.079  1.00  0.00     0.002 A 
ATOM     68  C   UNL A   1      41.633  27.354  27.069  1.00  0.00     0.091 A 
ATOM     69  F   UNL A   1      42.444  29.237  28.290  1.00  0.00    -0.205 F 
ATOM     70  C   UNL A   1      40.805  26.220  27.015  1.00  0.00     0.022 A 
BRANCH  68  71
ATOM     71  S   UNL A   1      42.624  27.703  25.611  1.00  0.00     0.127 S 
ATOM     72  O   UNL A   1      42.427  26.489  24.822  1.00  0.00    -0.237 OA
ATOM     73  O   UNL A   1      41.970  28.895  25.071  1.00  0.00    -0.237 OA
ATOM     74  O   UNL A   1      43.982  27.922  26.093  1.00  0.00    -0.744 OA
ENDBRANCH  68  71
ENDBRANCH  50  64
BRANCH  51  75
ATOM     75  C   UNL A   1      39.576  33.816  37.207  1.00  0.00     0.023 A 
ATOM     76  C   UNL A   1      40.096  35.125  37.207  1.00  0.00     0.012 A 
ATOM     77  C   UNL A   1      38.883  33.353  38.342  1.00  0.00     0.148 A 
ATOM     78  C   UNL A   1      39.961  35.946  38.327  1.00  0.00     0.002 A 
ATOM     79  C   UNL A   1      38.705  34.195  39.434  1.00  0.00     0.091 A 
ATOM     80  F   UNL A   1      38.408  32.100  38.329  1.00  0.00    -0.205 F 
ATOM     81  C   UNL A   1      39.258  35.484  39.437  1.00  0.00     0.022 A 
BRANCH  79  82
ATOM     82  S   UNL A   1      37.707  33.728  40.853  1.00  0.00     0.127 S 
ATOM     83  O   UNL A   1      38.613  32.844  41.580  1.00  0.00    -0.237 OA
ATOM     84  O   UNL A   1      37.464  35.023  41.491  1.00  0.00    -0.237 OA
ATOM     85  O   UNL A   1      36.514  33.102  40.299  1.00  0.00    -0.744 OA
ENDBRANCH  79  82
ENDBRANCH  51  75
BRANCH  63  86
ATOM     86  C   UNL A   1      44.260  28.940  35.478  1.00  0.00     0.023 A 
ATOM     87  C   UNL A   1      45.523  29.539  35.306  1.00  0.00     0.012 A 
ATOM     88  C   UNL A   1      44.120  27.866  36.381  1.00  0.00     0.148 A 
ATOM     89  C   UNL A   1      46.635  29.059  35.996  1.00  0.00     0.002 A 
ATOM     90  C   UNL A   1      45.223  27.425  37.102  1.00  0.00     0.091 A 
ATOM     91  F   UNL A   1      42.914  27.297  36.517  1.00  0.00    -0.205 F 
ATOM     92  C   UNL A   1      46.483  28.012  36.902  1.00  0.00     0.022 A 
BRANCH  90  93
ATOM     93  S   UNL A   1      45.099  26.150  38.362  1.00  0.00     0.127 S 
ATOM     94  O   UNL A   1      44.123  26.732  39.281  1.00  0.00    -0.237 OA
ATOM     95  O   UNL A   1      44.610  25.002  37.597  1.00  0.00    -0.237 OA
ATOM     96  O   UNL A   1      46.444  25.986  38.898  1.00  0.00    -0.744 OA
ENDBRANCH  90  93
ENDBRANCH  63  86
ENDBRANCH  37  38
ENDBRANCH  29  32
ENDBRANCH  27  28
ENDBRANCH  26  27
ENDBRANCH   1  26
TORSDOF 17
ENDMDL
MODEL 2
REMARK VINA RESULT:     -12.2      6.724     11.731
REMARK SMILES C[C@@H](c1cccc(O)c1)[N@H+]1[C@@H]2CC[C@H]1C[C@H](CC(=O)NCCCNC(=O)c1ccc(-c3c4nc(c(-c5cccc(S(=O)(=O)[O-])c5F)c5ccc([nH]5)c(-c5cccc(S(=O)(=O)[O-])c5F)c5nc(c(-c6cccc(S(=O)(=O)[O-])c6F)c6ccc3[nH]6)C=C5)C=C4)cc1)C2
REMARK SMILES IDX 21 1 20 2 18 3 19 4 17 6 16 7 10 8 11 9 14 10 12 12 90 13
REMARK SMILES IDX 13 14 15 15 2 16 1 17 3 18 4 19 9 20 5 21 7 22 6 23 8 24
REMARK SMILES IDX 22 26 23 27 24 28 25 29 26 31 27 32 28 33 89 34 29 35 88 36
REMARK SMILES IDX 30 37 31 38 32 39 82 40 33 41 87 42 81 43 83 44 34 45 86 46
REMARK SMILES IDX 80 47 79 48 35 50 67 51 47 52 66 53 48 54 51 55 65 56 84 57
REMARK SMILES IDX 49 58 50 59 64 61 85 62 52 63 36 64 37 65 45 66 38 67 40 68
REMARK SMILES IDX 46 69 39 70 41 71 42 72 43 73 44 74 68 75 69 76 77 77 70 78
REMARK SMILES IDX 72 79 78 80 71 81 73 82 74 83 75 84 76 85 53 86 54 87 62 88
REMARK SMILES IDX 55 89 57 90 63 91 56 92 58 93 59 94 60 95 61 96
REMARK H PARENT 20 5 10 11 8 25 24 30 83 49 51 60
REMARK Flexibility Score: inf
ROOT
ATOM      1  C   UNL A   1      37.322  21.863  25.285  1.00  0.00     0.117 C 
ENDROOT
BRANCH   1   2
ATOM      2  N   UNL A   1      36.167  22.072  26.147  1.00  0.00    -0.356 N 
ATOM      3  C   UNL A   1      35.339  23.143  26.313  1.00  0.00     0.220 C 
ATOM      4  O   UNL A   1      34.410  23.034  27.115  1.00  0.00    -0.275 OA
ATOM      5  H   UNL A   1      35.941  21.298  26.713  1.00  0.00     0.163 HD
BRANCH   3   6
ATOM      6  C   UNL A   1      35.534  24.432  25.533  1.00  0.00     0.104 C 
BRANCH   6   7
ATOM      7  C   UNL A   1      34.568  24.596  24.336  1.00  0.00     0.010 C 
ATOM      8  N   UNL A   1      32.320  22.816  23.458  1.00  0.00    -0.324 N 
ATOM      9  C   UNL A   1      32.048  24.213  23.862  1.00  0.00     0.185 C 
ATOM     10  C   UNL A   1      33.481  23.002  22.570  1.00  0.00     0.185 C 
ATOM     11  H   UNL A   1      31.536  22.359  22.992  1.00  0.00     0.349 HD
ATOM     12  C   UNL A   1      32.091  24.959  22.520  1.00  0.00     0.071 C 
ATOM     13  C   UNL A   1      33.117  24.753  24.837  1.00  0.00     0.069 C 
ATOM     14  C   UNL A   1      33.025  24.133  21.650  1.00  0.00     0.071 C 
ATOM     15  C   UNL A   1      34.728  23.426  23.355  1.00  0.00     0.069 C 
BRANCH   8  16
ATOM     16  C   UNL A   1      32.443  21.818  24.554  1.00  0.00     0.212 C 
ATOM     17  C   UNL A   1      31.136  21.779  25.385  1.00  0.00     0.081 C 
BRANCH  16  18
ATOM     18  C   UNL A   1      32.854  20.392  24.111  1.00  0.00     0.013 A 
ATOM     19  C   UNL A   1      33.904  19.710  24.754  1.00  0.00     0.010 A 
ATOM     20  C   UNL A   1      32.145  19.664  23.137  1.00  0.00     0.056 A 
ATOM     21  C   UNL A   1      34.246  18.390  24.436  1.00  0.00     0.004 A 
ATOM     22  C   UNL A   1      32.463  18.335  22.847  1.00  0.00     0.116 A 
ATOM     23  C   UNL A   1      33.517  17.693  23.482  1.00  0.00     0.046 A 
BRANCH  22  24
ATOM     24  O   UNL A   1      31.690  17.682  21.932  1.00  0.00    -0.508 OA
ATOM     25  H   UNL A   1      31.986  16.875  21.557  1.00  0.00     0.293 HD
ENDBRANCH  22  24
ENDBRANCH  16  18
ENDBRANCH   8  16
ENDBRANCH   6   7
ENDBRANCH   3   6
ENDBRANCH   1   2
BRANCH   1  26
ATOM     26  C   UNL A   1      38.431  21.065  25.976  1.00  0.00     0.042 C 
BRANCH  26  27
ATOM     27  C   UNL A   1      39.070  19.989  25.112  1.00  0.00     0.118 C 
BRANCH  27  28
ATOM     28  N   UNL A   1      40.011  19.191  25.879  1.00  0.00    -0.352 N 
ATOM     29  C   UNL A   1      41.191  19.555  26.482  1.00  0.00     0.251 C 
ATOM     30  H   UNL A   1      39.765  18.244  25.982  1.00  0.00     0.163 HD
ATOM     31  O   UNL A   1      41.979  18.668  26.808  1.00  0.00    -0.269 OA
BRANCH  29  32
ATOM     32  C   UNL A   1      41.535  20.978  26.746  1.00  0.00     0.039 A 
ATOM     33  C   UNL A   1      41.910  21.789  25.667  1.00  0.00     0.014 A 
ATOM     34  C   UNL A   1      41.588  21.503  28.039  1.00  0.00     0.014 A 
ATOM     35  C   UNL A   1      42.310  23.113  25.883  1.00  0.00     0.010 A 
ATOM     36  C   UNL A   1      41.896  22.849  28.244  1.00  0.00     0.010 A 
ATOM     37  C   UNL A   1      42.295  23.662  27.175  1.00  0.00    -0.014 A 
BRANCH  37  38
ATOM     38  C   UNL A   1      42.741  25.060  27.435  1.00  0.00     0.031 A 
ATOM     39  C   UNL A   1      41.795  26.053  28.066  1.00  0.00     0.074 A 
ATOM     40  C   UNL A   1      43.966  25.463  27.043  1.00  0.00     0.049 A 
ATOM     41  N   UNL A   1      41.975  27.325  28.314  1.00  0.00    -0.248 NA
ATOM     42  C   UNL A   1      40.457  25.559  28.441  1.00  0.00     0.031 C 
ATOM     43  C   UNL A   1      44.955  24.627  26.359  1.00  0.00     0.029 A 
ATOM     44  N   UNL A   1      44.581  26.688  27.141  1.00  0.00    -0.354 N 
ATOM     45  C   UNL A   1      40.766  27.792  28.821  1.00  0.00     0.074 A 
ATOM     46  C   UNL A   1      39.850  26.674  28.821  1.00  0.00     0.031 C 
ATOM     47  C   UNL A   1      46.053  25.359  26.107  1.00  0.00     0.029 A 
ATOM     48  C   UNL A   1      45.839  26.722  26.583  1.00  0.00     0.049 A 
ATOM     49  H   UNL A   1      44.162  27.468  27.569  1.00  0.00     0.167 HD
ATOM     50  C   UNL A   1      40.454  29.030  29.275  1.00  0.00     0.034 A 
ATOM     51  C   UNL A   1      46.719  27.737  26.465  1.00  0.00     0.034 A 
ATOM     52  C   UNL A   1      41.384  30.122  29.344  1.00  0.00     0.049 A 
ATOM     53  C   UNL A   1      46.365  29.086  27.031  1.00  0.00     0.074 A 
ATOM     54  C   UNL A   1      41.196  31.381  29.887  1.00  0.00     0.029 A 
ATOM     55  N   UNL A   1      42.681  30.088  28.854  1.00  0.00    -0.354 N 
ATOM     56  N   UNL A   1      45.274  29.460  27.655  1.00  0.00    -0.248 NA
ATOM     57  C   UNL A   1      47.378  30.145  26.911  1.00  0.00     0.031 C 
ATOM     58  C   UNL A   1      42.373  32.116  29.708  1.00  0.00     0.029 A 
ATOM     59  C   UNL A   1      43.301  31.306  29.075  1.00  0.00     0.049 A 
ATOM     60  H   UNL A   1      43.099  29.313  28.415  1.00  0.00     0.167 HD
ATOM     61  C   UNL A   1      45.487  30.780  28.037  1.00  0.00     0.074 A 
ATOM     62  C   UNL A   1      46.818  31.135  27.591  1.00  0.00     0.031 C 
ATOM     63  C   UNL A   1      44.649  31.626  28.686  1.00  0.00     0.034 A 
BRANCH  50  64
ATOM     64  C   UNL A   1      39.055  29.260  29.792  1.00  0.00     0.023 A 
ATOM     65  C   UNL A   1      38.730  28.887  31.112  1.00  0.00     0.012 A 
ATOM     66  C   UNL A   1      38.087  29.909  29.000  1.00  0.00     0.148 A 
ATOM     67  C   UNL A   1      37.455  29.125  31.624  1.00  0.00     0.002 A 
ATOM     68  C   UNL A   1      36.833  30.182  29.533  1.00  0.00     0.091 A 
ATOM     69  F   UNL A   1      38.407  30.240  27.741  1.00  0.00    -0.205 F 
ATOM     70  C   UNL A   1      36.512  29.782  30.840  1.00  0.00     0.022 A 
BRANCH  68  71
ATOM     71  S   UNL A   1      35.574  31.095  28.633  1.00  0.00     0.127 S 
ATOM     72  O   UNL A   1      36.382  32.067  27.898  1.00  0.00    -0.237 OA
ATOM     73  O   UNL A   1      34.970  30.052  27.804  1.00  0.00    -0.237 OA
ATOM     74  O   UNL A   1      34.687  31.657  29.643  1.00  0.00    -0.744 OA
ENDBRANCH  68  71
ENDBRANCH  50  64
BRANCH  51  75
ATOM     75  C   UNL A   1      48.057  27.499  25.851  1.00  0.00     0.023 A 
ATOM     76  C   UNL A   1      49.136  27.129  26.677  1.00  0.00     0.012 A 
ATOM     77  C   UNL A   1      48.265  27.624  24.464  1.00  0.00     0.148 A 
ATOM     78  C   UNL A   1      50.407  26.920  26.138  1.00  0.00     0.002 A 
ATOM     79  C   UNL A   1      49.521  27.362  23.927  1.00  0.00     0.091 A 
ATOM     80  F   UNL A   1      47.230  27.992  23.696  1.00  0.00    -0.205 F 
ATOM     81  C   UNL A   1      50.597  27.028  24.764  1.00  0.00     0.022 A 
BRANCH  79  82
ATOM     82  S   UNL A   1      49.826  27.355  22.157  1.00  0.00     0.127 S 
ATOM     83  O   UNL A   1      51.223  26.937  22.096  1.00  0.00    -0.237 OA
ATOM     84  O   UNL A   1      48.862  26.359  21.687  1.00  0.00    -0.237 OA
ATOM     85  O   UNL A   1      49.548  28.714  21.710  1.00  0.00    -0.744 OA
ENDBRANCH  79  82
ENDBRANCH  51  75
BRANCH  63  86
ATOM     86  C   UNL A   1      45.155  33.009  29.000  1.00  0.00     0.023 A 
ATOM     87  C   UNL A   1      45.821  33.254  30.217  1.00  0.00     0.012 A 
ATOM     88  C   UNL A   1      45.039  34.048  28.053  1.00  0.00     0.148 A 
ATOM     89  C   UNL A   1      46.338  34.517  30.500  1.00  0.00     0.002 A 
ATOM     90  C   UNL A   1      45.599  35.290  28.322  1.00  0.00     0.091 A 
ATOM     91  F   UNL A   1      44.384  33.801  26.910  1.00  0.00    -0.205 F 
ATOM     92  C   UNL A   1      46.238  35.530  29.549  1.00  0.00     0.022 A 
BRANCH  90  93
ATOM     93  S   UNL A   1      45.605  36.622  27.116  1.00  0.00     0.127 S 
ATOM     94  O   UNL A   1      44.176  36.886  26.956  1.00  0.00    -0.237 OA
ATOM     95  O   UNL A   1      46.346  37.673  27.815  1.00  0.00    -0.237 OA
ATOM     96  O   UNL A   1      46.281  36.092  25.939  1.00  0.00    -0.744 OA
ENDBRANCH  90  93
ENDBRANCH  63  86
ENDBRANCH  37  38
ENDBRANCH  29  32
ENDBRANCH  27  28
ENDBRANCH  26  27
ENDBRANCH   1  26
TORSDOF 17
ENDMDL
MODEL 3
REMARK VINA RESULT:     -12.1      2.779      8.579
REMARK SMILES C[C@@H](c1cccc(O)c1)[N@H+]1[C@@H]2CC[C@H]1C[C@H](CC(=O)NCCCNC(=O)c1ccc(-c3c4nc(c(-c5cccc(S(=O)(=O)[O-])c5F)c5ccc([nH]5)c(-c5cccc(S(=O)(=O)[O-])c5F)c5nc(c(-c6cccc(S(=O)(=O)[O-])c6F)c6ccc3[nH]6)C=C5)C=C4)cc1)C2
REMARK SMILES IDX 21 1 20 2 18 3 19 4 17 6 16 7 10 8 11 9 14 10 12 12 90 13
REMARK SMILES IDX 13 14 15 15 2 16 1 17 3 18 4 19 9 20 5 21 7 22 6 23 8 24
REMARK SMILES IDX 22 26 23 27 24 28 25 29 26 31 27 32 28 33 89 34 29 35 88 36
REMARK SMILES IDX 30 37 31 38 32 39 82 40 33 41 87 42 81 43 83 44 34 45 86 46
REMARK SMILES IDX 80 47 79 48 35 50 67 51 47 52 66 53 48 54 51 55 65 56 84 57
REMARK SMILES IDX 49 58 50 59 64 61 85 62 52 63 36 64 37 65 45 66 38 67 40 68
REMARK SMILES IDX 46 69 39 70 41 71 42 72 43 73 44 74 68 75 69 76 77 77 70 78
REMARK SMILES IDX 72 79 78 80 71 81 73 82 74 83 75 84 76 85 53 86 54 87 62 88
REMARK SMILES IDX 55 89 57 90 63 91 56 92 58 93 59 94 60 95 61 96
REMARK H PARENT 20 5 10 11 8 25 24 30 83 49 51 60
REMARK Flexibility Score: inf
ROOT
ATOM      1  C   UNL A   1      31.620  28.938  23.107  1.00  0.00     0.117 C 
ENDROOT
BRANCH   1   2
ATOM      2  N   UNL A   1      32.367  27.786  22.619  1.00  0.00    -0.356 N 
ATOM      3  C   UNL A   1      31.993  26.497  22.378  1.00  0.00     0.220 C 
ATOM      4  O   UNL A   1      32.847  25.723  21.940  1.00  0.00    -0.275 OA
ATOM      5  H   UNL A   1      33.314  27.973  22.427  1.00  0.00     0.163 HD
BRANCH   3   6
ATOM      6  C   UNL A   1      30.573  26.017  22.622  1.00  0.00     0.104 C 
BRANCH   6   7
ATOM      7  C   UNL A   1      30.429  25.065  23.832  1.00  0.00     0.010 C 
ATOM      8  N   UNL A   1      32.549  23.990  25.660  1.00  0.00    -0.324 N 
ATOM      9  C   UNL A   1      31.459  24.833  26.200  1.00  0.00     0.185 C 
ATOM     10  C   UNL A   1      31.788  23.057  24.812  1.00  0.00     0.185 C 
ATOM     11  H   UNL A   1      33.099  23.515  26.376  1.00  0.00     0.349 HD
ATOM     12  C   UNL A   1      30.426  23.788  26.649  1.00  0.00     0.071 C 
ATOM     13  C   UNL A   1      30.870  25.776  25.128  1.00  0.00     0.069 C 
ATOM     14  C   UNL A   1      30.668  22.593  25.740  1.00  0.00     0.071 C 
ATOM     15  C   UNL A   1      31.202  23.762  23.583  1.00  0.00     0.069 C 
BRANCH   8  16
ATOM     16  C   UNL A   1      33.699  24.705  25.042  1.00  0.00     0.212 C 
ATOM     17  C   UNL A   1      34.023  25.986  25.849  1.00  0.00     0.081 C 
BRANCH  16  18
ATOM     18  C   UNL A   1      34.974  23.853  24.829  1.00  0.00     0.013 A 
ATOM     19  C   UNL A   1      35.261  23.283  23.575  1.00  0.00     0.010 A 
ATOM     20  C   UNL A   1      35.958  23.694  25.823  1.00  0.00     0.056 A 
ATOM     21  C   UNL A   1      36.445  22.578  23.326  1.00  0.00     0.004 A 
ATOM     22  C   UNL A   1      37.154  23.023  25.562  1.00  0.00     0.116 A 
ATOM     23  C   UNL A   1      37.404  22.453  24.322  1.00  0.00     0.046 A 
BRANCH  22  24
ATOM     24  O   UNL A   1      38.081  22.964  26.563  1.00  0.00    -0.508 OA
ATOM     25  H   UNL A   1      38.428  23.754  26.928  1.00  0.00     0.293 HD
ENDBRANCH  22  24
ENDBRANCH  16  18
ENDBRANCH   8  16
ENDBRANCH   6   7
ENDBRANCH   3   6
ENDBRANCH   1   2
BRANCH   1  26
ATOM     26  C   UNL A   1      31.513  28.962  24.634  1.00  0.00     0.042 C 
BRANCH  26  27
ATOM     27  C   UNL A   1      32.727  29.540  25.345  1.00  0.00     0.118 C 
BRANCH  27  28
ATOM     28  N   UNL A   1      32.458  30.880  25.837  1.00  0.00    -0.352 N 
ATOM     29  C   UNL A   1      32.997  31.552  26.908  1.00  0.00     0.251 C 
ATOM     30  H   UNL A   1      31.786  31.384  25.324  1.00  0.00     0.163 HD
ATOM     31  O   UNL A   1      32.410  32.547  27.329  1.00  0.00    -0.269 OA
BRANCH  29  32
ATOM     32  C   UNL A   1      34.258  31.110  27.562  1.00  0.00     0.039 A 
ATOM     33  C   UNL A   1      34.377  29.770  27.954  1.00  0.00     0.014 A 
ATOM     34  C   UNL A   1      35.283  32.003  27.881  1.00  0.00     0.014 A 
ATOM     35  C   UNL A   1      35.518  29.331  28.637  1.00  0.00     0.010 A 
ATOM     36  C   UNL A   1      36.459  31.546  28.478  1.00  0.00     0.010 A 
ATOM     37  C   UNL A   1      36.579  30.214  28.895  1.00  0.00    -0.014 A 
BRANCH  37  38
ATOM     38  C   UNL A   1      37.792  29.778  29.643  1.00  0.00     0.031 A 
ATOM     39  C   UNL A   1      38.057  30.306  31.033  1.00  0.00     0.074 A 
ATOM     40  C   UNL A   1      38.693  28.967  29.055  1.00  0.00     0.049 A 
ATOM     41  N   UNL A   1      39.083  30.094  31.816  1.00  0.00    -0.248 NA
ATOM     42  C   UNL A   1      37.049  31.216  31.607  1.00  0.00     0.031 C 
ATOM     43  C   UNL A   1      38.598  28.439  27.693  1.00  0.00     0.029 A 
ATOM     44  N   UNL A   1      39.884  28.462  29.521  1.00  0.00    -0.354 N 
ATOM     45  C   UNL A   1      38.872  30.880  32.945  1.00  0.00     0.074 A 
ATOM     46  C   UNL A   1      37.633  31.595  32.735  1.00  0.00     0.031 C 
ATOM     47  C   UNL A   1      39.676  27.681  27.436  1.00  0.00     0.029 A 
ATOM     48  C   UNL A   1      40.555  27.690  28.602  1.00  0.00     0.049 A 
ATOM     49  H   UNL A   1      40.225  28.637  30.428  1.00  0.00     0.167 HD
ATOM     50  C   UNL A   1      39.622  30.977  34.069  1.00  0.00     0.034 A 
ATOM     51  C   UNL A   1      41.746  27.062  28.686  1.00  0.00     0.034 A 
ATOM     52  C   UNL A   1      40.815  30.213  34.310  1.00  0.00     0.049 A 
ATOM     53  C   UNL A   1      42.529  27.141  29.968  1.00  0.00     0.074 A 
ATOM     54  C   UNL A   1      41.585  30.159  35.459  1.00  0.00     0.029 A 
ATOM     55  N   UNL A   1      41.413  29.367  33.388  1.00  0.00    -0.354 N 
ATOM     56  N   UNL A   1      42.228  27.761  31.084  1.00  0.00    -0.248 NA
ATOM     57  C   UNL A   1      43.801  26.404  30.018  1.00  0.00     0.031 C 
ATOM     58  C   UNL A   1      42.661  29.295  35.224  1.00  0.00     0.029 A 
ATOM     59  C   UNL A   1      42.546  28.794  33.938  1.00  0.00     0.049 A 
ATOM     60  H   UNL A   1      41.080  29.200  32.477  1.00  0.00     0.167 HD
ATOM     61  C   UNL A   1      43.248  27.453  31.978  1.00  0.00     0.074 A 
ATOM     62  C   UNL A   1      44.166  26.578  31.280  1.00  0.00     0.031 C 
ATOM     63  C   UNL A   1      43.416  27.872  33.257  1.00  0.00     0.034 A 
BRANCH  50  64
ATOM     64  C   UNL A   1      39.147  31.906  35.158  1.00  0.00     0.023 A 
ATOM     65  C   UNL A   1      38.204  31.448  36.101  1.00  0.00     0.012 A 
ATOM     66  C   UNL A   1      39.683  33.202  35.292  1.00  0.00     0.148 A 
ATOM     67  C   UNL A   1      37.778  32.275  37.140  1.00  0.00     0.002 A 
ATOM     68  C   UNL A   1      39.287  34.004  36.356  1.00  0.00     0.091 A 
ATOM     69  F   UNL A   1      40.565  33.627  34.376  1.00  0.00    -0.205 F 
ATOM     70  C   UNL A   1      38.327  33.547  37.274  1.00  0.00     0.022 A 
BRANCH  68  71
ATOM     71  S   UNL A   1      39.994  35.627  36.663  1.00  0.00     0.127 S 
ATOM     72  O   UNL A   1      39.332  36.006  37.911  1.00  0.00    -0.237 OA
ATOM     73  O   UNL A   1      41.418  35.323  36.797  1.00  0.00    -0.237 OA
ATOM     74  O   UNL A   1      39.653  36.440  35.503  1.00  0.00    -0.744 OA
ENDBRANCH  68  71
ENDBRANCH  50  64
BRANCH  51  75
ATOM     75  C   UNL A   1      42.238  26.235  27.546  1.00  0.00     0.023 A 
ATOM     76  C   UNL A   1      43.074  26.827  26.578  1.00  0.00     0.012 A 
ATOM     77  C   UNL A   1      41.897  24.875  27.419  1.00  0.00     0.148 A 
ATOM     78  C   UNL A   1      43.534  26.089  25.487  1.00  0.00     0.002 A 
ATOM     79  C   UNL A   1      42.404  24.132  26.359  1.00  0.00     0.091 A 
ATOM     80  F   UNL A   1      41.089  24.334  28.341  1.00  0.00    -0.205 F 
ATOM     81  C   UNL A   1      43.207  24.740  25.382  1.00  0.00     0.022 A 
BRANCH  79  82
ATOM     82  S   UNL A   1      42.136  22.361  26.213  1.00  0.00     0.127 S 
ATOM     83  O   UNL A   1      42.888  22.043  25.003  1.00  0.00    -0.237 OA
ATOM     84  O   UNL A   1      42.726  21.862  27.456  1.00  0.00    -0.237 OA
ATOM     85  O   UNL A   1      40.691  22.193  26.128  1.00  0.00    -0.744 OA
ENDBRANCH  79  82
ENDBRANCH  51  75
BRANCH  63  86
ATOM     86  C   UNL A   1      44.612  27.356  34.012  1.00  0.00     0.023 A 
ATOM     87  C   UNL A   1      45.813  28.091  34.014  1.00  0.00     0.012 A 
ATOM     88  C   UNL A   1      44.518  26.180  34.785  1.00  0.00     0.148 A 
ATOM     89  C   UNL A   1      46.912  27.650  34.749  1.00  0.00     0.002 A 
ATOM     90  C   UNL A   1      45.602  25.774  35.553  1.00  0.00     0.091 A 
ATOM     91  F   UNL A   1      43.373  25.483  34.755  1.00  0.00    -0.205 F 
ATOM     92  C   UNL A   1      46.804  26.500  35.527  1.00  0.00     0.022 A 
BRANCH  90  93
ATOM     93  S   UNL A   1      45.518  24.362  36.661  1.00  0.00     0.127 S 
ATOM     94  O   UNL A   1      45.386  23.251  35.720  1.00  0.00    -0.237 OA
ATOM     95  O   UNL A   1      46.807  24.428  37.351  1.00  0.00    -0.237 OA
ATOM     96  O   UNL A   1      44.364  24.596  37.520  1.00  0.00    -0.744 OA
ENDBRANCH  90  93
ENDBRANCH  63  86
ENDBRANCH  37  38
ENDBRANCH  29  32
ENDBRANCH  27  28
ENDBRANCH  26  27
ENDBRANCH   1  26
TORSDOF 17
ENDMDL
