MODEL 1
REMARK VINA RESULT:     -13.0      0.000      0.000
REMARK SMILES CCc1ccc(-c2cc(Cl)cc3c2O[C@H](C(F)(F)F)C(C(=O)NCCCNC(=O)c2ccc(-c4c5nc(c(-c6cccc(S(=O)(=O)[O-])c6F)c6ccc([nH]6)c(-c6cccc(S(=O)(=O)[O-])c6F)c6nc(c(-c7cccc(S(=O)(=O)[O-])c7F)c7ccc4[nH]7)C=C6)C=C5)cc2)=C3)cc1
REMARK SMILES IDX 25 1 24 2 23 3 21 4 22 5 20 7 7 8 8 9 13 10 9 11 12 12 14 13
REMARK SMILES IDX 10 14 11 15 93 16 15 17 6 18 3 19 4 20 95 21 5 22 94 23 2 24
REMARK SMILES IDX 1 25 16 26 17 27 18 28 19 29 26 30 27 31 28 32 29 34 30 35
REMARK SMILES IDX 31 36 92 37 32 38 91 39 33 40 34 41 35 42 85 43 36 44 90 45
REMARK SMILES IDX 84 46 86 47 37 48 89 49 83 50 82 51 38 53 70 54 50 55 69 56
REMARK SMILES IDX 51 57 54 58 68 59 87 60 52 61 53 62 67 64 88 65 55 66 39 67
REMARK SMILES IDX 40 68 48 69 41 70 43 71 49 72 42 73 44 74 45 75 46 76 47 77
REMARK SMILES IDX 71 78 72 79 80 80 73 81 75 82 81 83 74 84 76 85 77 86 78 87
REMARK SMILES IDX 79 88 56 89 57 90 65 91 58 92 60 93 66 94 59 95 61 96 62 97
REMARK SMILES IDX 63 98 64 99
REMARK H PARENT 23 6 27 33 86 52 54 63
REMARK Flexibility Score: inf
ROOT
ATOM      1  C   UNL A   1      33.016  29.280  24.983  1.00  0.00     0.042 C 
ENDROOT
BRANCH   1   2
ATOM      2  C   UNL A   1      33.552  28.296  23.940  1.00  0.00     0.118 C 
BRANCH   2   3
ATOM      3  N   UNL A   1      34.207  27.182  24.595  1.00  0.00    -0.352 N 
ATOM      4  C   UNL A   1      33.680  25.958  24.841  1.00  0.00     0.251 C 
ATOM      5  O   UNL A   1      33.934  25.386  25.895  1.00  0.00    -0.270 OA
ATOM      6  H   UNL A   1      35.133  27.331  24.894  1.00  0.00     0.163 HD
BRANCH   4   7
ATOM      7  C   UNL A   1      32.939  25.297  23.725  1.00  0.00     0.067 C 
ATOM      8  C   UNL A   1      33.786  21.396  24.532  1.00  0.00     0.026 A 
ATOM      9  C   UNL A   1      35.170  21.307  24.832  1.00  0.00     0.033 A 
ATOM     10  C   UNL A   1      33.347  22.599  23.958  1.00  0.00     0.135 A 
ATOM     11  C   UNL A   1      36.084  22.275  24.422  1.00  0.00     0.042 A 
ATOM     12  C   UNL A   1      34.300  23.513  23.446  1.00  0.00     0.019 A 
ATOM     13  O   UNL A   1      32.010  22.956  23.892  1.00  0.00    -0.475 OA
ATOM     14  Cl  UNL A   1      37.749  22.097  24.816  1.00  0.00    -0.084 Cl
ATOM     15  C   UNL A   1      35.663  23.352  23.664  1.00  0.00     0.032 A 
ATOM     16  C   UNL A   1      33.786  24.756  22.826  1.00  0.00     0.025 C 
ATOM     17  C   UNL A   1      31.783  24.406  24.171  1.00  0.00     0.314 C 
BRANCH   8  18
ATOM     18  C   UNL A   1      33.038  20.115  24.610  1.00  0.00    -0.015 A 
ATOM     19  C   UNL A   1      32.788  17.277  24.663  1.00  0.00    -0.048 A 
ATOM     20  C   UNL A   1      32.816  18.012  25.852  1.00  0.00     0.004 A 
ATOM     21  C   UNL A   1      32.724  17.989  23.456  1.00  0.00     0.004 A 
ATOM     22  C   UNL A   1      32.921  19.413  25.825  1.00  0.00     0.009 A 
ATOM     23  C   UNL A   1      32.835  19.386  23.428  1.00  0.00     0.009 A 
BRANCH  19  24
ATOM     24  C   UNL A   1      32.902  15.769  24.596  1.00  0.00     0.032 C 
ATOM     25  C   UNL A   1      32.279  14.960  25.728  1.00  0.00     0.009 C 
ENDBRANCH  19  24
ENDBRANCH   8  18
BRANCH  17  26
ATOM     26  C   UNL A   1      30.484  24.908  23.504  1.00  0.00     0.429 C 
ATOM     27  F   UNL A   1      30.712  25.858  22.569  1.00  0.00    -0.167 F 
ATOM     28  F   UNL A   1      29.816  23.896  22.901  1.00  0.00    -0.167 F 
ATOM     29  F   UNL A   1      29.619  25.455  24.399  1.00  0.00    -0.167 F 
ENDBRANCH  17  26
ENDBRANCH   4   7
ENDBRANCH   2   3
ENDBRANCH   1   2
BRANCH   1  30
ATOM     30  C   UNL A   1      33.833  29.358  26.271  1.00  0.00     0.118 C 
BRANCH  30  31
ATOM     31  N   UNL A   1      33.759  30.658  26.921  1.00  0.00    -0.352 N 
ATOM     32  C   UNL A   1      34.587  31.193  27.879  1.00  0.00     0.251 C 
ATOM     33  H   UNL A   1      33.012  31.233  26.637  1.00  0.00     0.163 HD
ATOM     34  O   UNL A   1      34.294  32.257  28.419  1.00  0.00    -0.269 OA
BRANCH  32  35
ATOM     35  C   UNL A   1      35.813  30.469  28.275  1.00  0.00     0.039 A 
ATOM     36  C   UNL A   1      36.959  30.598  27.487  1.00  0.00     0.014 A 
ATOM     37  C   UNL A   1      35.840  29.688  29.434  1.00  0.00     0.014 A 
ATOM     38  C   UNL A   1      38.153  30.004  27.901  1.00  0.00     0.010 A 
ATOM     39  C   UNL A   1      37.049  29.162  29.884  1.00  0.00     0.010 A 
ATOM     40  C   UNL A   1      38.220  29.315  29.124  1.00  0.00    -0.014 A 
BRANCH  40  41
ATOM     41  C   UNL A   1      39.505  28.772  29.640  1.00  0.00     0.031 A 
ATOM     42  C   UNL A   1      40.235  29.474  30.753  1.00  0.00     0.074 A 
ATOM     43  C   UNL A   1      40.065  27.703  29.037  1.00  0.00     0.049 A 
ATOM     44  N   UNL A   1      41.399  29.194  31.279  1.00  0.00    -0.248 NA
ATOM     45  C   UNL A   1      39.588  30.663  31.334  1.00  0.00     0.031 C 
ATOM     46  C   UNL A   1      39.503  26.986  27.890  1.00  0.00     0.029 A 
ATOM     47  N   UNL A   1      41.248  27.051  29.283  1.00  0.00    -0.354 N 
ATOM     48  C   UNL A   1      41.644  30.191  32.216  1.00  0.00     0.074 A 
ATOM     49  C   UNL A   1      40.520  31.099  32.170  1.00  0.00     0.031 C 
ATOM     50  C   UNL A   1      40.340  25.998  27.532  1.00  0.00     0.029 A 
ATOM     51  C   UNL A   1      41.511  26.028  28.400  1.00  0.00     0.049 A 
ATOM     52  H   UNL A   1      41.852  27.293  30.022  1.00  0.00     0.167 HD
ATOM     53  C   UNL A   1      42.695  30.324  33.060  1.00  0.00     0.034 A 
ATOM     54  C   UNL A   1      42.580  25.214  28.294  1.00  0.00     0.034 A 
ATOM     55  C   UNL A   1      43.783  29.388  33.145  1.00  0.00     0.049 A 
ATOM     56  C   UNL A   1      43.707  25.351  29.283  1.00  0.00     0.074 A 
ATOM     57  C   UNL A   1      44.838  29.378  34.041  1.00  0.00     0.029 A 
ATOM     58  N   UNL A   1      43.962  28.302  32.304  1.00  0.00    -0.354 N 
ATOM     59  N   UNL A   1      43.833  26.196  30.277  1.00  0.00    -0.248 NA
ATOM     60  C   UNL A   1      44.821  24.399  29.160  1.00  0.00     0.031 C 
ATOM     61  C   UNL A   1      45.669  28.298  33.726  1.00  0.00     0.029 A 
ATOM     62  C   UNL A   1      45.115  27.619  32.653  1.00  0.00     0.049 A 
ATOM     63  H   UNL A   1      43.358  28.051  31.568  1.00  0.00     0.167 HD
ATOM     64  C   UNL A   1      45.018  25.855  30.919  1.00  0.00     0.074 A 
ATOM     65  C   UNL A   1      45.560  24.711  30.217  1.00  0.00     0.031 C 
ATOM     66  C   UNL A   1      45.612  26.446  31.984  1.00  0.00     0.034 A 
BRANCH  53  67
ATOM     67  C   UNL A   1      42.700  31.496  34.006  1.00  0.00     0.023 A 
ATOM     68  C   UNL A   1      43.248  32.725  33.585  1.00  0.00     0.012 A 
ATOM     69  C   UNL A   1      42.086  31.409  35.271  1.00  0.00     0.148 A 
ATOM     70  C   UNL A   1      43.209  33.842  34.420  1.00  0.00     0.002 A 
ATOM     71  C   UNL A   1      42.012  32.538  36.078  1.00  0.00     0.091 A 
ATOM     72  F   UNL A   1      41.587  30.227  35.658  1.00  0.00    -0.205 F 
ATOM     73  C   UNL A   1      42.582  33.752  35.659  1.00  0.00     0.022 A 
BRANCH  71  74
ATOM     74  S   UNL A   1      41.152  32.550  37.656  1.00  0.00     0.127 S 
ATOM     75  O   UNL A   1      39.843  32.014  37.283  1.00  0.00    -0.237 OA
ATOM     76  O   UNL A   1      41.974  31.647  38.460  1.00  0.00    -0.237 OA
ATOM     77  O   UNL A   1      41.151  33.936  38.104  1.00  0.00    -0.744 OA
ENDBRANCH  71  74
ENDBRANCH  53  67
BRANCH  54  78
ATOM     78  C   UNL A   1      42.618  24.158  27.241  1.00  0.00     0.023 A 
ATOM     79  C   UNL A   1      43.257  24.423  26.014  1.00  0.00     0.012 A 
ATOM     80  C   UNL A   1      42.032  22.894  27.448  1.00  0.00     0.148 A 
ATOM     81  C   UNL A   1      43.276  23.466  24.998  1.00  0.00     0.002 A 
ATOM     82  C   UNL A   1      42.106  21.925  26.454  1.00  0.00     0.091 A 
ATOM     83  F   UNL A   1      41.416  22.662  28.616  1.00  0.00    -0.205 F 
ATOM     84  C   UNL A   1      42.709  22.215  25.221  1.00  0.00     0.022 A 
BRANCH  82  85
ATOM     85  S   UNL A   1      41.523  20.245  26.711  1.00  0.00     0.127 S 
ATOM     86  O   UNL A   1      40.091  20.453  26.917  1.00  0.00    -0.237 OA
ATOM     87  O   UNL A   1      41.876  19.603  25.444  1.00  0.00    -0.237 OA
ATOM     88  O   UNL A   1      42.267  19.746  27.859  1.00  0.00    -0.744 OA
ENDBRANCH  82  85
ENDBRANCH  54  78
BRANCH  66  89
ATOM     89  C   UNL A   1      46.898  25.849  32.491  1.00  0.00     0.023 A 
ATOM     90  C   UNL A   1      48.133  26.324  32.006  1.00  0.00     0.012 A 
ATOM     91  C   UNL A   1      46.884  24.873  33.507  1.00  0.00     0.148 A 
ATOM     92  C   UNL A   1      49.333  25.815  32.501  1.00  0.00     0.002 A 
ATOM     93  C   UNL A   1      48.083  24.407  34.032  1.00  0.00     0.091 A 
ATOM     94  F   UNL A   1      45.699  24.421  33.943  1.00  0.00    -0.205 F 
ATOM     95  C   UNL A   1      49.307  24.867  33.521  1.00  0.00     0.022 A 
BRANCH  93  96
ATOM     96  S   UNL A   1      48.149  23.261  35.413  1.00  0.00     0.127 S 
ATOM     97  O   UNL A   1      49.563  22.895  35.431  1.00  0.00    -0.237 OA
ATOM     98  O   UNL A   1      47.721  24.100  36.534  1.00  0.00    -0.237 OA
ATOM     99  O   UNL A   1      47.228  22.180  35.082  1.00  0.00    -0.744 OA
ENDBRANCH  93  96
ENDBRANCH  66  89
ENDBRANCH  40  41
ENDBRANCH  32  35
ENDBRANCH  30  31
ENDBRANCH   1  30
TORSDOF 16
ENDMDL
MODEL 2
REMARK VINA RESULT:     -12.8      3.937      8.816
REMARK SMILES CCc1ccc(-c2cc(Cl)cc3c2O[C@H](C(F)(F)F)C(C(=O)NCCCNC(=O)c2ccc(-c4c5nc(c(-c6cccc(S(=O)(=O)[O-])c6F)c6ccc([nH]6)c(-c6cccc(S(=O)(=O)[O-])c6F)c6nc(c(-c7cccc(S(=O)(=O)[O-])c7F)c7ccc4[nH]7)C=C6)C=C5)cc2)=C3)cc1
REMARK SMILES IDX 25 1 24 2 23 3 21 4 22 5 20 7 7 8 8 9 13 10 9 11 12 12 14 13
REMARK SMILES IDX 10 14 11 15 93 16 15 17 6 18 3 19 4 20 95 21 5 22 94 23 2 24
REMARK SMILES IDX 1 25 16 26 17 27 18 28 19 29 26 30 27 31 28 32 29 34 30 35
REMARK SMILES IDX 31 36 92 37 32 38 91 39 33 40 34 41 35 42 85 43 36 44 90 45
REMARK SMILES IDX 84 46 86 47 37 48 89 49 83 50 82 51 38 53 70 54 50 55 69 56
REMARK SMILES IDX 51 57 54 58 68 59 87 60 52 61 53 62 67 64 88 65 55 66 39 67
REMARK SMILES IDX 40 68 48 69 41 70 43 71 49 72 42 73 44 74 45 75 46 76 47 77
REMARK SMILES IDX 71 78 72 79 80 80 73 81 75 82 81 83 74 84 76 85 77 86 78 87
REMARK SMILES IDX 79 88 56 89 57 90 65 91 58 92 60 93 66 94 59 95 61 96 62 97
REMARK SMILES IDX 63 98 64 99
REMARK H PARENT 23 6 27 33 86 52 54 63
REMARK Flexibility Score: inf
ROOT
ATOM      1  C   UNL A   1      31.630  32.929  26.287  1.00  0.00     0.042 C 
ENDROOT
BRANCH   1   2
ATOM      2  C   UNL A   1      30.822  31.653  26.531  1.00  0.00     0.118 C 
BRANCH   2   3
ATOM      3  N   UNL A   1      31.128  30.666  25.515  1.00  0.00    -0.352 N 
ATOM      4  C   UNL A   1      32.281  29.968  25.379  1.00  0.00     0.251 C 
ATOM      5  O   UNL A   1      32.730  29.745  24.261  1.00  0.00    -0.270 OA
ATOM      6  H   UNL A   1      30.423  30.485  24.852  1.00  0.00     0.163 HD
BRANCH   4   7
ATOM      7  C   UNL A   1      32.862  29.362  26.615  1.00  0.00     0.067 C 
ATOM      8  C   UNL A   1      33.505  25.562  25.298  1.00  0.00     0.026 A 
ATOM      9  C   UNL A   1      32.349  25.150  24.586  1.00  0.00     0.033 A 
ATOM     10  C   UNL A   1      33.381  26.729  26.068  1.00  0.00     0.135 A 
ATOM     11  C   UNL A   1      31.107  25.753  24.769  1.00  0.00     0.042 A 
ATOM     12  C   UNL A   1      32.094  27.254  26.332  1.00  0.00     0.019 A 
ATOM     13  O   UNL A   1      34.474  27.421  26.564  1.00  0.00    -0.475 OA
ATOM     14  Cl  UNL A   1      29.748  25.195  23.876  1.00  0.00    -0.084 Cl
ATOM     15  C   UNL A   1      30.957  26.766  25.698  1.00  0.00     0.032 A 
ATOM     16  C   UNL A   1      32.013  28.473  27.170  1.00  0.00     0.025 C 
ATOM     17  C   UNL A   1      34.310  28.903  26.477  1.00  0.00     0.314 C 
BRANCH   8  18
ATOM     18  C   UNL A   1      34.603  24.562  25.356  1.00  0.00    -0.015 A 
ATOM     19  C   UNL A   1      35.730  21.957  25.113  1.00  0.00    -0.048 A 
ATOM     20  C   UNL A   1      35.830  22.877  24.065  1.00  0.00     0.004 A 
ATOM     21  C   UNL A   1      35.206  22.410  26.333  1.00  0.00     0.004 A 
ATOM     22  C   UNL A   1      35.290  24.168  24.192  1.00  0.00     0.009 A 
ATOM     23  C   UNL A   1      34.661  23.696  26.458  1.00  0.00     0.009 A 
BRANCH  19  24
ATOM     24  C   UNL A   1      36.078  20.489  24.988  1.00  0.00     0.032 C 
ATOM     25  C   UNL A   1      37.554  20.107  25.003  1.00  0.00     0.009 C 
ENDBRANCH  19  24
ENDBRANCH   8  18
BRANCH  17  26
ATOM     26  C   UNL A   1      35.163  29.624  27.543  1.00  0.00     0.429 C 
ATOM     27  F   UNL A   1      36.309  30.135  27.036  1.00  0.00    -0.167 F 
ATOM     28  F   UNL A   1      34.480  30.645  28.113  1.00  0.00    -0.167 F 
ATOM     29  F   UNL A   1      35.533  28.799  28.559  1.00  0.00    -0.167 F 
ENDBRANCH  17  26
ENDBRANCH   4   7
ENDBRANCH   2   3
ENDBRANCH   1   2
BRANCH   1  30
ATOM     30  C   UNL A   1      32.736  33.194  27.307  1.00  0.00     0.118 C 
BRANCH  30  31
ATOM     31  N   UNL A   1      32.648  34.510  27.923  1.00  0.00    -0.352 N 
ATOM     32  C   UNL A   1      33.378  35.025  28.967  1.00  0.00     0.251 C 
ATOM     33  H   UNL A   1      31.972  35.114  27.538  1.00  0.00     0.163 HD
ATOM     34  O   UNL A   1      33.075  36.113  29.450  1.00  0.00    -0.269 OA
BRANCH  32  35
ATOM     35  C   UNL A   1      34.507  34.251  29.524  1.00  0.00     0.039 A 
ATOM     36  C   UNL A   1      35.798  34.507  29.057  1.00  0.00     0.014 A 
ATOM     37  C   UNL A   1      34.296  33.296  30.523  1.00  0.00     0.014 A 
ATOM     38  C   UNL A   1      36.887  33.858  29.644  1.00  0.00     0.010 A 
ATOM     39  C   UNL A   1      35.388  32.709  31.158  1.00  0.00     0.010 A 
ATOM     40  C   UNL A   1      36.696  32.984  30.728  1.00  0.00    -0.014 A 
BRANCH  40  41
ATOM     41  C   UNL A   1      37.848  32.370  31.441  1.00  0.00     0.031 A 
ATOM     42  C   UNL A   1      38.613  31.236  30.813  1.00  0.00     0.074 A 
ATOM     43  C   UNL A   1      38.141  32.767  32.696  1.00  0.00     0.049 A 
ATOM     44  N   UNL A   1      39.592  30.528  31.312  1.00  0.00    -0.248 NA
ATOM     45  C   UNL A   1      38.208  30.824  29.459  1.00  0.00     0.031 C 
ATOM     46  C   UNL A   1      37.420  33.794  33.451  1.00  0.00     0.029 A 
ATOM     47  N   UNL A   1      39.104  32.331  33.573  1.00  0.00    -0.354 N 
ATOM     48  C   UNL A   1      39.890  29.563  30.358  1.00  0.00     0.074 A 
ATOM     49  C   UNL A   1      38.971  29.757  29.259  1.00  0.00     0.031 C 
ATOM     50  C   UNL A   1      37.962  33.906  34.675  1.00  0.00     0.029 A 
ATOM     51  C   UNL A   1      39.048  32.942  34.805  1.00  0.00     0.049 A 
ATOM     52  H   UNL A   1      39.772  31.645  33.342  1.00  0.00     0.167 HD
ATOM     53  C   UNL A   1      40.860  28.617  30.380  1.00  0.00     0.034 A 
ATOM     54  C   UNL A   1      39.781  32.740  35.919  1.00  0.00     0.034 A 
ATOM     55  C   UNL A   1      41.810  28.462  31.448  1.00  0.00     0.049 A 
ATOM     56  C   UNL A   1      40.888  31.720  35.892  1.00  0.00     0.074 A 
ATOM     57  C   UNL A   1      42.895  27.606  31.513  1.00  0.00     0.029 A 
ATOM     58  N   UNL A   1      41.788  29.172  32.637  1.00  0.00    -0.354 N 
ATOM     59  N   UNL A   1      41.265  30.938  34.911  1.00  0.00    -0.248 NA
ATOM     60  C   UNL A   1      41.696  31.582  37.113  1.00  0.00     0.031 C 
ATOM     61  C   UNL A   1      43.517  27.781  32.753  1.00  0.00     0.029 A 
ATOM     62  C   UNL A   1      42.835  28.768  33.448  1.00  0.00     0.049 A 
ATOM     63  H   UNL A   1      41.127  29.864  32.870  1.00  0.00     0.167 HD
ATOM     64  C   UNL A   1      42.373  30.243  35.382  1.00  0.00     0.074 A 
ATOM     65  C   UNL A   1      42.622  30.715  36.727  1.00  0.00     0.031 C 
ATOM     66  C   UNL A   1      43.109  29.288  34.761  1.00  0.00     0.034 A 
BRANCH  53  67
ATOM     67  C   UNL A   1      40.985  27.704  29.189  1.00  0.00     0.023 A 
ATOM     68  C   UNL A   1      40.239  26.508  29.149  1.00  0.00     0.012 A 
ATOM     69  C   UNL A   1      41.768  28.068  28.076  1.00  0.00     0.148 A 
ATOM     70  C   UNL A   1      40.291  25.676  28.031  1.00  0.00     0.002 A 
ATOM     71  C   UNL A   1      41.779  27.256  26.948  1.00  0.00     0.091 A 
ATOM     72  F   UNL A   1      42.483  29.200  28.141  1.00  0.00    -0.205 F 
ATOM     73  C   UNL A   1      41.050  26.055  26.928  1.00  0.00     0.022 A 
BRANCH  71  74
ATOM     74  S   UNL A   1      42.657  27.694  25.443  1.00  0.00     0.127 S 
ATOM     75  O   UNL A   1      42.447  26.502  24.621  1.00  0.00    -0.237 OA
ATOM     76  O   UNL A   1      41.927  28.879  24.995  1.00  0.00    -0.237 OA
ATOM     77  O   UNL A   1      44.037  27.940  25.838  1.00  0.00    -0.744 OA
ENDBRANCH  71  74
ENDBRANCH  53  67
BRANCH  54  78
ATOM     78  C   UNL A   1      39.528  33.556  37.142  1.00  0.00     0.023 A 
ATOM     79  C   UNL A   1      40.083  34.846  37.243  1.00  0.00     0.012 A 
ATOM     80  C   UNL A   1      38.739  33.065  38.201  1.00  0.00     0.148 A 
ATOM     81  C   UNL A   1      39.893  35.617  38.390  1.00  0.00     0.002 A 
ATOM     82  C   UNL A   1      38.505  33.861  39.316  1.00  0.00     0.091 A 
ATOM     83  F   UNL A   1      38.230  31.830  38.096  1.00  0.00    -0.205 F 
ATOM     84  C   UNL A   1      39.097  35.129  39.423  1.00  0.00     0.022 A 
BRANCH  82  85
ATOM     85  S   UNL A   1      37.383  33.365  40.628  1.00  0.00     0.127 S 
ATOM     86  O   UNL A   1      37.238  34.606  41.384  1.00  0.00    -0.237 OA
ATOM     87  O   UNL A   1      36.195  32.959  39.875  1.00  0.00    -0.237 OA
ATOM     88  O   UNL A   1      38.052  32.271  41.319  1.00  0.00    -0.744 OA
ENDBRANCH  82  85
ENDBRANCH  54  78
BRANCH  66  89
ATOM     89  C   UNL A   1      44.282  28.711  35.508  1.00  0.00     0.023 A 
ATOM     90  C   UNL A   1      45.569  29.255  35.323  1.00  0.00     0.012 A 
ATOM     91  C   UNL A   1      44.095  27.684  36.454  1.00  0.00     0.148 A 
ATOM     92  C   UNL A   1      46.656  28.764  36.044  1.00  0.00     0.002 A 
ATOM     93  C   UNL A   1      45.173  27.233  37.205  1.00  0.00     0.091 A 
ATOM     94  F   UNL A   1      42.866  27.167  36.602  1.00  0.00    -0.205 F 
ATOM     95  C   UNL A   1      46.456  27.764  36.993  1.00  0.00     0.022 A 
BRANCH  93  96
ATOM     96  S   UNL A   1      44.993  26.020  38.517  1.00  0.00     0.127 S 
ATOM     97  O   UNL A   1      44.042  26.682  39.407  1.00  0.00    -0.237 OA
ATOM     98  O   UNL A   1      44.455  24.864  37.799  1.00  0.00    -0.237 OA
ATOM     99  O   UNL A   1      46.329  25.821  39.066  1.00  0.00    -0.744 OA
ENDBRANCH  93  96
ENDBRANCH  66  89
ENDBRANCH  40  41
ENDBRANCH  32  35
ENDBRANCH  30  31
ENDBRANCH   1  30
TORSDOF 16
ENDMDL
MODEL 3
REMARK VINA RESULT:     -12.3      3.137      4.304
REMARK SMILES CCc1ccc(-c2cc(Cl)cc3c2O[C@H](C(F)(F)F)C(C(=O)NCCCNC(=O)c2ccc(-c4c5nc(c(-c6cccc(S(=O)(=O)[O-])c6F)c6ccc([nH]6)c(-c6cccc(S(=O)(=O)[O-])c6F)c6nc(c(-c7cccc(S(=O)(=O)[O-])c7F)c7ccc4[nH]7)C=C6)C=C5)cc2)=C3)cc1
REMARK SMILES IDX 25 1 24 2 23 3 21 4 22 5 20 7 7 8 8 9 13 10 9 11 12 12 14 13
REMARK SMILES IDX 10 14 11 15 93 16 15 17 6 18 3 19 4 20 95 21 5 22 94 23 2 24
REMARK SMILES IDX 1 25 16 26 17 27 18 28 19 29 26 30 27 31 28 32 29 34 30 35
REMARK SMILES IDX 31 36 92 37 32 38 91 39 33 40 34 41 35 42 85 43 36 44 90 45
REMARK SMILES IDX 84 46 86 47 37 48 89 49 83 50 82 51 38 53 70 54 50 55 69 56
REMARK SMILES IDX 51 57 54 58 68 59 87 60 52 61 53 62 67 64 88 65 55 66 39 67
REMARK SMILES IDX 40 68 48 69 41 70 43 71 49 72 42 73 44 74 45 75 46 76 47 77
REMARK SMILES IDX 71 78 72 79 80 80 73 81 75 82 81 83 74 84 76 85 77 86 78 87
REMARK SMILES IDX 79 88 56 89 57 90 65 91 58 92 60 93 66 94 59 95 61 96 62 97
REMARK SMILES IDX 63 98 64 99
REMARK H PARENT 23 6 27 33 86 52 54 63
REMARK Flexibility Score: inf
ROOT
ATOM      1  C   UNL A   1      31.731  32.908  26.219  1.00  0.00     0.042 C 
ENDROOT
BRANCH   1   2
ATOM      2  C   UNL A   1      30.729  31.759  26.361  1.00  0.00     0.118 C 
BRANCH   2   3
ATOM      3  N   UNL A   1      31.007  30.730  25.379  1.00  0.00    -0.352 N 
ATOM      4  C   UNL A   1      32.123  29.967  25.292  1.00  0.00     0.251 C 
ATOM      5  O   UNL A   1      32.587  29.691  24.192  1.00  0.00    -0.270 OA
ATOM      6  H   UNL A   1      30.310  30.569  24.702  1.00  0.00     0.163 HD
BRANCH   4   7
ATOM      7  C   UNL A   1      32.639  29.365  26.557  1.00  0.00     0.067 C 
ATOM      8  C   UNL A   1      33.459  25.594  25.257  1.00  0.00     0.026 A 
ATOM      9  C   UNL A   1      32.361  25.160  24.469  1.00  0.00     0.033 A 
ATOM     10  C   UNL A   1      33.258  26.751  26.025  1.00  0.00     0.135 A 
ATOM     11  C   UNL A   1      31.095  25.731  24.578  1.00  0.00     0.042 A 
ATOM     12  C   UNL A   1      31.943  27.242  26.211  1.00  0.00     0.019 A 
ATOM     13  O   UNL A   1      34.300  27.465  26.595  1.00  0.00    -0.475 OA
ATOM     14  Cl  UNL A   1      29.810  25.148  23.595  1.00  0.00    -0.084 Cl
ATOM     15  C   UNL A   1      30.861  26.732  25.502  1.00  0.00     0.032 A 
ATOM     16  C   UNL A   1      31.780  28.451  27.051  1.00  0.00     0.025 C 
ATOM     17  C   UNL A   1      34.105  28.943  26.508  1.00  0.00     0.314 C 
BRANCH   8  18
ATOM     18  C   UNL A   1      34.575  24.621  25.377  1.00  0.00    -0.015 A 
ATOM     19  C   UNL A   1      35.795  22.057  25.138  1.00  0.00    -0.048 A 
ATOM     20  C   UNL A   1      35.965  23.023  24.141  1.00  0.00     0.004 A 
ATOM     21  C   UNL A   1      35.148  22.445  26.321  1.00  0.00     0.004 A 
ATOM     22  C   UNL A   1      35.378  24.293  24.268  1.00  0.00     0.009 A 
ATOM     23  C   UNL A   1      34.557  23.711  26.445  1.00  0.00     0.009 A 
BRANCH  19  24
ATOM     24  C   UNL A   1      36.196  20.605  24.988  1.00  0.00     0.032 C 
ATOM     25  C   UNL A   1      37.685  20.281  24.955  1.00  0.00     0.009 C 
ENDBRANCH  19  24
ENDBRANCH   8  18
BRANCH  17  26
ATOM     26  C   UNL A   1      34.870  29.676  27.632  1.00  0.00     0.429 C 
ATOM     27  F   UNL A   1      34.044  30.243  28.540  1.00  0.00    -0.167 F 
ATOM     28  F   UNL A   1      35.692  28.832  28.300  1.00  0.00    -0.167 F 
ATOM     29  F   UNL A   1      35.657  30.678  27.156  1.00  0.00    -0.167 F 
ENDBRANCH  17  26
ENDBRANCH   4   7
ENDBRANCH   2   3
ENDBRANCH   1   2
BRANCH   1  30
ATOM     30  C   UNL A   1      32.819  32.947  27.290  1.00  0.00     0.118 C 
BRANCH  30  31
ATOM     31  N   UNL A   1      32.923  34.237  27.957  1.00  0.00    -0.352 N 
ATOM     32  C   UNL A   1      33.802  34.633  28.937  1.00  0.00     0.251 C 
ATOM     33  H   UNL A   1      32.273  34.918  27.668  1.00  0.00     0.163 HD
ATOM     34  O   UNL A   1      33.657  35.722  29.487  1.00  0.00    -0.269 OA
BRANCH  32  35
ATOM     35  C   UNL A   1      34.901  33.733  29.343  1.00  0.00     0.039 A 
ATOM     36  C   UNL A   1      36.171  33.926  28.796  1.00  0.00     0.014 A 
ATOM     37  C   UNL A   1      34.685  32.721  30.283  1.00  0.00     0.014 A 
ATOM     38  C   UNL A   1      37.242  33.151  29.246  1.00  0.00     0.010 A 
ATOM     39  C   UNL A   1      35.769  32.003  30.785  1.00  0.00     0.010 A 
ATOM     40  C   UNL A   1      37.060  32.211  30.274  1.00  0.00    -0.014 A 
BRANCH  40  41
ATOM     41  C   UNL A   1      38.206  31.455  30.846  1.00  0.00     0.031 A 
ATOM     42  C   UNL A   1      38.783  31.845  32.180  1.00  0.00     0.074 A 
ATOM     43  C   UNL A   1      38.791  30.481  30.118  1.00  0.00     0.049 A 
ATOM     44  N   UNL A   1      39.824  31.356  32.802  1.00  0.00    -0.248 NA
ATOM     45  C   UNL A   1      38.124  32.948  32.899  1.00  0.00     0.031 C 
ATOM     46  C   UNL A   1      38.383  30.067  28.774  1.00  0.00     0.029 A 
ATOM     47  N   UNL A   1      39.874  29.683  30.393  1.00  0.00    -0.354 N 
ATOM     48  C   UNL A   1      39.972  32.115  33.956  1.00  0.00     0.074 A 
ATOM     49  C   UNL A   1      38.929  33.116  33.939  1.00  0.00     0.031 C 
ATOM     50  C   UNL A   1      39.205  29.097  28.341  1.00  0.00     0.029 A 
ATOM     51  C   UNL A   1      40.217  28.840  29.360  1.00  0.00     0.049 A 
ATOM     52  H   UNL A   1      40.361  29.712  31.248  1.00  0.00     0.167 HD
ATOM     53  C   UNL A   1      40.875  31.974  34.956  1.00  0.00     0.034 A 
ATOM     54  C   UNL A   1      41.236  27.966  29.242  1.00  0.00     0.034 A 
ATOM     55  C   UNL A   1      41.874  30.941  35.000  1.00  0.00     0.049 A 
ATOM     56  C   UNL A   1      42.189  27.793  30.395  1.00  0.00     0.074 A 
ATOM     57  C   UNL A   1      42.764  30.651  36.019  1.00  0.00     0.029 A 
ATOM     58  N   UNL A   1      42.122  30.035  33.982  1.00  0.00    -0.354 N 
ATOM     59  N   UNL A   1      42.201  28.404  31.554  1.00  0.00    -0.248 NA
ATOM     60  C   UNL A   1      43.248  26.783  30.238  1.00  0.00     0.031 C 
ATOM     61  C   UNL A   1      43.567  29.583  35.608  1.00  0.00     0.029 A 
ATOM     62  C   UNL A   1      43.157  29.190  34.344  1.00  0.00     0.049 A 
ATOM     63  H   UNL A   1      41.634  29.997  33.127  1.00  0.00     0.167 HD
ATOM     64  C   UNL A   1      43.240  27.829  32.277  1.00  0.00     0.074 A 
ATOM     65  C   UNL A   1      43.819  26.804  31.435  1.00  0.00     0.031 C 
ATOM     66  C   UNL A   1      43.685  28.134  33.521  1.00  0.00     0.034 A 
BRANCH  53  67
ATOM     67  C   UNL A   1      40.795  32.925  36.121  1.00  0.00     0.023 A 
ATOM     68  C   UNL A   1      41.561  34.109  36.104  1.00  0.00     0.012 A 
ATOM     69  C   UNL A   1      39.901  32.695  37.185  1.00  0.00     0.148 A 
ATOM     70  C   UNL A   1      41.459  35.035  37.142  1.00  0.00     0.002 A 
ATOM     71  C   UNL A   1      39.772  33.643  38.192  1.00  0.00     0.091 A 
ATOM     72  F   UNL A   1      39.196  31.555  37.190  1.00  0.00    -0.205 F 
ATOM     73  C   UNL A   1      40.558  34.809  38.178  1.00  0.00     0.022 A 
BRANCH  71  74
ATOM     74  S   UNL A   1      38.581  33.488  39.528  1.00  0.00     0.127 S 
ATOM     75  O   UNL A   1      39.143  32.377  40.296  1.00  0.00    -0.237 OA
ATOM     76  O   UNL A   1      38.681  34.792  40.182  1.00  0.00    -0.237 OA
ATOM     77  O   UNL A   1      37.298  33.219  38.895  1.00  0.00    -0.744 OA
ENDBRANCH  71  74
ENDBRANCH  53  67
BRANCH  54  78
ATOM     78  C   UNL A   1      41.382  27.145  28.005  1.00  0.00     0.023 A 
ATOM     79  C   UNL A   1      41.969  27.716  26.859  1.00  0.00     0.012 A 
ATOM     80  C   UNL A   1      40.951  25.805  27.958  1.00  0.00     0.148 A 
ATOM     81  C   UNL A   1      42.086  26.983  25.677  1.00  0.00     0.002 A 
ATOM     82  C   UNL A   1      41.124  25.062  26.796  1.00  0.00     0.091 A 
ATOM     83  F   UNL A   1      40.382  25.281  29.053  1.00  0.00    -0.205 F 
ATOM     84  C   UNL A   1      41.672  25.654  25.648  1.00  0.00     0.022 A 
BRANCH  82  85
ATOM     85  S   UNL A   1      40.744  23.308  26.717  1.00  0.00     0.127 S 
ATOM     86  O   UNL A   1      39.314  23.324  26.421  1.00  0.00    -0.237 OA
ATOM     87  O   UNL A   1      41.598  22.861  25.615  1.00  0.00    -0.237 OA
ATOM     88  O   UNL A   1      41.121  22.770  28.017  1.00  0.00    -0.744 OA
ENDBRANCH  82  85
ENDBRANCH  54  78
BRANCH  66  89
ATOM     89  C   UNL A   1      44.830  27.327  34.073  1.00  0.00     0.023 A 
ATOM     90  C   UNL A   1      46.155  27.768  33.886  1.00  0.00     0.012 A 
ATOM     91  C   UNL A   1      44.587  26.176  34.848  1.00  0.00     0.148 A 
ATOM     92  C   UNL A   1      47.223  27.058  34.433  1.00  0.00     0.002 A 
ATOM     93  C   UNL A   1      45.652  25.501  35.433  1.00  0.00     0.091 A 
ATOM     94  F   UNL A   1      43.321  25.762  35.000  1.00  0.00    -0.205 F 
ATOM     95  C   UNL A   1      46.971  25.934  35.216  1.00  0.00     0.022 A 
BRANCH  93  96
ATOM     96  S   UNL A   1      45.418  24.103  36.536  1.00  0.00     0.127 S 
ATOM     97  O   UNL A   1      46.788  23.828  36.964  1.00  0.00    -0.237 OA
ATOM     98  O   UNL A   1      44.555  24.668  37.574  1.00  0.00    -0.237 OA
ATOM     99  O   UNL A   1      44.793  23.059  35.733  1.00  0.00    -0.744 OA
ENDBRANCH  93  96
ENDBRANCH  66  89
ENDBRANCH  40  41
ENDBRANCH  32  35
ENDBRANCH  30  31
ENDBRANCH   1  30
TORSDOF 16
ENDMDL
