MODEL 1
REMARK VINA RESULT:     -12.8      0.000      0.000
REMARK SMILES O=C(NCCCNC(=O)[C@H]1Cc2c([nH]c3ccccc23)[C@@H](c2ccc(OC(F)(F)F)cc2)[NH2+]1)c1ccc(-c2c3nc(c(-c4cccc(S(=O)(=O)[O-])c4F)c4ccc([nH]4)c(-c4cccc(S(=O)(=O)[O-])c4F)c4nc(c(-c5cccc(S(=O)(=O)[O-])c5F)c5ccc2[nH]5)C=C4)C=C3)cc1
REMARK SMILES IDX 5 1 4 2 3 3 1 4 2 5 34 7 35 8 96 9 36 10 95 11 37 12 38 13
REMARK SMILES IDX 39 14 89 15 40 16 94 17 88 18 90 19 41 20 93 21 87 22 86 23
REMARK SMILES IDX 42 25 74 26 54 27 73 28 55 29 58 30 72 31 91 32 56 33 57 34
REMARK SMILES IDX 71 36 92 37 59 38 43 39 44 40 52 41 45 42 47 43 53 44 46 45
REMARK SMILES IDX 48 46 49 47 50 48 51 49 75 50 76 51 84 52 77 53 79 54 85 55
REMARK SMILES IDX 78 56 80 57 81 58 82 59 83 60 60 61 61 62 69 63 62 64 64 65
REMARK SMILES IDX 70 66 63 67 65 68 66 69 67 70 68 71 6 72 7 73 8 74 9 76
REMARK SMILES IDX 10 77 11 78 33 79 12 80 21 81 13 84 20 85 14 86 15 87 19 88
REMARK SMILES IDX 16 90 18 91 17 92 22 93 23 94 32 95 24 96 31 97 25 98 26 99
REMARK SMILES IDX 27 100 28 101 29 102 30 103
REMARK H PARENT 3 6 90 24 58 35 7 75 33 82 33 83 14 89
REMARK Flexibility Score: inf
ROOT
ATOM      1  C   UNL A   1      32.733  28.080  27.054  1.00  0.00     0.042 C 
ENDROOT
BRANCH   1   2
ATOM      2  C   UNL A   1      33.979  28.740  26.498  1.00  0.00     0.118 C 
BRANCH   2   3
ATOM      3  N   UNL A   1      33.971  30.179  26.756  1.00  0.00    -0.352 N 
ATOM      4  O   UNL A   1      34.383  32.042  27.945  1.00  0.00    -0.269 OA
ATOM      5  C   UNL A   1      34.737  30.916  27.625  1.00  0.00     0.251 C 
ATOM      6  H   UNL A   1      33.319  30.696  26.230  1.00  0.00     0.163 HD
BRANCH   5   7
ATOM      7  C   UNL A   1      35.984  30.330  28.150  1.00  0.00     0.039 A 
ATOM      8  C   UNL A   1      37.155  30.426  27.396  1.00  0.00     0.014 A 
ATOM      9  C   UNL A   1      35.998  29.711  29.401  1.00  0.00     0.014 A 
ATOM     10  C   UNL A   1      38.295  29.763  27.806  1.00  0.00     0.010 A 
ATOM     11  C   UNL A   1      37.190  29.164  29.880  1.00  0.00     0.010 A 
ATOM     12  C   UNL A   1      38.342  29.178  29.078  1.00  0.00    -0.014 A 
BRANCH  12  13
ATOM     13  C   UNL A   1      39.661  28.745  29.589  1.00  0.00     0.031 A 
ATOM     14  C   UNL A   1      40.346  29.466  30.707  1.00  0.00     0.074 A 
ATOM     15  C   UNL A   1      40.221  27.661  29.013  1.00  0.00     0.049 A 
ATOM     16  N   UNL A   1      41.492  29.189  31.270  1.00  0.00    -0.248 NA
ATOM     17  C   UNL A   1      39.675  30.651  31.267  1.00  0.00     0.031 C 
ATOM     18  C   UNL A   1      39.645  26.917  27.884  1.00  0.00     0.029 A 
ATOM     19  N   UNL A   1      41.382  26.992  29.286  1.00  0.00    -0.354 N 
ATOM     20  C   UNL A   1      41.707  30.185  32.212  1.00  0.00     0.074 A 
ATOM     21  C   UNL A   1      40.565  31.072  32.156  1.00  0.00     0.031 C 
ATOM     22  C   UNL A   1      40.437  25.881  27.585  1.00  0.00     0.029 A 
ATOM     23  C   UNL A   1      41.614  25.934  28.437  1.00  0.00     0.049 A 
ATOM     24  H   UNL A   1      41.993  27.243  30.016  1.00  0.00     0.167 HD
ATOM     25  C   UNL A   1      42.764  30.335  33.044  1.00  0.00     0.034 A 
ATOM     26  C   UNL A   1      42.679  25.120  28.327  1.00  0.00     0.034 A 
ATOM     27  C   UNL A   1      43.876  29.422  33.103  1.00  0.00     0.049 A 
ATOM     28  C   UNL A   1      43.823  25.315  29.275  1.00  0.00     0.074 A 
ATOM     29  C   UNL A   1      44.955  29.441  33.969  1.00  0.00     0.029 A 
ATOM     30  N   UNL A   1      44.064  28.342  32.254  1.00  0.00    -0.354 N 
ATOM     31  N   UNL A   1      43.940  26.177  30.255  1.00  0.00    -0.248 NA
ATOM     32  C   UNL A   1      44.973  24.416  29.116  1.00  0.00     0.031 C 
ATOM     33  C   UNL A   1      45.817  28.399  33.617  1.00  0.00     0.029 A 
ATOM     34  C   UNL A   1      45.256  27.704  32.557  1.00  0.00     0.049 A 
ATOM     35  H   UNL A   1      43.442  28.068  31.541  1.00  0.00     0.167 HD
ATOM     36  C   UNL A   1      45.169  25.912  30.844  1.00  0.00     0.074 A 
ATOM     37  C   UNL A   1      45.737  24.784  30.133  1.00  0.00     0.031 C 
ATOM     38  C   UNL A   1      45.783  26.558  31.864  1.00  0.00     0.034 A 
BRANCH  25  39
ATOM     39  C   UNL A   1      42.781  31.516  33.976  1.00  0.00     0.023 A 
ATOM     40  C   UNL A   1      43.269  32.760  33.528  1.00  0.00     0.012 A 
ATOM     41  C   UNL A   1      42.202  31.421  35.258  1.00  0.00     0.148 A 
ATOM     42  C   UNL A   1      43.189  33.887  34.344  1.00  0.00     0.002 A 
ATOM     43  C   UNL A   1      42.087  32.558  36.048  1.00  0.00     0.091 A 
ATOM     44  F   UNL A   1      41.761  30.224  35.671  1.00  0.00    -0.205 F 
ATOM     45  C   UNL A   1      42.587  33.790  35.596  1.00  0.00     0.022 A 
BRANCH  43  46
ATOM     46  S   UNL A   1      41.256  32.555  37.640  1.00  0.00     0.127 S 
ATOM     47  O   UNL A   1      41.305  33.973  38.000  1.00  0.00    -0.237 OA
ATOM     48  O   UNL A   1      39.924  32.062  37.287  1.00  0.00    -0.237 OA
ATOM     49  O   UNL A   1      42.028  31.672  38.501  1.00  0.00    -0.744 OA
ENDBRANCH  43  46
ENDBRANCH  25  39
BRANCH  26  50
ATOM     50  C   UNL A   1      42.709  24.066  27.276  1.00  0.00     0.023 A 
ATOM     51  C   UNL A   1      43.279  24.345  26.020  1.00  0.00     0.012 A 
ATOM     52  C   UNL A   1      42.188  22.780  27.524  1.00  0.00     0.148 A 
ATOM     53  C   UNL A   1      43.292  23.376  25.015  1.00  0.00     0.002 A 
ATOM     54  C   UNL A   1      42.265  21.800  26.543  1.00  0.00     0.091 A 
ATOM     55  F   UNL A   1      41.637  22.535  28.720  1.00  0.00    -0.205 F 
ATOM     56  C   UNL A   1      42.795  22.101  25.281  1.00  0.00     0.022 A 
BRANCH  54  57
ATOM     57  S   UNL A   1      41.784  20.099  26.859  1.00  0.00     0.127 S 
ATOM     58  O   UNL A   1      40.423  20.262  27.361  1.00  0.00    -0.237 OA
ATOM     59  O   UNL A   1      41.884  19.501  25.527  1.00  0.00    -0.237 OA
ATOM     60  O   UNL A   1      42.761  19.591  27.813  1.00  0.00    -0.744 OA
ENDBRANCH  54  57
ENDBRANCH  26  50
BRANCH  38  61
ATOM     61  C   UNL A   1      47.132  26.042  32.286  1.00  0.00     0.023 A 
ATOM     62  C   UNL A   1      47.235  25.178  33.394  1.00  0.00     0.012 A 
ATOM     63  C   UNL A   1      48.287  26.374  31.554  1.00  0.00     0.148 A 
ATOM     64  C   UNL A   1      48.476  24.684  33.792  1.00  0.00     0.002 A 
ATOM     65  C   UNL A   1      49.512  25.834  31.923  1.00  0.00     0.091 A 
ATOM     66  F   UNL A   1      48.167  27.213  30.515  1.00  0.00    -0.205 F 
ATOM     67  C   UNL A   1      49.610  25.002  33.051  1.00  0.00     0.022 A 
BRANCH  65  68
ATOM     68  S   UNL A   1      51.010  26.108  30.973  1.00  0.00     0.127 S 
ATOM     69  O   UNL A   1      51.210  27.547  31.142  1.00  0.00    -0.237 OA
ATOM     70  O   UNL A   1      51.980  25.270  31.677  1.00  0.00    -0.237 OA
ATOM     71  O   UNL A   1      50.711  25.676  29.613  1.00  0.00    -0.744 OA
ENDBRANCH  65  68
ENDBRANCH  38  61
ENDBRANCH  12  13
ENDBRANCH   5   7
ENDBRANCH   2   3
ENDBRANCH   1   2
BRANCH   1  72
ATOM     72  C   UNL A   1      31.889  27.502  25.933  1.00  0.00     0.118 C 
BRANCH  72  73
ATOM     73  N   UNL A   1      31.199  26.292  26.351  1.00  0.00    -0.351 N 
ATOM     74  C   UNL A   1      31.379  24.962  26.149  1.00  0.00     0.278 C 
ATOM     75  H   UNL A   1      30.415  26.482  26.915  1.00  0.00     0.163 HD
ATOM     76  O   UNL A   1      30.515  24.224  26.647  1.00  0.00    -0.268 OA
BRANCH  74  77
ATOM     77  C   UNL A   1      32.568  24.311  25.401  1.00  0.00     0.277 C 
ATOM     78  C   UNL A   1      33.900  24.351  26.133  1.00  0.00     0.114 C 
ATOM     79  N   UNL A   1      32.172  22.906  25.108  1.00  0.00    -0.325 N 
ATOM     80  C   UNL A   1      34.916  23.535  25.455  1.00  0.00    -0.006 A 
ATOM     81  C   UNL A   1      33.126  22.117  24.296  1.00  0.00     0.262 C 
ATOM     82  H   UNL A   1      31.283  22.929  24.608  1.00  0.00     0.347 HD
ATOM     83  H   UNL A   1      32.132  22.438  26.014  1.00  0.00     0.347 HD
ATOM     84  C   UNL A   1      34.547  22.510  24.618  1.00  0.00     0.083 A 
ATOM     85  C   UNL A   1      36.303  23.470  25.690  1.00  0.00     0.003 A 
ATOM     86  N   UNL A   1      35.709  21.906  24.200  1.00  0.00    -0.353 N 
ATOM     87  C   UNL A   1      36.781  22.410  24.921  1.00  0.00     0.046 A 
ATOM     88  C   UNL A   1      37.174  24.165  26.549  1.00  0.00     0.010 A 
ATOM     89  H   UNL A   1      35.771  21.220  23.496  1.00  0.00     0.166 HD
ATOM     90  C   UNL A   1      38.120  22.005  24.985  1.00  0.00     0.026 A 
ATOM     91  C   UNL A   1      38.506  23.762  26.633  1.00  0.00     0.001 A 
ATOM     92  C   UNL A   1      38.968  22.696  25.864  1.00  0.00     0.002 A 
BRANCH  81  93
ATOM     93  C   UNL A   1      32.799  20.642  24.549  1.00  0.00     0.016 A 
ATOM     94  C   UNL A   1      32.390  19.764  23.533  1.00  0.00     0.014 A 
ATOM     95  C   UNL A   1      33.020  20.095  25.828  1.00  0.00     0.014 A 
ATOM     96  C   UNL A   1      32.146  18.415  23.800  1.00  0.00     0.047 A 
ATOM     97  C   UNL A   1      32.813  18.732  26.085  1.00  0.00     0.047 A 
ATOM     98  C   UNL A   1      32.359  17.887  25.074  1.00  0.00     0.129 A 
BRANCH  98  99
ATOM     99  O   UNL A   1      32.089  16.555  25.180  1.00  0.00    -0.406 OA
BRANCH  99 100
ATOM    100  C   UNL A   1      33.157  15.647  24.992  1.00  0.00     0.573 C 
ATOM    101  F   UNL A   1      34.152  15.871  25.876  1.00  0.00    -0.132 F 
ATOM    102  F   UNL A   1      32.740  14.367  25.094  1.00  0.00    -0.132 F 
ATOM    103  F   UNL A   1      33.655  15.822  23.747  1.00  0.00    -0.132 F 
ENDBRANCH  99 100
ENDBRANCH  98  99
ENDBRANCH  81  93
ENDBRANCH  74  77
ENDBRANCH  72  73
ENDBRANCH   1  72
TORSDOF 16
ENDMDL
MODEL 2
REMARK VINA RESULT:     -12.6      5.319      8.668
REMARK SMILES O=C(NCCCNC(=O)[C@H]1Cc2c([nH]c3ccccc23)[C@@H](c2ccc(OC(F)(F)F)cc2)[NH2+]1)c1ccc(-c2c3nc(c(-c4cccc(S(=O)(=O)[O-])c4F)c4ccc([nH]4)c(-c4cccc(S(=O)(=O)[O-])c4F)c4nc(c(-c5cccc(S(=O)(=O)[O-])c5F)c5ccc2[nH]5)C=C4)C=C3)cc1
REMARK SMILES IDX 5 1 4 2 3 3 1 4 2 5 34 7 35 8 96 9 36 10 95 11 37 12 38 13
REMARK SMILES IDX 39 14 89 15 40 16 94 17 88 18 90 19 41 20 93 21 87 22 86 23
REMARK SMILES IDX 42 25 74 26 54 27 73 28 55 29 58 30 72 31 91 32 56 33 57 34
REMARK SMILES IDX 71 36 92 37 59 38 43 39 44 40 52 41 45 42 47 43 53 44 46 45
REMARK SMILES IDX 48 46 49 47 50 48 51 49 75 50 76 51 84 52 77 53 79 54 85 55
REMARK SMILES IDX 78 56 80 57 81 58 82 59 83 60 60 61 61 62 69 63 62 64 64 65
REMARK SMILES IDX 70 66 63 67 65 68 66 69 67 70 68 71 6 72 7 73 8 74 9 76
REMARK SMILES IDX 10 77 11 78 33 79 12 80 21 81 13 84 20 85 14 86 15 87 19 88
REMARK SMILES IDX 16 90 18 91 17 92 22 93 23 94 32 95 24 96 31 97 25 98 26 99
REMARK SMILES IDX 27 100 28 101 29 102 30 103
REMARK H PARENT 3 6 90 24 58 35 7 75 33 82 33 83 14 89
REMARK Flexibility Score: inf
ROOT
ATOM      1  C   UNL A   1      35.252  22.343  26.015  1.00  0.00     0.042 C 
ENDROOT
BRANCH   1   2
ATOM      2  C   UNL A   1      36.687  22.814  25.897  1.00  0.00     0.118 C 
BRANCH   2   3
ATOM      3  N   UNL A   1      37.622  21.713  26.126  1.00  0.00    -0.352 N 
ATOM      4  O   UNL A   1      39.637  20.715  26.142  1.00  0.00    -0.269 OA
ATOM      5  C   UNL A   1      38.986  21.741  26.282  1.00  0.00     0.251 C 
ATOM      6  H   UNL A   1      37.213  20.819  26.173  1.00  0.00     0.163 HD
BRANCH   5   7
ATOM      7  C   UNL A   1      39.638  23.018  26.626  1.00  0.00     0.039 A 
ATOM      8  C   UNL A   1      40.676  23.026  27.559  1.00  0.00     0.014 A 
ATOM      9  C   UNL A   1      39.240  24.202  26.002  1.00  0.00     0.014 A 
ATOM     10  C   UNL A   1      41.201  24.227  27.996  1.00  0.00     0.010 A 
ATOM     11  C   UNL A   1      39.872  25.400  26.341  1.00  0.00     0.010 A 
ATOM     12  C   UNL A   1      40.849  25.418  27.349  1.00  0.00    -0.014 A 
BRANCH  12  13
ATOM     13  C   UNL A   1      41.648  26.626  27.646  1.00  0.00     0.031 A 
ATOM     14  C   UNL A   1      41.103  27.746  28.476  1.00  0.00     0.074 A 
ATOM     15  C   UNL A   1      42.900  26.677  27.144  1.00  0.00     0.049 A 
ATOM     16  N   UNL A   1      41.696  28.855  28.833  1.00  0.00    -0.248 NA
ATOM     17  C   UNL A   1      39.722  27.619  28.968  1.00  0.00     0.031 C 
ATOM     18  C   UNL A   1      43.504  25.649  26.284  1.00  0.00     0.029 A 
ATOM     19  N   UNL A   1      43.890  27.611  27.279  1.00  0.00    -0.354 N 
ATOM     20  C   UNL A   1      40.752  29.581  29.546  1.00  0.00     0.074 A 
ATOM     21  C   UNL A   1      39.546  28.782  29.583  1.00  0.00     0.031 C 
ATOM     22  C   UNL A   1      44.764  25.994  25.997  1.00  0.00     0.029 A 
ATOM     23  C   UNL A   1      45.032  27.302  26.576  1.00  0.00     0.049 A 
ATOM     24  H   UNL A   1      43.794  28.427  27.823  1.00  0.00     0.167 HD
ATOM     25  C   UNL A   1      40.891  30.801  30.114  1.00  0.00     0.034 A 
ATOM     26  C   UNL A   1      46.157  28.010  26.382  1.00  0.00     0.034 A 
ATOM     27  C   UNL A   1      42.111  31.564  30.090  1.00  0.00     0.049 A 
ATOM     28  C   UNL A   1      46.273  29.353  27.038  1.00  0.00     0.074 A 
ATOM     29  C   UNL A   1      42.377  32.774  30.707  1.00  0.00     0.029 A 
ATOM     30  N   UNL A   1      43.259  31.208  29.399  1.00  0.00    -0.354 N 
ATOM     31  N   UNL A   1      45.420  29.957  27.828  1.00  0.00    -0.248 NA
ATOM     32  C   UNL A   1      47.511  30.103  26.792  1.00  0.00     0.031 C 
ATOM     33  C   UNL A   1      43.671  33.169  30.355  1.00  0.00     0.029 A 
ATOM     34  C   UNL A   1      44.227  32.187  29.551  1.00  0.00     0.049 A 
ATOM     35  H   UNL A   1      43.370  30.380  28.878  1.00  0.00     0.167 HD
ATOM     36  C   UNL A   1      46.025  31.152  28.191  1.00  0.00     0.074 A 
ATOM     37  C   UNL A   1      47.332  31.164  27.565  1.00  0.00     0.031 C 
ATOM     38  C   UNL A   1      45.536  32.160  28.953  1.00  0.00     0.034 A 
BRANCH  25  39
ATOM     39  C   UNL A   1      39.708  31.398  30.828  1.00  0.00     0.023 A 
ATOM     40  C   UNL A   1      38.642  31.946  30.088  1.00  0.00     0.012 A 
ATOM     41  C   UNL A   1      39.602  31.306  32.231  1.00  0.00     0.148 A 
ATOM     42  C   UNL A   1      37.493  32.402  30.733  1.00  0.00     0.002 A 
ATOM     43  C   UNL A   1      38.437  31.724  32.862  1.00  0.00     0.091 A 
ATOM     44  F   UNL A   1      40.636  30.799  32.917  1.00  0.00    -0.205 F 
ATOM     45  C   UNL A   1      37.385  32.279  32.116  1.00  0.00     0.022 A 
BRANCH  43  46
ATOM     46  S   UNL A   1      38.166  31.533  34.628  1.00  0.00     0.127 S 
ATOM     47  O   UNL A   1      36.862  32.175  34.797  1.00  0.00    -0.237 OA
ATOM     48  O   UNL A   1      38.152  30.078  34.778  1.00  0.00    -0.237 OA
ATOM     49  O   UNL A   1      39.276  32.206  35.284  1.00  0.00    -0.744 OA
ENDBRANCH  43  46
ENDBRANCH  25  39
BRANCH  26  50
ATOM     50  C   UNL A   1      47.245  27.467  25.524  1.00  0.00     0.023 A 
ATOM     51  C   UNL A   1      48.158  26.536  26.055  1.00  0.00     0.012 A 
ATOM     52  C   UNL A   1      47.369  27.857  24.175  1.00  0.00     0.148 A 
ATOM     53  C   UNL A   1      49.199  26.036  25.271  1.00  0.00     0.002 A 
ATOM     54  C   UNL A   1      48.367  27.305  23.382  1.00  0.00     0.091 A 
ATOM     55  F   UNL A   1      46.501  28.755  23.689  1.00  0.00    -0.205 F 
ATOM     56  C   UNL A   1      49.297  26.413  23.933  1.00  0.00     0.022 A 
BRANCH  54  57
ATOM     57  S   UNL A   1      48.466  27.626  21.618  1.00  0.00     0.127 S 
ATOM     58  O   UNL A   1      47.152  28.203  21.346  1.00  0.00    -0.237 OA
ATOM     59  O   UNL A   1      49.582  28.569  21.541  1.00  0.00    -0.237 OA
ATOM     60  O   UNL A   1      48.736  26.333  21.004  1.00  0.00    -0.744 OA
ENDBRANCH  54  57
ENDBRANCH  26  50
BRANCH  38  61
ATOM     61  C   UNL A   1      46.431  33.349  29.171  1.00  0.00     0.023 A 
ATOM     62  C   UNL A   1      47.323  33.364  30.261  1.00  0.00     0.012 A 
ATOM     63  C   UNL A   1      46.422  34.427  28.266  1.00  0.00     0.148 A 
ATOM     64  C   UNL A   1      48.165  34.454  30.471  1.00  0.00     0.002 A 
ATOM     65  C   UNL A   1      47.303  35.484  28.450  1.00  0.00     0.091 A 
ATOM     66  F   UNL A   1      45.552  34.400  27.246  1.00  0.00    -0.205 F 
ATOM     67  C   UNL A   1      48.163  35.507  29.560  1.00  0.00     0.022 A 
BRANCH  65  68
ATOM     68  S   UNL A   1      47.441  36.837  27.277  1.00  0.00     0.127 S 
ATOM     69  O   UNL A   1      47.759  36.127  26.040  1.00  0.00    -0.237 OA
ATOM     70  O   UNL A   1      46.099  37.420  27.320  1.00  0.00    -0.237 OA
ATOM     71  O   UNL A   1      48.494  37.707  27.786  1.00  0.00    -0.744 OA
ENDBRANCH  65  68
ENDBRANCH  38  61
ENDBRANCH  12  13
ENDBRANCH   5   7
ENDBRANCH   2   3
ENDBRANCH   1   2
BRANCH   1  72
ATOM     72  C   UNL A   1      34.308  23.342  25.370  1.00  0.00     0.118 C 
BRANCH  72  73
ATOM     73  N   UNL A   1      33.143  23.593  26.204  1.00  0.00    -0.351 N 
ATOM     74  C   UNL A   1      32.212  24.576  26.286  1.00  0.00     0.278 C 
ATOM     75  H   UNL A   1      32.995  22.881  26.867  1.00  0.00     0.163 HD
ATOM     76  O   UNL A   1      31.380  24.450  27.198  1.00  0.00    -0.268 OA
BRANCH  74  77
ATOM     77  C   UNL A   1      32.086  25.788  25.331  1.00  0.00     0.277 C 
ATOM     78  C   UNL A   1      30.665  26.251  25.048  1.00  0.00     0.114 C 
ATOM     79  N   UNL A   1      32.888  26.891  25.929  1.00  0.00    -0.325 N 
ATOM     80  C   UNL A   1      30.645  27.522  24.312  1.00  0.00    -0.006 A 
ATOM     81  C   UNL A   1      32.997  28.128  25.124  1.00  0.00     0.262 C 
ATOM     82  H   UNL A   1      33.831  26.540  26.090  1.00  0.00     0.347 HD
ATOM     83  H   UNL A   1      32.390  27.161  26.779  1.00  0.00     0.347 HD
ATOM     84  C   UNL A   1      31.721  28.376  24.358  1.00  0.00     0.083 A 
ATOM     85  C   UNL A   1      29.560  28.170  23.691  1.00  0.00     0.003 A 
ATOM     86  N   UNL A   1      31.370  29.489  23.631  1.00  0.00    -0.353 N 
ATOM     87  C   UNL A   1      30.024  29.426  23.304  1.00  0.00     0.046 A 
ATOM     88  C   UNL A   1      28.208  27.831  23.501  1.00  0.00     0.010 A 
ATOM     89  H   UNL A   1      31.982  30.218  23.381  1.00  0.00     0.166 HD
ATOM     90  C   UNL A   1      29.171  30.377  22.730  1.00  0.00     0.026 A 
ATOM     91  C   UNL A   1      27.345  28.773  22.943  1.00  0.00     0.001 A 
ATOM     92  C   UNL A   1      27.822  30.027  22.569  1.00  0.00     0.002 A 
BRANCH  81  93
ATOM     93  C   UNL A   1      33.387  29.248  26.094  1.00  0.00     0.016 A 
ATOM     94  C   UNL A   1      32.511  30.282  26.458  1.00  0.00     0.014 A 
ATOM     95  C   UNL A   1      34.633  29.194  26.746  1.00  0.00     0.014 A 
ATOM     96  C   UNL A   1      32.892  31.258  27.381  1.00  0.00     0.047 A 
ATOM     97  C   UNL A   1      34.999  30.152  27.703  1.00  0.00     0.047 A 
ATOM     98  C   UNL A   1      34.134  31.200  28.014  1.00  0.00     0.129 A 
BRANCH  98  99
ATOM     99  O   UNL A   1      34.361  32.214  28.896  1.00  0.00    -0.406 OA
BRANCH  99 100
ATOM    100  C   UNL A   1      34.872  33.432  28.387  1.00  0.00     0.573 C 
ATOM    101  F   UNL A   1      33.960  34.061  27.616  1.00  0.00    -0.132 F 
ATOM    102  F   UNL A   1      35.271  34.254  29.381  1.00  0.00    -0.132 F 
ATOM    103  F   UNL A   1      35.952  33.157  27.621  1.00  0.00    -0.132 F 
ENDBRANCH  99 100
ENDBRANCH  98  99
ENDBRANCH  81  93
ENDBRANCH  74  77
ENDBRANCH  72  73
ENDBRANCH   1  72
TORSDOF 16
ENDMDL
MODEL 3
REMARK VINA RESULT:     -12.6      3.301      5.188
REMARK SMILES O=C(NCCCNC(=O)[C@H]1Cc2c([nH]c3ccccc23)[C@@H](c2ccc(OC(F)(F)F)cc2)[NH2+]1)c1ccc(-c2c3nc(c(-c4cccc(S(=O)(=O)[O-])c4F)c4ccc([nH]4)c(-c4cccc(S(=O)(=O)[O-])c4F)c4nc(c(-c5cccc(S(=O)(=O)[O-])c5F)c5ccc2[nH]5)C=C4)C=C3)cc1
REMARK SMILES IDX 5 1 4 2 3 3 1 4 2 5 34 7 35 8 96 9 36 10 95 11 37 12 38 13
REMARK SMILES IDX 39 14 89 15 40 16 94 17 88 18 90 19 41 20 93 21 87 22 86 23
REMARK SMILES IDX 42 25 74 26 54 27 73 28 55 29 58 30 72 31 91 32 56 33 57 34
REMARK SMILES IDX 71 36 92 37 59 38 43 39 44 40 52 41 45 42 47 43 53 44 46 45
REMARK SMILES IDX 48 46 49 47 50 48 51 49 75 50 76 51 84 52 77 53 79 54 85 55
REMARK SMILES IDX 78 56 80 57 81 58 82 59 83 60 60 61 61 62 69 63 62 64 64 65
REMARK SMILES IDX 70 66 63 67 65 68 66 69 67 70 68 71 6 72 7 73 8 74 9 76
REMARK SMILES IDX 10 77 11 78 33 79 12 80 21 81 13 84 20 85 14 86 15 87 19 88
REMARK SMILES IDX 16 90 18 91 17 92 22 93 23 94 32 95 24 96 31 97 25 98 26 99
REMARK SMILES IDX 27 100 28 101 29 102 30 103
REMARK H PARENT 3 6 90 24 58 35 7 75 33 82 33 83 14 89
REMARK Flexibility Score: inf
ROOT
ATOM      1  C   UNL A   1      33.183  28.637  24.654  1.00  0.00     0.042 C 
ENDROOT
BRANCH   1   2
ATOM      2  C   UNL A   1      33.807  29.097  25.956  1.00  0.00     0.118 C 
BRANCH   2   3
ATOM      3  N   UNL A   1      33.507  30.505  26.214  1.00  0.00    -0.352 N 
ATOM      4  O   UNL A   1      33.338  32.359  27.476  1.00  0.00    -0.269 OA
ATOM      5  C   UNL A   1      33.933  31.317  27.236  1.00  0.00     0.251 C 
ATOM      6  H   UNL A   1      32.911  30.934  25.559  1.00  0.00     0.163 HD
BRANCH   5   7
ATOM      7  C   UNL A   1      35.114  30.915  28.023  1.00  0.00     0.039 A 
ATOM      8  C   UNL A   1      36.137  31.838  28.241  1.00  0.00     0.014 A 
ATOM      9  C   UNL A   1      35.192  29.631  28.566  1.00  0.00     0.014 A 
ATOM     10  C   UNL A   1      37.309  31.437  28.853  1.00  0.00     0.010 A 
ATOM     11  C   UNL A   1      36.319  29.271  29.309  1.00  0.00     0.010 A 
ATOM     12  C   UNL A   1      37.387  30.170  29.446  1.00  0.00    -0.014 A 
BRANCH  12  13
ATOM     13  C   UNL A   1      38.535  29.897  30.338  1.00  0.00     0.031 A 
ATOM     14  C   UNL A   1      38.642  30.517  31.696  1.00  0.00     0.074 A 
ATOM     15  C   UNL A   1      39.484  29.052  29.881  1.00  0.00     0.049 A 
ATOM     16  N   UNL A   1      39.578  30.353  32.592  1.00  0.00    -0.248 NA
ATOM     17  C   UNL A   1      37.573  31.441  32.108  1.00  0.00     0.031 C 
ATOM     18  C   UNL A   1      39.488  28.432  28.549  1.00  0.00     0.029 A 
ATOM     19  N   UNL A   1      40.618  28.565  30.470  1.00  0.00    -0.354 N 
ATOM     20  C   UNL A   1      39.245  31.186  33.651  1.00  0.00     0.074 A 
ATOM     21  C   UNL A   1      38.010  31.849  33.293  1.00  0.00     0.031 C 
ATOM     22  C   UNL A   1      40.549  27.626  28.437  1.00  0.00     0.029 A 
ATOM     23  C   UNL A   1      41.346  27.736  29.649  1.00  0.00     0.049 A 
ATOM     24  H   UNL A   1      40.888  28.787  31.392  1.00  0.00     0.167 HD
ATOM     25  C   UNL A   1      39.916  31.371  34.812  1.00  0.00     0.034 A 
ATOM     26  C   UNL A   1      42.547  27.160  29.832  1.00  0.00     0.034 A 
ATOM     27  C   UNL A   1      41.129  30.677  35.158  1.00  0.00     0.049 A 
ATOM     28  C   UNL A   1      43.251  27.384  31.136  1.00  0.00     0.074 A 
ATOM     29  C   UNL A   1      41.839  30.734  36.344  1.00  0.00     0.029 A 
ATOM     30  N   UNL A   1      41.822  29.819  34.318  1.00  0.00    -0.354 N 
ATOM     31  N   UNL A   1      42.846  28.062  32.182  1.00  0.00    -0.248 NA
ATOM     32  C   UNL A   1      44.565  26.750  31.294  1.00  0.00     0.031 C 
ATOM     33  C   UNL A   1      42.984  29.944  36.207  1.00  0.00     0.029 A 
ATOM     34  C   UNL A   1      42.967  29.362  34.949  1.00  0.00     0.049 A 
ATOM     35  H   UNL A   1      41.542  29.571  33.408  1.00  0.00     0.167 HD
ATOM     36  C   UNL A   1      43.848  27.921  33.132  1.00  0.00     0.074 A 
ATOM     37  C   UNL A   1      44.857  27.060  32.549  1.00  0.00     0.031 C 
ATOM     38  C   UNL A   1      43.937  28.473  34.366  1.00  0.00     0.034 A 
BRANCH  25  39
ATOM     39  C   UNL A   1      39.361  32.349  35.812  1.00  0.00     0.023 A 
ATOM     40  C   UNL A   1      38.432  31.916  36.779  1.00  0.00     0.012 A 
ATOM     41  C   UNL A   1      39.854  33.668  35.867  1.00  0.00     0.148 A 
ATOM     42  C   UNL A   1      37.994  32.784  37.778  1.00  0.00     0.002 A 
ATOM     43  C   UNL A   1      39.445  34.514  36.891  1.00  0.00     0.091 A 
ATOM     44  F   UNL A   1      40.723  34.064  34.927  1.00  0.00    -0.205 F 
ATOM     45  C   UNL A   1      38.510  34.076  37.843  1.00  0.00     0.022 A 
BRANCH  43  46
ATOM     46  S   UNL A   1      40.111  36.168  37.110  1.00  0.00     0.127 S 
ATOM     47  O   UNL A   1      39.299  36.668  38.219  1.00  0.00    -0.237 OA
ATOM     48  O   UNL A   1      41.506  35.891  37.454  1.00  0.00    -0.237 OA
ATOM     49  O   UNL A   1      39.917  36.855  35.842  1.00  0.00    -0.744 OA
ENDBRANCH  43  46
ENDBRANCH  25  39
BRANCH  26  50
ATOM     50  C   UNL A   1      43.154  26.335  28.751  1.00  0.00     0.023 A 
ATOM     51  C   UNL A   1      42.812  24.975  28.633  1.00  0.00     0.012 A 
ATOM     52  C   UNL A   1      44.058  26.899  27.828  1.00  0.00     0.148 A 
ATOM     53  C   UNL A   1      43.391  24.182  27.641  1.00  0.00     0.002 A 
ATOM     54  C   UNL A   1      44.579  26.120  26.804  1.00  0.00     0.091 A 
ATOM     55  F   UNL A   1      44.383  28.192  27.964  1.00  0.00    -0.205 F 
ATOM     56  C   UNL A   1      44.266  24.757  26.721  1.00  0.00     0.022 A 
BRANCH  54  57
ATOM     57  S   UNL A   1      45.591  26.822  25.497  1.00  0.00     0.127 S 
ATOM     58  O   UNL A   1      45.782  25.673  24.617  1.00  0.00    -0.237 OA
ATOM     59  O   UNL A   1      44.719  27.869  24.964  1.00  0.00    -0.237 OA
ATOM     60  O   UNL A   1      46.786  27.325  26.161  1.00  0.00    -0.744 OA
ENDBRANCH  54  57
ENDBRANCH  26  50
BRANCH  38  61
ATOM     61  C   UNL A   1      45.161  28.140  35.176  1.00  0.00     0.023 A 
ATOM     62  C   UNL A   1      46.292  28.976  35.110  1.00  0.00     0.012 A 
ATOM     63  C   UNL A   1      45.168  27.028  36.038  1.00  0.00     0.148 A 
ATOM     64  C   UNL A   1      47.430  28.687  35.861  1.00  0.00     0.002 A 
ATOM     65  C   UNL A   1      46.284  26.777  36.825  1.00  0.00     0.091 A 
ATOM     66  F   UNL A   1      44.087  26.236  36.070  1.00  0.00    -0.205 F 
ATOM     67  C   UNL A   1      47.421  27.596  36.726  1.00  0.00     0.022 A 
BRANCH  65  68
ATOM     68  S   UNL A   1      46.329  25.454  38.038  1.00  0.00     0.127 S 
ATOM     69  O   UNL A   1      45.184  25.786  38.884  1.00  0.00    -0.237 OA
ATOM     70  O   UNL A   1      46.148  24.265  37.203  1.00  0.00    -0.237 OA
ATOM     71  O   UNL A   1      47.631  25.545  38.687  1.00  0.00    -0.744 OA
ENDBRANCH  65  68
ENDBRANCH  38  61
ENDBRANCH  12  13
ENDBRANCH   5   7
ENDBRANCH   2   3
ENDBRANCH   1   2
BRANCH   1  72
ATOM     72  C   UNL A   1      32.909  27.145  24.692  1.00  0.00     0.118 C 
BRANCH  72  73
ATOM     73  N   UNL A   1      33.180  26.519  23.408  1.00  0.00    -0.351 N 
ATOM     74  C   UNL A   1      33.464  25.258  22.992  1.00  0.00     0.278 C 
ATOM     75  H   UNL A   1      33.153  27.161  22.662  1.00  0.00     0.163 HD
ATOM     76  O   UNL A   1      33.693  25.135  21.779  1.00  0.00    -0.268 OA
BRANCH  74  77
ATOM     77  C   UNL A   1      33.482  23.992  23.883  1.00  0.00     0.277 C 
ATOM     78  C   UNL A   1      33.185  22.685  23.164  1.00  0.00     0.114 C 
ATOM     79  N   UNL A   1      34.823  23.942  24.530  1.00  0.00    -0.325 N 
ATOM     80  C   UNL A   1      33.429  21.523  24.029  1.00  0.00    -0.006 A 
ATOM     81  C   UNL A   1      35.029  22.860  25.517  1.00  0.00     0.262 C 
ATOM     82  H   UNL A   1      34.973  24.831  25.006  1.00  0.00     0.347 HD
ATOM     83  H   UNL A   1      35.484  23.754  23.775  1.00  0.00     0.347 HD
ATOM     84  C   UNL A   1      34.281  21.616  25.104  1.00  0.00     0.083 A 
ATOM     85  C   UNL A   1      33.088  20.173  23.818  1.00  0.00     0.003 A 
ATOM     86  N   UNL A   1      34.346  20.361  25.663  1.00  0.00    -0.353 N 
ATOM     87  C   UNL A   1      33.709  19.449  24.835  1.00  0.00     0.046 A 
ATOM     88  C   UNL A   1      32.377  19.499  22.808  1.00  0.00     0.010 A 
ATOM     89  H   UNL A   1      34.779  20.145  26.520  1.00  0.00     0.166 HD
ATOM     90  C   UNL A   1      33.652  18.051  24.878  1.00  0.00     0.026 A 
ATOM     91  C   UNL A   1      32.325  18.106  22.832  1.00  0.00     0.001 A 
ATOM     92  C   UNL A   1      32.957  17.396  23.850  1.00  0.00     0.002 A 
BRANCH  81  93
ATOM     93  C   UNL A   1      36.544  22.676  25.654  1.00  0.00     0.016 A 
ATOM     94  C   UNL A   1      37.376  23.623  26.272  1.00  0.00     0.014 A 
ATOM     95  C   UNL A   1      37.132  21.463  25.251  1.00  0.00     0.014 A 
ATOM     96  C   UNL A   1      38.746  23.395  26.416  1.00  0.00     0.047 A 
ATOM     97  C   UNL A   1      38.501  21.217  25.433  1.00  0.00     0.047 A 
ATOM     98  C   UNL A   1      39.319  22.191  26.003  1.00  0.00     0.129 A 
BRANCH  98  99
ATOM     99  O   UNL A   1      40.663  22.109  26.218  1.00  0.00    -0.406 OA
BRANCH  99 100
ATOM    100  C   UNL A   1      41.114  21.292  27.281  1.00  0.00     0.573 C 
ATOM    101  F   UNL A   1      40.494  20.093  27.274  1.00  0.00    -0.132 F 
ATOM    102  F   UNL A   1      42.451  21.111  27.232  1.00  0.00    -0.132 F 
ATOM    103  F   UNL A   1      40.823  21.908  28.449  1.00  0.00    -0.132 F 
ENDBRANCH  99 100
ENDBRANCH  98  99
ENDBRANCH  81  93
ENDBRANCH  74  77
ENDBRANCH  72  73
ENDBRANCH   1  72
TORSDOF 16
ENDMDL
