MODEL 1
REMARK VINA RESULT:     -12.4      0.000      0.000
REMARK SMILES NS(=O)(=O)c1ccc(-n2nc(C(=O)NCCCC(=O)NCCCNC(=O)c3ccc(-c4c5nc(c(-c6cccc(S(=O)(=O)[O-])c6F)c6ccc([nH]6)c(-c6cccc(S(=O)(=O)[O-])c6F)c6nc(c(-c7cccc(S(=O)(=O)[O-])c7F)c7ccc4[nH]7)C=C6)C=C5)cc3)cc2-c2ccccc2)cc1
REMARK SMILES IDX 18 1 19 2 20 3 17 5 16 6 15 7 14 8 12 9 13 10 11 12 9 13
REMARK SMILES IDX 10 14 91 15 90 16 8 17 5 18 6 19 99 20 7 21 98 22 2 23 3 24
REMARK SMILES IDX 4 25 1 26 92 29 93 30 97 31 94 32 96 33 95 34 21 35 22 36
REMARK SMILES IDX 23 37 24 38 25 39 26 41 27 42 28 43 89 44 29 45 88 46 30 47
REMARK SMILES IDX 31 48 32 49 82 50 33 51 87 52 81 53 83 54 34 55 86 56 80 57
REMARK SMILES IDX 79 58 35 60 67 61 47 62 66 63 48 64 51 65 65 66 84 67 49 68
REMARK SMILES IDX 50 69 64 71 85 72 52 73 36 74 37 75 45 76 38 77 40 78 46 79
REMARK SMILES IDX 39 80 41 81 42 82 43 83 44 84 68 85 69 86 77 87 70 88 72 89
REMARK SMILES IDX 78 90 71 91 73 92 74 93 75 94 76 95 53 96 54 97 62 98 55 99
REMARK SMILES IDX 57 100 63 101 56 102 58 103 59 104 60 105 61 106
REMARK H PARENT 20 4 14 11 1 27 1 28 24 40 83 59 51 70
REMARK Flexibility Score: inf
ROOT
ATOM      1  C   UNL A   1      32.997  29.102  27.015  1.00  0.00     0.220 C 
ATOM      2  O   UNL A   1      34.121  28.615  27.123  1.00  0.00    -0.275 OA
ATOM      3  N   UNL A   1      32.849  30.237  26.279  1.00  0.00    -0.356 N 
ATOM      4  H   UNL A   1      33.690  30.608  25.926  1.00  0.00     0.163 HD
ENDROOT
BRANCH   1   5
ATOM      5  C   UNL A   1      31.812  28.430  27.674  1.00  0.00     0.102 C 
BRANCH   5   6
ATOM      6  C   UNL A   1      31.079  27.433  26.774  1.00  0.00     0.031 C 
BRANCH   6   7
ATOM      7  C   UNL A   1      31.388  27.517  25.285  1.00  0.00     0.116 C 
BRANCH   7   8
ATOM      8  N   UNL A   1      30.381  26.900  24.438  1.00  0.00    -0.351 N 
ATOM      9  C   UNL A   1      30.303  25.621  23.931  1.00  0.00     0.271 C 
ATOM     10  O   UNL A   1      29.326  25.357  23.226  1.00  0.00    -0.267 OA
ATOM     11  H   UNL A   1      29.636  27.491  24.185  1.00  0.00     0.163 HD
BRANCH   9  12
ATOM     12  C   UNL A   1      31.366  24.644  24.220  1.00  0.00     0.151 A 
ATOM     13  N   UNL A   1      32.339  22.738  24.338  1.00  0.00    -0.232 N 
ATOM     14  N   UNL A   1      31.203  23.341  23.916  1.00  0.00    -0.162 NA
ATOM     15  C   UNL A   1      33.316  23.663  24.676  1.00  0.00     0.075 A 
ATOM     16  C   UNL A   1      32.651  24.865  24.777  1.00  0.00     0.065 A 
BRANCH  13  17
ATOM     17  C   UNL A   1      32.479  21.326  24.313  1.00  0.00     0.065 A 
ATOM     18  C   UNL A   1      33.086  18.618  24.162  1.00  0.00     0.082 A 
ATOM     19  C   UNL A   1      33.304  19.304  25.359  1.00  0.00     0.024 A 
ATOM     20  C   UNL A   1      32.527  19.268  23.054  1.00  0.00     0.024 A 
ATOM     21  C   UNL A   1      32.997  20.660  25.434  1.00  0.00     0.030 A 
ATOM     22  C   UNL A   1      32.194  20.623  23.137  1.00  0.00     0.030 A 
BRANCH  18  23
ATOM     23  S   UNL A   1      33.581  16.927  24.063  1.00  0.00     0.238 S 
ATOM     24  O   UNL A   1      34.102  16.672  22.746  1.00  0.00    -0.207 OA
ATOM     25  O   UNL A   1      32.562  16.100  24.677  1.00  0.00    -0.207 OA
BRANCH  23  26
ATOM     26  N   UNL A   1      34.894  16.823  25.110  1.00  0.00    -0.225 NA
ATOM     27  H   UNL A   1      35.385  17.717  25.128  1.00  0.00     0.137 HD
ATOM     28  H   UNL A   1      35.529  16.093  24.788  1.00  0.00     0.137 HD
ENDBRANCH  23  26
ENDBRANCH  18  23
ENDBRANCH  13  17
BRANCH  15  29
ATOM     29  C   UNL A   1      34.755  23.401  24.722  1.00  0.00     0.000 A 
ATOM     30  C   UNL A   1      35.453  23.560  25.931  1.00  0.00     0.010 A 
ATOM     31  C   UNL A   1      35.445  22.950  23.595  1.00  0.00     0.010 A 
ATOM     32  C   UNL A   1      36.825  23.324  26.001  1.00  0.00     0.001 A 
ATOM     33  C   UNL A   1      36.818  22.700  23.669  1.00  0.00     0.001 A 
ATOM     34  C   UNL A   1      37.507  22.896  24.867  1.00  0.00     0.000 A 
ENDBRANCH  15  29
ENDBRANCH   9  12
ENDBRANCH   7   8
ENDBRANCH   6   7
ENDBRANCH   5   6
ENDBRANCH   1   5
BRANCH   3  35
ATOM     35  C   UNL A   1      31.659  30.998  25.925  1.00  0.00     0.117 C 
BRANCH  35  36
ATOM     36  C   UNL A   1      31.411  32.180  26.870  1.00  0.00     0.042 C 
BRANCH  36  37
ATOM     37  C   UNL A   1      32.683  32.866  27.316  1.00  0.00     0.118 C 
BRANCH  37  38
ATOM     38  N   UNL A   1      32.453  34.181  27.918  1.00  0.00    -0.352 N 
ATOM     39  C   UNL A   1      33.077  34.708  29.037  1.00  0.00     0.251 C 
ATOM     40  H   UNL A   1      31.781  34.752  27.480  1.00  0.00     0.163 HD
ATOM     41  O   UNL A   1      32.571  35.630  29.666  1.00  0.00    -0.269 OA
BRANCH  39  42
ATOM     42  C   UNL A   1      34.366  34.126  29.455  1.00  0.00     0.039 A 
ATOM     43  C   UNL A   1      34.464  33.170  30.469  1.00  0.00     0.014 A 
ATOM     44  C   UNL A   1      35.492  34.516  28.742  1.00  0.00     0.014 A 
ATOM     45  C   UNL A   1      35.700  32.567  30.693  1.00  0.00     0.010 A 
ATOM     46  C   UNL A   1      36.617  33.747  28.784  1.00  0.00     0.010 A 
ATOM     47  C   UNL A   1      36.768  32.849  29.826  1.00  0.00    -0.014 A 
BRANCH  47  48
ATOM     48  C   UNL A   1      38.043  32.153  29.918  1.00  0.00     0.031 A 
ATOM     49  C   UNL A   1      38.048  30.839  29.233  1.00  0.00     0.074 A 
ATOM     50  C   UNL A   1      39.167  32.735  30.396  1.00  0.00     0.049 A 
ATOM     51  N   UNL A   1      37.979  29.676  29.790  1.00  0.00    -0.248 NA
ATOM     52  C   UNL A   1      37.902  30.807  27.769  1.00  0.00     0.031 C 
ATOM     53  C   UNL A   1      39.368  34.138  30.793  1.00  0.00     0.029 A 
ATOM     54  N   UNL A   1      40.424  32.225  30.494  1.00  0.00    -0.354 N 
ATOM     55  C   UNL A   1      38.093  28.766  28.744  1.00  0.00     0.074 A 
ATOM     56  C   UNL A   1      37.766  29.497  27.549  1.00  0.00     0.031 C 
ATOM     57  C   UNL A   1      40.689  34.418  30.820  1.00  0.00     0.029 A 
ATOM     58  C   UNL A   1      41.425  33.185  30.631  1.00  0.00     0.049 A 
ATOM     59  H   UNL A   1      40.611  31.259  30.468  1.00  0.00     0.167 HD
ATOM     60  C   UNL A   1      38.762  27.593  28.922  1.00  0.00     0.034 A 
ATOM     61  C   UNL A   1      42.764  32.981  30.551  1.00  0.00     0.034 A 
ATOM     62  C   UNL A   1      38.998  27.341  30.326  1.00  0.00     0.049 A 
ATOM     63  C   UNL A   1      42.994  31.539  30.790  1.00  0.00     0.074 A 
ATOM     64  C   UNL A   1      38.206  27.255  31.455  1.00  0.00     0.029 A 
ATOM     65  N   UNL A   1      40.277  27.561  30.780  1.00  0.00    -0.354 N 
ATOM     66  N   UNL A   1      42.766  30.957  31.933  1.00  0.00    -0.248 NA
ATOM     67  C   UNL A   1      43.040  30.659  29.635  1.00  0.00     0.031 C 
ATOM     68  C   UNL A   1      38.958  27.901  32.481  1.00  0.00     0.029 A 
ATOM     69  C   UNL A   1      40.198  28.262  31.951  1.00  0.00     0.049 A 
ATOM     70  H   UNL A   1      41.106  27.264  30.339  1.00  0.00     0.167 HD
ATOM     71  C   UNL A   1      42.156  29.760  31.585  1.00  0.00     0.074 A 
ATOM     72  C   UNL A   1      42.461  29.579  30.166  1.00  0.00     0.031 C 
ATOM     73  C   UNL A   1      41.213  29.192  32.394  1.00  0.00     0.034 A 
BRANCH  60  74
ATOM     74  C   UNL A   1      39.585  26.888  27.863  1.00  0.00     0.023 A 
ATOM     75  C   UNL A   1      39.398  25.491  27.740  1.00  0.00     0.012 A 
ATOM     76  C   UNL A   1      40.709  27.438  27.204  1.00  0.00     0.148 A 
ATOM     77  C   UNL A   1      40.322  24.679  27.074  1.00  0.00     0.002 A 
ATOM     78  C   UNL A   1      41.581  26.638  26.475  1.00  0.00     0.091 A 
ATOM     79  F   UNL A   1      41.034  28.719  27.377  1.00  0.00    -0.205 F 
ATOM     80  C   UNL A   1      41.414  25.253  26.437  1.00  0.00     0.022 A 
BRANCH  78  81
ATOM     81  S   UNL A   1      42.983  27.337  25.592  1.00  0.00     0.127 S 
ATOM     82  O   UNL A   1      43.575  26.143  24.996  1.00  0.00    -0.237 OA
ATOM     83  O   UNL A   1      42.320  28.240  24.651  1.00  0.00    -0.237 OA
ATOM     84  O   UNL A   1      43.787  28.015  26.602  1.00  0.00    -0.744 OA
ENDBRANCH  78  81
ENDBRANCH  60  74
BRANCH  61  85
ATOM     85  C   UNL A   1      43.840  33.865  30.047  1.00  0.00     0.023 A 
ATOM     86  C   UNL A   1      45.080  33.906  30.717  1.00  0.00     0.012 A 
ATOM     87  C   UNL A   1      43.764  34.424  28.753  1.00  0.00     0.148 A 
ATOM     88  C   UNL A   1      46.216  34.445  30.102  1.00  0.00     0.002 A 
ATOM     89  C   UNL A   1      44.898  34.958  28.145  1.00  0.00     0.091 A 
ATOM     90  F   UNL A   1      42.606  34.342  28.083  1.00  0.00    -0.205 F 
ATOM     91  C   UNL A   1      46.128  34.959  28.811  1.00  0.00     0.022 A 
BRANCH  89  92
ATOM     92  S   UNL A   1      44.871  35.605  26.467  1.00  0.00     0.127 S 
ATOM     93  O   UNL A   1      44.144  36.863  26.640  1.00  0.00    -0.237 OA
ATOM     94  O   UNL A   1      46.296  35.754  26.180  1.00  0.00    -0.237 OA
ATOM     95  O   UNL A   1      44.168  34.608  25.671  1.00  0.00    -0.744 OA
ENDBRANCH  89  92
ENDBRANCH  61  85
BRANCH  73  96
ATOM     96  C   UNL A   1      41.069  29.725  33.798  1.00  0.00     0.023 A 
ATOM     97  C   UNL A   1      41.961  29.402  34.843  1.00  0.00     0.012 A 
ATOM     98  C   UNL A   1      40.082  30.696  34.027  1.00  0.00     0.148 A 
ATOM     99  C   UNL A   1      41.847  30.015  36.096  1.00  0.00     0.002 A 
ATOM    100  C   UNL A   1      40.001  31.337  35.255  1.00  0.00     0.091 A 
ATOM    101  F   UNL A   1      39.241  30.994  33.024  1.00  0.00    -0.205 F 
ATOM    102  C   UNL A   1      40.875  30.992  36.298  1.00  0.00     0.022 A 
BRANCH 100 103
ATOM    103  S   UNL A   1      38.843  32.679  35.526  1.00  0.00     0.127 S 
ATOM    104  O   UNL A   1      39.222  33.144  36.858  1.00  0.00    -0.237 OA
ATOM    105  O   UNL A   1      39.170  33.603  34.439  1.00  0.00    -0.237 OA
ATOM    106  O   UNL A   1      37.516  32.086  35.418  1.00  0.00    -0.744 OA
ENDBRANCH 100 103
ENDBRANCH  73  96
ENDBRANCH  47  48
ENDBRANCH  39  42
ENDBRANCH  37  38
ENDBRANCH  36  37
ENDBRANCH  35  36
ENDBRANCH   3  35
TORSDOF 21
ENDMDL
MODEL 2
REMARK VINA RESULT:     -12.2      3.270      7.099
REMARK SMILES NS(=O)(=O)c1ccc(-n2nc(C(=O)NCCCC(=O)NCCCNC(=O)c3ccc(-c4c5nc(c(-c6cccc(S(=O)(=O)[O-])c6F)c6ccc([nH]6)c(-c6cccc(S(=O)(=O)[O-])c6F)c6nc(c(-c7cccc(S(=O)(=O)[O-])c7F)c7ccc4[nH]7)C=C6)C=C5)cc3)cc2-c2ccccc2)cc1
REMARK SMILES IDX 18 1 19 2 20 3 17 5 16 6 15 7 14 8 12 9 13 10 11 12 9 13
REMARK SMILES IDX 10 14 91 15 90 16 8 17 5 18 6 19 99 20 7 21 98 22 2 23 3 24
REMARK SMILES IDX 4 25 1 26 92 29 93 30 97 31 94 32 96 33 95 34 21 35 22 36
REMARK SMILES IDX 23 37 24 38 25 39 26 41 27 42 28 43 89 44 29 45 88 46 30 47
REMARK SMILES IDX 31 48 32 49 82 50 33 51 87 52 81 53 83 54 34 55 86 56 80 57
REMARK SMILES IDX 79 58 35 60 67 61 47 62 66 63 48 64 51 65 65 66 84 67 49 68
REMARK SMILES IDX 50 69 64 71 85 72 52 73 36 74 37 75 45 76 38 77 40 78 46 79
REMARK SMILES IDX 39 80 41 81 42 82 43 83 44 84 68 85 69 86 77 87 70 88 72 89
REMARK SMILES IDX 78 90 71 91 73 92 74 93 75 94 76 95 53 96 54 97 62 98 55 99
REMARK SMILES IDX 57 100 63 101 56 102 58 103 59 104 60 105 61 106
REMARK H PARENT 20 4 14 11 1 27 1 28 24 40 83 59 51 70
REMARK Flexibility Score: inf
ROOT
ATOM      1  C   UNL A   1      32.553  29.201  24.285  1.00  0.00     0.220 C 
ATOM      2  O   UNL A   1      33.048  28.865  23.210  1.00  0.00    -0.275 OA
ATOM      3  N   UNL A   1      33.366  29.736  25.236  1.00  0.00    -0.356 N 
ATOM      4  H   UNL A   1      34.319  29.763  24.990  1.00  0.00     0.163 HD
ENDROOT
BRANCH   1   5
ATOM      5  C   UNL A   1      31.068  29.036  24.522  1.00  0.00     0.102 C 
BRANCH   5   6
ATOM      6  C   UNL A   1      30.672  27.670  25.085  1.00  0.00     0.031 C 
BRANCH   6   7
ATOM      7  C   UNL A   1      29.872  26.765  24.156  1.00  0.00     0.116 C 
BRANCH   7   8
ATOM      8  N   UNL A   1      30.308  26.810  22.771  1.00  0.00    -0.351 N 
ATOM      9  C   UNL A   1      31.287  26.091  22.119  1.00  0.00     0.271 C 
ATOM     10  O   UNL A   1      31.455  26.333  20.922  1.00  0.00    -0.267 OA
ATOM     11  H   UNL A   1      29.828  27.459  22.208  1.00  0.00     0.163 HD
BRANCH   9  12
ATOM     12  C   UNL A   1      32.091  25.101  22.854  1.00  0.00     0.151 A 
ATOM     13  N   UNL A   1      32.695  23.183  23.595  1.00  0.00    -0.232 N 
ATOM     14  N   UNL A   1      31.788  23.789  22.794  1.00  0.00    -0.162 NA
ATOM     15  C   UNL A   1      33.713  24.049  23.965  1.00  0.00     0.075 A 
ATOM     16  C   UNL A   1      33.245  25.306  23.651  1.00  0.00     0.065 A 
BRANCH  13  17
ATOM     17  C   UNL A   1      32.606  21.799  23.896  1.00  0.00     0.065 A 
ATOM     18  C   UNL A   1      32.765  19.065  24.369  1.00  0.00     0.082 A 
ATOM     19  C   UNL A   1      33.145  19.958  25.374  1.00  0.00     0.024 A 
ATOM     20  C   UNL A   1      32.267  19.530  23.146  1.00  0.00     0.024 A 
ATOM     21  C   UNL A   1      33.063  21.327  25.137  1.00  0.00     0.030 A 
ATOM     22  C   UNL A   1      32.159  20.905  22.916  1.00  0.00     0.030 A 
BRANCH  18  23
ATOM     23  S   UNL A   1      32.980  17.337  24.659  1.00  0.00     0.238 S 
ATOM     24  O   UNL A   1      31.834  16.841  25.376  1.00  0.00    -0.207 OA
ATOM     25  O   UNL A   1      34.341  17.096  25.094  1.00  0.00    -0.207 OA
BRANCH  23  26
ATOM     26  N   UNL A   1      32.901  16.651  23.126  1.00  0.00    -0.225 NA
ATOM     27  H   UNL A   1      33.666  17.007  22.554  1.00  0.00     0.137 HD
ATOM     28  H   UNL A   1      32.011  16.891  22.690  1.00  0.00     0.137 HD
ENDBRANCH  23  26
ENDBRANCH  18  23
ENDBRANCH  13  17
BRANCH  15  29
ATOM     29  C   UNL A   1      35.047  23.649  24.415  1.00  0.00     0.000 A 
ATOM     30  C   UNL A   1      35.509  24.063  25.676  1.00  0.00     0.010 A 
ATOM     31  C   UNL A   1      35.858  22.824  23.633  1.00  0.00     0.010 A 
ATOM     32  C   UNL A   1      36.778  23.702  26.126  1.00  0.00     0.001 A 
ATOM     33  C   UNL A   1      37.124  22.452  24.091  1.00  0.00     0.001 A 
ATOM     34  C   UNL A   1      37.586  22.898  25.330  1.00  0.00     0.000 A 
ENDBRANCH  15  29
ENDBRANCH   9  12
ENDBRANCH   7   8
ENDBRANCH   6   7
ENDBRANCH   5   6
ENDBRANCH   1   5
BRANCH   3  35
ATOM     35  C   UNL A   1      33.069  30.273  26.556  1.00  0.00     0.117 C 
BRANCH  35  36
ATOM     36  C   UNL A   1      34.256  30.165  27.520  1.00  0.00     0.042 C 
BRANCH  36  37
ATOM     37  C   UNL A   1      35.062  31.441  27.624  1.00  0.00     0.118 C 
BRANCH  37  38
ATOM     38  N   UNL A   1      34.707  32.258  28.785  1.00  0.00    -0.352 N 
ATOM     39  C   UNL A   1      35.161  32.104  30.085  1.00  0.00     0.251 C 
ATOM     40  H   UNL A   1      34.078  32.999  28.625  1.00  0.00     0.163 HD
ATOM     41  O   UNL A   1      34.544  32.582  31.030  1.00  0.00    -0.269 OA
BRANCH  39  42
ATOM     42  C   UNL A   1      36.405  31.342  30.303  1.00  0.00     0.039 A 
ATOM     43  C   UNL A   1      36.414  29.959  30.495  1.00  0.00     0.014 A 
ATOM     44  C   UNL A   1      37.597  32.054  30.238  1.00  0.00     0.014 A 
ATOM     45  C   UNL A   1      37.644  29.306  30.542  1.00  0.00     0.010 A 
ATOM     46  C   UNL A   1      38.768  31.390  30.022  1.00  0.00     0.010 A 
ATOM     47  C   UNL A   1      38.818  30.032  30.281  1.00  0.00    -0.014 A 
BRANCH  47  48
ATOM     48  C   UNL A   1      40.119  29.388  30.179  1.00  0.00     0.031 A 
ATOM     49  C   UNL A   1      40.760  29.144  31.493  1.00  0.00     0.074 A 
ATOM     50  C   UNL A   1      40.598  28.875  29.022  1.00  0.00     0.049 A 
ATOM     51  N   UNL A   1      41.729  29.818  32.018  1.00  0.00    -0.248 NA
ATOM     52  C   UNL A   1      40.130  28.189  32.418  1.00  0.00     0.031 C 
ATOM     53  C   UNL A   1      39.913  28.757  27.725  1.00  0.00     0.029 A 
ATOM     54  N   UNL A   1      41.763  28.211  28.795  1.00  0.00    -0.354 N 
ATOM     55  C   UNL A   1      42.022  29.163  33.209  1.00  0.00     0.074 A 
ATOM     56  C   UNL A   1      40.861  28.374  33.521  1.00  0.00     0.031 C 
ATOM     57  C   UNL A   1      40.549  27.846  26.957  1.00  0.00     0.029 A 
ATOM     58  C   UNL A   1      41.777  27.460  27.621  1.00  0.00     0.049 A 
ATOM     59  H   UNL A   1      42.531  28.256  29.409  1.00  0.00     0.167 HD
ATOM     60  C   UNL A   1      43.309  29.075  33.648  1.00  0.00     0.034 A 
ATOM     61  C   UNL A   1      42.714  26.554  27.246  1.00  0.00     0.034 A 
ATOM     62  C   UNL A   1      44.166  29.982  32.918  1.00  0.00     0.049 A 
ATOM     63  C   UNL A   1      43.937  26.853  28.023  1.00  0.00     0.074 A 
ATOM     64  C   UNL A   1      44.168  31.340  32.664  1.00  0.00     0.029 A 
ATOM     65  N   UNL A   1      44.981  29.420  31.964  1.00  0.00    -0.354 N 
ATOM     66  N   UNL A   1      44.633  27.944  27.870  1.00  0.00    -0.248 NA
ATOM     67  C   UNL A   1      44.125  26.158  29.285  1.00  0.00     0.031 C 
ATOM     68  C   UNL A   1      44.585  31.458  31.304  1.00  0.00     0.029 A 
ATOM     69  C   UNL A   1      44.900  30.182  30.832  1.00  0.00     0.049 A 
ATOM     70  H   UNL A   1      45.528  28.609  32.077  1.00  0.00     0.167 HD
ATOM     71  C   UNL A   1      44.944  28.328  29.167  1.00  0.00     0.074 A 
ATOM     72  C   UNL A   1      44.712  27.135  29.981  1.00  0.00     0.031 C 
ATOM     73  C   UNL A   1      45.060  29.649  29.498  1.00  0.00     0.034 A 
BRANCH  60  74
ATOM     74  C   UNL A   1      43.895  27.900  34.405  1.00  0.00     0.023 A 
ATOM     75  C   UNL A   1      44.715  28.207  35.515  1.00  0.00     0.012 A 
ATOM     76  C   UNL A   1      43.935  26.567  33.936  1.00  0.00     0.148 A 
ATOM     77  C   UNL A   1      45.587  27.264  36.070  1.00  0.00     0.002 A 
ATOM     78  C   UNL A   1      44.743  25.612  34.542  1.00  0.00     0.091 A 
ATOM     79  F   UNL A   1      43.297  26.225  32.816  1.00  0.00    -0.205 F 
ATOM     80  C   UNL A   1      45.600  25.964  35.585  1.00  0.00     0.022 A 
BRANCH  78  81
ATOM     81  S   UNL A   1      44.760  23.903  33.984  1.00  0.00     0.127 S 
ATOM     82  O   UNL A   1      43.353  23.539  34.120  1.00  0.00    -0.237 OA
ATOM     83  O   UNL A   1      45.237  24.046  32.608  1.00  0.00    -0.237 OA
ATOM     84  O   UNL A   1      45.690  23.209  34.866  1.00  0.00    -0.744 OA
ENDBRANCH  78  81
ENDBRANCH  60  74
BRANCH  61  85
ATOM     85  C   UNL A   1      42.580  25.305  26.462  1.00  0.00     0.023 A 
ATOM     86  C   UNL A   1      43.336  25.136  25.283  1.00  0.00     0.012 A 
ATOM     87  C   UNL A   1      41.959  24.167  27.022  1.00  0.00     0.148 A 
ATOM     88  C   UNL A   1      43.504  23.871  24.707  1.00  0.00     0.002 A 
ATOM     89  C   UNL A   1      42.130  22.911  26.446  1.00  0.00     0.091 A 
ATOM     90  F   UNL A   1      41.284  24.303  28.172  1.00  0.00    -0.205 F 
ATOM     91  C   UNL A   1      42.913  22.757  25.296  1.00  0.00     0.022 A 
BRANCH  89  92
ATOM     92  S   UNL A   1      41.430  21.421  27.169  1.00  0.00     0.127 S 
ATOM     93  O   UNL A   1      40.046  21.827  27.416  1.00  0.00    -0.237 OA
ATOM     94  O   UNL A   1      41.602  20.453  26.088  1.00  0.00    -0.237 OA
ATOM     95  O   UNL A   1      42.206  21.164  28.375  1.00  0.00    -0.744 OA
ENDBRANCH  89  92
ENDBRANCH  61  85
BRANCH  73  96
ATOM     96  C   UNL A   1      45.144  30.656  28.378  1.00  0.00     0.023 A 
ATOM     97  C   UNL A   1      44.009  31.196  27.737  1.00  0.00     0.012 A 
ATOM     98  C   UNL A   1      46.410  31.177  28.065  1.00  0.00     0.148 A 
ATOM     99  C   UNL A   1      44.141  32.212  26.784  1.00  0.00     0.002 A 
ATOM    100  C   UNL A   1      46.533  32.217  27.154  1.00  0.00     0.091 A 
ATOM    101  F   UNL A   1      47.481  30.654  28.681  1.00  0.00    -0.205 F 
ATOM    102  C   UNL A   1      45.402  32.731  26.501  1.00  0.00     0.022 A 
BRANCH 100 103
ATOM    103  S   UNL A   1      48.119  32.994  26.844  1.00  0.00     0.127 S 
ATOM    104  O   UNL A   1      47.800  33.916  25.758  1.00  0.00    -0.237 OA
ATOM    105  O   UNL A   1      48.414  33.635  28.126  1.00  0.00    -0.237 OA
ATOM    106  O   UNL A   1      49.032  31.909  26.503  1.00  0.00    -0.744 OA
ENDBRANCH 100 103
ENDBRANCH  73  96
ENDBRANCH  47  48
ENDBRANCH  39  42
ENDBRANCH  37  38
ENDBRANCH  36  37
ENDBRANCH  35  36
ENDBRANCH   3  35
TORSDOF 21
ENDMDL
MODEL 3
REMARK VINA RESULT:     -11.5      3.579      7.434
REMARK SMILES NS(=O)(=O)c1ccc(-n2nc(C(=O)NCCCC(=O)NCCCNC(=O)c3ccc(-c4c5nc(c(-c6cccc(S(=O)(=O)[O-])c6F)c6ccc([nH]6)c(-c6cccc(S(=O)(=O)[O-])c6F)c6nc(c(-c7cccc(S(=O)(=O)[O-])c7F)c7ccc4[nH]7)C=C6)C=C5)cc3)cc2-c2ccccc2)cc1
REMARK SMILES IDX 18 1 19 2 20 3 17 5 16 6 15 7 14 8 12 9 13 10 11 12 9 13
REMARK SMILES IDX 10 14 91 15 90 16 8 17 5 18 6 19 99 20 7 21 98 22 2 23 3 24
REMARK SMILES IDX 4 25 1 26 92 29 93 30 97 31 94 32 96 33 95 34 21 35 22 36
REMARK SMILES IDX 23 37 24 38 25 39 26 41 27 42 28 43 89 44 29 45 88 46 30 47
REMARK SMILES IDX 31 48 32 49 82 50 33 51 87 52 81 53 83 54 34 55 86 56 80 57
REMARK SMILES IDX 79 58 35 60 67 61 47 62 66 63 48 64 51 65 65 66 84 67 49 68
REMARK SMILES IDX 50 69 64 71 85 72 52 73 36 74 37 75 45 76 38 77 40 78 46 79
REMARK SMILES IDX 39 80 41 81 42 82 43 83 44 84 68 85 69 86 77 87 70 88 72 89
REMARK SMILES IDX 78 90 71 91 73 92 74 93 75 94 76 95 53 96 54 97 62 98 55 99
REMARK SMILES IDX 57 100 63 101 56 102 58 103 59 104 60 105 61 106
REMARK H PARENT 20 4 14 11 1 27 1 28 24 40 83 59 51 70
REMARK Flexibility Score: inf
ROOT
ATOM      1  C   UNL A   1      32.162  29.262  27.126  1.00  0.00     0.220 C 
ATOM      2  O   UNL A   1      31.382  28.418  27.564  1.00  0.00    -0.275 OA
ATOM      3  N   UNL A   1      33.399  29.356  27.686  1.00  0.00    -0.356 N 
ATOM      4  H   UNL A   1      33.549  28.754  28.449  1.00  0.00     0.163 HD
ENDROOT
BRANCH   1   5
ATOM      5  C   UNL A   1      31.748  30.153  25.976  1.00  0.00     0.102 C 
BRANCH   5   6
ATOM      6  C   UNL A   1      31.149  29.401  24.786  1.00  0.00     0.031 C 
BRANCH   6   7
ATOM      7  C   UNL A   1      32.077  28.426  24.071  1.00  0.00     0.116 C 
BRANCH   7   8
ATOM      8  N   UNL A   1      31.555  27.937  22.805  1.00  0.00    -0.351 N 
ATOM      9  C   UNL A   1      31.661  26.695  22.217  1.00  0.00     0.271 C 
ATOM     10  O   UNL A   1      31.117  26.548  21.120  1.00  0.00    -0.267 OA
ATOM     11  H   UNL A   1      31.047  28.599  22.285  1.00  0.00     0.163 HD
BRANCH   9  12
ATOM     12  C   UNL A   1      32.413  25.620  22.886  1.00  0.00     0.151 A 
ATOM     13  N   UNL A   1      32.937  23.629  23.477  1.00  0.00    -0.232 N 
ATOM     14  N   UNL A   1      32.072  24.329  22.707  1.00  0.00    -0.162 NA
ATOM     15  C   UNL A   1      33.970  24.426  23.945  1.00  0.00     0.075 A 
ATOM     16  C   UNL A   1      33.550  25.720  23.726  1.00  0.00     0.065 A 
BRANCH  13  17
ATOM     17  C   UNL A   1      32.797  22.228  23.657  1.00  0.00     0.065 A 
ATOM     18  C   UNL A   1      32.846  19.457  23.866  1.00  0.00     0.082 A 
ATOM     19  C   UNL A   1      33.347  20.232  24.914  1.00  0.00     0.024 A 
ATOM     20  C   UNL A   1      32.282  20.058  22.733  1.00  0.00     0.024 A 
ATOM     21  C   UNL A   1      33.320  21.620  24.810  1.00  0.00     0.030 A 
ATOM     22  C   UNL A   1      32.231  21.452  22.639  1.00  0.00     0.030 A 
BRANCH  18  23
ATOM     23  S   UNL A   1      32.989  17.701  23.980  1.00  0.00     0.238 S 
ATOM     24  O   UNL A   1      34.137  17.381  24.788  1.00  0.00    -0.207 OA
ATOM     25  O   UNL A   1      32.766  17.123  22.670  1.00  0.00    -0.207 OA
BRANCH  23  26
ATOM     26  N   UNL A   1      31.645  17.238  24.879  1.00  0.00    -0.225 NA
ATOM     27  H   UNL A   1      31.949  16.880  25.785  1.00  0.00     0.137 HD
ATOM     28  H   UNL A   1      31.135  16.510  24.379  1.00  0.00     0.137 HD
ENDBRANCH  23  26
ENDBRANCH  18  23
ENDBRANCH  13  17
BRANCH  15  29
ATOM     29  C   UNL A   1      35.278  23.947  24.393  1.00  0.00     0.000 A 
ATOM     30  C   UNL A   1      36.049  23.133  23.546  1.00  0.00     0.010 A 
ATOM     31  C   UNL A   1      35.799  24.321  25.633  1.00  0.00     0.010 A 
ATOM     32  C   UNL A   1      37.295  22.657  23.952  1.00  0.00     0.001 A 
ATOM     33  C   UNL A   1      37.054  23.855  26.034  1.00  0.00     0.001 A 
ATOM     34  C   UNL A   1      37.795  23.017  25.198  1.00  0.00     0.000 A 
ENDBRANCH  15  29
ENDBRANCH   9  12
ENDBRANCH   7   8
ENDBRANCH   6   7
ENDBRANCH   5   6
ENDBRANCH   1   5
BRANCH   3  35
ATOM     35  C   UNL A   1      34.539  30.198  27.349  1.00  0.00     0.117 C 
BRANCH  35  36
ATOM     36  C   UNL A   1      34.320  31.667  27.728  1.00  0.00     0.042 C 
BRANCH  36  37
ATOM     37  C   UNL A   1      35.603  32.400  28.050  1.00  0.00     0.118 C 
BRANCH  37  38
ATOM     38  N   UNL A   1      35.618  32.984  29.393  1.00  0.00    -0.352 N 
ATOM     39  C   UNL A   1      36.403  32.592  30.465  1.00  0.00     0.251 C 
ATOM     40  H   UNL A   1      35.004  33.737  29.550  1.00  0.00     0.163 HD
ATOM     41  O   UNL A   1      36.090  32.881  31.614  1.00  0.00    -0.269 OA
BRANCH  39  42
ATOM     42  C   UNL A   1      37.622  31.810  30.187  1.00  0.00     0.039 A 
ATOM     43  C   UNL A   1      38.879  32.403  30.054  1.00  0.00     0.014 A 
ATOM     44  C   UNL A   1      37.483  30.429  30.134  1.00  0.00     0.014 A 
ATOM     45  C   UNL A   1      39.993  31.574  29.943  1.00  0.00     0.010 A 
ATOM     46  C   UNL A   1      38.581  29.634  30.290  1.00  0.00     0.010 A 
ATOM     47  C   UNL A   1      39.833  30.186  30.085  1.00  0.00    -0.014 A 
BRANCH  47  48
ATOM     48  C   UNL A   1      40.968  29.275  30.117  1.00  0.00     0.031 A 
ATOM     49  C   UNL A   1      41.376  28.891  31.488  1.00  0.00     0.074 A 
ATOM     50  C   UNL A   1      41.465  28.678  29.009  1.00  0.00     0.049 A 
ATOM     51  N   UNL A   1      42.395  29.335  32.146  1.00  0.00    -0.248 NA
ATOM     52  C   UNL A   1      40.447  28.088  32.300  1.00  0.00     0.031 C 
ATOM     53  C   UNL A   1      40.935  28.720  27.636  1.00  0.00     0.029 A 
ATOM     54  N   UNL A   1      42.479  27.779  28.899  1.00  0.00    -0.354 N 
ATOM     55  C   UNL A   1      42.392  28.624  33.342  1.00  0.00     0.074 A 
ATOM     56  C   UNL A   1      41.059  28.104  33.488  1.00  0.00     0.031 C 
ATOM     57  C   UNL A   1      41.450  27.698  26.919  1.00  0.00     0.029 A 
ATOM     58  C   UNL A   1      42.476  27.051  27.711  1.00  0.00     0.049 A 
ATOM     59  H   UNL A   1      43.158  27.653  29.601  1.00  0.00     0.167 HD
ATOM     60  C   UNL A   1      43.567  28.257  33.927  1.00  0.00     0.034 A 
ATOM     61  C   UNL A   1      43.236  25.965  27.420  1.00  0.00     0.034 A 
ATOM     62  C   UNL A   1      44.681  28.961  33.334  1.00  0.00     0.049 A 
ATOM     63  C   UNL A   1      44.389  25.988  28.346  1.00  0.00     0.074 A 
ATOM     64  C   UNL A   1      45.006  30.288  33.126  1.00  0.00     0.029 A 
ATOM     65  N   UNL A   1      45.467  28.242  32.465  1.00  0.00    -0.354 N 
ATOM     66  N   UNL A   1      45.317  26.902  28.312  1.00  0.00    -0.248 NA
ATOM     67  C   UNL A   1      44.268  25.260  29.598  1.00  0.00     0.031 C 
ATOM     68  C   UNL A   1      45.601  30.321  31.830  1.00  0.00     0.029 A 
ATOM     69  C   UNL A   1      45.692  29.010  31.357  1.00  0.00     0.049 A 
ATOM     70  H   UNL A   1      45.809  27.331  32.615  1.00  0.00     0.167 HD
ATOM     71  C   UNL A   1      45.541  27.202  29.649  1.00  0.00     0.074 A 
ATOM     72  C   UNL A   1      44.961  26.083  30.390  1.00  0.00     0.031 C 
ATOM     73  C   UNL A   1      45.896  28.464  30.034  1.00  0.00     0.034 A 
BRANCH  60  74
ATOM     74  C   UNL A   1      43.790  26.978  34.709  1.00  0.00     0.023 A 
ATOM     75  C   UNL A   1      43.188  25.807  34.192  1.00  0.00     0.012 A 
ATOM     76  C   UNL A   1      44.285  26.906  36.031  1.00  0.00     0.148 A 
ATOM     77  C   UNL A   1      43.013  24.661  34.975  1.00  0.00     0.002 A 
ATOM     78  C   UNL A   1      44.182  25.739  36.778  1.00  0.00     0.091 A 
ATOM     79  F   UNL A   1      44.746  27.999  36.641  1.00  0.00    -0.205 F 
ATOM     80  C   UNL A   1      43.513  24.625  36.270  1.00  0.00     0.022 A 
BRANCH  78  81
ATOM     81  S   UNL A   1      44.854  25.624  38.442  1.00  0.00     0.127 S 
ATOM     82  O   UNL A   1      44.813  24.183  38.673  1.00  0.00    -0.237 OA
ATOM     83  O   UNL A   1      46.192  26.188  38.260  1.00  0.00    -0.237 OA
ATOM     84  O   UNL A   1      43.977  26.433  39.279  1.00  0.00    -0.744 OA
ENDBRANCH  78  81
ENDBRANCH  60  74
BRANCH  61  85
ATOM     85  C   UNL A   1      42.935  24.780  26.585  1.00  0.00     0.023 A 
ATOM     86  C   UNL A   1      43.678  24.547  25.410  1.00  0.00     0.012 A 
ATOM     87  C   UNL A   1      42.144  23.725  27.093  1.00  0.00     0.148 A 
ATOM     88  C   UNL A   1      43.670  23.294  24.786  1.00  0.00     0.002 A 
ATOM     89  C   UNL A   1      42.140  22.480  26.468  1.00  0.00     0.091 A 
ATOM     90  F   UNL A   1      41.476  23.915  28.239  1.00  0.00    -0.205 F 
ATOM     91  C   UNL A   1      42.912  22.257  25.322  1.00  0.00     0.022 A 
BRANCH  89  92
ATOM     92  S   UNL A   1      41.216  21.083  27.123  1.00  0.00     0.127 S 
ATOM     93  O   UNL A   1      40.216  20.865  26.077  1.00  0.00    -0.237 OA
ATOM     94  O   UNL A   1      42.250  20.053  27.208  1.00  0.00    -0.237 OA
ATOM     95  O   UNL A   1      40.669  21.533  28.396  1.00  0.00    -0.744 OA
ENDBRANCH  89  92
ENDBRANCH  61  85
BRANCH  73  96
ATOM     96  C   UNL A   1      46.331  29.436  28.966  1.00  0.00     0.023 A 
ATOM     97  C   UNL A   1      47.635  29.460  28.427  1.00  0.00     0.012 A 
ATOM     98  C   UNL A   1      45.346  30.253  28.390  1.00  0.00     0.148 A 
ATOM     99  C   UNL A   1      47.952  30.305  27.358  1.00  0.00     0.002 A 
ATOM    100  C   UNL A   1      45.651  31.055  27.299  1.00  0.00     0.091 A 
ATOM    101  F   UNL A   1      44.110  30.220  28.913  1.00  0.00    -0.205 F 
ATOM    102  C   UNL A   1      46.956  31.093  26.785  1.00  0.00     0.022 A 
BRANCH 100 103
ATOM    103  S   UNL A   1      44.378  31.998  26.458  1.00  0.00     0.127 S 
ATOM    104  O   UNL A   1      45.108  32.543  25.316  1.00  0.00    -0.237 OA
ATOM    105  O   UNL A   1      43.392  30.970  26.122  1.00  0.00    -0.237 OA
ATOM    106  O   UNL A   1      43.903  32.977  27.429  1.00  0.00    -0.744 OA
ENDBRANCH 100 103
ENDBRANCH  73  96
ENDBRANCH  47  48
ENDBRANCH  39  42
ENDBRANCH  37  38
ENDBRANCH  36  37
ENDBRANCH  35  36
ENDBRANCH   3  35
TORSDOF 21
ENDMDL
