MODEL 1
REMARK VINA RESULT:     -12.2      0.000      0.000
REMARK SMILES NC(=O)c1ccccc1NC(=O)[C@@H]1CC=CC[C@@H]1C(=O)NCCCNC(=O)c1ccc(-c2c3nc(c(-c4cccc(S(=O)(=O)[O-])c4F)c4ccc([nH]4)c(-c4cccc(S(=O)(=O)[O-])c4F)c4nc(c(-c5cccc(S(=O)(=O)[O-])c5F)c5ccc2[nH]5)C=C4)C=C3)cc1
REMARK SMILES IDX 23 1 22 2 21 3 19 4 20 5 18 7 13 8 14 9 15 10 17 11 16 12
REMARK SMILES IDX 11 13 10 14 12 16 9 17 4 18 5 19 6 20 8 21 7 22 2 23 1 24
REMARK SMILES IDX 3 27 24 28 25 29 26 30 27 32 28 33 29 34 90 35 30 36 89 37
REMARK SMILES IDX 31 38 32 39 33 40 83 41 34 42 88 43 82 44 84 45 35 46 87 47
REMARK SMILES IDX 81 48 80 49 36 51 68 52 48 53 67 54 49 55 52 56 66 57 85 58
REMARK SMILES IDX 50 59 51 60 65 62 86 63 53 64 37 65 38 66 46 67 39 68 41 69
REMARK SMILES IDX 47 70 40 71 42 72 43 73 44 74 45 75 69 76 70 77 78 78 71 79
REMARK SMILES IDX 73 80 79 81 72 82 74 83 75 84 76 85 77 86 54 87 55 88 63 89
REMARK SMILES IDX 56 90 58 91 64 92 57 93 59 94 60 95 61 96 62 97
REMARK H PARENT 21 6 10 15 1 25 1 26 25 31 84 50 52 61
REMARK Flexibility Score: inf
ROOT
ATOM      1  C   UNL A   1      33.339  27.989  26.911  1.00  0.00     0.042 C 
ENDROOT
BRANCH   1   2
ATOM      2  C   UNL A   1      32.518  27.037  26.063  1.00  0.00     0.117 C 
BRANCH   2   3
ATOM      3  N   UNL A   1      32.459  25.742  26.699  1.00  0.00    -0.356 N 
ATOM      4  C   UNL A   1      32.835  24.518  26.242  1.00  0.00     0.224 C 
ATOM      5  O   UNL A   1      32.558  23.562  26.969  1.00  0.00    -0.275 OA
ATOM      6  H   UNL A   1      32.084  25.746  27.609  1.00  0.00     0.163 HD
BRANCH   4   7
ATOM      7  C   UNL A   1      33.647  24.381  24.944  1.00  0.00     0.095 C 
ATOM      8  C   UNL A   1      33.544  23.037  24.186  1.00  0.00     0.095 C 
ATOM      9  C   UNL A   1      33.957  21.884  25.138  1.00  0.00     0.041 C 
ATOM     10  C   UNL A   1      35.249  22.158  25.856  1.00  0.00    -0.030 C 
ATOM     11  C   UNL A   1      35.147  24.593  25.306  1.00  0.00     0.041 C 
ATOM     12  C   UNL A   1      35.807  23.377  25.902  1.00  0.00    -0.030 C 
BRANCH   8  13
ATOM     13  C   UNL A   1      32.282  22.619  23.423  1.00  0.00     0.228 C 
ATOM     14  N   UNL A   1      31.421  23.459  22.772  1.00  0.00    -0.325 N 
ATOM     15  H   UNL A   1      31.004  23.060  21.974  1.00  0.00     0.169 HD
ATOM     16  O   UNL A   1      32.001  21.419  23.306  1.00  0.00    -0.274 OA
BRANCH  14  17
ATOM     17  C   UNL A   1      31.016  24.782  23.019  1.00  0.00     0.053 A 
ATOM     18  C   UNL A   1      31.508  25.834  22.207  1.00  0.00     0.063 A 
ATOM     19  C   UNL A   1      30.899  27.102  22.289  1.00  0.00     0.016 A 
ATOM     20  C   UNL A   1      29.880  27.352  23.204  1.00  0.00     0.001 A 
ATOM     21  C   UNL A   1      30.084  25.087  24.014  1.00  0.00     0.027 A 
ATOM     22  C   UNL A   1      29.504  26.356  24.096  1.00  0.00     0.002 A 
BRANCH  18  23
ATOM     23  C   UNL A   1      32.643  25.760  21.230  1.00  0.00     0.250 C 
ATOM     24  N   UNL A   1      32.410  25.712  19.882  1.00  0.00    -0.366 N 
ATOM     25  H   UNL A   1      33.166  25.662  19.254  1.00  0.00     0.159 HD
ATOM     26  H   UNL A   1      31.487  25.726  19.542  1.00  0.00     0.159 HD
ATOM     27  O   UNL A   1      33.799  25.763  21.636  1.00  0.00    -0.269 OA
ENDBRANCH  18  23
ENDBRANCH  14  17
ENDBRANCH   8  13
ENDBRANCH   4   7
ENDBRANCH   2   3
ENDBRANCH   1   2
BRANCH   1  28
ATOM     28  C   UNL A   1      34.003  29.112  26.142  1.00  0.00     0.118 C 
BRANCH  28  29
ATOM     29  N   UNL A   1      33.834  30.407  26.784  1.00  0.00    -0.352 N 
ATOM     30  C   UNL A   1      34.573  31.069  27.735  1.00  0.00     0.251 C 
ATOM     31  H   UNL A   1      33.040  30.904  26.480  1.00  0.00     0.163 HD
ATOM     32  O   UNL A   1      34.129  32.133  28.166  1.00  0.00    -0.269 OA
BRANCH  30  33
ATOM     33  C   UNL A   1      35.862  30.542  28.258  1.00  0.00     0.039 A 
ATOM     34  C   UNL A   1      35.832  29.664  29.348  1.00  0.00     0.014 A 
ATOM     35  C   UNL A   1      37.099  30.926  27.740  1.00  0.00     0.014 A 
ATOM     36  C   UNL A   1      37.024  29.150  29.878  1.00  0.00     0.010 A 
ATOM     37  C   UNL A   1      38.271  30.313  28.180  1.00  0.00     0.010 A 
ATOM     38  C   UNL A   1      38.258  29.442  29.276  1.00  0.00    -0.014 A 
BRANCH  38  39
ATOM     39  C   UNL A   1      39.544  28.881  29.778  1.00  0.00     0.031 A 
ATOM     40  C   UNL A   1      40.266  29.547  30.929  1.00  0.00     0.074 A 
ATOM     41  C   UNL A   1      40.128  27.849  29.135  1.00  0.00     0.049 A 
ATOM     42  N   UNL A   1      41.452  29.292  31.419  1.00  0.00    -0.248 NA
ATOM     43  C   UNL A   1      39.586  30.676  31.588  1.00  0.00     0.031 C 
ATOM     44  C   UNL A   1      39.592  27.171  27.953  1.00  0.00     0.029 A 
ATOM     45  N   UNL A   1      41.325  27.213  29.363  1.00  0.00    -0.354 N 
ATOM     46  C   UNL A   1      41.687  30.268  32.382  1.00  0.00     0.074 A 
ATOM     47  C   UNL A   1      40.532  31.136  32.395  1.00  0.00     0.031 C 
ATOM     48  C   UNL A   1      40.454  26.218  27.559  1.00  0.00     0.029 A 
ATOM     49  C   UNL A   1      41.617  26.235  28.440  1.00  0.00     0.049 A 
ATOM     50  H   UNL A   1      41.918  27.436  30.117  1.00  0.00     0.167 HD
ATOM     51  C   UNL A   1      42.753  30.414  33.206  1.00  0.00     0.034 A 
ATOM     52  C   UNL A   1      42.701  25.444  28.309  1.00  0.00     0.034 A 
ATOM     53  C   UNL A   1      43.850  29.488  33.272  1.00  0.00     0.049 A 
ATOM     54  C   UNL A   1      43.814  25.552  29.318  1.00  0.00     0.074 A 
ATOM     55  C   UNL A   1      44.904  29.468  34.170  1.00  0.00     0.029 A 
ATOM     56  N   UNL A   1      44.032  28.415  32.416  1.00  0.00    -0.354 N 
ATOM     57  N   UNL A   1      43.927  26.370  30.335  1.00  0.00    -0.248 NA
ATOM     58  C   UNL A   1      44.925  24.599  29.188  1.00  0.00     0.031 C 
ATOM     59  C   UNL A   1      45.730  28.388  33.848  1.00  0.00     0.029 A 
ATOM     60  C   UNL A   1      45.180  27.726  32.763  1.00  0.00     0.049 A 
ATOM     61  H   UNL A   1      43.434  28.178  31.671  1.00  0.00     0.167 HD
ATOM     62  C   UNL A   1      45.097  26.002  30.990  1.00  0.00     0.074 A 
ATOM     63  C   UNL A   1      45.646  24.874  30.267  1.00  0.00     0.031 C 
ATOM     64  C   UNL A   1      45.675  26.559  32.082  1.00  0.00     0.034 A 
BRANCH  51  65
ATOM     65  C   UNL A   1      42.763  31.580  34.162  1.00  0.00     0.023 A 
ATOM     66  C   UNL A   1      43.272  32.824  33.740  1.00  0.00     0.012 A 
ATOM     67  C   UNL A   1      42.178  31.469  35.439  1.00  0.00     0.148 A 
ATOM     68  C   UNL A   1      43.227  33.932  34.584  1.00  0.00     0.002 A 
ATOM     69  C   UNL A   1      42.095  32.589  36.258  1.00  0.00     0.091 A 
ATOM     70  F   UNL A   1      41.715  30.272  35.829  1.00  0.00    -0.205 F 
ATOM     71  C   UNL A   1      42.628  33.819  35.836  1.00  0.00     0.022 A 
BRANCH  69  72
ATOM     72  S   UNL A   1      41.267  32.569  37.852  1.00  0.00     0.127 S 
ATOM     73  O   UNL A   1      39.952  32.042  37.495  1.00  0.00    -0.237 OA
ATOM     74  O   UNL A   1      42.105  31.649  38.622  1.00  0.00    -0.237 OA
ATOM     75  O   UNL A   1      41.279  33.946  38.329  1.00  0.00    -0.744 OA
ENDBRANCH  69  72
ENDBRANCH  51  65
BRANCH  52  76
ATOM     76  C   UNL A   1      42.757  24.425  27.222  1.00  0.00     0.023 A 
ATOM     77  C   UNL A   1      43.457  24.719  26.036  1.00  0.00     0.012 A 
ATOM     78  C   UNL A   1      42.135  23.169  27.358  1.00  0.00     0.148 A 
ATOM     79  C   UNL A   1      43.501  23.799  24.987  1.00  0.00     0.002 A 
ATOM     80  C   UNL A   1      42.231  22.235  26.332  1.00  0.00     0.091 A 
ATOM     81  F   UNL A   1      41.460  22.909  28.488  1.00  0.00    -0.205 F 
ATOM     82  C   UNL A   1      42.897  22.554  25.140  1.00  0.00     0.022 A 
BRANCH  80  83
ATOM     83  S   UNL A   1      41.597  20.563  26.509  1.00  0.00     0.127 S 
ATOM     84  O   UNL A   1      42.252  19.876  25.399  1.00  0.00    -0.237 OA
ATOM     85  O   UNL A   1      42.081  20.186  27.838  1.00  0.00    -0.237 OA
ATOM     86  O   UNL A   1      40.148  20.692  26.419  1.00  0.00    -0.744 OA
ENDBRANCH  80  83
ENDBRANCH  52  76
BRANCH  64  87
ATOM     87  C   UNL A   1      46.940  25.932  32.606  1.00  0.00     0.023 A 
ATOM     88  C   UNL A   1      48.191  26.414  32.177  1.00  0.00     0.012 A 
ATOM     89  C   UNL A   1      46.885  24.919  33.583  1.00  0.00     0.148 A 
ATOM     90  C   UNL A   1      49.371  25.873  32.689  1.00  0.00     0.002 A 
ATOM     91  C   UNL A   1      48.064  24.419  34.124  1.00  0.00     0.091 A 
ATOM     92  F   UNL A   1      45.684  24.459  33.964  1.00  0.00    -0.205 F 
ATOM     93  C   UNL A   1      49.306  24.886  33.669  1.00  0.00     0.022 A 
BRANCH  91  94
ATOM     94  S   UNL A   1      48.066  23.219  35.461  1.00  0.00     0.127 S 
ATOM     95  O   UNL A   1      47.282  23.911  36.483  1.00  0.00    -0.237 OA
ATOM     96  O   UNL A   1      47.395  22.069  34.853  1.00  0.00    -0.237 OA
ATOM     97  O   UNL A   1      49.467  22.992  35.787  1.00  0.00    -0.744 OA
ENDBRANCH  91  94
ENDBRANCH  64  87
ENDBRANCH  38  39
ENDBRANCH  30  33
ENDBRANCH  28  29
ENDBRANCH   1  28
TORSDOF 16
ENDMDL
MODEL 2
REMARK VINA RESULT:     -12.1      4.770      9.484
REMARK SMILES NC(=O)c1ccccc1NC(=O)[C@@H]1CC=CC[C@@H]1C(=O)NCCCNC(=O)c1ccc(-c2c3nc(c(-c4cccc(S(=O)(=O)[O-])c4F)c4ccc([nH]4)c(-c4cccc(S(=O)(=O)[O-])c4F)c4nc(c(-c5cccc(S(=O)(=O)[O-])c5F)c5ccc2[nH]5)C=C4)C=C3)cc1
REMARK SMILES IDX 23 1 22 2 21 3 19 4 20 5 18 7 13 8 14 9 15 10 17 11 16 12
REMARK SMILES IDX 11 13 10 14 12 16 9 17 4 18 5 19 6 20 8 21 7 22 2 23 1 24
REMARK SMILES IDX 3 27 24 28 25 29 26 30 27 32 28 33 29 34 90 35 30 36 89 37
REMARK SMILES IDX 31 38 32 39 33 40 83 41 34 42 88 43 82 44 84 45 35 46 87 47
REMARK SMILES IDX 81 48 80 49 36 51 68 52 48 53 67 54 49 55 52 56 66 57 85 58
REMARK SMILES IDX 50 59 51 60 65 62 86 63 53 64 37 65 38 66 46 67 39 68 41 69
REMARK SMILES IDX 47 70 40 71 42 72 43 73 44 74 45 75 69 76 70 77 78 78 71 79
REMARK SMILES IDX 73 80 79 81 72 82 74 83 75 84 76 85 77 86 54 87 55 88 63 89
REMARK SMILES IDX 56 90 58 91 64 92 57 93 59 94 60 95 61 96 62 97
REMARK H PARENT 21 6 10 15 1 25 1 26 25 31 84 50 52 61
REMARK Flexibility Score: inf
ROOT
ATOM      1  C   UNL A   1      36.263  23.733  25.026  1.00  0.00     0.042 C 
ENDROOT
BRANCH   1   2
ATOM      2  C   UNL A   1      34.780  23.922  24.777  1.00  0.00     0.117 C 
BRANCH   2   3
ATOM      3  N   UNL A   1      34.570  25.051  23.902  1.00  0.00    -0.356 N 
ATOM      4  C   UNL A   1      33.625  26.028  23.934  1.00  0.00     0.224 C 
ATOM      5  O   UNL A   1      33.622  26.808  22.980  1.00  0.00    -0.275 OA
ATOM      6  H   UNL A   1      35.215  25.125  23.162  1.00  0.00     0.163 HD
BRANCH   4   7
ATOM      7  C   UNL A   1      32.700  26.184  25.152  1.00  0.00     0.095 C 
ATOM      8  C   UNL A   1      31.323  26.846  24.912  1.00  0.00     0.095 C 
ATOM      9  C   UNL A   1      31.538  28.249  24.285  1.00  0.00     0.041 C 
ATOM     10  C   UNL A   1      32.561  29.065  25.023  1.00  0.00    -0.030 C 
ATOM     11  C   UNL A   1      33.453  27.052  26.203  1.00  0.00     0.041 C 
ATOM     12  C   UNL A   1      33.404  28.531  25.919  1.00  0.00    -0.030 C 
BRANCH   8  13
ATOM     13  C   UNL A   1      30.191  26.137  24.161  1.00  0.00     0.228 C 
ATOM     14  N   UNL A   1      29.989  24.786  24.099  1.00  0.00    -0.325 N 
ATOM     15  H   UNL A   1      29.041  24.528  24.039  1.00  0.00     0.169 HD
ATOM     16  O   UNL A   1      29.318  26.804  23.588  1.00  0.00    -0.274 OA
BRANCH  14  17
ATOM     17  C   UNL A   1      30.873  23.693  24.105  1.00  0.00     0.053 A 
ATOM     18  C   UNL A   1      31.000  22.895  25.270  1.00  0.00     0.063 A 
ATOM     19  C   UNL A   1      31.675  21.661  25.182  1.00  0.00     0.016 A 
ATOM     20  C   UNL A   1      32.279  21.255  23.994  1.00  0.00     0.001 A 
ATOM     21  C   UNL A   1      31.591  23.327  22.964  1.00  0.00     0.027 A 
ATOM     22  C   UNL A   1      32.274  22.109  22.900  1.00  0.00     0.002 A 
BRANCH  18  23
ATOM     23  C   UNL A   1      30.481  23.215  26.640  1.00  0.00     0.250 C 
ATOM     24  N   UNL A   1      29.482  22.470  27.206  1.00  0.00    -0.366 N 
ATOM     25  H   UNL A   1      29.152  22.694  28.106  1.00  0.00     0.159 HD
ATOM     26  H   UNL A   1      29.093  21.712  26.713  1.00  0.00     0.159 HD
ATOM     27  O   UNL A   1      30.968  24.142  27.275  1.00  0.00    -0.269 OA
ENDBRANCH  18  23
ENDBRANCH  14  17
ENDBRANCH   8  13
ENDBRANCH   4   7
ENDBRANCH   2   3
ENDBRANCH   1   2
BRANCH   1  28
ATOM     28  C   UNL A   1      36.602  22.961  26.286  1.00  0.00     0.118 C 
BRANCH  28  29
ATOM     29  N   UNL A   1      37.854  22.228  26.173  1.00  0.00    -0.352 N 
ATOM     30  C   UNL A   1      39.164  22.608  26.343  1.00  0.00     0.251 C 
ATOM     31  H   UNL A   1      37.742  21.281  25.931  1.00  0.00     0.163 HD
ATOM     32  O   UNL A   1      40.037  21.780  26.086  1.00  0.00    -0.269 OA
BRANCH  30  33
ATOM     33  C   UNL A   1      39.550  23.968  26.805  1.00  0.00     0.039 A 
ATOM     34  C   UNL A   1      39.430  24.271  28.167  1.00  0.00     0.014 A 
ATOM     35  C   UNL A   1      39.977  24.967  25.931  1.00  0.00     0.014 A 
ATOM     36  C   UNL A   1      39.775  25.542  28.644  1.00  0.00     0.010 A 
ATOM     37  C   UNL A   1      40.445  26.185  26.424  1.00  0.00     0.010 A 
ATOM     38  C   UNL A   1      40.321  26.506  27.781  1.00  0.00    -0.014 A 
BRANCH  38  39
ATOM     39  C   UNL A   1      40.743  27.854  28.255  1.00  0.00     0.031 A 
ATOM     40  C   UNL A   1      42.213  28.181  28.404  1.00  0.00     0.074 A 
ATOM     41  C   UNL A   1      39.819  28.747  28.664  1.00  0.00     0.049 A 
ATOM     42  N   UNL A   1      42.775  29.243  28.924  1.00  0.00    -0.248 NA
ATOM     43  C   UNL A   1      43.179  27.165  27.951  1.00  0.00     0.031 C 
ATOM     44  C   UNL A   1      38.370  28.530  28.667  1.00  0.00     0.029 A 
ATOM     45  N   UNL A   1      39.963  30.007  29.195  1.00  0.00    -0.354 N 
ATOM     46  C   UNL A   1      44.142  28.989  28.929  1.00  0.00     0.074 A 
ATOM     47  C   UNL A   1      44.329  27.665  28.381  1.00  0.00     0.031 C 
ATOM     48  C   UNL A   1      37.761  29.615  29.174  1.00  0.00     0.029 A 
ATOM     49  C   UNL A   1      38.773  30.593  29.561  1.00  0.00     0.049 A 
ATOM     50  H   UNL A   1      40.837  30.448  29.303  1.00  0.00     0.167 HD
ATOM     51  C   UNL A   1      45.158  29.795  29.322  1.00  0.00     0.034 A 
ATOM     52  C   UNL A   1      38.520  31.780  30.149  1.00  0.00     0.034 A 
ATOM     53  C   UNL A   1      44.983  31.153  29.760  1.00  0.00     0.049 A 
ATOM     54  C   UNL A   1      39.669  32.702  30.461  1.00  0.00     0.074 A 
ATOM     55  C   UNL A   1      45.956  32.096  30.042  1.00  0.00     0.029 A 
ATOM     56  N   UNL A   1      43.758  31.763  29.972  1.00  0.00    -0.354 N 
ATOM     57  N   UNL A   1      40.953  32.508  30.286  1.00  0.00    -0.248 NA
ATOM     58  C   UNL A   1      39.331  34.024  31.009  1.00  0.00     0.031 C 
ATOM     59  C   UNL A   1      45.318  33.276  30.437  1.00  0.00     0.029 A 
ATOM     60  C   UNL A   1      43.948  33.071  30.381  1.00  0.00     0.049 A 
ATOM     61  H   UNL A   1      42.882  31.331  29.850  1.00  0.00     0.167 HD
ATOM     62  C   UNL A   1      41.571  33.695  30.661  1.00  0.00     0.074 A 
ATOM     63  C   UNL A   1      40.520  34.611  31.052  1.00  0.00     0.031 C 
ATOM     64  C   UNL A   1      42.892  33.996  30.694  1.00  0.00     0.034 A 
BRANCH  51  65
ATOM     65  C   UNL A   1      46.567  29.265  29.233  1.00  0.00     0.023 A 
ATOM     66  C   UNL A   1      47.123  28.572  30.326  1.00  0.00     0.012 A 
ATOM     67  C   UNL A   1      47.300  29.368  28.034  1.00  0.00     0.148 A 
ATOM     68  C   UNL A   1      48.397  28.014  30.240  1.00  0.00     0.002 A 
ATOM     69  C   UNL A   1      48.551  28.770  27.939  1.00  0.00     0.091 A 
ATOM     70  F   UNL A   1      46.762  30.046  27.010  1.00  0.00    -0.205 F 
ATOM     71  C   UNL A   1      49.106  28.102  29.044  1.00  0.00     0.022 A 
BRANCH  69  72
ATOM     72  S   UNL A   1      49.508  28.751  26.419  1.00  0.00     0.127 S 
ATOM     73  O   UNL A   1      48.509  28.311  25.446  1.00  0.00    -0.237 OA
ATOM     74  O   UNL A   1      49.908  30.152  26.290  1.00  0.00    -0.237 OA
ATOM     75  O   UNL A   1      50.607  27.823  26.646  1.00  0.00    -0.744 OA
ENDBRANCH  69  72
ENDBRANCH  51  65
BRANCH  52  76
ATOM     76  C   UNL A   1      37.115  32.199  30.414  1.00  0.00     0.023 A 
ATOM     77  C   UNL A   1      36.551  31.962  31.683  1.00  0.00     0.012 A 
ATOM     78  C   UNL A   1      36.339  32.839  29.428  1.00  0.00     0.148 A 
ATOM     79  C   UNL A   1      35.228  32.315  31.952  1.00  0.00     0.002 A 
ATOM     80  C   UNL A   1      35.040  33.238  29.721  1.00  0.00     0.091 A 
ATOM     81  F   UNL A   1      36.885  33.045  28.220  1.00  0.00    -0.205 F 
ATOM     82  C   UNL A   1      34.476  32.961  30.975  1.00  0.00     0.022 A 
BRANCH  80  83
ATOM     83  S   UNL A   1      34.057  34.198  28.562  1.00  0.00     0.127 S 
ATOM     84  O   UNL A   1      34.942  35.325  28.281  1.00  0.00    -0.237 OA
ATOM     85  O   UNL A   1      33.884  33.260  27.452  1.00  0.00    -0.237 OA
ATOM     86  O   UNL A   1      32.824  34.510  29.273  1.00  0.00    -0.744 OA
ENDBRANCH  80  83
ENDBRANCH  52  76
BRANCH  64  87
ATOM     87  C   UNL A   1      43.287  35.386  31.115  1.00  0.00     0.023 A 
ATOM     88  C   UNL A   1      43.543  35.662  32.473  1.00  0.00     0.012 A 
ATOM     89  C   UNL A   1      43.482  36.397  30.154  1.00  0.00     0.148 A 
ATOM     90  C   UNL A   1      43.954  36.934  32.871  1.00  0.00     0.002 A 
ATOM     91  C   UNL A   1      43.938  37.648  30.553  1.00  0.00     0.091 A 
ATOM     92  F   UNL A   1      43.214  36.121  28.870  1.00  0.00    -0.205 F 
ATOM     93  C   UNL A   1      44.163  37.922  31.911  1.00  0.00     0.022 A 
BRANCH  91  94
ATOM     94  S   UNL A   1      44.328  38.943  29.370  1.00  0.00     0.127 S 
ATOM     95  O   UNL A   1      43.018  39.213  28.780  1.00  0.00    -0.237 OA
ATOM     96  O   UNL A   1      44.842  40.010  30.230  1.00  0.00    -0.237 OA
ATOM     97  O   UNL A   1      45.320  38.370  28.469  1.00  0.00    -0.744 OA
ENDBRANCH  91  94
ENDBRANCH  64  87
ENDBRANCH  38  39
ENDBRANCH  30  33
ENDBRANCH  28  29
ENDBRANCH   1  28
TORSDOF 16
ENDMDL
MODEL 3
REMARK VINA RESULT:     -12.1      4.944      9.624
REMARK SMILES NC(=O)c1ccccc1NC(=O)[C@@H]1CC=CC[C@@H]1C(=O)NCCCNC(=O)c1ccc(-c2c3nc(c(-c4cccc(S(=O)(=O)[O-])c4F)c4ccc([nH]4)c(-c4cccc(S(=O)(=O)[O-])c4F)c4nc(c(-c5cccc(S(=O)(=O)[O-])c5F)c5ccc2[nH]5)C=C4)C=C3)cc1
REMARK SMILES IDX 23 1 22 2 21 3 19 4 20 5 18 7 13 8 14 9 15 10 17 11 16 12
REMARK SMILES IDX 11 13 10 14 12 16 9 17 4 18 5 19 6 20 8 21 7 22 2 23 1 24
REMARK SMILES IDX 3 27 24 28 25 29 26 30 27 32 28 33 29 34 90 35 30 36 89 37
REMARK SMILES IDX 31 38 32 39 33 40 83 41 34 42 88 43 82 44 84 45 35 46 87 47
REMARK SMILES IDX 81 48 80 49 36 51 68 52 48 53 67 54 49 55 52 56 66 57 85 58
REMARK SMILES IDX 50 59 51 60 65 62 86 63 53 64 37 65 38 66 46 67 39 68 41 69
REMARK SMILES IDX 47 70 40 71 42 72 43 73 44 74 45 75 69 76 70 77 78 78 71 79
REMARK SMILES IDX 73 80 79 81 72 82 74 83 75 84 76 85 77 86 54 87 55 88 63 89
REMARK SMILES IDX 56 90 58 91 64 92 57 93 59 94 60 95 61 96 62 97
REMARK H PARENT 21 6 10 15 1 25 1 26 25 31 84 50 52 61
REMARK Flexibility Score: inf
ROOT
ATOM      1  C   UNL A   1      36.626  20.854  25.081  1.00  0.00     0.042 C 
ENDROOT
BRANCH   1   2
ATOM      2  C   UNL A   1      35.771  21.513  26.146  1.00  0.00     0.117 C 
BRANCH   2   3
ATOM      3  N   UNL A   1      34.397  21.098  25.996  1.00  0.00    -0.356 N 
ATOM      4  C   UNL A   1      33.299  21.803  25.614  1.00  0.00     0.224 C 
ATOM      5  O   UNL A   1      32.222  21.208  25.688  1.00  0.00    -0.275 OA
ATOM      6  H   UNL A   1      34.227  20.150  26.205  1.00  0.00     0.163 HD
BRANCH   4   7
ATOM      7  C   UNL A   1      33.440  23.220  25.034  1.00  0.00     0.095 C 
ATOM      8  C   UNL A   1      32.161  24.085  24.967  1.00  0.00     0.095 C 
ATOM      9  C   UNL A   1      31.081  23.332  24.146  1.00  0.00     0.041 C 
ATOM     10  C   UNL A   1      31.607  22.801  22.843  1.00  0.00    -0.030 C 
ATOM     11  C   UNL A   1      33.978  23.077  23.579  1.00  0.00     0.041 C 
ATOM     12  C   UNL A   1      32.917  22.719  22.570  1.00  0.00    -0.030 C 
BRANCH   8  13
ATOM     13  C   UNL A   1      31.504  24.680  26.218  1.00  0.00     0.228 C 
ATOM     14  N   UNL A   1      30.718  25.799  26.259  1.00  0.00    -0.325 N 
ATOM     15  H   UNL A   1      30.014  25.764  26.946  1.00  0.00     0.169 HD
ATOM     16  O   UNL A   1      31.616  24.102  27.307  1.00  0.00    -0.274 OA
BRANCH  14  17
ATOM     17  C   UNL A   1      30.720  26.988  25.510  1.00  0.00     0.053 A 
ATOM     18  C   UNL A   1      31.390  28.134  26.006  1.00  0.00     0.063 A 
ATOM     19  C   UNL A   1      31.612  29.223  25.141  1.00  0.00     0.016 A 
ATOM     20  C   UNL A   1      31.119  29.219  23.839  1.00  0.00     0.001 A 
ATOM     21  C   UNL A   1      30.127  27.057  24.247  1.00  0.00     0.027 A 
ATOM     22  C   UNL A   1      30.339  28.155  23.408  1.00  0.00     0.002 A 
BRANCH  18  23
ATOM     23  C   UNL A   1      31.914  28.336  27.396  1.00  0.00     0.250 C 
ATOM     24  N   UNL A   1      32.987  29.154  27.632  1.00  0.00    -0.366 N 
ATOM     25  H   UNL A   1      33.320  29.276  28.551  1.00  0.00     0.159 HD
ATOM     26  H   UNL A   1      33.426  29.619  26.883  1.00  0.00     0.159 HD
ATOM     27  O   UNL A   1      31.368  27.782  28.342  1.00  0.00    -0.269 OA
ENDBRANCH  18  23
ENDBRANCH  14  17
ENDBRANCH   8  13
ENDBRANCH   4   7
ENDBRANCH   2   3
ENDBRANCH   1   2
BRANCH   1  28
ATOM     28  C   UNL A   1      38.067  21.321  25.046  1.00  0.00     0.118 C 
BRANCH  28  29
ATOM     29  N   UNL A   1      38.944  20.495  25.863  1.00  0.00    -0.352 N 
ATOM     30  C   UNL A   1      39.999  20.805  26.688  1.00  0.00     0.251 C 
ATOM     31  H   UNL A   1      38.744  19.532  25.816  1.00  0.00     0.163 HD
ATOM     32  O   UNL A   1      40.625  19.872  27.189  1.00  0.00    -0.269 OA
BRANCH  30  33
ATOM     33  C   UNL A   1      40.405  22.206  26.977  1.00  0.00     0.039 A 
ATOM     34  C   UNL A   1      41.356  22.433  27.979  1.00  0.00     0.014 A 
ATOM     35  C   UNL A   1      39.840  23.303  26.328  1.00  0.00     0.014 A 
ATOM     36  C   UNL A   1      41.761  23.738  28.290  1.00  0.00     0.010 A 
ATOM     37  C   UNL A   1      40.339  24.587  26.544  1.00  0.00     0.010 A 
ATOM     38  C   UNL A   1      41.282  24.831  27.550  1.00  0.00    -0.014 A 
BRANCH  38  39
ATOM     39  C   UNL A   1      41.721  26.230  27.816  1.00  0.00     0.031 A 
ATOM     40  C   UNL A   1      43.128  26.665  27.468  1.00  0.00     0.074 A 
ATOM     41  C   UNL A   1      40.907  27.079  28.475  1.00  0.00     0.049 A 
ATOM     42  N   UNL A   1      43.736  27.790  27.741  1.00  0.00    -0.248 NA
ATOM     43  C   UNL A   1      43.978  25.692  26.757  1.00  0.00     0.031 C 
ATOM     44  C   UNL A   1      39.560  26.765  28.957  1.00  0.00     0.029 A 
ATOM     45  N   UNL A   1      41.109  28.374  28.889  1.00  0.00    -0.354 N 
ATOM     46  C   UNL A   1      45.049  27.632  27.308  1.00  0.00     0.074 A 
ATOM     47  C   UNL A   1      45.158  26.294  26.773  1.00  0.00     0.031 C 
ATOM     48  C   UNL A   1      39.058  27.833  29.600  1.00  0.00     0.029 A 
ATOM     49  C   UNL A   1      40.056  28.898  29.604  1.00  0.00     0.049 A 
ATOM     50  H   UNL A   1      41.931  28.881  28.693  1.00  0.00     0.167 HD
ATOM     51  C   UNL A   1      46.066  28.526  27.323  1.00  0.00     0.034 A 
ATOM     52  C   UNL A   1      39.908  30.097  30.204  1.00  0.00     0.034 A 
ATOM     53  C   UNL A   1      45.929  29.892  27.751  1.00  0.00     0.049 A 
ATOM     54  C   UNL A   1      41.015  31.112  30.094  1.00  0.00     0.074 A 
ATOM     55  C   UNL A   1      46.859  30.914  27.669  1.00  0.00     0.029 A 
ATOM     56  N   UNL A   1      44.791  30.428  28.330  1.00  0.00    -0.354 N 
ATOM     57  N   UNL A   1      42.185  30.996  29.517  1.00  0.00    -0.248 NA
ATOM     58  C   UNL A   1      40.763  32.437  30.680  1.00  0.00     0.031 C 
ATOM     59  C   UNL A   1      46.286  32.068  28.212  1.00  0.00     0.029 A 
ATOM     60  C   UNL A   1      44.994  31.767  28.612  1.00  0.00     0.049 A 
ATOM     61  H   UNL A   1      43.962  29.931  28.514  1.00  0.00     0.167 HD
ATOM     62  C   UNL A   1      42.790  32.243  29.631  1.00  0.00     0.074 A 
ATOM     63  C   UNL A   1      41.849  33.105  30.314  1.00  0.00     0.031 C 
ATOM     64  C   UNL A   1      44.022  32.634  29.223  1.00  0.00     0.034 A 
BRANCH  51  65
ATOM     65  C   UNL A   1      47.409  28.090  26.796  1.00  0.00     0.023 A 
ATOM     66  C   UNL A   1      48.424  27.711  27.698  1.00  0.00     0.012 A 
ATOM     67  C   UNL A   1      47.633  27.961  25.411  1.00  0.00     0.148 A 
ATOM     68  C   UNL A   1      49.649  27.239  27.232  1.00  0.00     0.002 A 
ATOM     69  C   UNL A   1      48.840  27.446  24.953  1.00  0.00     0.091 A 
ATOM     70  F   UNL A   1      46.663  28.343  24.568  1.00  0.00    -0.205 F 
ATOM     71  C   UNL A   1      49.853  27.094  25.862  1.00  0.00     0.022 A 
BRANCH  69  72
ATOM     72  S   UNL A   1      49.171  27.139  23.215  1.00  0.00     0.127 S 
ATOM     73  O   UNL A   1      50.614  26.903  23.225  1.00  0.00    -0.237 OA
ATOM     74  O   UNL A   1      48.360  25.950  22.953  1.00  0.00    -0.237 OA
ATOM     75  O   UNL A   1      48.741  28.337  22.506  1.00  0.00    -0.744 OA
ENDBRANCH  69  72
ENDBRANCH  51  65
BRANCH  52  76
ATOM     76  C   UNL A   1      38.634  30.434  30.899  1.00  0.00     0.023 A 
ATOM     77  C   UNL A   1      38.460  30.055  32.244  1.00  0.00     0.012 A 
ATOM     78  C   UNL A   1      37.601  31.133  30.244  1.00  0.00     0.148 A 
ATOM     79  C   UNL A   1      37.265  30.329  32.913  1.00  0.00     0.002 A 
ATOM     80  C   UNL A   1      36.436  31.451  30.934  1.00  0.00     0.091 A 
ATOM     81  F   UNL A   1      37.775  31.474  28.959  1.00  0.00    -0.205 F 
ATOM     82  C   UNL A   1      36.259  31.035  32.262  1.00  0.00     0.022 A 
BRANCH  80  83
ATOM     83  S   UNL A   1      35.152  32.477  30.206  1.00  0.00     0.127 S 
ATOM     84  O   UNL A   1      34.244  32.665  31.334  1.00  0.00    -0.237 OA
ATOM     85  O   UNL A   1      35.898  33.672  29.810  1.00  0.00    -0.237 OA
ATOM     86  O   UNL A   1      34.634  31.702  29.086  1.00  0.00    -0.744 OA
ENDBRANCH  80  83
ENDBRANCH  52  76
BRANCH  64  87
ATOM     87  C   UNL A   1      44.414  34.070  29.447  1.00  0.00     0.023 A 
ATOM     88  C   UNL A   1      44.952  34.465  30.688  1.00  0.00     0.012 A 
ATOM     89  C   UNL A   1      44.323  35.009  28.401  1.00  0.00     0.148 A 
ATOM     90  C   UNL A   1      45.362  35.782  30.894  1.00  0.00     0.002 A 
ATOM     91  C   UNL A   1      44.779  36.307  28.599  1.00  0.00     0.091 A 
ATOM     92  F   UNL A   1      43.790  34.619  27.234  1.00  0.00    -0.205 F 
ATOM     93  C   UNL A   1      45.287  36.698  29.847  1.00  0.00     0.022 A 
BRANCH  91  94
ATOM     94  S   UNL A   1      44.810  37.519  27.273  1.00  0.00     0.127 S 
ATOM     95  O   UNL A   1      45.698  36.879  26.304  1.00  0.00    -0.237 OA
ATOM     96  O   UNL A   1      43.405  37.578  26.868  1.00  0.00    -0.237 OA
ATOM     97  O   UNL A   1      45.313  38.749  27.872  1.00  0.00    -0.744 OA
ENDBRANCH  91  94
ENDBRANCH  64  87
ENDBRANCH  38  39
ENDBRANCH  30  33
ENDBRANCH  28  29
ENDBRANCH   1  28
TORSDOF 16
ENDMDL
