MODEL 1
REMARK VINA RESULT:     -12.1      0.000      0.000
REMARK SMILES Cc1cc2c(c(C)c1Cl)C=C(C(=O)NCCCNC(=O)c1ccc(-c3c4nc(c(-c5cccc(S(=O)(=O)[O-])c5F)c5ccc([nH]5)c(-c5cccc(S(=O)(=O)[O-])c5F)c5nc(c(-c6cccc(S(=O)(=O)[O-])c6F)c6ccc3[nH]6)C=C5)C=C4)cc1)[C@@H](C(F)(F)F)O2
REMARK SMILES IDX 17 1 16 2 15 3 14 4 12 5 13 6 11 8 1 9 2 10 3 11 8 12 4 13
REMARK SMILES IDX 6 14 9 15 5 16 89 17 7 18 10 19 84 20 85 21 86 22 87 23
REMARK SMILES IDX 88 24 18 25 19 26 20 28 21 29 22 30 83 31 23 32 82 33 24 34
REMARK SMILES IDX 25 35 26 36 76 37 27 38 81 39 75 40 77 41 28 42 80 43 74 44
REMARK SMILES IDX 73 45 29 47 61 48 41 49 60 50 42 51 45 52 59 53 78 54 43 55
REMARK SMILES IDX 44 56 58 58 79 59 46 60 30 61 31 62 39 63 32 64 34 65 40 66
REMARK SMILES IDX 33 67 35 68 36 69 37 70 38 71 62 72 63 73 71 74 64 75 66 76
REMARK SMILES IDX 72 77 65 78 67 79 68 80 69 81 70 82 47 83 48 84 56 85 49 86
REMARK SMILES IDX 51 87 57 88 50 89 52 90 53 91 54 92 55 93
REMARK H PARENT 14 7 18 27 77 46 45 57
REMARK Flexibility Score: inf
ROOT
ATOM      1  C   UNL A   1      34.291  28.635  26.121  1.00  0.00     0.118 C 
ENDROOT
BRANCH   1   2
ATOM      2  C   UNL A   1      34.055  28.492  24.622  1.00  0.00     0.042 C 
BRANCH   2   3
ATOM      3  C   UNL A   1      32.620  28.110  24.292  1.00  0.00     0.118 C 
BRANCH   3   4
ATOM      4  N   UNL A   1      31.845  27.808  25.486  1.00  0.00    -0.352 N 
ATOM      5  C   UNL A   1      31.444  26.704  26.159  1.00  0.00     0.251 C 
ATOM      6  O   UNL A   1      30.790  26.925  27.184  1.00  0.00    -0.270 OA
ATOM      7  H   UNL A   1      31.525  28.630  25.923  1.00  0.00     0.163 HD
BRANCH   5   8
ATOM      8  C   UNL A   1      31.743  25.297  25.764  1.00  0.00     0.067 C 
ATOM      9  C   UNL A   1      34.219  19.397  24.573  1.00  0.00     0.046 C 
ATOM     10  C   UNL A   1      33.979  20.844  24.910  1.00  0.00    -0.028 A 
ATOM     11  C   UNL A   1      32.661  21.307  24.933  1.00  0.00     0.052 A 
ATOM     12  C   UNL A   1      35.020  21.733  25.244  1.00  0.00     0.047 A 
ATOM     13  C   UNL A   1      32.384  22.630  25.255  1.00  0.00     0.128 A 
ATOM     14  C   UNL A   1      34.751  23.085  25.580  1.00  0.00    -0.021 A 
ATOM     15  Cl  UNL A   1      36.650  21.128  25.254  1.00  0.00    -0.084 Cl
ATOM     16  C   UNL A   1      33.405  23.526  25.588  1.00  0.00     0.022 A 
ATOM     17  O   UNL A   1      31.061  22.962  25.264  1.00  0.00    -0.475 OA
ATOM     18  C   UNL A   1      35.853  24.053  25.940  1.00  0.00     0.047 C 
ATOM     19  C   UNL A   1      33.006  24.884  25.976  1.00  0.00     0.026 C 
ATOM     20  C   UNL A   1      30.746  24.372  25.135  1.00  0.00     0.314 C 
BRANCH  20  21
ATOM     21  C   UNL A   1      30.488  24.702  23.654  1.00  0.00     0.429 C 
ATOM     22  F   UNL A   1      29.552  25.678  23.536  1.00  0.00    -0.167 F 
ATOM     23  F   UNL A   1      31.595  25.157  23.017  1.00  0.00    -0.167 F 
ATOM     24  F   UNL A   1      30.048  23.635  22.949  1.00  0.00    -0.167 F 
ENDBRANCH  20  21
ENDBRANCH   5   8
ENDBRANCH   3   4
ENDBRANCH   2   3
ENDBRANCH   1   2
BRANCH   1  25
ATOM     25  N   UNL A   1      34.007  29.990  26.590  1.00  0.00    -0.352 N 
ATOM     26  C   UNL A   1      34.608  30.724  27.582  1.00  0.00     0.251 C 
ATOM     27  H   UNL A   1      33.271  30.446  26.123  1.00  0.00     0.163 HD
ATOM     28  O   UNL A   1      34.054  31.735  28.011  1.00  0.00    -0.269 OA
BRANCH  26  29
ATOM     29  C   UNL A   1      35.911  30.301  28.130  1.00  0.00     0.039 A 
ATOM     30  C   UNL A   1      35.955  29.588  29.329  1.00  0.00     0.014 A 
ATOM     31  C   UNL A   1      37.094  30.629  27.462  1.00  0.00     0.014 A 
ATOM     32  C   UNL A   1      37.185  29.143  29.821  1.00  0.00     0.010 A 
ATOM     33  C   UNL A   1      38.303  30.103  27.899  1.00  0.00     0.010 A 
ATOM     34  C   UNL A   1      38.363  29.366  29.090  1.00  0.00    -0.014 A 
BRANCH  34  35
ATOM     35  C   UNL A   1      39.674  28.846  29.551  1.00  0.00     0.031 A 
ATOM     36  C   UNL A   1      40.414  29.545  30.659  1.00  0.00     0.074 A 
ATOM     37  C   UNL A   1      40.233  27.797  28.912  1.00  0.00     0.049 A 
ATOM     38  N   UNL A   1      41.592  29.278  31.156  1.00  0.00    -0.248 NA
ATOM     39  C   UNL A   1      39.762  30.719  31.269  1.00  0.00     0.031 C 
ATOM     40  C   UNL A   1      39.647  27.093  27.768  1.00  0.00     0.029 A 
ATOM     41  N   UNL A   1      41.426  27.153  29.119  1.00  0.00    -0.354 N 
ATOM     42  C   UNL A   1      41.835  30.260  32.108  1.00  0.00     0.074 A 
ATOM     43  C   UNL A   1      40.704  31.159  32.092  1.00  0.00     0.031 C 
ATOM     44  C   UNL A   1      40.474  26.107  27.387  1.00  0.00     0.029 A 
ATOM     45  C   UNL A   1      41.659  26.122  28.237  1.00  0.00     0.049 A 
ATOM     46  H   UNL A   1      42.057  27.403  29.832  1.00  0.00     0.167 HD
ATOM     47  C   UNL A   1      42.887  30.378  32.950  1.00  0.00     0.034 A 
ATOM     48  C   UNL A   1      42.709  25.283  28.129  1.00  0.00     0.034 A 
ATOM     49  C   UNL A   1      43.973  29.440  33.007  1.00  0.00     0.049 A 
ATOM     50  C   UNL A   1      43.839  25.406  29.117  1.00  0.00     0.074 A 
ATOM     51  C   UNL A   1      45.040  29.420  33.887  1.00  0.00     0.029 A 
ATOM     52  N   UNL A   1      44.127  28.356  32.159  1.00  0.00    -0.354 N 
ATOM     53  N   UNL A   1      43.973  26.247  30.114  1.00  0.00    -0.248 NA
ATOM     54  C   UNL A   1      44.945  24.444  28.993  1.00  0.00     0.031 C 
ATOM     55  C   UNL A   1      45.849  28.329  33.561  1.00  0.00     0.029 A 
ATOM     56  C   UNL A   1      45.275  27.659  32.493  1.00  0.00     0.049 A 
ATOM     57  H   UNL A   1      43.512  28.116  31.429  1.00  0.00     0.167 HD
ATOM     58  C   UNL A   1      45.156  25.895  30.754  1.00  0.00     0.074 A 
ATOM     59  C   UNL A   1      45.691  24.751  30.046  1.00  0.00     0.031 C 
ATOM     60  C   UNL A   1      45.755  26.480  31.820  1.00  0.00     0.034 A 
BRANCH  47  61
ATOM     61  C   UNL A   1      42.883  31.506  33.946  1.00  0.00     0.023 A 
ATOM     62  C   UNL A   1      43.429  32.752  33.575  1.00  0.00     0.012 A 
ATOM     63  C   UNL A   1      42.237  31.378  35.191  1.00  0.00     0.148 A 
ATOM     64  C   UNL A   1      43.344  33.849  34.431  1.00  0.00     0.002 A 
ATOM     65  C   UNL A   1      42.117  32.486  36.021  1.00  0.00     0.091 A 
ATOM     66  F   UNL A   1      41.739  30.180  35.530  1.00  0.00    -0.205 F 
ATOM     67  C   UNL A   1      42.677  33.719  35.646  1.00  0.00     0.022 A 
BRANCH  65  68
ATOM     68  S   UNL A   1      41.203  32.453  37.567  1.00  0.00     0.127 S 
ATOM     69  O   UNL A   1      41.138  33.875  37.902  1.00  0.00    -0.237 OA
ATOM     70  O   UNL A   1      39.928  31.865  37.155  1.00  0.00    -0.237 OA
ATOM     71  O   UNL A   1      41.988  31.638  38.484  1.00  0.00    -0.744 OA
ENDBRANCH  65  68
ENDBRANCH  47  61
BRANCH  48  72
ATOM     72  C   UNL A   1      42.696  24.199  27.105  1.00  0.00     0.023 A 
ATOM     73  C   UNL A   1      43.408  24.380  25.903  1.00  0.00     0.012 A 
ATOM     74  C   UNL A   1      42.026  22.979  27.324  1.00  0.00     0.148 A 
ATOM     75  C   UNL A   1      43.426  23.383  24.926  1.00  0.00     0.002 A 
ATOM     76  C   UNL A   1      42.098  21.967  26.373  1.00  0.00     0.091 A 
ATOM     77  F   UNL A   1      41.341  22.826  28.467  1.00  0.00    -0.205 F 
ATOM     78  C   UNL A   1      42.781  22.174  25.165  1.00  0.00     0.022 A 
BRANCH  76  79
ATOM     79  S   UNL A   1      41.421  20.329  26.666  1.00  0.00     0.127 S 
ATOM     80  O   UNL A   1      41.783  19.629  25.436  1.00  0.00    -0.237 OA
ATOM     81  O   UNL A   1      42.158  19.902  27.857  1.00  0.00    -0.237 OA
ATOM     82  O   UNL A   1      39.996  20.532  26.889  1.00  0.00    -0.744 OA
ENDBRANCH  76  79
ENDBRANCH  48  72
BRANCH  60  83
ATOM     83  C   UNL A   1      47.047  25.895  32.320  1.00  0.00     0.023 A 
ATOM     84  C   UNL A   1      48.269  26.403  31.839  1.00  0.00     0.012 A 
ATOM     85  C   UNL A   1      47.050  24.953  33.367  1.00  0.00     0.148 A 
ATOM     86  C   UNL A   1      49.478  25.972  32.385  1.00  0.00     0.002 A 
ATOM     87  C   UNL A   1      48.255  24.567  33.941  1.00  0.00     0.091 A 
ATOM     88  F   UNL A   1      45.874  24.475  33.800  1.00  0.00    -0.205 F 
ATOM     89  C   UNL A   1      49.469  25.068  33.445  1.00  0.00     0.022 A 
BRANCH  87  90
ATOM     90  S   UNL A   1      48.340  23.495  35.381  1.00  0.00     0.127 S 
ATOM     91  O   UNL A   1      47.574  24.259  36.366  1.00  0.00    -0.237 OA
ATOM     92  O   UNL A   1      47.679  22.281  34.903  1.00  0.00    -0.237 OA
ATOM     93  O   UNL A   1      49.756  23.336  35.683  1.00  0.00    -0.744 OA
ENDBRANCH  87  90
ENDBRANCH  60  83
ENDBRANCH  34  35
ENDBRANCH  26  29
ENDBRANCH   1  25
TORSDOF 14
ENDMDL
MODEL 2
REMARK VINA RESULT:     -12.1      3.691      8.791
REMARK SMILES Cc1cc2c(c(C)c1Cl)C=C(C(=O)NCCCNC(=O)c1ccc(-c3c4nc(c(-c5cccc(S(=O)(=O)[O-])c5F)c5ccc([nH]5)c(-c5cccc(S(=O)(=O)[O-])c5F)c5nc(c(-c6cccc(S(=O)(=O)[O-])c6F)c6ccc3[nH]6)C=C5)C=C4)cc1)[C@@H](C(F)(F)F)O2
REMARK SMILES IDX 17 1 16 2 15 3 14 4 12 5 13 6 11 8 1 9 2 10 3 11 8 12 4 13
REMARK SMILES IDX 6 14 9 15 5 16 89 17 7 18 10 19 84 20 85 21 86 22 87 23
REMARK SMILES IDX 88 24 18 25 19 26 20 28 21 29 22 30 83 31 23 32 82 33 24 34
REMARK SMILES IDX 25 35 26 36 76 37 27 38 81 39 75 40 77 41 28 42 80 43 74 44
REMARK SMILES IDX 73 45 29 47 61 48 41 49 60 50 42 51 45 52 59 53 78 54 43 55
REMARK SMILES IDX 44 56 58 58 79 59 46 60 30 61 31 62 39 63 32 64 34 65 40 66
REMARK SMILES IDX 33 67 35 68 36 69 37 70 38 71 62 72 63 73 71 74 64 75 66 76
REMARK SMILES IDX 72 77 65 78 67 79 68 80 69 81 70 82 47 83 48 84 56 85 49 86
REMARK SMILES IDX 51 87 57 88 50 89 52 90 53 91 54 92 55 93
REMARK H PARENT 14 7 18 27 77 46 45 57
REMARK Flexibility Score: inf
ROOT
ATOM      1  C   UNL A   1      32.797  32.204  27.254  1.00  0.00     0.118 C 
ENDROOT
BRANCH   1   2
ATOM      2  C   UNL A   1      31.504  31.589  26.731  1.00  0.00     0.042 C 
BRANCH   2   3
ATOM      3  C   UNL A   1      31.754  30.460  25.743  1.00  0.00     0.118 C 
BRANCH   3   4
ATOM      4  N   UNL A   1      30.791  30.462  24.652  1.00  0.00    -0.352 N 
ATOM      5  C   UNL A   1      30.377  29.605  23.690  1.00  0.00     0.251 C 
ATOM      6  O   UNL A   1      29.478  30.035  22.958  1.00  0.00    -0.270 OA
ATOM      7  H   UNL A   1      30.312  31.319  24.599  1.00  0.00     0.163 HD
BRANCH   5   8
ATOM      8  C   UNL A   1      30.904  28.225  23.478  1.00  0.00     0.067 C 
ATOM      9  C   UNL A   1      32.306  21.870  23.439  1.00  0.00     0.046 C 
ATOM     10  C   UNL A   1      31.809  23.258  23.738  1.00  0.00    -0.028 A 
ATOM     11  C   UNL A   1      32.109  24.278  22.832  1.00  0.00     0.052 A 
ATOM     12  C   UNL A   1      31.018  23.560  24.865  1.00  0.00     0.047 A 
ATOM     13  C   UNL A   1      31.657  25.573  23.052  1.00  0.00     0.128 A 
ATOM     14  C   UNL A   1      30.546  24.876  25.100  1.00  0.00    -0.021 A 
ATOM     15  Cl  UNL A   1      30.616  22.269  25.959  1.00  0.00    -0.084 Cl
ATOM     16  C   UNL A   1      30.874  25.890  24.166  1.00  0.00     0.022 A 
ATOM     17  O   UNL A   1      31.996  26.480  22.090  1.00  0.00    -0.475 OA
ATOM     18  C   UNL A   1      29.699  25.218  26.302  1.00  0.00     0.047 C 
ATOM     19  C   UNL A   1      30.392  27.271  24.277  1.00  0.00     0.026 C 
ATOM     20  C   UNL A   1      31.963  27.877  22.476  1.00  0.00     0.314 C 
BRANCH  20  21
ATOM     21  C   UNL A   1      33.368  28.314  22.928  1.00  0.00     0.429 C 
ATOM     22  F   UNL A   1      33.625  27.877  24.187  1.00  0.00    -0.167 F 
ATOM     23  F   UNL A   1      34.352  27.811  22.142  1.00  0.00    -0.167 F 
ATOM     24  F   UNL A   1      33.523  29.658  22.928  1.00  0.00    -0.167 F 
ENDBRANCH  20  21
ENDBRANCH   5   8
ENDBRANCH   3   4
ENDBRANCH   2   3
ENDBRANCH   1   2
BRANCH   1  25
ATOM     25  N   UNL A   1      32.658  33.638  27.499  1.00  0.00    -0.352 N 
ATOM     26  C   UNL A   1      33.209  34.424  28.481  1.00  0.00     0.251 C 
ATOM     27  H   UNL A   1      32.080  34.115  26.860  1.00  0.00     0.163 HD
ATOM     28  O   UNL A   1      32.759  35.551  28.681  1.00  0.00    -0.269 OA
BRANCH  26  29
ATOM     29  C   UNL A   1      34.333  33.917  29.290  1.00  0.00     0.039 A 
ATOM     30  C   UNL A   1      34.089  32.984  30.300  1.00  0.00     0.014 A 
ATOM     31  C   UNL A   1      35.631  34.380  29.058  1.00  0.00     0.014 A 
ATOM     32  C   UNL A   1      35.160  32.465  31.032  1.00  0.00     0.010 A 
ATOM     33  C   UNL A   1      36.703  33.793  29.718  1.00  0.00     0.010 A 
ATOM     34  C   UNL A   1      36.478  32.839  30.721  1.00  0.00    -0.014 A 
BRANCH  34  35
ATOM     35  C   UNL A   1      37.640  32.253  31.433  1.00  0.00     0.031 A 
ATOM     36  C   UNL A   1      38.422  31.133  30.802  1.00  0.00     0.074 A 
ATOM     37  C   UNL A   1      37.933  32.671  32.681  1.00  0.00     0.049 A 
ATOM     38  N   UNL A   1      39.426  30.455  31.292  1.00  0.00    -0.248 NA
ATOM     39  C   UNL A   1      38.005  30.692  29.458  1.00  0.00     0.031 C 
ATOM     40  C   UNL A   1      37.190  33.691  33.428  1.00  0.00     0.029 A 
ATOM     41  N   UNL A   1      38.919  32.280  33.551  1.00  0.00    -0.354 N 
ATOM     42  C   UNL A   1      39.738  29.494  30.338  1.00  0.00     0.074 A 
ATOM     43  C   UNL A   1      38.792  29.643  29.257  1.00  0.00     0.031 C 
ATOM     44  C   UNL A   1      37.757  33.854  34.633  1.00  0.00     0.029 A 
ATOM     45  C   UNL A   1      38.885  32.936  34.760  1.00  0.00     0.049 A 
ATOM     46  H   UNL A   1      39.590  31.593  33.331  1.00  0.00     0.167 HD
ATOM     47  C   UNL A   1      40.751  28.597  30.342  1.00  0.00     0.034 A 
ATOM     48  C   UNL A   1      39.674  32.813  35.846  1.00  0.00     0.034 A 
ATOM     49  C   UNL A   1      41.729  28.503  31.389  1.00  0.00     0.049 A 
ATOM     50  C   UNL A   1      40.825  31.844  35.798  1.00  0.00     0.074 A 
ATOM     51  C   UNL A   1      42.847  27.690  31.444  1.00  0.00     0.029 A 
ATOM     52  N   UNL A   1      41.714  29.250  32.555  1.00  0.00    -0.354 N 
ATOM     53  N   UNL A   1      41.197  31.056  34.819  1.00  0.00    -0.248 NA
ATOM     54  C   UNL A   1      41.689  31.770  36.987  1.00  0.00     0.031 C 
ATOM     55  C   UNL A   1      43.501  27.934  32.654  1.00  0.00     0.029 A 
ATOM     56  C   UNL A   1      42.803  28.915  33.340  1.00  0.00     0.049 A 
ATOM     57  H   UNL A   1      41.032  29.919  32.791  1.00  0.00     0.167 HD
ATOM     58  C   UNL A   1      42.353  30.421  35.258  1.00  0.00     0.074 A 
ATOM     59  C   UNL A   1      42.633  30.931  36.584  1.00  0.00     0.031 C 
ATOM     60  C   UNL A   1      43.103  29.484  34.628  1.00  0.00     0.034 A 
BRANCH  47  61
ATOM     61  C   UNL A   1      40.917  27.700  29.145  1.00  0.00     0.023 A 
ATOM     62  C   UNL A   1      40.129  26.535  29.044  1.00  0.00     0.012 A 
ATOM     63  C   UNL A   1      41.751  28.066  28.071  1.00  0.00     0.148 A 
ATOM     64  C   UNL A   1      40.178  25.741  27.900  1.00  0.00     0.002 A 
ATOM     65  C   UNL A   1      41.763  27.294  26.915  1.00  0.00     0.091 A 
ATOM     66  F   UNL A   1      42.504  29.169  28.195  1.00  0.00    -0.205 F 
ATOM     67  C   UNL A   1      40.983  26.128  26.832  1.00  0.00     0.022 A 
BRANCH  65  68
ATOM     68  S   UNL A   1      42.695  27.746  25.449  1.00  0.00     0.127 S 
ATOM     69  O   UNL A   1      42.530  26.556  24.615  1.00  0.00    -0.237 OA
ATOM     70  O   UNL A   1      41.969  28.926  24.977  1.00  0.00    -0.237 OA
ATOM     71  O   UNL A   1      44.057  28.001  25.897  1.00  0.00    -0.744 OA
ENDBRANCH  65  68
ENDBRANCH  47  61
BRANCH  48  72
ATOM     72  C   UNL A   1      39.456  33.694  37.031  1.00  0.00     0.023 A 
ATOM     73  C   UNL A   1      39.860  35.042  36.968  1.00  0.00     0.012 A 
ATOM     74  C   UNL A   1      38.818  33.226  38.196  1.00  0.00     0.148 A 
ATOM     75  C   UNL A   1      39.663  35.898  38.053  1.00  0.00     0.002 A 
ATOM     76  C   UNL A   1      38.571  34.099  39.250  1.00  0.00     0.091 A 
ATOM     77  F   UNL A   1      38.452  31.937  38.247  1.00  0.00    -0.205 F 
ATOM     78  C   UNL A   1      39.009  35.430  39.188  1.00  0.00     0.022 A 
BRANCH  76  79
ATOM     79  S   UNL A   1      37.605  33.616  40.686  1.00  0.00     0.127 S 
ATOM     80  O   UNL A   1      37.463  34.885  41.394  1.00  0.00    -0.237 OA
ATOM     81  O   UNL A   1      36.376  33.111  40.072  1.00  0.00    -0.237 OA
ATOM     82  O   UNL A   1      38.396  32.595  41.360  1.00  0.00    -0.744 OA
ENDBRANCH  76  79
ENDBRANCH  48  72
BRANCH  60  83
ATOM     83  C   UNL A   1      44.320  28.953  35.335  1.00  0.00     0.023 A 
ATOM     84  C   UNL A   1      45.552  29.618  35.188  1.00  0.00     0.012 A 
ATOM     85  C   UNL A   1      44.209  27.890  36.254  1.00  0.00     0.148 A 
ATOM     86  C   UNL A   1      46.661  29.225  35.937  1.00  0.00     0.002 A 
ATOM     87  C   UNL A   1      45.303  27.538  37.033  1.00  0.00     0.091 A 
ATOM     88  F   UNL A   1      43.029  27.263  36.366  1.00  0.00    -0.205 F 
ATOM     89  C   UNL A   1      46.532  28.198  36.869  1.00  0.00     0.022 A 
BRANCH  87  90
ATOM     90  S   UNL A   1      45.205  26.305  38.337  1.00  0.00     0.127 S 
ATOM     91  O   UNL A   1      44.804  25.113  37.590  1.00  0.00    -0.237 OA
ATOM     92  O   UNL A   1      46.578  26.277  38.840  1.00  0.00    -0.237 OA
ATOM     93  O   UNL A   1      44.221  26.803  39.289  1.00  0.00    -0.744 OA
ENDBRANCH  87  90
ENDBRANCH  60  83
ENDBRANCH  34  35
ENDBRANCH  26  29
ENDBRANCH   1  25
TORSDOF 14
ENDMDL
MODEL 3
REMARK VINA RESULT:     -12.1      5.460      8.411
REMARK SMILES Cc1cc2c(c(C)c1Cl)C=C(C(=O)NCCCNC(=O)c1ccc(-c3c4nc(c(-c5cccc(S(=O)(=O)[O-])c5F)c5ccc([nH]5)c(-c5cccc(S(=O)(=O)[O-])c5F)c5nc(c(-c6cccc(S(=O)(=O)[O-])c6F)c6ccc3[nH]6)C=C5)C=C4)cc1)[C@@H](C(F)(F)F)O2
REMARK SMILES IDX 17 1 16 2 15 3 14 4 12 5 13 6 11 8 1 9 2 10 3 11 8 12 4 13
REMARK SMILES IDX 6 14 9 15 5 16 89 17 7 18 10 19 84 20 85 21 86 22 87 23
REMARK SMILES IDX 88 24 18 25 19 26 20 28 21 29 22 30 83 31 23 32 82 33 24 34
REMARK SMILES IDX 25 35 26 36 76 37 27 38 81 39 75 40 77 41 28 42 80 43 74 44
REMARK SMILES IDX 73 45 29 47 61 48 41 49 60 50 42 51 45 52 59 53 78 54 43 55
REMARK SMILES IDX 44 56 58 58 79 59 46 60 30 61 31 62 39 63 32 64 34 65 40 66
REMARK SMILES IDX 33 67 35 68 36 69 37 70 38 71 62 72 63 73 71 74 64 75 66 76
REMARK SMILES IDX 72 77 65 78 67 79 68 80 69 81 70 82 47 83 48 84 56 85 49 86
REMARK SMILES IDX 51 87 57 88 50 89 52 90 53 91 54 92 55 93
REMARK H PARENT 14 7 18 27 77 46 45 57
REMARK Flexibility Score: inf
ROOT
ATOM      1  C   UNL A   1      38.731  20.136  25.377  1.00  0.00     0.118 C 
ENDROOT
BRANCH   1   2
ATOM      2  C   UNL A   1      37.483  19.349  24.993  1.00  0.00     0.042 C 
BRANCH   2   3
ATOM      3  C   UNL A   1      36.228  20.208  25.005  1.00  0.00     0.118 C 
BRANCH   3   4
ATOM      4  N   UNL A   1      35.014  19.406  24.974  1.00  0.00    -0.352 N 
ATOM      5  C   UNL A   1      33.678  19.622  24.987  1.00  0.00     0.251 C 
ATOM      6  O   UNL A   1      32.982  18.603  24.921  1.00  0.00    -0.270 OA
ATOM      7  H   UNL A   1      35.221  18.444  24.934  1.00  0.00     0.163 HD
BRANCH   5   8
ATOM      8  C   UNL A   1      33.022  20.960  25.057  1.00  0.00     0.067 C 
ATOM      9  C   UNL A   1      30.312  26.793  24.065  1.00  0.00     0.046 C 
ATOM     10  C   UNL A   1      31.050  25.486  23.968  1.00  0.00    -0.028 A 
ATOM     11  C   UNL A   1      30.993  24.613  25.056  1.00  0.00     0.052 A 
ATOM     12  C   UNL A   1      31.756  25.092  22.813  1.00  0.00     0.047 A 
ATOM     13  C   UNL A   1      31.643  23.385  25.010  1.00  0.00     0.128 A 
ATOM     14  C   UNL A   1      32.420  23.840  22.751  1.00  0.00    -0.021 A 
ATOM     15  Cl  UNL A   1      31.779  26.173  21.452  1.00  0.00    -0.084 Cl
ATOM     16  C   UNL A   1      32.349  22.978  23.873  1.00  0.00     0.022 A 
ATOM     17  O   UNL A   1      31.501  22.609  26.123  1.00  0.00    -0.475 OA
ATOM     18  C   UNL A   1      33.181  23.400  21.523  1.00  0.00     0.047 C 
ATOM     19  C   UNL A   1      32.946  21.639  23.897  1.00  0.00     0.026 C 
ATOM     20  C   UNL A   1      32.494  21.571  26.320  1.00  0.00     0.314 C 
BRANCH  20  21
ATOM     21  C   UNL A   1      33.615  22.105  27.230  1.00  0.00     0.429 C 
ATOM     22  F   UNL A   1      34.293  21.081  27.807  1.00  0.00    -0.167 F 
ATOM     23  F   UNL A   1      34.534  22.838  26.554  1.00  0.00    -0.167 F 
ATOM     24  F   UNL A   1      33.150  22.893  28.226  1.00  0.00    -0.167 F 
ENDBRANCH  20  21
ENDBRANCH   5   8
ENDBRANCH   3   4
ENDBRANCH   2   3
ENDBRANCH   1   2
BRANCH   1  25
ATOM     25  N   UNL A   1      39.800  19.261  25.857  1.00  0.00    -0.352 N 
ATOM     26  C   UNL A   1      41.071  19.568  26.274  1.00  0.00     0.251 C 
ATOM     27  H   UNL A   1      39.572  18.304  25.885  1.00  0.00     0.163 HD
ATOM     28  O   UNL A   1      41.908  18.673  26.380  1.00  0.00    -0.269 OA
BRANCH  26  29
ATOM     29  C   UNL A   1      41.429  20.963  26.592  1.00  0.00     0.039 A 
ATOM     30  C   UNL A   1      42.012  21.261  27.825  1.00  0.00     0.014 A 
ATOM     31  C   UNL A   1      41.169  21.983  25.672  1.00  0.00     0.014 A 
ATOM     32  C   UNL A   1      42.399  22.574  28.106  1.00  0.00     0.010 A 
ATOM     33  C   UNL A   1      41.640  23.267  25.912  1.00  0.00     0.010 A 
ATOM     34  C   UNL A   1      42.248  23.579  27.136  1.00  0.00    -0.014 A 
BRANCH  34  35
ATOM     35  C   UNL A   1      42.712  24.967  27.378  1.00  0.00     0.031 A 
ATOM     36  C   UNL A   1      41.797  25.962  28.040  1.00  0.00     0.074 A 
ATOM     37  C   UNL A   1      43.922  25.351  26.923  1.00  0.00     0.049 A 
ATOM     38  N   UNL A   1      41.999  27.230  28.281  1.00  0.00    -0.248 NA
ATOM     39  C   UNL A   1      40.467  25.481  28.458  1.00  0.00     0.031 C 
ATOM     40  C   UNL A   1      44.861  24.496  26.191  1.00  0.00     0.029 A 
ATOM     41  N   UNL A   1      44.564  26.561  26.991  1.00  0.00    -0.354 N 
ATOM     42  C   UNL A   1      40.821  27.702  28.846  1.00  0.00     0.074 A 
ATOM     43  C   UNL A   1      39.889  26.600  28.874  1.00  0.00     0.031 C 
ATOM     44  C   UNL A   1      45.961  25.204  25.893  1.00  0.00     0.029 A 
ATOM     45  C   UNL A   1      45.801  26.568  26.386  1.00  0.00     0.049 A 
ATOM     46  H   UNL A   1      44.178  27.353  27.432  1.00  0.00     0.167 HD
ATOM     47  C   UNL A   1      40.555  28.935  29.338  1.00  0.00     0.034 A 
ATOM     48  C   UNL A   1      46.703  27.561  26.248  1.00  0.00     0.034 A 
ATOM     49  C   UNL A   1      41.512  30.005  29.371  1.00  0.00     0.049 A 
ATOM     50  C   UNL A   1      46.399  28.904  26.855  1.00  0.00     0.074 A 
ATOM     51  C   UNL A   1      41.369  31.261  29.930  1.00  0.00     0.029 A 
ATOM     52  N   UNL A   1      42.786  29.943  28.831  1.00  0.00    -0.354 N 
ATOM     53  N   UNL A   1      45.338  29.284  27.525  1.00  0.00    -0.248 NA
ATOM     54  C   UNL A   1      47.426  29.949  26.719  1.00  0.00     0.031 C 
ATOM     55  C   UNL A   1      42.555  31.967  29.716  1.00  0.00     0.029 A 
ATOM     56  C   UNL A   1      43.442  31.143  29.042  1.00  0.00     0.049 A 
ATOM     57  H   UNL A   1      43.168  29.164  28.368  1.00  0.00     0.167 HD
ATOM     58  C   UNL A   1      45.585  30.593  27.921  1.00  0.00     0.074 A 
ATOM     59  C   UNL A   1      46.904  30.937  27.433  1.00  0.00     0.031 C 
ATOM     60  C   UNL A   1      44.782  31.442  28.609  1.00  0.00     0.034 A 
BRANCH  47  61
ATOM     61  C   UNL A   1      39.209  29.178  29.966  1.00  0.00     0.023 A 
ATOM     62  C   UNL A   1      38.958  28.689  31.265  1.00  0.00     0.012 A 
ATOM     63  C   UNL A   1      38.245  29.987  29.333  1.00  0.00     0.148 A 
ATOM     64  C   UNL A   1      37.765  28.989  31.919  1.00  0.00     0.002 A 
ATOM     65  C   UNL A   1      37.076  30.319  30.008  1.00  0.00     0.091 A 
ATOM     66  F   UNL A   1      38.497  30.427  28.092  1.00  0.00    -0.205 F 
ATOM     67  C   UNL A   1      36.832  29.814  31.297  1.00  0.00     0.022 A 
BRANCH  65  68
ATOM     68  S   UNL A   1      35.847  31.442  29.336  1.00  0.00     0.127 S 
ATOM     69  O   UNL A   1      35.149  30.581  28.383  1.00  0.00    -0.237 OA
ATOM     70  O   UNL A   1      35.069  31.790  30.526  1.00  0.00    -0.237 OA
ATOM     71  O   UNL A   1      36.588  32.546  28.743  1.00  0.00    -0.744 OA
ENDBRANCH  65  68
ENDBRANCH  47  61
BRANCH  48  72
ATOM     72  C   UNL A   1      48.012  27.292  25.586  1.00  0.00     0.023 A 
ATOM     73  C   UNL A   1      49.079  26.787  26.355  1.00  0.00     0.012 A 
ATOM     74  C   UNL A   1      48.199  27.488  24.204  1.00  0.00     0.148 A 
ATOM     75  C   UNL A   1      50.316  26.514  25.767  1.00  0.00     0.002 A 
ATOM     76  C   UNL A   1      49.415  27.158  23.614  1.00  0.00     0.091 A 
ATOM     77  F   UNL A   1      47.179  27.983  23.488  1.00  0.00    -0.205 F 
ATOM     78  C   UNL A   1      50.480  26.689  24.397  1.00  0.00     0.022 A 
BRANCH  76  79
ATOM     79  S   UNL A   1      49.661  27.214  21.835  1.00  0.00     0.127 S 
ATOM     80  O   UNL A   1      51.043  26.759  21.709  1.00  0.00    -0.237 OA
ATOM     81  O   UNL A   1      48.654  26.265  21.357  1.00  0.00    -0.237 OA
ATOM     82  O   UNL A   1      49.406  28.595  21.451  1.00  0.00    -0.744 OA
ENDBRANCH  76  79
ENDBRANCH  48  72
BRANCH  60  83
ATOM     83  C   UNL A   1      45.297  32.823  28.909  1.00  0.00     0.023 A 
ATOM     84  C   UNL A   1      46.054  33.041  30.077  1.00  0.00     0.012 A 
ATOM     85  C   UNL A   1      45.156  33.862  27.968  1.00  0.00     0.148 A 
ATOM     86  C   UNL A   1      46.654  34.279  30.308  1.00  0.00     0.002 A 
ATOM     87  C   UNL A   1      45.799  35.074  28.180  1.00  0.00     0.091 A 
ATOM     88  F   UNL A   1      44.420  33.633  26.870  1.00  0.00    -0.205 F 
ATOM     89  C   UNL A   1      46.540  35.287  29.354  1.00  0.00     0.022 A 
BRANCH  87  90
ATOM     90  S   UNL A   1      45.804  36.393  26.959  1.00  0.00     0.127 S 
ATOM     91  O   UNL A   1      44.382  36.725  26.874  1.00  0.00    -0.237 OA
ATOM     92  O   UNL A   1      46.631  37.411  27.607  1.00  0.00    -0.237 OA
ATOM     93  O   UNL A   1      46.382  35.821  25.750  1.00  0.00    -0.744 OA
ENDBRANCH  87  90
ENDBRANCH  60  83
ENDBRANCH  34  35
ENDBRANCH  26  29
ENDBRANCH   1  25
TORSDOF 14
ENDMDL
