MODEL 1
REMARK VINA RESULT:     -12.9      0.000      0.000
REMARK SMILES Cc1ccnc(C(=O)c2[nH]c3ccc(C(C)(C)C)cc3c2CC(=O)NCCCNC(=O)c2ccc(-c3c4nc(c(-c5cccc(S(=O)(=O)[O-])c5F)c5ccc([nH]5)c(-c5cccc(S(=O)(=O)[O-])c5F)c5nc(c(-c6cccc(S(=O)(=O)[O-])c6F)c6ccc3[nH]6)C=C5)C=C4)cc2)c1
REMARK SMILES IDX 27 1 26 2 25 3 23 4 24 5 22 7 21 8 9 9 10 10 11 11 20 13
REMARK SMILES IDX 12 14 19 15 13 16 14 17 7 18 8 19 6 20 1 21 2 22 3 23 95 24
REMARK SMILES IDX 4 25 5 26 15 27 16 28 17 29 18 30 28 31 29 32 30 33 31 35
REMARK SMILES IDX 32 36 33 37 94 38 34 39 93 40 35 41 36 42 37 43 87 44 38 45
REMARK SMILES IDX 92 46 86 47 88 48 39 49 91 50 85 51 84 52 40 54 72 55 52 56
REMARK SMILES IDX 71 57 53 58 56 59 70 60 89 61 54 62 55 63 69 65 90 66 57 67
REMARK SMILES IDX 41 68 42 69 50 70 43 71 45 72 51 73 44 74 46 75 47 76 48 77
REMARK SMILES IDX 49 78 73 79 74 80 82 81 75 82 77 83 83 84 76 85 78 86 79 87
REMARK SMILES IDX 80 88 81 89 58 90 59 91 67 92 60 93 62 94 68 95 61 96 63 97
REMARK SMILES IDX 64 98 65 99 66 100
REMARK H PARENT 25 6 10 12 29 34 88 53 56 64
REMARK Flexibility Score: inf
ROOT
ATOM      1  C   UNL A   1      31.428  31.852  26.597  1.00  0.00     0.042 C 
ENDROOT
BRANCH   1   2
ATOM      2  C   UNL A   1      31.612  30.441  26.048  1.00  0.00     0.117 C 
BRANCH   2   3
ATOM      3  N   UNL A   1      32.902  29.859  26.360  1.00  0.00    -0.356 N 
ATOM      4  C   UNL A   1      33.296  28.550  26.336  1.00  0.00     0.224 C 
ATOM      5  O   UNL A   1      34.505  28.315  26.430  1.00  0.00    -0.275 OA
ATOM      6  H   UNL A   1      33.598  30.500  26.629  1.00  0.00     0.163 HD
BRANCH   4   7
ATOM      7  C   UNL A   1      32.306  27.432  26.054  1.00  0.00     0.138 C 
BRANCH   7   8
ATOM      8  C   UNL A   1      32.510  26.697  24.760  1.00  0.00    -0.002 A 
ATOM      9  C   UNL A   1      32.248  27.158  23.473  1.00  0.00     0.093 A 
ATOM     10  N   UNL A   1      32.676  26.188  22.595  1.00  0.00    -0.352 N 
ATOM     11  C   UNL A   1      33.064  25.060  23.274  1.00  0.00     0.046 A 
ATOM     12  H   UNL A   1      32.701  26.288  21.615  1.00  0.00     0.167 HD
ATOM     13  C   UNL A   1      32.961  25.341  24.630  1.00  0.00     0.004 A 
ATOM     14  C   UNL A   1      33.519  23.831  22.793  1.00  0.00     0.027 A 
ATOM     15  C   UNL A   1      33.323  24.332  25.550  1.00  0.00     0.015 A 
ATOM     16  C   UNL A   1      33.882  22.855  23.733  1.00  0.00     0.006 A 
ATOM     17  C   UNL A   1      33.796  23.074  25.115  1.00  0.00    -0.042 A 
BRANCH   9  18
ATOM     18  C   UNL A   1      31.714  28.444  23.055  1.00  0.00     0.227 C 
ATOM     19  O   UNL A   1      32.458  29.339  22.671  1.00  0.00    -0.285 OA
BRANCH  18  20
ATOM     20  C   UNL A   1      30.219  28.666  23.126  1.00  0.00     0.113 A 
ATOM     21  C   UNL A   1      27.602  31.417  23.198  1.00  0.00     0.044 C 
ATOM     22  C   UNL A   1      28.258  30.069  23.183  1.00  0.00    -0.047 A 
ATOM     23  C   UNL A   1      27.483  28.911  23.257  1.00  0.00     0.023 A 
ATOM     24  C   UNL A   1      29.650  29.941  23.102  1.00  0.00     0.036 A 
ATOM     25  C   UNL A   1      28.125  27.685  23.260  1.00  0.00     0.112 A 
ATOM     26  N   UNL A   1      29.463  27.539  23.200  1.00  0.00    -0.253 NA
ENDBRANCH  18  20
ENDBRANCH   9  18
BRANCH  17  27
ATOM     27  C   UNL A   1      34.231  22.025  26.154  1.00  0.00    -0.013 C 
ATOM     28  C   UNL A   1      33.995  22.592  27.571  1.00  0.00     0.016 C 
ATOM     29  C   UNL A   1      33.406  20.730  25.983  1.00  0.00     0.016 C 
ATOM     30  C   UNL A   1      35.721  21.628  26.056  1.00  0.00     0.016 C 
ENDBRANCH  17  27
ENDBRANCH   7   8
ENDBRANCH   4   7
ENDBRANCH   2   3
ENDBRANCH   1   2
BRANCH   1  31
ATOM     31  C   UNL A   1      32.683  32.471  27.207  1.00  0.00     0.118 C 
BRANCH  31  32
ATOM     32  N   UNL A   1      32.496  33.862  27.601  1.00  0.00    -0.352 N 
ATOM     33  C   UNL A   1      33.134  34.614  28.556  1.00  0.00     0.251 C 
ATOM     34  H   UNL A   1      31.797  34.341  27.100  1.00  0.00     0.163 HD
ATOM     35  O   UNL A   1      32.694  35.732  28.826  1.00  0.00    -0.269 OA
BRANCH  33  36
ATOM     36  C   UNL A   1      34.325  34.104  29.276  1.00  0.00     0.039 A 
ATOM     37  C   UNL A   1      34.129  33.293  30.401  1.00  0.00     0.014 A 
ATOM     38  C   UNL A   1      35.623  34.456  28.895  1.00  0.00     0.014 A 
ATOM     39  C   UNL A   1      35.230  32.786  31.101  1.00  0.00     0.010 A 
ATOM     40  C   UNL A   1      36.719  33.907  29.560  1.00  0.00     0.010 A 
ATOM     41  C   UNL A   1      36.534  33.065  30.667  1.00  0.00    -0.014 A 
BRANCH  41  42
ATOM     42  C   UNL A   1      37.718  32.468  31.338  1.00  0.00     0.031 A 
ATOM     43  C   UNL A   1      38.436  31.300  30.721  1.00  0.00     0.074 A 
ATOM     44  C   UNL A   1      38.084  32.915  32.555  1.00  0.00     0.049 A 
ATOM     45  N   UNL A   1      39.429  30.597  31.202  1.00  0.00    -0.248 NA
ATOM     46  C   UNL A   1      37.966  30.850  29.400  1.00  0.00     0.031 C 
ATOM     47  C   UNL A   1      37.425  33.995  33.290  1.00  0.00     0.029 A 
ATOM     48  N   UNL A   1      39.079  32.493  33.403  1.00  0.00    -0.354 N 
ATOM     49  C   UNL A   1      39.677  29.599  30.268  1.00  0.00     0.074 A 
ATOM     50  C   UNL A   1      38.723  29.781  29.194  1.00  0.00     0.031 C 
ATOM     51  C   UNL A   1      38.025  34.145  34.482  1.00  0.00     0.029 A 
ATOM     52  C   UNL A   1      39.097  33.161  34.605  1.00  0.00     0.049 A 
ATOM     53  H   UNL A   1      39.718  31.782  33.172  1.00  0.00     0.167 HD
ATOM     54  C   UNL A   1      40.630  28.639  30.286  1.00  0.00     0.034 A 
ATOM     55  C   UNL A   1      39.882  32.996  35.688  1.00  0.00     0.034 A 
ATOM     56  C   UNL A   1      41.621  28.498  31.319  1.00  0.00     0.049 A 
ATOM     57  C   UNL A   1      40.968  31.956  35.659  1.00  0.00     0.074 A 
ATOM     58  C   UNL A   1      42.688  27.618  31.373  1.00  0.00     0.029 A 
ATOM     59  N   UNL A   1      41.668  29.257  32.477  1.00  0.00    -0.354 N 
ATOM     60  N   UNL A   1      41.288  31.129  34.695  1.00  0.00    -0.248 NA
ATOM     61  C   UNL A   1      41.818  31.845  36.854  1.00  0.00     0.031 C 
ATOM     62  C   UNL A   1      43.384  27.849  32.565  1.00  0.00     0.029 A 
ATOM     63  C   UNL A   1      42.744  28.866  33.255  1.00  0.00     0.049 A 
ATOM     64  H   UNL A   1      41.031  29.969  32.713  1.00  0.00     0.167 HD
ATOM     65  C   UNL A   1      42.391  30.418  35.154  1.00  0.00     0.074 A 
ATOM     66  C   UNL A   1      42.696  30.925  36.476  1.00  0.00     0.031 C 
ATOM     67  C   UNL A   1      43.074  29.419  34.543  1.00  0.00     0.034 A 
BRANCH  54  68
ATOM     68  C   UNL A   1      40.701  27.706  29.108  1.00  0.00     0.023 A 
ATOM     69  C   UNL A   1      39.824  26.605  29.057  1.00  0.00     0.012 A 
ATOM     70  C   UNL A   1      41.581  27.942  28.036  1.00  0.00     0.148 A 
ATOM     71  C   UNL A   1      39.833  25.741  27.963  1.00  0.00     0.002 A 
ATOM     72  C   UNL A   1      41.565  27.092  26.934  1.00  0.00     0.091 A 
ATOM     73  F   UNL A   1      42.430  28.977  28.116  1.00  0.00    -0.205 F 
ATOM     74  C   UNL A   1      40.696  25.989  26.899  1.00  0.00     0.022 A 
BRANCH  72  75
ATOM     75  S   UNL A   1      42.605  27.380  25.498  1.00  0.00     0.127 S 
ATOM     76  O   UNL A   1      43.932  27.468  26.103  1.00  0.00    -0.237 OA
ATOM     77  O   UNL A   1      42.380  26.177  24.695  1.00  0.00    -0.237 OA
ATOM     78  O   UNL A   1      42.098  28.605  24.892  1.00  0.00    -0.744 OA
ENDBRANCH  72  75
ENDBRANCH  54  68
BRANCH  55  79
ATOM     79  C   UNL A   1      39.716  33.904  36.858  1.00  0.00     0.023 A 
ATOM     80  C   UNL A   1      40.068  35.260  36.725  1.00  0.00     0.012 A 
ATOM     81  C   UNL A   1      39.157  33.455  38.070  1.00  0.00     0.148 A 
ATOM     82  C   UNL A   1      39.881  36.150  37.782  1.00  0.00     0.002 A 
ATOM     83  C   UNL A   1      38.928  34.358  39.104  1.00  0.00     0.091 A 
ATOM     84  F   UNL A   1      38.848  32.156  38.191  1.00  0.00    -0.205 F 
ATOM     85  C   UNL A   1      39.299  35.703  38.966  1.00  0.00     0.022 A 
BRANCH  83  86
ATOM     86  S   UNL A   1      38.053  33.866  40.594  1.00  0.00     0.127 S 
ATOM     87  O   UNL A   1      36.848  33.248  40.050  1.00  0.00    -0.237 OA
ATOM     88  O   UNL A   1      38.991  32.934  41.222  1.00  0.00    -0.237 OA
ATOM     89  O   UNL A   1      37.863  35.102  41.343  1.00  0.00    -0.744 OA
ENDBRANCH  83  86
ENDBRANCH  55  79
BRANCH  67  90
ATOM     90  C   UNL A   1      44.226  28.803  35.288  1.00  0.00     0.023 A 
ATOM     91  C   UNL A   1      45.512  29.354  35.135  1.00  0.00     0.012 A 
ATOM     92  C   UNL A   1      44.025  27.748  36.198  1.00  0.00     0.148 A 
ATOM     93  C   UNL A   1      46.589  28.853  35.867  1.00  0.00     0.002 A 
ATOM     94  C   UNL A   1      45.097  27.275  36.949  1.00  0.00     0.091 A 
ATOM     95  F   UNL A   1      42.798  27.220  36.311  1.00  0.00    -0.205 F 
ATOM     96  C   UNL A   1      46.379  27.822  36.781  1.00  0.00     0.022 A 
BRANCH  94  97
ATOM     97  S   UNL A   1      44.885  26.002  38.200  1.00  0.00     0.127 S 
ATOM     98  O   UNL A   1      46.228  25.912  38.768  1.00  0.00    -0.237 OA
ATOM     99  O   UNL A   1      43.885  26.592  39.090  1.00  0.00    -0.237 OA
ATOM    100  O   UNL A   1      44.420  24.824  37.479  1.00  0.00    -0.744 OA
ENDBRANCH  94  97
ENDBRANCH  67  90
ENDBRANCH  41  42
ENDBRANCH  33  36
ENDBRANCH  31  32
ENDBRANCH   1  31
TORSDOF 17
ENDMDL
MODEL 2
REMARK VINA RESULT:     -12.5      1.073      3.938
REMARK SMILES Cc1ccnc(C(=O)c2[nH]c3ccc(C(C)(C)C)cc3c2CC(=O)NCCCNC(=O)c2ccc(-c3c4nc(c(-c5cccc(S(=O)(=O)[O-])c5F)c5ccc([nH]5)c(-c5cccc(S(=O)(=O)[O-])c5F)c5nc(c(-c6cccc(S(=O)(=O)[O-])c6F)c6ccc3[nH]6)C=C5)C=C4)cc2)c1
REMARK SMILES IDX 27 1 26 2 25 3 23 4 24 5 22 7 21 8 9 9 10 10 11 11 20 13
REMARK SMILES IDX 12 14 19 15 13 16 14 17 7 18 8 19 6 20 1 21 2 22 3 23 95 24
REMARK SMILES IDX 4 25 5 26 15 27 16 28 17 29 18 30 28 31 29 32 30 33 31 35
REMARK SMILES IDX 32 36 33 37 94 38 34 39 93 40 35 41 36 42 37 43 87 44 38 45
REMARK SMILES IDX 92 46 86 47 88 48 39 49 91 50 85 51 84 52 40 54 72 55 52 56
REMARK SMILES IDX 71 57 53 58 56 59 70 60 89 61 54 62 55 63 69 65 90 66 57 67
REMARK SMILES IDX 41 68 42 69 50 70 43 71 45 72 51 73 44 74 46 75 47 76 48 77
REMARK SMILES IDX 49 78 73 79 74 80 82 81 75 82 77 83 83 84 76 85 78 86 79 87
REMARK SMILES IDX 80 88 81 89 58 90 59 91 67 92 60 93 62 94 68 95 61 96 63 97
REMARK SMILES IDX 64 98 65 99 66 100
REMARK H PARENT 25 6 10 12 29 34 88 53 56 64
REMARK Flexibility Score: inf
ROOT
ATOM      1  C   UNL A   1      31.743  31.909  26.866  1.00  0.00     0.042 C 
ENDROOT
BRANCH   1   2
ATOM      2  C   UNL A   1      32.112  30.432  26.958  1.00  0.00     0.117 C 
BRANCH   2   3
ATOM      3  N   UNL A   1      32.952  29.972  25.870  1.00  0.00    -0.356 N 
ATOM      4  C   UNL A   1      33.240  28.698  25.471  1.00  0.00     0.224 C 
ATOM      5  O   UNL A   1      33.806  28.554  24.383  1.00  0.00    -0.275 OA
ATOM      6  H   UNL A   1      33.379  30.683  25.341  1.00  0.00     0.163 HD
BRANCH   4   7
ATOM      7  C   UNL A   1      32.750  27.493  26.258  1.00  0.00     0.138 C 
BRANCH   7   8
ATOM      8  C   UNL A   1      31.602  26.742  25.645  1.00  0.00    -0.002 A 
ATOM      9  C   UNL A   1      31.348  25.375  25.715  1.00  0.00     0.093 A 
ATOM     10  N   UNL A   1      30.142  25.149  25.092  1.00  0.00    -0.352 N 
ATOM     11  C   UNL A   1      29.686  26.297  24.493  1.00  0.00     0.046 A 
ATOM     12  H   UNL A   1      29.671  24.284  25.077  1.00  0.00     0.167 HD
ATOM     13  C   UNL A   1      30.583  27.309  24.809  1.00  0.00     0.004 A 
ATOM     14  C   UNL A   1      28.543  26.517  23.723  1.00  0.00     0.027 A 
ATOM     15  C   UNL A   1      30.323  28.608  24.317  1.00  0.00     0.015 A 
ATOM     16  C   UNL A   1      28.309  27.820  23.259  1.00  0.00     0.006 A 
ATOM     17  C   UNL A   1      29.177  28.885  23.539  1.00  0.00    -0.042 A 
BRANCH   9  18
ATOM     18  C   UNL A   1      32.117  24.338  26.384  1.00  0.00     0.227 C 
ATOM     19  O   UNL A   1      31.778  23.914  27.484  1.00  0.00    -0.285 OA
BRANCH  18  20
ATOM     20  C   UNL A   1      33.362  23.807  25.707  1.00  0.00     0.113 A 
ATOM     21  C   UNL A   1      37.148  23.789  25.993  1.00  0.00     0.044 C 
ATOM     22  C   UNL A   1      35.750  23.529  25.518  1.00  0.00    -0.047 A 
ATOM     23  C   UNL A   1      35.529  22.769  24.370  1.00  0.00     0.023 A 
ATOM     24  C   UNL A   1      34.644  24.044  26.205  1.00  0.00     0.036 A 
ATOM     25  C   UNL A   1      34.225  22.566  23.951  1.00  0.00     0.112 A 
ATOM     26  N   UNL A   1      33.147  23.067  24.587  1.00  0.00    -0.253 NA
ENDBRANCH  18  20
ENDBRANCH   9  18
BRANCH  17  27
ATOM     27  C   UNL A   1      28.906  30.326  23.071  1.00  0.00    -0.013 C 
ATOM     28  C   UNL A   1      29.586  31.309  24.050  1.00  0.00     0.016 C 
ATOM     29  C   UNL A   1      29.482  30.544  21.654  1.00  0.00     0.016 C 
ATOM     30  C   UNL A   1      27.407  30.693  23.011  1.00  0.00     0.016 C 
ENDBRANCH  17  27
ENDBRANCH   7   8
ENDBRANCH   4   7
ENDBRANCH   2   3
ENDBRANCH   1   2
BRANCH   1  31
ATOM     31  C   UNL A   1      32.925  32.871  26.946  1.00  0.00     0.118 C 
BRANCH  31  32
ATOM     32  N   UNL A   1      32.626  34.074  27.713  1.00  0.00    -0.352 N 
ATOM     33  C   UNL A   1      33.167  34.544  28.884  1.00  0.00     0.251 C 
ATOM     34  H   UNL A   1      31.921  34.643  27.328  1.00  0.00     0.163 HD
ATOM     35  O   UNL A   1      32.641  35.510  29.437  1.00  0.00    -0.269 OA
BRANCH  33  36
ATOM     36  C   UNL A   1      34.354  33.906  29.502  1.00  0.00     0.039 A 
ATOM     37  C   UNL A   1      35.626  34.346  29.116  1.00  0.00     0.014 A 
ATOM     38  C   UNL A   1      34.233  32.850  30.410  1.00  0.00     0.014 A 
ATOM     39  C   UNL A   1      36.769  33.773  29.684  1.00  0.00     0.010 A 
ATOM     40  C   UNL A   1      35.371  32.317  31.015  1.00  0.00     0.010 A 
ATOM     41  C   UNL A   1      36.649  32.774  30.660  1.00  0.00    -0.014 A 
BRANCH  41  42
ATOM     42  C   UNL A   1      37.843  32.211  31.344  1.00  0.00     0.031 A 
ATOM     43  C   UNL A   1      38.609  31.073  30.729  1.00  0.00     0.074 A 
ATOM     44  C   UNL A   1      38.176  32.662  32.570  1.00  0.00     0.049 A 
ATOM     45  N   UNL A   1      39.618  30.400  31.220  1.00  0.00    -0.248 NA
ATOM     46  C   UNL A   1      38.174  30.618  29.399  1.00  0.00     0.031 C 
ATOM     47  C   UNL A   1      37.470  33.713  33.302  1.00  0.00     0.029 A 
ATOM     48  N   UNL A   1      39.172  32.267  33.429  1.00  0.00    -0.354 N 
ATOM     49  C   UNL A   1      39.913  29.419  30.283  1.00  0.00     0.074 A 
ATOM     50  C   UNL A   1      38.969  29.576  29.196  1.00  0.00     0.031 C 
ATOM     51  C   UNL A   1      38.048  33.875  34.503  1.00  0.00     0.029 A 
ATOM     52  C   UNL A   1      39.150  32.926  34.636  1.00  0.00     0.049 A 
ATOM     53  H   UNL A   1      39.838  31.580  33.202  1.00  0.00     0.167 HD
ATOM     54  C   UNL A   1      40.899  28.491  30.308  1.00  0.00     0.034 A 
ATOM     55  C   UNL A   1      39.925  32.780  35.729  1.00  0.00     0.034 A 
ATOM     56  C   UNL A   1      41.879  28.376  31.354  1.00  0.00     0.049 A 
ATOM     57  C   UNL A   1      41.046  31.778  35.709  1.00  0.00     0.074 A 
ATOM     58  C   UNL A   1      42.974  27.533  31.418  1.00  0.00     0.029 A 
ATOM     59  N   UNL A   1      41.883  29.127  32.518  1.00  0.00    -0.354 N 
ATOM     60  N   UNL A   1      41.408  30.970  34.743  1.00  0.00    -0.248 NA
ATOM     61  C   UNL A   1      41.882  31.687  36.915  1.00  0.00     0.031 C 
ATOM     62  C   UNL A   1      43.645  27.778  32.622  1.00  0.00     0.029 A 
ATOM     63  C   UNL A   1      42.961  28.767  33.309  1.00  0.00     0.049 A 
ATOM     64  H   UNL A   1      41.219  29.816  32.749  1.00  0.00     0.167 HD
ATOM     65  C   UNL A   1      42.528  30.292  35.214  1.00  0.00     0.074 A 
ATOM     66  C   UNL A   1      42.797  30.800  36.543  1.00  0.00     0.031 C 
ATOM     67  C   UNL A   1      43.253  29.322  34.605  1.00  0.00     0.034 A 
BRANCH  54  68
ATOM     68  C   UNL A   1      41.018  27.571  29.125  1.00  0.00     0.023 A 
ATOM     69  C   UNL A   1      40.243  26.394  29.095  1.00  0.00     0.012 A 
ATOM     70  C   UNL A   1      41.840  27.886  28.027  1.00  0.00     0.148 A 
ATOM     71  C   UNL A   1      40.297  25.536  27.998  1.00  0.00     0.002 A 
ATOM     72  C   UNL A   1      41.868  27.040  26.924  1.00  0.00     0.091 A 
ATOM     73  F   UNL A   1      42.594  28.994  28.086  1.00  0.00    -0.205 F 
ATOM     74  C   UNL A   1      41.102  25.863  26.910  1.00  0.00     0.022 A 
BRANCH  72  75
ATOM     75  S   UNL A   1      42.833  27.423  25.458  1.00  0.00     0.127 S 
ATOM     76  O   UNL A   1      42.619  26.231  24.640  1.00  0.00    -0.237 OA
ATOM     77  O   UNL A   1      42.180  28.632  24.953  1.00  0.00    -0.237 OA
ATOM     78  O   UNL A   1      44.194  27.633  25.934  1.00  0.00    -0.744 OA
ENDBRANCH  72  75
ENDBRANCH  54  68
BRANCH  55  79
ATOM     79  C   UNL A   1      39.711  33.673  36.902  1.00  0.00     0.023 A 
ATOM     80  C   UNL A   1      40.087  35.027  36.808  1.00  0.00     0.012 A 
ATOM     81  C   UNL A   1      39.087  33.214  38.078  1.00  0.00     0.148 A 
ATOM     82  C   UNL A   1      39.858  35.903  37.867  1.00  0.00     0.002 A 
ATOM     83  C   UNL A   1      38.817  34.105  39.112  1.00  0.00     0.091 A 
ATOM     84  F   UNL A   1      38.755  31.918  38.163  1.00  0.00    -0.205 F 
ATOM     85  C   UNL A   1      39.211  35.447  39.013  1.00  0.00     0.022 A 
BRANCH  83  86
ATOM     86  S   UNL A   1      37.862  33.603  40.549  1.00  0.00     0.127 S 
ATOM     87  O   UNL A   1      38.756  32.642  41.188  1.00  0.00    -0.237 OA
ATOM     88  O   UNL A   1      37.694  34.862  41.276  1.00  0.00    -0.237 OA
ATOM     89  O   UNL A   1      36.620  33.067  40.005  1.00  0.00    -0.744 OA
ENDBRANCH  83  86
ENDBRANCH  55  79
BRANCH  67  90
ATOM     90  C   UNL A   1      44.415  28.740  35.363  1.00  0.00     0.023 A 
ATOM     91  C   UNL A   1      45.696  29.294  35.183  1.00  0.00     0.012 A 
ATOM     92  C   UNL A   1      44.228  27.715  36.309  1.00  0.00     0.148 A 
ATOM     93  C   UNL A   1      46.781  28.826  35.924  1.00  0.00     0.002 A 
ATOM     94  C   UNL A   1      45.308  27.275  37.068  1.00  0.00     0.091 A 
ATOM     95  F   UNL A   1      43.005  27.182  36.448  1.00  0.00    -0.205 F 
ATOM     96  C   UNL A   1      46.585  27.826  36.874  1.00  0.00     0.022 A 
BRANCH  94  97
ATOM     97  S   UNL A   1      45.114  26.043  38.362  1.00  0.00     0.127 S 
ATOM     98  O   UNL A   1      44.194  26.712  39.279  1.00  0.00    -0.237 OA
ATOM     99  O   UNL A   1      44.537  24.908  37.640  1.00  0.00    -0.237 OA
ATOM    100  O   UNL A   1      46.458  25.803  38.873  1.00  0.00    -0.744 OA
ENDBRANCH  94  97
ENDBRANCH  67  90
ENDBRANCH  41  42
ENDBRANCH  33  36
ENDBRANCH  31  32
ENDBRANCH   1  31
TORSDOF 17
ENDMDL
MODEL 3
REMARK VINA RESULT:     -12.4      6.258     11.528
REMARK SMILES Cc1ccnc(C(=O)c2[nH]c3ccc(C(C)(C)C)cc3c2CC(=O)NCCCNC(=O)c2ccc(-c3c4nc(c(-c5cccc(S(=O)(=O)[O-])c5F)c5ccc([nH]5)c(-c5cccc(S(=O)(=O)[O-])c5F)c5nc(c(-c6cccc(S(=O)(=O)[O-])c6F)c6ccc3[nH]6)C=C5)C=C4)cc2)c1
REMARK SMILES IDX 27 1 26 2 25 3 23 4 24 5 22 7 21 8 9 9 10 10 11 11 20 13
REMARK SMILES IDX 12 14 19 15 13 16 14 17 7 18 8 19 6 20 1 21 2 22 3 23 95 24
REMARK SMILES IDX 4 25 5 26 15 27 16 28 17 29 18 30 28 31 29 32 30 33 31 35
REMARK SMILES IDX 32 36 33 37 94 38 34 39 93 40 35 41 36 42 37 43 87 44 38 45
REMARK SMILES IDX 92 46 86 47 88 48 39 49 91 50 85 51 84 52 40 54 72 55 52 56
REMARK SMILES IDX 71 57 53 58 56 59 70 60 89 61 54 62 55 63 69 65 90 66 57 67
REMARK SMILES IDX 41 68 42 69 50 70 43 71 45 72 51 73 44 74 46 75 47 76 48 77
REMARK SMILES IDX 49 78 73 79 74 80 82 81 75 82 77 83 83 84 76 85 78 86 79 87
REMARK SMILES IDX 80 88 81 89 58 90 59 91 67 92 60 93 62 94 68 95 61 96 63 97
REMARK SMILES IDX 64 98 65 99 66 100
REMARK H PARENT 25 6 10 12 29 34 88 53 56 64
REMARK Flexibility Score: inf
ROOT
ATOM      1  C   UNL A   1      37.663  19.687  24.990  1.00  0.00     0.042 C 
ENDROOT
BRANCH   1   2
ATOM      2  C   UNL A   1      36.554  20.690  24.691  1.00  0.00     0.117 C 
BRANCH   2   3
ATOM      3  N   UNL A   1      36.771  21.994  25.286  1.00  0.00    -0.356 N 
ATOM      4  C   UNL A   1      36.005  23.123  25.213  1.00  0.00     0.224 C 
ATOM      5  O   UNL A   1      36.279  24.050  25.982  1.00  0.00    -0.275 OA
ATOM      6  H   UNL A   1      37.591  22.078  25.822  1.00  0.00     0.163 HD
BRANCH   4   7
ATOM      7  C   UNL A   1      34.770  23.185  24.330  1.00  0.00     0.138 C 
BRANCH   7   8
ATOM      8  C   UNL A   1      33.463  23.345  25.054  1.00  0.00    -0.002 A 
ATOM      9  C   UNL A   1      32.855  22.437  25.917  1.00  0.00     0.093 A 
ATOM     10  N   UNL A   1      31.725  23.043  26.420  1.00  0.00    -0.352 N 
ATOM     11  C   UNL A   1      31.506  24.246  25.796  1.00  0.00     0.046 A 
ATOM     12  H   UNL A   1      31.154  22.666  27.128  1.00  0.00     0.167 HD
ATOM     13  C   UNL A   1      32.568  24.458  24.927  1.00  0.00     0.004 A 
ATOM     14  C   UNL A   1      30.467  25.165  25.955  1.00  0.00     0.027 A 
ATOM     15  C   UNL A   1      32.581  25.652  24.171  1.00  0.00     0.015 A 
ATOM     16  C   UNL A   1      30.517  26.344  25.197  1.00  0.00     0.006 A 
ATOM     17  C   UNL A   1      31.559  26.617  24.299  1.00  0.00    -0.042 A 
BRANCH   9  18
ATOM     18  C   UNL A   1      33.316  21.122  26.330  1.00  0.00     0.227 C 
ATOM     19  O   UNL A   1      33.999  20.982  27.338  1.00  0.00    -0.285 OA
BRANCH  18  20
ATOM     20  C   UNL A   1      32.956  19.926  25.475  1.00  0.00     0.113 A 
ATOM     21  C   UNL A   1      32.235  18.920  21.886  1.00  0.00     0.044 C 
ATOM     22  C   UNL A   1      32.453  18.867  23.368  1.00  0.00    -0.047 A 
ATOM     23  C   UNL A   1      32.307  17.662  24.055  1.00  0.00     0.023 A 
ATOM     24  C   UNL A   1      32.797  20.015  24.092  1.00  0.00     0.036 A 
ATOM     25  C   UNL A   1      32.498  17.656  25.427  1.00  0.00     0.112 A 
ATOM     26  N   UNL A   1      32.813  18.751  26.145  1.00  0.00    -0.253 NA
ENDBRANCH  18  20
ENDBRANCH   9  18
BRANCH  17  27
ATOM     27  C   UNL A   1      31.644  27.926  23.495  1.00  0.00    -0.013 C 
ATOM     28  C   UNL A   1      30.585  27.898  22.371  1.00  0.00     0.016 C 
ATOM     29  C   UNL A   1      31.373  29.138  24.415  1.00  0.00     0.016 C 
ATOM     30  C   UNL A   1      33.019  28.164  22.830  1.00  0.00     0.016 C 
ENDBRANCH  17  27
ENDBRANCH   7   8
ENDBRANCH   4   7
ENDBRANCH   2   3
ENDBRANCH   1   2
BRANCH   1  31
ATOM     31  C   UNL A   1      38.838  20.250  25.787  1.00  0.00     0.118 C 
BRANCH  31  32
ATOM     32  N   UNL A   1      39.948  19.311  25.900  1.00  0.00    -0.352 N 
ATOM     33  C   UNL A   1      41.285  19.531  26.120  1.00  0.00     0.251 C 
ATOM     34  H   UNL A   1      39.697  18.364  25.802  1.00  0.00     0.163 HD
ATOM     35  O   UNL A   1      42.068  18.588  26.016  1.00  0.00    -0.269 OA
BRANCH  33  36
ATOM     36  C   UNL A   1      41.803  20.877  26.463  1.00  0.00     0.039 A 
ATOM     37  C   UNL A   1      41.983  21.807  25.433  1.00  0.00     0.014 A 
ATOM     38  C   UNL A   1      42.163  21.216  27.771  1.00  0.00     0.014 A 
ATOM     39  C   UNL A   1      42.461  23.090  25.720  1.00  0.00     0.010 A 
ATOM     40  C   UNL A   1      42.588  22.511  28.064  1.00  0.00     0.010 A 
ATOM     41  C   UNL A   1      42.740  23.461  27.043  1.00  0.00    -0.014 A 
BRANCH  41  42
ATOM     42  C   UNL A   1      43.164  24.843  27.387  1.00  0.00     0.031 A 
ATOM     43  C   UNL A   1      42.189  25.811  27.999  1.00  0.00     0.074 A 
ATOM     44  C   UNL A   1      44.403  25.257  27.054  1.00  0.00     0.049 A 
ATOM     45  N   UNL A   1      42.355  27.077  28.283  1.00  0.00    -0.248 NA
ATOM     46  C   UNL A   1      40.847  25.295  28.314  1.00  0.00     0.031 C 
ATOM     47  C   UNL A   1      45.417  24.435  26.394  1.00  0.00     0.029 A 
ATOM     48  N   UNL A   1      45.005  26.483  27.194  1.00  0.00    -0.354 N 
ATOM     49  C   UNL A   1      41.133  27.521  28.771  1.00  0.00     0.074 A 
ATOM     50  C   UNL A   1      40.229  26.391  28.735  1.00  0.00     0.031 C 
ATOM     51  C   UNL A   1      46.513  25.181  26.177  1.00  0.00     0.029 A 
ATOM     52  C   UNL A   1      46.273  26.537  26.662  1.00  0.00     0.049 A 
ATOM     53  H   UNL A   1      44.572  27.250  27.633  1.00  0.00     0.167 HD
ATOM     54  C   UNL A   1      40.801  28.748  29.236  1.00  0.00     0.034 A 
ATOM     55  C   UNL A   1      47.142  27.562  26.569  1.00  0.00     0.034 A 
ATOM     56  C   UNL A   1      41.715  29.854  29.335  1.00  0.00     0.049 A 
ATOM     57  C   UNL A   1      46.766  28.901  27.142  1.00  0.00     0.074 A 
ATOM     58  C   UNL A   1      41.496  31.104  29.885  1.00  0.00     0.029 A 
ATOM     59  N   UNL A   1      43.022  29.841  28.875  1.00  0.00    -0.354 N 
ATOM     60  N   UNL A   1      45.659  29.254  27.747  1.00  0.00    -0.248 NA
ATOM     61  C   UNL A   1      47.767  29.974  27.045  1.00  0.00     0.031 C 
ATOM     62  C   UNL A   1      42.675  31.849  29.762  1.00  0.00     0.029 A 
ATOM     63  C   UNL A   1      43.623  31.063  29.127  1.00  0.00     0.049 A 
ATOM     64  H   UNL A   1      43.459  29.077  28.435  1.00  0.00     0.167 HD
ATOM     65  C   UNL A   1      45.838  30.580  28.126  1.00  0.00     0.074 A 
ATOM     66  C   UNL A   1      47.169  30.961  27.700  1.00  0.00     0.031 C 
ATOM     67  C   UNL A   1      44.969  31.411  28.751  1.00  0.00     0.034 A 
BRANCH  54  68
ATOM     68  C   UNL A   1      39.401  28.941  29.752  1.00  0.00     0.023 A 
ATOM     69  C   UNL A   1      39.113  28.595  31.087  1.00  0.00     0.012 A 
ATOM     70  C   UNL A   1      38.394  29.511  28.950  1.00  0.00     0.148 A 
ATOM     71  C   UNL A   1      37.837  28.796  31.612  1.00  0.00     0.002 A 
ATOM     72  C   UNL A   1      37.132  29.736  29.490  1.00  0.00     0.091 A 
ATOM     73  F   UNL A   1      38.679  29.807  27.673  1.00  0.00    -0.205 F 
ATOM     74  C   UNL A   1      36.851  29.374  30.818  1.00  0.00     0.022 A 
BRANCH  72  75
ATOM     75  S   UNL A   1      35.825  30.531  28.548  1.00  0.00     0.127 S 
ATOM     76  O   UNL A   1      35.093  31.242  29.595  1.00  0.00    -0.237 OA
ATOM     77  O   UNL A   1      36.572  31.397  27.634  1.00  0.00    -0.237 OA
ATOM     78  O   UNL A   1      35.106  29.448  27.891  1.00  0.00    -0.744 OA
ENDBRANCH  72  75
ENDBRANCH  54  68
BRANCH  55  79
ATOM     79  C   UNL A   1      48.490  27.329  25.979  1.00  0.00     0.023 A 
ATOM     80  C   UNL A   1      49.515  26.820  26.800  1.00  0.00     0.012 A 
ATOM     81  C   UNL A   1      48.747  27.543  24.612  1.00  0.00     0.148 A 
ATOM     82  C   UNL A   1      50.775  26.542  26.272  1.00  0.00     0.002 A 
ATOM     83  C   UNL A   1      49.992  27.218  24.082  1.00  0.00     0.091 A 
ATOM     84  F   UNL A   1      47.769  28.049  23.848  1.00  0.00    -0.205 F 
ATOM     85  C   UNL A   1      51.011  26.728  24.912  1.00  0.00     0.022 A 
BRANCH  83  86
ATOM     86  S   UNL A   1      50.304  27.303  22.314  1.00  0.00     0.127 S 
ATOM     87  O   UNL A   1      50.162  28.732  22.049  1.00  0.00    -0.237 OA
ATOM     88  O   UNL A   1      51.670  26.792  22.206  1.00  0.00    -0.237 OA
ATOM     89  O   UNL A   1      49.300  26.432  21.714  1.00  0.00    -0.744 OA
ENDBRANCH  83  86
ENDBRANCH  55  79
BRANCH  67  90
ATOM     90  C   UNL A   1      45.422  32.820  29.022  1.00  0.00     0.023 A 
ATOM     91  C   UNL A   1      46.153  33.090  30.194  1.00  0.00     0.012 A 
ATOM     92  C   UNL A   1      45.204  33.848  28.085  1.00  0.00     0.148 A 
ATOM     93  C   UNL A   1      46.649  34.370  30.439  1.00  0.00     0.002 A 
ATOM     94  C   UNL A   1      45.730  35.114  28.321  1.00  0.00     0.091 A 
ATOM     95  F   UNL A   1      44.483  33.577  26.988  1.00  0.00    -0.205 F 
ATOM     96  C   UNL A   1      46.449  35.378  29.498  1.00  0.00     0.022 A 
BRANCH  94  97
ATOM     97  S   UNL A   1      45.576  36.440  27.118  1.00  0.00     0.127 S 
ATOM     98  O   UNL A   1      46.283  35.885  25.966  1.00  0.00    -0.237 OA
ATOM     99  O   UNL A   1      44.126  36.551  26.948  1.00  0.00    -0.237 OA
ATOM    100  O   UNL A   1      46.193  37.604  27.742  1.00  0.00    -0.744 OA
ENDBRANCH  94  97
ENDBRANCH  67  90
ENDBRANCH  41  42
ENDBRANCH  33  36
ENDBRANCH  31  32
ENDBRANCH   1  31
TORSDOF 17
ENDMDL
