MODEL 1
REMARK VINA RESULT:     -12.2      0.000      0.000
REMARK SMILES CC(C)(O)C[C@]1(C(=O)NCCCNC(=O)c2ccc(-c3c4nc(c(-c5cccc(S(=O)(=O)[O-])c5F)c5ccc([nH]5)c(-c5cccc(S(=O)(=O)[O-])c5F)c5nc(c(-c6cccc(S(=O)(=O)[O-])c6F)c6ccc3[nH]6)C=C5)C=C4)cc2)CCc2ccccc2C1
REMARK SMILES IDX 11 1 10 2 9 3 7 4 8 5 6 7 79 8 87 9 80 10 86 11 81 12 85 13
REMARK SMILES IDX 82 14 84 15 83 16 5 17 2 18 1 19 3 20 4 21 12 23 13 24 14 25
REMARK SMILES IDX 15 27 16 28 17 29 78 30 18 31 77 32 19 33 20 34 21 35 71 36
REMARK SMILES IDX 22 37 76 38 70 39 72 40 23 41 75 42 69 43 68 44 24 46 56 47
REMARK SMILES IDX 36 48 55 49 37 50 40 51 54 52 73 53 38 54 39 55 53 57 74 58
REMARK SMILES IDX 41 59 25 60 26 61 34 62 27 63 29 64 35 65 28 66 30 67 31 68
REMARK SMILES IDX 32 69 33 70 57 71 58 72 66 73 59 74 61 75 67 76 60 77 62 78
REMARK SMILES IDX 63 79 64 80 65 81 42 82 43 83 51 84 44 85 46 86 52 87 45 88
REMARK SMILES IDX 47 89 48 90 49 91 50 92
REMARK H PARENT 9 6 4 22 13 26 72 45 40 56
REMARK Flexibility Score: inf
ROOT
ATOM      1  C   UNL A   1      31.677  28.901  26.449  1.00  0.00     0.042 C 
ENDROOT
BRANCH   1   2
ATOM      2  C   UNL A   1      32.208  27.676  27.171  1.00  0.00     0.117 C 
BRANCH   2   3
ATOM      3  N   UNL A   1      31.381  26.520  26.932  1.00  0.00    -0.356 N 
ATOM      4  C   UNL A   1      31.318  25.555  25.995  1.00  0.00     0.226 C 
ATOM      5  O   UNL A   1      30.477  24.694  26.302  1.00  0.00    -0.274 OA
ATOM      6  H   UNL A   1      30.691  26.409  27.625  1.00  0.00     0.163 HD
BRANCH   4   7
ATOM      7  C   UNL A   1      32.159  25.425  24.668  1.00  0.00     0.056 C 
ATOM      8  C   UNL A   1      33.636  25.821  24.799  1.00  0.00     0.022 C 
ATOM      9  C   UNL A   1      32.032  24.007  24.050  1.00  0.00     0.052 C 
ATOM     10  C   UNL A   1      34.612  24.817  25.378  1.00  0.00     0.037 C 
ATOM     11  C   UNL A   1      33.107  23.003  24.425  1.00  0.00    -0.044 A 
ATOM     12  C   UNL A   1      34.315  23.389  25.032  1.00  0.00    -0.045 A 
ATOM     13  C   UNL A   1      32.847  21.631  24.248  1.00  0.00     0.004 A 
ATOM     14  C   UNL A   1      35.223  22.406  25.465  1.00  0.00     0.004 A 
ATOM     15  C   UNL A   1      33.742  20.665  24.714  1.00  0.00     0.000 A 
ATOM     16  C   UNL A   1      34.930  21.053  25.324  1.00  0.00     0.000 A 
BRANCH   7  17
ATOM     17  C   UNL A   1      31.444  26.493  23.711  1.00  0.00     0.052 C 
BRANCH  17  18
ATOM     18  C   UNL A   1      32.027  26.991  22.363  1.00  0.00     0.060 C 
ATOM     19  C   UNL A   1      32.651  25.881  21.495  1.00  0.00     0.042 C 
ATOM     20  C   UNL A   1      33.155  27.992  22.681  1.00  0.00     0.042 C 
BRANCH  18  21
ATOM     21  O   UNL A   1      31.029  27.681  21.625  1.00  0.00    -0.390 OA
ATOM     22  H   UNL A   1      30.685  27.102  20.926  1.00  0.00     0.211 HD
ENDBRANCH  18  21
ENDBRANCH  17  18
ENDBRANCH   7  17
ENDBRANCH   4   7
ENDBRANCH   2   3
ENDBRANCH   1   2
BRANCH   1  23
ATOM     23  C   UNL A   1      32.791  29.781  25.921  1.00  0.00     0.118 C 
BRANCH  23  24
ATOM     24  N   UNL A   1      32.606  31.176  26.303  1.00  0.00    -0.352 N 
ATOM     25  C   UNL A   1      33.251  31.929  27.252  1.00  0.00     0.251 C 
ATOM     26  H   UNL A   1      31.907  31.654  25.801  1.00  0.00     0.163 HD
ATOM     27  O   UNL A   1      32.790  33.019  27.574  1.00  0.00    -0.269 OA
BRANCH  25  28
ATOM     28  C   UNL A   1      34.485  31.423  27.891  1.00  0.00     0.039 A 
ATOM     29  C   UNL A   1      35.568  32.288  28.061  1.00  0.00     0.014 A 
ATOM     30  C   UNL A   1      34.580  30.096  28.314  1.00  0.00     0.014 A 
ATOM     31  C   UNL A   1      36.721  31.833  28.703  1.00  0.00     0.010 A 
ATOM     32  C   UNL A   1      35.669  29.686  29.068  1.00  0.00     0.010 A 
ATOM     33  C   UNL A   1      36.766  30.538  29.244  1.00  0.00    -0.014 A 
BRANCH  33  34
ATOM     34  C   UNL A   1      37.963  30.031  29.961  1.00  0.00     0.031 A 
ATOM     35  C   UNL A   1      38.258  30.517  31.357  1.00  0.00     0.074 A 
ATOM     36  C   UNL A   1      38.818  29.202  29.331  1.00  0.00     0.049 A 
ATOM     37  N   UNL A   1      39.290  30.262  32.117  1.00  0.00    -0.248 NA
ATOM     38  C   UNL A   1      37.284  31.440  31.968  1.00  0.00     0.031 C 
ATOM     39  C   UNL A   1      38.680  28.725  27.952  1.00  0.00     0.029 A 
ATOM     40  N   UNL A   1      39.989  28.631  29.761  1.00  0.00    -0.354 N 
ATOM     41  C   UNL A   1      39.108  31.018  33.270  1.00  0.00     0.074 A 
ATOM     42  C   UNL A   1      37.897  31.784  33.091  1.00  0.00     0.031 C 
ATOM     43  C   UNL A   1      39.715  27.921  27.657  1.00  0.00     0.029 A 
ATOM     44  C   UNL A   1      40.609  27.857  28.807  1.00  0.00     0.049 A 
ATOM     45  H   UNL A   1      40.352  28.763  30.667  1.00  0.00     0.167 HD
ATOM     46  C   UNL A   1      39.859  31.044  34.396  1.00  0.00     0.034 A 
ATOM     47  C   UNL A   1      41.774  27.181  28.855  1.00  0.00     0.034 A 
ATOM     48  C   UNL A   1      41.033  30.240  34.589  1.00  0.00     0.049 A 
ATOM     49  C   UNL A   1      42.573  27.205  30.130  1.00  0.00     0.074 A 
ATOM     50  C   UNL A   1      41.825  30.132  35.718  1.00  0.00     0.029 A 
ATOM     51  N   UNL A   1      41.584  29.405  33.631  1.00  0.00    -0.354 N 
ATOM     52  N   UNL A   1      42.308  27.817  31.260  1.00  0.00    -0.248 NA
ATOM     53  C   UNL A   1      43.812  26.416  30.151  1.00  0.00     0.031 C 
ATOM     54  C   UNL A   1      42.870  29.249  35.432  1.00  0.00     0.029 A 
ATOM     55  C   UNL A   1      42.708  28.780  34.138  1.00  0.00     0.049 A 
ATOM     56  H   UNL A   1      41.227  29.275  32.721  1.00  0.00     0.167 HD
ATOM     57  C   UNL A   1      43.323  27.451  32.137  1.00  0.00     0.074 A 
ATOM     58  C   UNL A   1      44.194  26.549  31.414  1.00  0.00     0.031 C 
ATOM     59  C   UNL A   1      43.525  27.838  33.420  1.00  0.00     0.034 A 
BRANCH  46  60
ATOM     60  C   UNL A   1      39.398  31.924  35.529  1.00  0.00     0.023 A 
ATOM     61  C   UNL A   1      39.703  33.300  35.511  1.00  0.00     0.012 A 
ATOM     62  C   UNL A   1      38.608  31.405  36.575  1.00  0.00     0.148 A 
ATOM     63  C   UNL A   1      39.262  34.141  36.532  1.00  0.00     0.002 A 
ATOM     64  C   UNL A   1      38.129  32.259  37.562  1.00  0.00     0.091 A 
ATOM     65  F   UNL A   1      38.343  30.091  36.585  1.00  0.00    -0.205 F 
ATOM     66  C   UNL A   1      38.465  33.624  37.549  1.00  0.00     0.022 A 
BRANCH  64  67
ATOM     67  S   UNL A   1      37.028  31.712  38.871  1.00  0.00     0.127 S 
ATOM     68  O   UNL A   1      37.889  31.830  40.048  1.00  0.00    -0.237 OA
ATOM     69  O   UNL A   1      35.954  32.701  38.799  1.00  0.00    -0.237 OA
ATOM     70  O   UNL A   1      36.634  30.354  38.526  1.00  0.00    -0.744 OA
ENDBRANCH  64  67
ENDBRANCH  46  60
BRANCH  47  71
ATOM     71  C   UNL A   1      42.230  26.378  27.684  1.00  0.00     0.023 A 
ATOM     72  C   UNL A   1      43.025  26.988  26.693  1.00  0.00     0.012 A 
ATOM     73  C   UNL A   1      41.880  25.022  27.541  1.00  0.00     0.148 A 
ATOM     74  C   UNL A   1      43.421  26.279  25.559  1.00  0.00     0.002 A 
ATOM     75  C   UNL A   1      42.327  24.303  26.437  1.00  0.00     0.091 A 
ATOM     76  F   UNL A   1      41.117  24.459  28.488  1.00  0.00    -0.205 F 
ATOM     77  C   UNL A   1      43.079  24.935  25.435  1.00  0.00     0.022 A 
BRANCH  75  78
ATOM     78  S   UNL A   1      42.043  22.539  26.261  1.00  0.00     0.127 S 
ATOM     79  O   UNL A   1      42.724  22.251  25.001  1.00  0.00    -0.237 OA
ATOM     80  O   UNL A   1      42.700  22.006  27.454  1.00  0.00    -0.237 OA
ATOM     81  O   UNL A   1      40.596  22.374  26.252  1.00  0.00    -0.744 OA
ENDBRANCH  75  78
ENDBRANCH  47  71
BRANCH  59  82
ATOM     82  C   UNL A   1      44.702  27.245  34.149  1.00  0.00     0.023 A 
ATOM     83  C   UNL A   1      45.948  27.902  34.131  1.00  0.00     0.012 A 
ATOM     84  C   UNL A   1      44.547  26.074  34.915  1.00  0.00     0.148 A 
ATOM     85  C   UNL A   1      47.032  27.380  34.834  1.00  0.00     0.002 A 
ATOM     86  C   UNL A   1      45.616  25.590  35.658  1.00  0.00     0.091 A 
ATOM     87  F   UNL A   1      43.357  25.456  34.907  1.00  0.00    -0.205 F 
ATOM     88  C   UNL A   1      46.864  26.233  35.606  1.00  0.00     0.022 A 
BRANCH  86  89
ATOM     89  S   UNL A   1      45.465  24.180  36.760  1.00  0.00     0.127 S 
ATOM     90  O   UNL A   1      46.836  24.036  37.248  1.00  0.00    -0.237 OA
ATOM     91  O   UNL A   1      44.510  24.669  37.755  1.00  0.00    -0.237 OA
ATOM     92  O   UNL A   1      44.976  23.079  35.942  1.00  0.00    -0.744 OA
ENDBRANCH  86  89
ENDBRANCH  59  82
ENDBRANCH  33  34
ENDBRANCH  25  28
ENDBRANCH  23  24
ENDBRANCH   1  23
TORSDOF 16
ENDMDL
MODEL 2
REMARK VINA RESULT:     -12.1      5.288     10.368
REMARK SMILES CC(C)(O)C[C@]1(C(=O)NCCCNC(=O)c2ccc(-c3c4nc(c(-c5cccc(S(=O)(=O)[O-])c5F)c5ccc([nH]5)c(-c5cccc(S(=O)(=O)[O-])c5F)c5nc(c(-c6cccc(S(=O)(=O)[O-])c6F)c6ccc3[nH]6)C=C5)C=C4)cc2)CCc2ccccc2C1
REMARK SMILES IDX 11 1 10 2 9 3 7 4 8 5 6 7 79 8 87 9 80 10 86 11 81 12 85 13
REMARK SMILES IDX 82 14 84 15 83 16 5 17 2 18 1 19 3 20 4 21 12 23 13 24 14 25
REMARK SMILES IDX 15 27 16 28 17 29 78 30 18 31 77 32 19 33 20 34 21 35 71 36
REMARK SMILES IDX 22 37 76 38 70 39 72 40 23 41 75 42 69 43 68 44 24 46 56 47
REMARK SMILES IDX 36 48 55 49 37 50 40 51 54 52 73 53 38 54 39 55 53 57 74 58
REMARK SMILES IDX 41 59 25 60 26 61 34 62 27 63 29 64 35 65 28 66 30 67 31 68
REMARK SMILES IDX 32 69 33 70 57 71 58 72 66 73 59 74 61 75 67 76 60 77 62 78
REMARK SMILES IDX 63 79 64 80 65 81 42 82 43 83 51 84 44 85 46 86 52 87 45 88
REMARK SMILES IDX 47 89 48 90 49 91 50 92
REMARK H PARENT 9 6 4 22 13 26 72 45 40 56
REMARK Flexibility Score: inf
ROOT
ATOM      1  C   UNL A   1      35.856  21.700  25.649  1.00  0.00     0.042 C 
ENDROOT
BRANCH   1   2
ATOM      2  C   UNL A   1      35.593  22.966  26.443  1.00  0.00     0.117 C 
BRANCH   2   3
ATOM      3  N   UNL A   1      34.268  22.970  27.010  1.00  0.00    -0.356 N 
ATOM      4  C   UNL A   1      33.067  23.466  26.656  1.00  0.00     0.226 C 
ATOM      5  O   UNL A   1      32.184  23.093  27.446  1.00  0.00    -0.274 OA
ATOM      6  H   UNL A   1      34.232  22.490  27.869  1.00  0.00     0.163 HD
BRANCH   4   7
ATOM      7  C   UNL A   1      32.713  24.381  25.423  1.00  0.00     0.056 C 
ATOM      8  C   UNL A   1      31.250  24.843  25.362  1.00  0.00     0.022 C 
ATOM      9  C   UNL A   1      33.669  25.599  25.323  1.00  0.00     0.052 C 
ATOM     10  C   UNL A   1      30.821  26.022  26.211  1.00  0.00     0.037 C 
ATOM     11  C   UNL A   1      33.201  26.887  25.977  1.00  0.00    -0.044 A 
ATOM     12  C   UNL A   1      31.868  27.083  26.377  1.00  0.00    -0.045 A 
ATOM     13  C   UNL A   1      34.152  27.878  26.282  1.00  0.00     0.004 A 
ATOM     14  C   UNL A   1      31.516  28.246  27.085  1.00  0.00     0.004 A 
ATOM     15  C   UNL A   1      33.796  29.013  27.015  1.00  0.00     0.000 A 
ATOM     16  C   UNL A   1      32.478  29.197  27.418  1.00  0.00     0.000 A 
BRANCH   7  17
ATOM     17  C   UNL A   1      32.970  23.394  24.187  1.00  0.00     0.052 C 
BRANCH  17  18
ATOM     18  C   UNL A   1      33.463  23.849  22.788  1.00  0.00     0.060 C 
ATOM     19  C   UNL A   1      32.892  25.204  22.327  1.00  0.00     0.042 C 
ATOM     20  C   UNL A   1      32.995  22.799  21.762  1.00  0.00     0.042 C 
BRANCH  18  21
ATOM     21  O   UNL A   1      34.882  23.885  22.759  1.00  0.00    -0.390 OA
ATOM     22  H   UNL A   1      35.211  23.197  22.158  1.00  0.00     0.211 HD
ENDBRANCH  18  21
ENDBRANCH  17  18
ENDBRANCH   7  17
ENDBRANCH   4   7
ENDBRANCH   2   3
ENDBRANCH   1   2
BRANCH   1  23
ATOM     23  C   UNL A   1      37.218  21.713  24.986  1.00  0.00     0.118 C 
BRANCH  23  24
ATOM     24  N   UNL A   1      38.099  20.691  25.540  1.00  0.00    -0.352 N 
ATOM     25  C   UNL A   1      39.324  20.810  26.149  1.00  0.00     0.251 C 
ATOM     26  H   UNL A   1      37.763  19.768  25.465  1.00  0.00     0.163 HD
ATOM     27  O   UNL A   1      40.004  19.808  26.339  1.00  0.00    -0.269 OA
BRANCH  25  28
ATOM     28  C   UNL A   1      39.824  22.140  26.560  1.00  0.00     0.039 A 
ATOM     29  C   UNL A   1      40.863  22.219  27.489  1.00  0.00     0.014 A 
ATOM     30  C   UNL A   1      39.265  23.308  26.039  1.00  0.00     0.014 A 
ATOM     31  C   UNL A   1      41.373  23.467  27.850  1.00  0.00     0.010 A 
ATOM     32  C   UNL A   1      39.860  24.535  26.294  1.00  0.00     0.010 A 
ATOM     33  C   UNL A   1      40.899  24.633  27.228  1.00  0.00    -0.014 A 
BRANCH  33  34
ATOM     34  C   UNL A   1      41.440  25.975  27.563  1.00  0.00     0.031 A 
ATOM     35  C   UNL A   1      42.848  26.333  27.161  1.00  0.00     0.074 A 
ATOM     36  C   UNL A   1      40.698  26.832  28.290  1.00  0.00     0.049 A 
ATOM     37  N   UNL A   1      43.532  27.414  27.431  1.00  0.00    -0.248 NA
ATOM     38  C   UNL A   1      43.602  25.331  26.386  1.00  0.00     0.031 C 
ATOM     39  C   UNL A   1      39.350  26.567  28.803  1.00  0.00     0.029 A 
ATOM     40  N   UNL A   1      40.980  28.095  28.746  1.00  0.00    -0.354 N 
ATOM     41  C   UNL A   1      44.798  27.205  26.896  1.00  0.00     0.074 A 
ATOM     42  C   UNL A   1      44.809  25.876  26.333  1.00  0.00     0.031 C 
ATOM     43  C   UNL A   1      38.918  27.639  29.486  1.00  0.00     0.029 A 
ATOM     44  C   UNL A   1      39.969  28.650  29.496  1.00  0.00     0.049 A 
ATOM     45  H   UNL A   1      41.827  28.559  28.555  1.00  0.00     0.167 HD
ATOM     46  C   UNL A   1      45.847  28.058  26.840  1.00  0.00     0.034 A 
ATOM     47  C   UNL A   1      39.904  29.839  30.126  1.00  0.00     0.034 A 
ATOM     48  C   UNL A   1      45.812  29.399  27.354  1.00  0.00     0.049 A 
ATOM     49  C   UNL A   1      41.075  30.779  30.022  1.00  0.00     0.074 A 
ATOM     50  C   UNL A   1      46.792  30.372  27.282  1.00  0.00     0.029 A 
ATOM     51  N   UNL A   1      44.741  29.955  28.033  1.00  0.00    -0.354 N 
ATOM     52  N   UNL A   1      42.212  30.616  29.389  1.00  0.00    -0.248 NA
ATOM     53  C   UNL A   1      40.942  32.082  30.687  1.00  0.00     0.031 C 
ATOM     54  C   UNL A   1      46.321  31.511  27.942  1.00  0.00     0.029 A 
ATOM     55  C   UNL A   1      45.035  31.258  28.392  1.00  0.00     0.049 A 
ATOM     56  H   UNL A   1      43.894  29.492  28.232  1.00  0.00     0.167 HD
ATOM     57  C   UNL A   1      42.908  31.809  29.542  1.00  0.00     0.074 A 
ATOM     58  C   UNL A   1      42.056  32.692  30.310  1.00  0.00     0.031 C 
ATOM     59  C   UNL A   1      44.147  32.140  29.102  1.00  0.00     0.034 A 
BRANCH  46  60
ATOM     60  C   UNL A   1      47.099  27.589  26.144  1.00  0.00     0.023 A 
ATOM     61  C   UNL A   1      48.038  26.810  26.851  1.00  0.00     0.012 A 
ATOM     62  C   UNL A   1      47.315  27.860  24.778  1.00  0.00     0.148 A 
ATOM     63  C   UNL A   1      49.189  26.338  26.222  1.00  0.00     0.002 A 
ATOM     64  C   UNL A   1      48.440  27.343  24.145  1.00  0.00     0.091 A 
ATOM     65  F   UNL A   1      46.421  28.617  24.127  1.00  0.00    -0.205 F 
ATOM     66  C   UNL A   1      49.384  26.593  24.868  1.00  0.00     0.022 A 
BRANCH  64  67
ATOM     67  S   UNL A   1      48.744  27.543  22.387  1.00  0.00     0.127 S 
ATOM     68  O   UNL A   1      48.765  26.153  21.931  1.00  0.00    -0.237 OA
ATOM     69  O   UNL A   1      47.574  28.308  21.960  1.00  0.00    -0.237 OA
ATOM     70  O   UNL A   1      50.011  28.251  22.274  1.00  0.00    -0.744 OA
ENDBRANCH  64  67
ENDBRANCH  46  60
BRANCH  47  71
ATOM     71  C   UNL A   1      38.671  30.237  30.864  1.00  0.00     0.023 A 
ATOM     72  C   UNL A   1      38.502  29.828  32.202  1.00  0.00     0.012 A 
ATOM     73  C   UNL A   1      37.665  31.009  30.253  1.00  0.00     0.148 A 
ATOM     74  C   UNL A   1      37.335  30.137  32.901  1.00  0.00     0.002 A 
ATOM     75  C   UNL A   1      36.530  31.364  30.974  1.00  0.00     0.091 A 
ATOM     76  F   UNL A   1      37.837  31.383  28.978  1.00  0.00    -0.205 F 
ATOM     77  C   UNL A   1      36.352  30.911  32.290  1.00  0.00     0.022 A 
BRANCH  75  78
ATOM     78  S   UNL A   1      35.275  32.465  30.310  1.00  0.00     0.127 S 
ATOM     79  O   UNL A   1      34.339  32.560  31.426  1.00  0.00    -0.237 OA
ATOM     80  O   UNL A   1      36.047  33.679  30.046  1.00  0.00    -0.237 OA
ATOM     81  O   UNL A   1      34.770  31.806  29.112  1.00  0.00    -0.744 OA
ENDBRANCH  75  78
ENDBRANCH  47  71
BRANCH  59  82
ATOM     82  C   UNL A   1      44.637  33.535  29.387  1.00  0.00     0.023 A 
ATOM     83  C   UNL A   1      45.293  33.819  30.601  1.00  0.00     0.012 A 
ATOM     84  C   UNL A   1      44.514  34.545  28.413  1.00  0.00     0.148 A 
ATOM     85  C   UNL A   1      45.784  35.098  30.857  1.00  0.00     0.002 A 
ATOM     86  C   UNL A   1      45.054  35.802  28.652  1.00  0.00     0.091 A 
ATOM     87  F   UNL A   1      43.873  34.257  27.270  1.00  0.00    -0.205 F 
ATOM     88  C   UNL A   1      45.676  36.085  29.879  1.00  0.00     0.022 A 
BRANCH  86  89
ATOM     89  S   UNL A   1      45.054  37.102  27.413  1.00  0.00     0.127 S 
ATOM     90  O   UNL A   1      43.657  37.101  26.982  1.00  0.00    -0.237 OA
ATOM     91  O   UNL A   1      45.452  38.272  28.196  1.00  0.00    -0.237 OA
ATOM     92  O   UNL A   1      46.019  36.695  26.400  1.00  0.00    -0.744 OA
ENDBRANCH  86  89
ENDBRANCH  59  82
ENDBRANCH  33  34
ENDBRANCH  25  28
ENDBRANCH  23  24
ENDBRANCH   1  23
TORSDOF 16
ENDMDL
MODEL 3
REMARK VINA RESULT:     -12.1      2.422      3.877
REMARK SMILES CC(C)(O)C[C@]1(C(=O)NCCCNC(=O)c2ccc(-c3c4nc(c(-c5cccc(S(=O)(=O)[O-])c5F)c5ccc([nH]5)c(-c5cccc(S(=O)(=O)[O-])c5F)c5nc(c(-c6cccc(S(=O)(=O)[O-])c6F)c6ccc3[nH]6)C=C5)C=C4)cc2)CCc2ccccc2C1
REMARK SMILES IDX 11 1 10 2 9 3 7 4 8 5 6 7 79 8 87 9 80 10 86 11 81 12 85 13
REMARK SMILES IDX 82 14 84 15 83 16 5 17 2 18 1 19 3 20 4 21 12 23 13 24 14 25
REMARK SMILES IDX 15 27 16 28 17 29 78 30 18 31 77 32 19 33 20 34 21 35 71 36
REMARK SMILES IDX 22 37 76 38 70 39 72 40 23 41 75 42 69 43 68 44 24 46 56 47
REMARK SMILES IDX 36 48 55 49 37 50 40 51 54 52 73 53 38 54 39 55 53 57 74 58
REMARK SMILES IDX 41 59 25 60 26 61 34 62 27 63 29 64 35 65 28 66 30 67 31 68
REMARK SMILES IDX 32 69 33 70 57 71 58 72 66 73 59 74 61 75 67 76 60 77 62 78
REMARK SMILES IDX 63 79 64 80 65 81 42 82 43 83 51 84 44 85 46 86 52 87 45 88
REMARK SMILES IDX 47 89 48 90 49 91 50 92
REMARK H PARENT 9 6 4 22 13 26 72 45 40 56
REMARK Flexibility Score: inf
ROOT
ATOM      1  C   UNL A   1      33.509  27.813  26.652  1.00  0.00     0.042 C 
ENDROOT
BRANCH   1   2
ATOM      2  C   UNL A   1      32.099  28.239  27.019  1.00  0.00     0.117 C 
BRANCH   2   3
ATOM      3  N   UNL A   1      31.195  27.116  27.039  1.00  0.00    -0.356 N 
ATOM      4  C   UNL A   1      30.667  26.286  26.120  1.00  0.00     0.226 C 
ATOM      5  O   UNL A   1      30.013  25.381  26.664  1.00  0.00    -0.274 OA
ATOM      6  H   UNL A   1      30.889  26.904  27.950  1.00  0.00     0.163 HD
BRANCH   4   7
ATOM      7  C   UNL A   1      30.810  26.346  24.551  1.00  0.00     0.056 C 
ATOM      8  C   UNL A   1      29.654  25.701  23.774  1.00  0.00     0.022 C 
ATOM      9  C   UNL A   1      31.053  27.796  24.055  1.00  0.00     0.052 C 
ATOM     10  C   UNL A   1      28.379  26.495  23.570  1.00  0.00     0.037 C 
ATOM     11  C   UNL A   1      29.827  28.584  23.631  1.00  0.00    -0.044 A 
ATOM     12  C   UNL A   1      28.585  27.970  23.393  1.00  0.00    -0.045 A 
ATOM     13  C   UNL A   1      29.910  29.988  23.568  1.00  0.00     0.004 A 
ATOM     14  C   UNL A   1      27.456  28.761  23.118  1.00  0.00     0.004 A 
ATOM     15  C   UNL A   1      28.773  30.764  23.328  1.00  0.00     0.000 A 
ATOM     16  C   UNL A   1      27.545  30.150  23.104  1.00  0.00     0.000 A 
BRANCH   7  17
ATOM     17  C   UNL A   1      32.125  25.466  24.300  1.00  0.00     0.052 C 
BRANCH  17  18
ATOM     18  C   UNL A   1      32.510  24.832  22.938  1.00  0.00     0.060 C 
ATOM     19  C   UNL A   1      33.822  24.026  22.963  1.00  0.00     0.042 C 
ATOM     20  C   UNL A   1      32.713  25.979  21.928  1.00  0.00     0.042 C 
BRANCH  18  21
ATOM     21  O   UNL A   1      31.449  24.017  22.462  1.00  0.00    -0.390 OA
ATOM     22  H   UNL A   1      31.547  23.119  22.815  1.00  0.00     0.211 HD
ENDBRANCH  18  21
ENDBRANCH  17  18
ENDBRANCH   7  17
ENDBRANCH   4   7
ENDBRANCH   2   3
ENDBRANCH   1   2
BRANCH   1  23
ATOM     23  C   UNL A   1      34.309  28.947  26.045  1.00  0.00     0.118 C 
BRANCH  23  24
ATOM     24  N   UNL A   1      33.990  30.228  26.666  1.00  0.00    -0.352 N 
ATOM     25  C   UNL A   1      34.581  30.873  27.723  1.00  0.00     0.251 C 
ATOM     26  H   UNL A   1      33.230  30.706  26.262  1.00  0.00     0.163 HD
ATOM     27  O   UNL A   1      34.018  31.835  28.235  1.00  0.00    -0.269 OA
BRANCH  25  28
ATOM     28  C   UNL A   1      35.880  30.402  28.250  1.00  0.00     0.039 A 
ATOM     29  C   UNL A   1      35.903  29.623  29.408  1.00  0.00     0.014 A 
ATOM     30  C   UNL A   1      37.076  30.735  27.611  1.00  0.00     0.014 A 
ATOM     31  C   UNL A   1      37.119  29.135  29.889  1.00  0.00     0.010 A 
ATOM     32  C   UNL A   1      38.264  30.142  28.011  1.00  0.00     0.010 A 
ATOM     33  C   UNL A   1      38.306  29.362  29.173  1.00  0.00    -0.014 A 
BRANCH  33  34
ATOM     34  C   UNL A   1      39.613  28.833  29.637  1.00  0.00     0.031 A 
ATOM     35  C   UNL A   1      40.350  29.537  30.747  1.00  0.00     0.074 A 
ATOM     36  C   UNL A   1      40.167  27.776  29.011  1.00  0.00     0.049 A 
ATOM     37  N   UNL A   1      41.536  29.285  31.237  1.00  0.00    -0.248 NA
ATOM     38  C   UNL A   1      39.687  30.699  31.365  1.00  0.00     0.031 C 
ATOM     39  C   UNL A   1      39.584  27.060  27.873  1.00  0.00     0.029 A 
ATOM     40  N   UNL A   1      41.358  27.132  29.229  1.00  0.00    -0.354 N 
ATOM     41  C   UNL A   1      41.772  30.275  32.186  1.00  0.00     0.074 A 
ATOM     42  C   UNL A   1      40.634  31.163  32.168  1.00  0.00     0.031 C 
ATOM     43  C   UNL A   1      40.410  26.067  27.505  1.00  0.00     0.029 A 
ATOM     44  C   UNL A   1      41.597  26.099  28.351  1.00  0.00     0.049 A 
ATOM     45  H   UNL A   1      41.984  27.385  29.946  1.00  0.00     0.167 HD
ATOM     46  C   UNL A   1      42.823  30.411  33.028  1.00  0.00     0.034 A 
ATOM     47  C   UNL A   1      42.659  25.279  28.239  1.00  0.00     0.034 A 
ATOM     48  C   UNL A   1      43.927  29.493  33.078  1.00  0.00     0.049 A 
ATOM     49  C   UNL A   1      43.800  25.435  29.208  1.00  0.00     0.074 A 
ATOM     50  C   UNL A   1      45.006  29.494  33.943  1.00  0.00     0.029 A 
ATOM     51  N   UNL A   1      44.092  28.411  32.230  1.00  0.00    -0.354 N 
ATOM     52  N   UNL A   1      43.938  26.292  30.192  1.00  0.00    -0.248 NA
ATOM     53  C   UNL A   1      44.916  24.488  29.077  1.00  0.00     0.031 C 
ATOM     54  C   UNL A   1      45.838  28.424  33.600  1.00  0.00     0.029 A 
ATOM     55  C   UNL A   1      45.258  27.737  32.545  1.00  0.00     0.049 A 
ATOM     56  H   UNL A   1      43.472  28.158  31.507  1.00  0.00     0.167 HD
ATOM     57  C   UNL A   1      45.131  25.959  30.821  1.00  0.00     0.074 A 
ATOM     58  C   UNL A   1      45.666  24.810  30.121  1.00  0.00     0.031 C 
ATOM     59  C   UNL A   1      45.740  26.559  31.874  1.00  0.00     0.034 A 
BRANCH  46  60
ATOM     60  C   UNL A   1      42.798  31.557  34.005  1.00  0.00     0.023 A 
ATOM     61  C   UNL A   1      43.347  32.802  33.633  1.00  0.00     0.012 A 
ATOM     62  C   UNL A   1      42.175  31.426  35.262  1.00  0.00     0.148 A 
ATOM     63  C   UNL A   1      43.309  33.887  34.507  1.00  0.00     0.002 A 
ATOM     64  C   UNL A   1      42.096  32.526  36.108  1.00  0.00     0.091 A 
ATOM     65  F   UNL A   1      41.675  30.231  35.606  1.00  0.00    -0.205 F 
ATOM     66  C   UNL A   1      42.673  33.753  35.737  1.00  0.00     0.022 A 
BRANCH  64  67
ATOM     67  S   UNL A   1      41.228  32.485  37.679  1.00  0.00     0.127 S 
ATOM     68  O   UNL A   1      42.073  31.580  38.459  1.00  0.00    -0.237 OA
ATOM     69  O   UNL A   1      41.286  33.885  38.096  1.00  0.00    -0.237 OA
ATOM     70  O   UNL A   1      39.891  31.988  37.390  1.00  0.00    -0.744 OA
ENDBRANCH  64  67
ENDBRANCH  46  60
BRANCH  47  71
ATOM     71  C   UNL A   1      42.675  24.199  27.211  1.00  0.00     0.023 A 
ATOM     72  C   UNL A   1      43.350  24.413  25.992  1.00  0.00     0.012 A 
ATOM     73  C   UNL A   1      42.024  22.969  27.425  1.00  0.00     0.148 A 
ATOM     74  C   UNL A   1      43.336  23.444  24.989  1.00  0.00     0.002 A 
ATOM     75  C   UNL A   1      42.063  21.984  26.444  1.00  0.00     0.091 A 
ATOM     76  F   UNL A   1      41.380  22.785  28.585  1.00  0.00    -0.205 F 
ATOM     77  C   UNL A   1      42.699  22.227  25.217  1.00  0.00     0.022 A 
BRANCH  75  78
ATOM     78  S   UNL A   1      41.382  20.342  26.703  1.00  0.00     0.127 S 
ATOM     79  O   UNL A   1      39.960  20.631  26.870  1.00  0.00    -0.237 OA
ATOM     80  O   UNL A   1      41.733  19.668  25.454  1.00  0.00    -0.237 OA
ATOM     81  O   UNL A   1      42.065  19.816  27.878  1.00  0.00    -0.744 OA
ENDBRANCH  75  78
ENDBRANCH  47  71
BRANCH  59  82
ATOM     82  C   UNL A   1      47.024  25.952  32.375  1.00  0.00     0.023 A 
ATOM     83  C   UNL A   1      48.260  26.395  31.865  1.00  0.00     0.012 A 
ATOM     84  C   UNL A   1      47.002  24.996  33.409  1.00  0.00     0.148 A 
ATOM     85  C   UNL A   1      49.455  25.866  32.350  1.00  0.00     0.002 A 
ATOM     86  C   UNL A   1      48.198  24.514  33.926  1.00  0.00     0.091 A 
ATOM     87  F   UNL A   1      45.815  24.577  33.869  1.00  0.00    -0.205 F 
ATOM     88  C   UNL A   1      49.425  24.936  33.387  1.00  0.00     0.022 A 
BRANCH  86  89
ATOM     89  S   UNL A   1      48.260  23.394  35.328  1.00  0.00     0.127 S 
ATOM     90  O   UNL A   1      49.670  23.006  35.336  1.00  0.00    -0.237 OA
ATOM     91  O   UNL A   1      47.858  24.263  36.434  1.00  0.00    -0.237 OA
ATOM     92  O   UNL A   1      47.321  22.321  35.029  1.00  0.00    -0.744 OA
ENDBRANCH  86  89
ENDBRANCH  59  82
ENDBRANCH  33  34
ENDBRANCH  25  28
ENDBRANCH  23  24
ENDBRANCH   1  23
TORSDOF 16
ENDMDL
