MODEL 1
REMARK VINA RESULT:     -13.2      0.000      0.000
REMARK SMILES Cn1ccc(-c2n[nH]c(=O)n2-c2ccc(C(=O)NCCCNC(=O)c3ccc(-c4c5nc(c(-c6cccc(S(=O)(=O)[O-])c6F)c6ccc([nH]6)c(-c6cccc(S(=O)(=O)[O-])c6F)c6nc(c(-c7cccc(S(=O)(=O)[O-])c7F)c7ccc4[nH]7)C=C6)C=C5)cc3)cc2)n1
REMARK SMILES IDX 20 1 19 2 18 3 16 4 17 5 15 7 12 8 13 9 89 10 14 11 88 12
REMARK SMILES IDX 11 13 6 14 7 15 8 16 9 17 10 19 5 20 1 21 2 22 3 23 90 24
REMARK SMILES IDX 4 25 21 26 22 27 23 28 24 30 25 31 26 32 87 33 27 34 86 35
REMARK SMILES IDX 28 36 29 37 30 38 80 39 31 40 85 41 79 42 81 43 32 44 84 45
REMARK SMILES IDX 78 46 77 47 33 49 65 50 45 51 64 52 46 53 49 54 63 55 82 56
REMARK SMILES IDX 47 57 48 58 62 60 83 61 50 62 34 63 35 64 43 65 36 66 38 67
REMARK SMILES IDX 44 68 37 69 39 70 40 71 41 72 42 73 66 74 67 75 75 76 68 77
REMARK SMILES IDX 70 78 76 79 69 80 71 81 72 82 73 83 74 84 51 85 52 86 60 87
REMARK SMILES IDX 53 88 55 89 61 90 54 91 56 92 57 93 58 94 59 95
REMARK H PARENT 18 6 8 18 22 29 81 48 49 59
REMARK Flexibility Score: inf
ROOT
ATOM      1  C   UNL A   1      37.746  19.702  25.006  1.00  0.00     0.042 C 
ENDROOT
BRANCH   1   2
ATOM      2  C   UNL A   1      36.654  20.772  24.866  1.00  0.00     0.118 C 
BRANCH   2   3
ATOM      3  N   UNL A   1      36.990  21.773  23.869  1.00  0.00    -0.352 N 
ATOM      4  C   UNL A   1      36.349  22.911  23.444  1.00  0.00     0.251 C 
ATOM      5  O   UNL A   1      36.959  23.658  22.681  1.00  0.00    -0.269 OA
ATOM      6  H   UNL A   1      37.843  21.602  23.409  1.00  0.00     0.163 HD
BRANCH   4   7
ATOM      7  C   UNL A   1      34.992  23.318  23.902  1.00  0.00     0.039 A 
ATOM      8  C   UNL A   1      32.471  23.971  24.974  1.00  0.00     0.052 A 
ATOM      9  C   UNL A   1      33.628  24.286  25.686  1.00  0.00     0.028 A 
ATOM     10  C   UNL A   1      32.582  23.425  23.694  1.00  0.00     0.028 A 
ATOM     11  C   UNL A   1      34.879  23.929  25.164  1.00  0.00     0.016 A 
ATOM     12  C   UNL A   1      33.832  23.151  23.149  1.00  0.00     0.016 A 
BRANCH   8  13
ATOM     13  N   UNL A   1      31.198  24.247  25.482  1.00  0.00    -0.242 N 
ATOM     14  C   UNL A   1      30.607  25.465  25.652  1.00  0.00     0.189 A 
ATOM     15  N   UNL A   1      29.596  25.478  26.478  1.00  0.00    -0.150 NA
ATOM     16  N   UNL A   1      29.481  24.166  26.858  1.00  0.00    -0.226 N 
ATOM     17  C   UNL A   1      30.459  23.382  26.247  1.00  0.00     0.348 A 
ATOM     18  H   UNL A   1      28.798  23.822  27.479  1.00  0.00     0.195 HD
ATOM     19  O   UNL A   1      30.623  22.185  26.463  1.00  0.00    -0.246 OA
BRANCH  14  20
ATOM     20  C   UNL A   1      31.016  26.656  24.923  1.00  0.00     0.130 A 
ATOM     21  C   UNL A   1      30.421  29.024  22.411  1.00  0.00     0.173 C 
ATOM     22  N   UNL A   1      30.957  28.228  23.489  1.00  0.00    -0.275 N 
ATOM     23  C   UNL A   1      32.038  28.519  24.267  1.00  0.00     0.109 A 
ATOM     24  N   UNL A   1      30.338  27.089  23.843  1.00  0.00    -0.170 NA
ATOM     25  C   UNL A   1      32.088  27.534  25.226  1.00  0.00     0.054 A 
ENDBRANCH  14  20
ENDBRANCH   8  13
ENDBRANCH   4   7
ENDBRANCH   2   3
ENDBRANCH   1   2
BRANCH   1  26
ATOM     26  C   UNL A   1      38.975  20.233  25.723  1.00  0.00     0.118 C 
BRANCH  26  27
ATOM     27  N   UNL A   1      40.026  19.213  25.815  1.00  0.00    -0.352 N 
ATOM     28  C   UNL A   1      41.373  19.382  26.055  1.00  0.00     0.251 C 
ATOM     29  H   UNL A   1      39.729  18.284  25.688  1.00  0.00     0.163 HD
ATOM     30  O   UNL A   1      42.170  18.494  25.779  1.00  0.00    -0.269 OA
BRANCH  28  31
ATOM     31  C   UNL A   1      41.836  20.649  26.642  1.00  0.00     0.039 A 
ATOM     32  C   UNL A   1      42.468  21.617  25.855  1.00  0.00     0.014 A 
ATOM     33  C   UNL A   1      41.587  20.875  27.993  1.00  0.00     0.014 A 
ATOM     34  C   UNL A   1      42.771  22.852  26.421  1.00  0.00     0.010 A 
ATOM     35  C   UNL A   1      41.738  22.138  28.502  1.00  0.00     0.010 A 
ATOM     36  C   UNL A   1      42.380  23.112  27.741  1.00  0.00    -0.014 A 
BRANCH  36  37
ATOM     37  C   UNL A   1      42.494  24.454  28.307  1.00  0.00     0.031 A 
ATOM     38  C   UNL A   1      41.312  25.329  28.050  1.00  0.00     0.074 A 
ATOM     39  C   UNL A   1      43.455  24.752  29.211  1.00  0.00     0.049 A 
ATOM     40  N   UNL A   1      41.284  26.465  27.435  1.00  0.00    -0.248 NA
ATOM     41  C   UNL A   1      39.975  24.809  28.391  1.00  0.00     0.031 C 
ATOM     42  C   UNL A   1      44.467  23.837  29.761  1.00  0.00     0.029 A 
ATOM     43  N   UNL A   1      43.612  25.865  29.983  1.00  0.00    -0.354 N 
ATOM     44  C   UNL A   1      39.967  26.915  27.545  1.00  0.00     0.074 A 
ATOM     45  C   UNL A   1      39.182  25.773  27.922  1.00  0.00     0.031 C 
ATOM     46  C   UNL A   1      44.903  24.312  30.946  1.00  0.00     0.029 A 
ATOM     47  C   UNL A   1      44.337  25.629  31.153  1.00  0.00     0.049 A 
ATOM     48  H   UNL A   1      43.250  26.747  29.739  1.00  0.00     0.167 HD
ATOM     49  C   UNL A   1      39.679  28.245  27.608  1.00  0.00     0.034 A 
ATOM     50  C   UNL A   1      44.394  26.422  32.252  1.00  0.00     0.034 A 
ATOM     51  C   UNL A   1      40.799  29.041  27.173  1.00  0.00     0.049 A 
ATOM     52  C   UNL A   1      43.962  27.773  31.835  1.00  0.00     0.074 A 
ATOM     53  C   UNL A   1      41.560  29.120  26.023  1.00  0.00     0.029 A 
ATOM     54  N   UNL A   1      41.529  29.663  28.155  1.00  0.00    -0.354 N 
ATOM     55  N   UNL A   1      44.628  28.515  30.994  1.00  0.00    -0.248 NA
ATOM     56  C   UNL A   1      42.567  28.130  32.021  1.00  0.00     0.031 C 
ATOM     57  C   UNL A   1      42.890  29.353  26.482  1.00  0.00     0.029 A 
ATOM     58  C   UNL A   1      42.854  29.480  27.872  1.00  0.00     0.049 A 
ATOM     59  H   UNL A   1      41.164  30.154  28.926  1.00  0.00     0.167 HD
ATOM     60  C   UNL A   1      43.644  29.090  30.202  1.00  0.00     0.074 A 
ATOM     61  C   UNL A   1      42.403  28.922  30.958  1.00  0.00     0.031 C 
ATOM     62  C   UNL A   1      43.880  29.365  28.885  1.00  0.00     0.034 A 
BRANCH  49  63
ATOM     63  C   UNL A   1      38.565  28.859  28.437  1.00  0.00     0.023 A 
ATOM     64  C   UNL A   1      37.670  29.727  27.768  1.00  0.00     0.012 A 
ATOM     65  C   UNL A   1      38.519  28.871  29.851  1.00  0.00     0.148 A 
ATOM     66  C   UNL A   1      36.836  30.609  28.463  1.00  0.00     0.002 A 
ATOM     67  C   UNL A   1      37.630  29.690  30.538  1.00  0.00     0.091 A 
ATOM     68  F   UNL A   1      39.424  28.197  30.561  1.00  0.00    -0.205 F 
ATOM     69  C   UNL A   1      36.812  30.589  29.852  1.00  0.00     0.022 A 
BRANCH  67  70
ATOM     70  S   UNL A   1      37.519  29.664  32.332  1.00  0.00     0.127 S 
ATOM     71  O   UNL A   1      38.731  30.385  32.709  1.00  0.00    -0.237 OA
ATOM     72  O   UNL A   1      36.268  30.386  32.565  1.00  0.00    -0.237 OA
ATOM     73  O   UNL A   1      37.469  28.254  32.699  1.00  0.00    -0.744 OA
ENDBRANCH  67  70
ENDBRANCH  49  63
BRANCH  50  74
ATOM     74  C   UNL A   1      44.507  26.050  33.684  1.00  0.00     0.023 A 
ATOM     75  C   UNL A   1      45.782  25.975  34.283  1.00  0.00     0.012 A 
ATOM     76  C   UNL A   1      43.378  26.057  34.532  1.00  0.00     0.148 A 
ATOM     77  C   UNL A   1      45.929  25.957  35.676  1.00  0.00     0.002 A 
ATOM     78  C   UNL A   1      43.528  26.027  35.916  1.00  0.00     0.091 A 
ATOM     79  F   UNL A   1      42.161  26.197  33.991  1.00  0.00    -0.205 F 
ATOM     80  C   UNL A   1      44.802  25.992  36.493  1.00  0.00     0.022 A 
BRANCH  78  81
ATOM     81  S   UNL A   1      42.114  26.094  37.025  1.00  0.00     0.127 S 
ATOM     82  O   UNL A   1      41.498  24.783  36.812  1.00  0.00    -0.237 OA
ATOM     83  O   UNL A   1      42.760  26.267  38.322  1.00  0.00    -0.237 OA
ATOM     84  O   UNL A   1      41.308  27.215  36.556  1.00  0.00    -0.744 OA
ENDBRANCH  78  81
ENDBRANCH  50  74
BRANCH  62  85
ATOM     85  C   UNL A   1      45.302  29.300  28.388  1.00  0.00     0.023 A 
ATOM     86  C   UNL A   1      46.225  30.351  28.571  1.00  0.00     0.012 A 
ATOM     87  C   UNL A   1      45.763  28.075  27.880  1.00  0.00     0.148 A 
ATOM     88  C   UNL A   1      47.571  30.190  28.232  1.00  0.00     0.002 A 
ATOM     89  C   UNL A   1      47.109  27.903  27.590  1.00  0.00     0.091 A 
ATOM     90  F   UNL A   1      44.873  27.085  27.714  1.00  0.00    -0.205 F 
ATOM     91  C   UNL A   1      48.017  28.960  27.755  1.00  0.00     0.022 A 
BRANCH  89  92
ATOM     92  S   UNL A   1      47.758  26.304  27.099  1.00  0.00     0.127 S 
ATOM     93  O   UNL A   1      47.398  26.251  25.684  1.00  0.00    -0.237 OA
ATOM     94  O   UNL A   1      49.190  26.450  27.362  1.00  0.00    -0.237 OA
ATOM     95  O   UNL A   1      47.097  25.324  27.953  1.00  0.00    -0.744 OA
ENDBRANCH  89  92
ENDBRANCH  62  85
ENDBRANCH  36  37
ENDBRANCH  28  31
ENDBRANCH  26  27
ENDBRANCH   1  26
TORSDOF 15
ENDMDL
MODEL 2
REMARK VINA RESULT:     -13.2      1.265      1.787
REMARK SMILES Cn1ccc(-c2n[nH]c(=O)n2-c2ccc(C(=O)NCCCNC(=O)c3ccc(-c4c5nc(c(-c6cccc(S(=O)(=O)[O-])c6F)c6ccc([nH]6)c(-c6cccc(S(=O)(=O)[O-])c6F)c6nc(c(-c7cccc(S(=O)(=O)[O-])c7F)c7ccc4[nH]7)C=C6)C=C5)cc3)cc2)n1
REMARK SMILES IDX 20 1 19 2 18 3 16 4 17 5 15 7 12 8 13 9 89 10 14 11 88 12
REMARK SMILES IDX 11 13 6 14 7 15 8 16 9 17 10 19 5 20 1 21 2 22 3 23 90 24
REMARK SMILES IDX 4 25 21 26 22 27 23 28 24 30 25 31 26 32 87 33 27 34 86 35
REMARK SMILES IDX 28 36 29 37 30 38 80 39 31 40 85 41 79 42 81 43 32 44 84 45
REMARK SMILES IDX 78 46 77 47 33 49 65 50 45 51 64 52 46 53 49 54 63 55 82 56
REMARK SMILES IDX 47 57 48 58 62 60 83 61 50 62 34 63 35 64 43 65 36 66 38 67
REMARK SMILES IDX 44 68 37 69 39 70 40 71 41 72 42 73 66 74 67 75 75 76 68 77
REMARK SMILES IDX 70 78 76 79 69 80 71 81 72 82 73 83 74 84 51 85 52 86 60 87
REMARK SMILES IDX 53 88 55 89 61 90 54 91 56 92 57 93 58 94 59 95
REMARK H PARENT 18 6 8 18 22 29 81 48 49 59
REMARK Flexibility Score: inf
ROOT
ATOM      1  C   UNL A   1      37.553  19.833  25.005  1.00  0.00     0.042 C 
ENDROOT
BRANCH   1   2
ATOM      2  C   UNL A   1      36.471  20.915  24.896  1.00  0.00     0.118 C 
BRANCH   2   3
ATOM      3  N   UNL A   1      35.826  21.177  26.170  1.00  0.00    -0.352 N 
ATOM      4  C   UNL A   1      34.824  22.041  26.543  1.00  0.00     0.251 C 
ATOM      5  O   UNL A   1      34.369  21.930  27.680  1.00  0.00    -0.269 OA
ATOM      6  H   UNL A   1      36.173  20.629  26.910  1.00  0.00     0.163 HD
BRANCH   4   7
ATOM      7  C   UNL A   1      34.222  23.054  25.632  1.00  0.00     0.039 A 
ATOM      8  C   UNL A   1      33.133  25.135  24.079  1.00  0.00     0.052 A 
ATOM      9  C   UNL A   1      34.435  25.245  24.568  1.00  0.00     0.028 A 
ATOM     10  C   UNL A   1      32.422  23.951  24.285  1.00  0.00     0.028 A 
ATOM     11  C   UNL A   1      34.961  24.222  25.368  1.00  0.00     0.016 A 
ATOM     12  C   UNL A   1      32.985  22.906  25.010  1.00  0.00     0.016 A 
BRANCH   8  13
ATOM     13  N   UNL A   1      32.540  26.157  23.331  1.00  0.00    -0.242 N 
ATOM     14  C   UNL A   1      31.823  27.224  23.788  1.00  0.00     0.189 A 
ATOM     15  N   UNL A   1      31.071  27.808  22.894  1.00  0.00    -0.150 NA
ATOM     16  N   UNL A   1      31.333  27.100  21.750  1.00  0.00    -0.226 N 
ATOM     17  C   UNL A   1      32.248  26.076  21.994  1.00  0.00     0.348 A 
ATOM     18  H   UNL A   1      30.930  27.290  20.871  1.00  0.00     0.195 HD
ATOM     19  O   UNL A   1      32.606  25.252  21.159  1.00  0.00    -0.246 OA
BRANCH  14  20
ATOM     20  C   UNL A   1      31.931  27.732  25.147  1.00  0.00     0.130 A 
ATOM     21  C   UNL A   1      32.995  30.211  27.381  1.00  0.00     0.173 C 
ATOM     22  N   UNL A   1      32.452  29.032  26.749  1.00  0.00    -0.275 N 
ATOM     23  C   UNL A   1      31.696  28.061  27.334  1.00  0.00     0.109 A 
ATOM     24  N   UNL A   1      32.638  28.841  25.432  1.00  0.00    -0.170 NA
ATOM     25  C   UNL A   1      31.316  27.216  26.317  1.00  0.00     0.054 A 
ENDBRANCH  14  20
ENDBRANCH   8  13
ENDBRANCH   4   7
ENDBRANCH   2   3
ENDBRANCH   1   2
BRANCH   1  26
ATOM     26  C   UNL A   1      38.833  20.366  25.625  1.00  0.00     0.118 C 
BRANCH  26  27
ATOM     27  N   UNL A   1      39.847  19.313  25.756  1.00  0.00    -0.352 N 
ATOM     28  C   UNL A   1      41.192  19.440  26.027  1.00  0.00     0.251 C 
ATOM     29  H   UNL A   1      39.521  18.392  25.635  1.00  0.00     0.163 HD
ATOM     30  O   UNL A   1      41.965  18.522  25.783  1.00  0.00    -0.269 OA
BRANCH  28  31
ATOM     31  C   UNL A   1      41.683  20.699  26.609  1.00  0.00     0.039 A 
ATOM     32  C   UNL A   1      42.261  21.685  25.802  1.00  0.00     0.014 A 
ATOM     33  C   UNL A   1      41.516  20.899  27.976  1.00  0.00     0.014 A 
ATOM     34  C   UNL A   1      42.591  22.911  26.371  1.00  0.00     0.010 A 
ATOM     35  C   UNL A   1      41.691  22.153  28.498  1.00  0.00     0.010 A 
ATOM     36  C   UNL A   1      42.280  23.145  27.718  1.00  0.00    -0.014 A 
BRANCH  36  37
ATOM     37  C   UNL A   1      42.422  24.477  28.300  1.00  0.00     0.031 A 
ATOM     38  C   UNL A   1      41.255  25.377  28.059  1.00  0.00     0.074 A 
ATOM     39  C   UNL A   1      43.392  24.746  29.204  1.00  0.00     0.049 A 
ATOM     40  N   UNL A   1      41.245  26.522  27.459  1.00  0.00    -0.248 NA
ATOM     41  C   UNL A   1      39.910  24.878  28.399  1.00  0.00     0.031 C 
ATOM     42  C   UNL A   1      44.389  23.805  29.737  1.00  0.00     0.029 A 
ATOM     43  N   UNL A   1      43.572  25.846  29.989  1.00  0.00    -0.354 N 
ATOM     44  C   UNL A   1      39.937  26.994  27.581  1.00  0.00     0.074 A 
ATOM     45  C   UNL A   1      39.133  25.862  27.947  1.00  0.00     0.031 C 
ATOM     46  C   UNL A   1      44.838  24.257  30.926  1.00  0.00     0.029 A 
ATOM     47  C   UNL A   1      44.297  25.582  31.153  1.00  0.00     0.049 A 
ATOM     48  H   UNL A   1      43.226  26.737  29.758  1.00  0.00     0.167 HD
ATOM     49  C   UNL A   1      39.674  28.329  27.662  1.00  0.00     0.034 A 
ATOM     50  C   UNL A   1      44.373  26.359  32.262  1.00  0.00     0.034 A 
ATOM     51  C   UNL A   1      40.807  29.110  27.232  1.00  0.00     0.049 A 
ATOM     52  C   UNL A   1      43.966  27.724  31.863  1.00  0.00     0.074 A 
ATOM     53  C   UNL A   1      41.565  29.189  26.081  1.00  0.00     0.029 A 
ATOM     54  N   UNL A   1      41.553  29.705  28.219  1.00  0.00    -0.354 N 
ATOM     55  N   UNL A   1      44.641  28.463  31.030  1.00  0.00    -0.248 NA
ATOM     56  C   UNL A   1      42.578  28.103  32.060  1.00  0.00     0.031 C 
ATOM     57  C   UNL A   1      42.900  29.392  26.536  1.00  0.00     0.029 A 
ATOM     58  C   UNL A   1      42.872  29.501  27.928  1.00  0.00     0.049 A 
ATOM     59  H   UNL A   1      41.199  30.193  28.998  1.00  0.00     0.167 HD
ATOM     60  C   UNL A   1      43.664  29.067  30.249  1.00  0.00     0.074 A 
ATOM     61  C   UNL A   1      42.425  28.912  31.008  1.00  0.00     0.031 C 
ATOM     62  C   UNL A   1      43.900  29.355  28.935  1.00  0.00     0.034 A 
BRANCH  49  63
ATOM     63  C   UNL A   1      38.575  28.952  28.504  1.00  0.00     0.023 A 
ATOM     64  C   UNL A   1      37.680  29.829  27.845  1.00  0.00     0.012 A 
ATOM     65  C   UNL A   1      38.545  28.964  29.918  1.00  0.00     0.148 A 
ATOM     66  C   UNL A   1      36.862  30.718  28.550  1.00  0.00     0.002 A 
ATOM     67  C   UNL A   1      37.671  29.791  30.616  1.00  0.00     0.091 A 
ATOM     68  F   UNL A   1      39.452  28.281  30.618  1.00  0.00    -0.205 F 
ATOM     69  C   UNL A   1      36.854  30.697  29.939  1.00  0.00     0.022 A 
BRANCH  67  70
ATOM     70  S   UNL A   1      37.580  29.764  32.411  1.00  0.00     0.127 S 
ATOM     71  O   UNL A   1      38.871  30.340  32.776  1.00  0.00    -0.237 OA
ATOM     72  O   UNL A   1      36.423  30.623  32.664  1.00  0.00    -0.237 OA
ATOM     73  O   UNL A   1      37.374  28.367  32.770  1.00  0.00    -0.744 OA
ENDBRANCH  67  70
ENDBRANCH  49  63
BRANCH  50  74
ATOM     74  C   UNL A   1      44.486  25.966  33.689  1.00  0.00     0.023 A 
ATOM     75  C   UNL A   1      45.762  25.844  34.276  1.00  0.00     0.012 A 
ATOM     76  C   UNL A   1      43.364  26.000  34.545  1.00  0.00     0.148 A 
ATOM     77  C   UNL A   1      45.919  25.804  35.667  1.00  0.00     0.002 A 
ATOM     78  C   UNL A   1      43.524  25.948  35.927  1.00  0.00     0.091 A 
ATOM     79  F   UNL A   1      42.148  26.185  34.016  1.00  0.00    -0.205 F 
ATOM     80  C   UNL A   1      44.801  25.866  36.494  1.00  0.00     0.022 A 
BRANCH  78  81
ATOM     81  S   UNL A   1      42.121  26.047  37.048  1.00  0.00     0.127 S 
ATOM     82  O   UNL A   1      41.496  24.736  36.871  1.00  0.00    -0.237 OA
ATOM     83  O   UNL A   1      42.782  26.245  38.335  1.00  0.00    -0.237 OA
ATOM     84  O   UNL A   1      41.317  27.163  36.563  1.00  0.00    -0.744 OA
ENDBRANCH  78  81
ENDBRANCH  50  74
BRANCH  62  85
ATOM     85  C   UNL A   1      45.319  29.270  28.431  1.00  0.00     0.023 A 
ATOM     86  C   UNL A   1      46.262  30.301  28.624  1.00  0.00     0.012 A 
ATOM     87  C   UNL A   1      45.755  28.043  27.904  1.00  0.00     0.148 A 
ATOM     88  C   UNL A   1      47.604  30.120  28.277  1.00  0.00     0.002 A 
ATOM     89  C   UNL A   1      47.097  27.850  27.607  1.00  0.00     0.091 A 
ATOM     90  F   UNL A   1      44.846  27.072  27.729  1.00  0.00    -0.205 F 
ATOM     91  C   UNL A   1      48.024  28.888  27.782  1.00  0.00     0.022 A 
BRANCH  89  92
ATOM     92  S   UNL A   1      47.713  26.246  27.091  1.00  0.00     0.127 S 
ATOM     93  O   UNL A   1      47.020  26.047  25.821  1.00  0.00    -0.237 OA
ATOM     94  O   UNL A   1      49.152  26.484  26.973  1.00  0.00    -0.237 OA
ATOM     95  O   UNL A   1      47.353  25.317  28.157  1.00  0.00    -0.744 OA
ENDBRANCH  89  92
ENDBRANCH  62  85
ENDBRANCH  36  37
ENDBRANCH  28  31
ENDBRANCH  26  27
ENDBRANCH   1  26
TORSDOF 15
ENDMDL
MODEL 3
REMARK VINA RESULT:     -13.0      1.840      2.078
REMARK SMILES Cn1ccc(-c2n[nH]c(=O)n2-c2ccc(C(=O)NCCCNC(=O)c3ccc(-c4c5nc(c(-c6cccc(S(=O)(=O)[O-])c6F)c6ccc([nH]6)c(-c6cccc(S(=O)(=O)[O-])c6F)c6nc(c(-c7cccc(S(=O)(=O)[O-])c7F)c7ccc4[nH]7)C=C6)C=C5)cc3)cc2)n1
REMARK SMILES IDX 20 1 19 2 18 3 16 4 17 5 15 7 12 8 13 9 89 10 14 11 88 12
REMARK SMILES IDX 11 13 6 14 7 15 8 16 9 17 10 19 5 20 1 21 2 22 3 23 90 24
REMARK SMILES IDX 4 25 21 26 22 27 23 28 24 30 25 31 26 32 87 33 27 34 86 35
REMARK SMILES IDX 28 36 29 37 30 38 80 39 31 40 85 41 79 42 81 43 32 44 84 45
REMARK SMILES IDX 78 46 77 47 33 49 65 50 45 51 64 52 46 53 49 54 63 55 82 56
REMARK SMILES IDX 47 57 48 58 62 60 83 61 50 62 34 63 35 64 43 65 36 66 38 67
REMARK SMILES IDX 44 68 37 69 39 70 40 71 41 72 42 73 66 74 67 75 75 76 68 77
REMARK SMILES IDX 70 78 76 79 69 80 71 81 72 82 73 83 74 84 51 85 52 86 60 87
REMARK SMILES IDX 53 88 55 89 61 90 54 91 56 92 57 93 58 94 59 95
REMARK H PARENT 18 6 8 18 22 29 81 48 49 59
REMARK Flexibility Score: inf
ROOT
ATOM      1  C   UNL A   1      37.918  19.799  24.663  1.00  0.00     0.042 C 
ENDROOT
BRANCH   1   2
ATOM      2  C   UNL A   1      36.540  20.304  25.111  1.00  0.00     0.118 C 
BRANCH   2   3
ATOM      3  N   UNL A   1      35.503  19.303  24.931  1.00  0.00    -0.352 N 
ATOM      4  C   UNL A   1      34.143  19.395  24.765  1.00  0.00     0.251 C 
ATOM      5  O   UNL A   1      33.532  18.368  24.475  1.00  0.00    -0.269 OA
ATOM      6  H   UNL A   1      35.842  18.378  24.927  1.00  0.00     0.163 HD
BRANCH   4   7
ATOM      7  C   UNL A   1      33.382  20.672  24.854  1.00  0.00     0.039 A 
ATOM      8  C   UNL A   1      31.907  23.037  25.256  1.00  0.00     0.052 A 
ATOM      9  C   UNL A   1      33.001  22.757  26.074  1.00  0.00     0.028 A 
ATOM     10  C   UNL A   1      31.617  22.189  24.186  1.00  0.00     0.028 A 
ATOM     11  C   UNL A   1      33.712  21.563  25.892  1.00  0.00     0.016 A 
ATOM     12  C   UNL A   1      32.381  21.048  23.962  1.00  0.00     0.016 A 
BRANCH   8  13
ATOM     13  N   UNL A   1      31.126  24.183  25.440  1.00  0.00    -0.242 N 
ATOM     14  C   UNL A   1      31.320  25.425  24.911  1.00  0.00     0.189 A 
ATOM     15  N   UNL A   1      30.690  26.391  25.523  1.00  0.00    -0.150 NA
ATOM     16  N   UNL A   1      29.996  25.740  26.510  1.00  0.00    -0.226 N 
ATOM     17  C   UNL A   1      30.244  24.367  26.473  1.00  0.00     0.348 A 
ATOM     18  H   UNL A   1      29.400  26.181  27.158  1.00  0.00     0.195 HD
ATOM     19  O   UNL A   1      29.801  23.561  27.285  1.00  0.00    -0.246 OA
BRANCH  14  20
ATOM     20  C   UNL A   1      32.110  25.665  23.713  1.00  0.00     0.130 A 
ATOM     21  C   UNL A   1      32.444  25.542  20.228  1.00  0.00     0.173 C 
ATOM     22  N   UNL A   1      32.630  25.713  21.650  1.00  0.00    -0.275 N 
ATOM     23  C   UNL A   1      33.663  26.345  22.273  1.00  0.00     0.109 A 
ATOM     24  N   UNL A   1      31.691  25.262  22.499  1.00  0.00    -0.170 NA
ATOM     25  C   UNL A   1      33.344  26.358  23.611  1.00  0.00     0.054 A 
ENDBRANCH  14  20
ENDBRANCH   8  13
ENDBRANCH   4   7
ENDBRANCH   2   3
ENDBRANCH   1   2
BRANCH   1  26
ATOM     26  C   UNL A   1      39.023  20.244  25.606  1.00  0.00     0.118 C 
BRANCH  26  27
ATOM     27  N   UNL A   1      40.040  19.201  25.773  1.00  0.00    -0.352 N 
ATOM     28  C   UNL A   1      41.376  19.341  26.084  1.00  0.00     0.251 C 
ATOM     29  H   UNL A   1      39.727  18.277  25.645  1.00  0.00     0.163 HD
ATOM     30  O   UNL A   1      42.164  18.428  25.868  1.00  0.00    -0.269 OA
BRANCH  28  31
ATOM     31  C   UNL A   1      41.838  20.607  26.675  1.00  0.00     0.039 A 
ATOM     32  C   UNL A   1      42.529  21.548  25.905  1.00  0.00     0.014 A 
ATOM     33  C   UNL A   1      41.529  20.859  28.008  1.00  0.00     0.014 A 
ATOM     34  C   UNL A   1      42.832  22.785  26.467  1.00  0.00     0.010 A 
ATOM     35  C   UNL A   1      41.683  22.126  28.506  1.00  0.00     0.010 A 
ATOM     36  C   UNL A   1      42.383  23.074  27.763  1.00  0.00    -0.014 A 
BRANCH  36  37
ATOM     37  C   UNL A   1      42.500  24.422  28.314  1.00  0.00     0.031 A 
ATOM     38  C   UNL A   1      41.314  25.292  28.058  1.00  0.00     0.074 A 
ATOM     39  C   UNL A   1      43.468  24.731  29.206  1.00  0.00     0.049 A 
ATOM     40  N   UNL A   1      41.278  26.422  27.432  1.00  0.00    -0.248 NA
ATOM     41  C   UNL A   1      39.981  24.773  28.417  1.00  0.00     0.031 C 
ATOM     42  C   UNL A   1      44.487  23.824  29.757  1.00  0.00     0.029 A 
ATOM     43  N   UNL A   1      43.630  25.852  29.965  1.00  0.00    -0.354 N 
ATOM     44  C   UNL A   1      39.961  26.870  27.549  1.00  0.00     0.074 A 
ATOM     45  C   UNL A   1      39.182  25.731  27.945  1.00  0.00     0.031 C 
ATOM     46  C   UNL A   1      44.932  24.312  30.932  1.00  0.00     0.029 A 
ATOM     47  C   UNL A   1      44.365  25.630  31.131  1.00  0.00     0.049 A 
ATOM     48  H   UNL A   1      43.264  26.731  29.715  1.00  0.00     0.167 HD
ATOM     49  C   UNL A   1      39.671  28.200  27.601  1.00  0.00     0.034 A 
ATOM     50  C   UNL A   1      44.431  26.434  32.222  1.00  0.00     0.034 A 
ATOM     51  C   UNL A   1      40.786  28.994  27.148  1.00  0.00     0.049 A 
ATOM     52  C   UNL A   1      43.993  27.780  31.794  1.00  0.00     0.074 A 
ATOM     53  C   UNL A   1      41.536  29.063  25.991  1.00  0.00     0.029 A 
ATOM     54  N   UNL A   1      41.524  29.627  28.117  1.00  0.00    -0.354 N 
ATOM     55  N   UNL A   1      44.649  28.514  30.940  1.00  0.00    -0.248 NA
ATOM     56  C   UNL A   1      42.599  28.136  31.989  1.00  0.00     0.031 C 
ATOM     57  C   UNL A   1      42.870  29.303  26.435  1.00  0.00     0.029 A 
ATOM     58  C   UNL A   1      42.846  29.444  27.824  1.00  0.00     0.049 A 
ATOM     59  H   UNL A   1      41.164  30.126  28.886  1.00  0.00     0.167 HD
ATOM     60  C   UNL A   1      43.657  29.080  30.151  1.00  0.00     0.074 A 
ATOM     61  C   UNL A   1      42.424  28.917  30.919  1.00  0.00     0.031 C 
ATOM     62  C   UNL A   1      43.881  29.342  28.829  1.00  0.00     0.034 A 
BRANCH  49  63
ATOM     63  C   UNL A   1      38.563  28.821  28.434  1.00  0.00     0.023 A 
ATOM     64  C   UNL A   1      37.677  29.702  27.770  1.00  0.00     0.012 A 
ATOM     65  C   UNL A   1      38.517  28.825  29.847  1.00  0.00     0.148 A 
ATOM     66  C   UNL A   1      36.852  30.589  28.471  1.00  0.00     0.002 A 
ATOM     67  C   UNL A   1      37.636  29.649  30.540  1.00  0.00     0.091 A 
ATOM     68  F   UNL A   1      39.415  28.137  30.554  1.00  0.00    -0.205 F 
ATOM     69  C   UNL A   1      36.828  30.560  29.859  1.00  0.00     0.022 A 
BRANCH  67  70
ATOM     70  S   UNL A   1      37.525  29.613  32.334  1.00  0.00     0.127 S 
ATOM     71  O   UNL A   1      38.754  30.302  32.716  1.00  0.00    -0.237 OA
ATOM     72  O   UNL A   1      36.292  30.363  32.571  1.00  0.00    -0.237 OA
ATOM     73  O   UNL A   1      37.441  28.202  32.690  1.00  0.00    -0.744 OA
ENDBRANCH  67  70
ENDBRANCH  49  63
BRANCH  50  74
ATOM     74  C   UNL A   1      44.557  26.077  33.656  1.00  0.00     0.023 A 
ATOM     75  C   UNL A   1      45.837  26.024  34.248  1.00  0.00     0.012 A 
ATOM     76  C   UNL A   1      43.434  26.078  34.511  1.00  0.00     0.148 A 
ATOM     77  C   UNL A   1      45.993  26.021  35.640  1.00  0.00     0.002 A 
ATOM     78  C   UNL A   1      43.593  26.063  35.894  1.00  0.00     0.091 A 
ATOM     79  F   UNL A   1      42.211  26.198  33.976  1.00  0.00    -0.205 F 
ATOM     80  C   UNL A   1      44.871  26.049  36.463  1.00  0.00     0.022 A 
BRANCH  78  81
ATOM     81  S   UNL A   1      42.185  26.123  37.011  1.00  0.00     0.127 S 
ATOM     82  O   UNL A   1      41.572  24.810  36.800  1.00  0.00    -0.237 OA
ATOM     83  O   UNL A   1      42.838  26.296  38.305  1.00  0.00    -0.237 OA
ATOM     84  O   UNL A   1      41.372  27.242  36.549  1.00  0.00    -0.744 OA
ENDBRANCH  78  81
ENDBRANCH  50  74
BRANCH  62  85
ATOM     85  C   UNL A   1      45.299  29.274  28.320  1.00  0.00     0.023 A 
ATOM     86  C   UNL A   1      45.895  28.076  27.874  1.00  0.00     0.012 A 
ATOM     87  C   UNL A   1      45.983  30.484  28.123  1.00  0.00     0.148 A 
ATOM     88  C   UNL A   1      47.155  28.084  27.268  1.00  0.00     0.002 A 
ATOM     89  C   UNL A   1      47.211  30.495  27.477  1.00  0.00     0.091 A 
ATOM     90  F   UNL A   1      45.400  31.616  28.550  1.00  0.00    -0.205 F 
ATOM     91  C   UNL A   1      47.806  29.296  27.056  1.00  0.00     0.022 A 
BRANCH  89  92
ATOM     92  S   UNL A   1      48.031  32.035  27.062  1.00  0.00     0.127 S 
ATOM     93  O   UNL A   1      49.296  31.565  26.501  1.00  0.00    -0.237 OA
ATOM     94  O   UNL A   1      47.113  32.629  26.090  1.00  0.00    -0.237 OA
ATOM     95  O   UNL A   1      48.136  32.781  28.311  1.00  0.00    -0.744 OA
ENDBRANCH  89  92
ENDBRANCH  62  85
ENDBRANCH  36  37
ENDBRANCH  28  31
ENDBRANCH  26  27
ENDBRANCH   1  26
TORSDOF 15
ENDMDL
