MODEL 1
REMARK VINA RESULT:     -13.0      0.000      0.000
REMARK SMILES O=C(NCCCNC(=O)[C@H]1CSCN1C(=O)c1cnc2ccccn2c1=O)c1ccc(-c2c3nc(c(-c4cccc(S(=O)(=O)[O-])c4F)c4ccc([nH]4)c(-c4cccc(S(=O)(=O)[O-])c4F)c4nc(c(-c5cccc(S(=O)(=O)[O-])c5F)c5ccc2[nH]5)C=C4)C=C3)cc1
REMARK SMILES IDX 4 1 3 2 1 3 2 4 28 6 29 7 90 8 30 9 89 10 31 11 32 12 33 13
REMARK SMILES IDX 83 14 34 15 88 16 82 17 84 18 35 19 87 20 81 21 80 22 36 24
REMARK SMILES IDX 68 25 48 26 67 27 49 28 52 29 66 30 85 31 50 32 51 33 65 35
REMARK SMILES IDX 86 36 53 37 37 38 38 39 46 40 39 41 41 42 47 43 40 44 42 45
REMARK SMILES IDX 43 46 44 47 45 48 69 49 70 50 78 51 71 52 73 53 79 54 72 55
REMARK SMILES IDX 74 56 75 57 76 58 77 59 54 60 55 61 63 62 56 63 58 64 64 65
REMARK SMILES IDX 57 66 59 67 60 68 61 69 62 70 5 71 6 72 7 73 8 74 9 76 10 77
REMARK SMILES IDX 11 78 14 79 12 80 13 81 15 82 16 83 17 84 18 85 26 86 19 87
REMARK SMILES IDX 25 88 27 89 20 90 24 91 21 92 23 93 22 94
REMARK H PARENT 3 5 84 23 52 34 7 75
REMARK Flexibility Score: inf
ROOT
ATOM      1  C   UNL A   1      33.481  28.986  24.918  1.00  0.00     0.118 C 
ENDROOT
BRANCH   1   2
ATOM      2  N   UNL A   1      32.797  30.122  25.532  1.00  0.00    -0.352 N 
ATOM      3  O   UNL A   1      32.198  31.627  27.083  1.00  0.00    -0.269 OA
ATOM      4  C   UNL A   1      33.059  30.849  26.671  1.00  0.00     0.251 C 
ATOM      5  H   UNL A   1      32.000  30.423  25.039  1.00  0.00     0.163 HD
BRANCH   4   6
ATOM      6  C   UNL A   1      34.325  30.686  27.428  1.00  0.00     0.039 A 
ATOM      7  C   UNL A   1      34.717  29.442  27.905  1.00  0.00     0.014 A 
ATOM      8  C   UNL A   1      35.175  31.782  27.627  1.00  0.00     0.014 A 
ATOM      9  C   UNL A   1      35.800  29.328  28.761  1.00  0.00     0.010 A 
ATOM     10  C   UNL A   1      36.374  31.627  28.343  1.00  0.00     0.010 A 
ATOM     11  C   UNL A   1      36.682  30.402  28.949  1.00  0.00    -0.014 A 
BRANCH  11  12
ATOM     12  C   UNL A   1      37.947  30.132  29.689  1.00  0.00     0.031 A 
ATOM     13  C   UNL A   1      38.170  30.613  31.096  1.00  0.00     0.074 A 
ATOM     14  C   UNL A   1      38.876  29.357  29.088  1.00  0.00     0.049 A 
ATOM     15  N   UNL A   1      39.170  30.351  31.898  1.00  0.00    -0.248 NA
ATOM     16  C   UNL A   1      37.160  31.511  31.677  1.00  0.00     0.031 C 
ATOM     17  C   UNL A   1      38.804  28.886  27.700  1.00  0.00     0.029 A 
ATOM     18  N   UNL A   1      40.032  28.790  29.562  1.00  0.00    -0.354 N 
ATOM     19  C   UNL A   1      38.936  31.077  33.058  1.00  0.00     0.074 A 
ATOM     20  C   UNL A   1      37.701  31.804  32.854  1.00  0.00     0.031 C 
ATOM     21  C   UNL A   1      39.810  28.036  27.464  1.00  0.00     0.029 A 
ATOM     22  C   UNL A   1      40.654  27.968  28.650  1.00  0.00     0.049 A 
ATOM     23  H   UNL A   1      40.382  28.955  30.467  1.00  0.00     0.167 HD
ATOM     24  C   UNL A   1      39.674  31.121  34.194  1.00  0.00     0.034 A 
ATOM     25  C   UNL A   1      41.786  27.246  28.742  1.00  0.00     0.034 A 
ATOM     26  C   UNL A   1      40.885  30.367  34.403  1.00  0.00     0.049 A 
ATOM     27  C   UNL A   1      42.545  27.266  30.034  1.00  0.00     0.074 A 
ATOM     28  C   UNL A   1      41.689  30.326  35.528  1.00  0.00     0.029 A 
ATOM     29  N   UNL A   1      41.463  29.519  33.470  1.00  0.00    -0.354 N 
ATOM     30  N   UNL A   1      42.250  27.888  31.149  1.00  0.00    -0.248 NA
ATOM     31  C   UNL A   1      43.781  26.476  30.089  1.00  0.00     0.031 C 
ATOM     32  C   UNL A   1      42.759  29.461  35.273  1.00  0.00     0.029 A 
ATOM     33  C   UNL A   1      42.611  28.947  33.995  1.00  0.00     0.049 A 
ATOM     34  H   UNL A   1      41.110  29.349  32.567  1.00  0.00     0.167 HD
ATOM     35  C   UNL A   1      43.262  27.563  32.042  1.00  0.00     0.074 A 
ATOM     36  C   UNL A   1      44.148  26.647  31.352  1.00  0.00     0.031 C 
ATOM     37  C   UNL A   1      43.460  28.010  33.306  1.00  0.00     0.034 A 
BRANCH  24  38
ATOM     38  C   UNL A   1      39.172  31.979  35.327  1.00  0.00     0.023 A 
ATOM     39  C   UNL A   1      39.303  33.381  35.244  1.00  0.00     0.012 A 
ATOM     40  C   UNL A   1      38.507  31.414  36.433  1.00  0.00     0.148 A 
ATOM     41  C   UNL A   1      38.800  34.204  36.251  1.00  0.00     0.002 A 
ATOM     42  C   UNL A   1      37.974  32.243  37.414  1.00  0.00     0.091 A 
ATOM     43  F   UNL A   1      38.409  30.078  36.505  1.00  0.00    -0.205 F 
ATOM     44  C   UNL A   1      38.127  33.636  37.329  1.00  0.00     0.022 A 
BRANCH  42  45
ATOM     45  S   UNL A   1      37.030  31.618  38.810  1.00  0.00     0.127 S 
ATOM     46  O   UNL A   1      37.975  31.806  39.911  1.00  0.00    -0.237 OA
ATOM     47  O   UNL A   1      35.880  32.522  38.833  1.00  0.00    -0.237 OA
ATOM     48  O   UNL A   1      36.710  30.234  38.492  1.00  0.00    -0.744 OA
ENDBRANCH  42  45
ENDBRANCH  24  38
BRANCH  25  49
ATOM     49  C   UNL A   1      42.248  26.438  27.577  1.00  0.00     0.023 A 
ATOM     50  C   UNL A   1      43.153  26.988  26.651  1.00  0.00     0.012 A 
ATOM     51  C   UNL A   1      41.832  25.101  27.415  1.00  0.00     0.148 A 
ATOM     52  C   UNL A   1      43.616  26.231  25.573  1.00  0.00     0.002 A 
ATOM     53  C   UNL A   1      42.352  24.332  26.383  1.00  0.00     0.091 A 
ATOM     54  F   UNL A   1      40.949  24.598  28.289  1.00  0.00    -0.205 F 
ATOM     55  C   UNL A   1      43.230  24.898  25.448  1.00  0.00     0.022 A 
BRANCH  53  56
ATOM     56  S   UNL A   1      42.030  22.567  26.273  1.00  0.00     0.127 S 
ATOM     57  O   UNL A   1      40.574  22.532  26.188  1.00  0.00    -0.237 OA
ATOM     58  O   UNL A   1      42.729  22.201  25.039  1.00  0.00    -0.237 OA
ATOM     59  O   UNL A   1      42.619  21.997  27.477  1.00  0.00    -0.744 OA
ENDBRANCH  53  56
ENDBRANCH  25  49
BRANCH  37  60
ATOM     60  C   UNL A   1      44.684  27.504  34.020  1.00  0.00     0.023 A 
ATOM     61  C   UNL A   1      45.889  28.229  33.931  1.00  0.00     0.012 A 
ATOM     62  C   UNL A   1      44.635  26.333  34.799  1.00  0.00     0.148 A 
ATOM     63  C   UNL A   1      47.040  27.772  34.572  1.00  0.00     0.002 A 
ATOM     64  C   UNL A   1      45.774  25.910  35.473  1.00  0.00     0.091 A 
ATOM     65  F   UNL A   1      43.486  25.645  34.852  1.00  0.00    -0.205 F 
ATOM     66  C   UNL A   1      46.981  26.619  35.350  1.00  0.00     0.022 A 
BRANCH  64  67
ATOM     67  S   UNL A   1      45.763  24.484  36.566  1.00  0.00     0.127 S 
ATOM     68  O   UNL A   1      47.140  24.473  37.056  1.00  0.00    -0.237 OA
ATOM     69  O   UNL A   1      44.762  24.864  37.565  1.00  0.00    -0.237 OA
ATOM     70  O   UNL A   1      45.381  23.352  35.735  1.00  0.00    -0.744 OA
ENDBRANCH  64  67
ENDBRANCH  37  60
ENDBRANCH  11  12
ENDBRANCH   4   6
ENDBRANCH   1   2
BRANCH   1  71
ATOM     71  C   UNL A   1      32.595  27.758  24.820  1.00  0.00     0.042 C 
BRANCH  71  72
ATOM     72  C   UNL A   1      32.707  26.884  26.056  1.00  0.00     0.117 C 
BRANCH  72  73
ATOM     73  N   UNL A   1      31.447  26.297  26.454  1.00  0.00    -0.354 N 
ATOM     74  C   UNL A   1      30.815  25.153  26.104  1.00  0.00     0.243 C 
ATOM     75  H   UNL A   1      30.950  26.838  27.110  1.00  0.00     0.163 HD
ATOM     76  O   UNL A   1      29.780  24.924  26.752  1.00  0.00    -0.273 OA
BRANCH  74  77
ATOM     77  C   UNL A   1      31.317  24.088  25.081  1.00  0.00     0.185 C 
ATOM     78  C   UNL A   1      30.676  24.452  23.724  1.00  0.00     0.106 C 
ATOM     79  N   UNL A   1      32.746  23.765  24.866  1.00  0.00    -0.316 N 
ATOM     80  S   UNL A   1      32.034  24.977  22.662  1.00  0.00    -0.138 SA
ATOM     81  C   UNL A   1      33.192  23.899  23.493  1.00  0.00     0.190 C 
BRANCH  79  82
ATOM     82  C   UNL A   1      33.431  22.995  25.791  1.00  0.00     0.262 C 
ATOM     83  O   UNL A   1      33.864  23.496  26.832  1.00  0.00    -0.269 OA
BRANCH  82  84
ATOM     84  C   UNL A   1      33.770  21.572  25.458  1.00  0.00     0.124 A 
ATOM     85  C   UNL A   1      35.036  21.295  25.117  1.00  0.00     0.133 A 
ATOM     86  C   UNL A   1      32.787  20.474  25.247  1.00  0.00     0.270 A 
ATOM     87  N   UNL A   1      35.513  20.076  24.718  1.00  0.00    -0.237 NA
ATOM     88  N   UNL A   1      33.313  19.224  24.949  1.00  0.00    -0.267 N 
ATOM     89  O   UNL A   1      31.577  20.695  25.303  1.00  0.00    -0.268 OA
ATOM     90  C   UNL A   1      34.664  19.095  24.658  1.00  0.00     0.139 A 
ATOM     91  C   UNL A   1      32.459  18.125  24.894  1.00  0.00     0.096 A 
ATOM     92  C   UNL A   1      35.141  17.742  24.257  1.00  0.00     0.048 A 
ATOM     93  C   UNL A   1      32.901  16.905  24.571  1.00  0.00     0.019 A 
ATOM     94  C   UNL A   1      34.286  16.711  24.235  1.00  0.00     0.005 A 
ENDBRANCH  82  84
ENDBRANCH  79  82
ENDBRANCH  74  77
ENDBRANCH  72  73
ENDBRANCH  71  72
ENDBRANCH   1  71
TORSDOF 15
ENDMDL
MODEL 2
REMARK VINA RESULT:     -13.0      1.281      1.544
REMARK SMILES O=C(NCCCNC(=O)[C@H]1CSCN1C(=O)c1cnc2ccccn2c1=O)c1ccc(-c2c3nc(c(-c4cccc(S(=O)(=O)[O-])c4F)c4ccc([nH]4)c(-c4cccc(S(=O)(=O)[O-])c4F)c4nc(c(-c5cccc(S(=O)(=O)[O-])c5F)c5ccc2[nH]5)C=C4)C=C3)cc1
REMARK SMILES IDX 4 1 3 2 1 3 2 4 28 6 29 7 90 8 30 9 89 10 31 11 32 12 33 13
REMARK SMILES IDX 83 14 34 15 88 16 82 17 84 18 35 19 87 20 81 21 80 22 36 24
REMARK SMILES IDX 68 25 48 26 67 27 49 28 52 29 66 30 85 31 50 32 51 33 65 35
REMARK SMILES IDX 86 36 53 37 37 38 38 39 46 40 39 41 41 42 47 43 40 44 42 45
REMARK SMILES IDX 43 46 44 47 45 48 69 49 70 50 78 51 71 52 73 53 79 54 72 55
REMARK SMILES IDX 74 56 75 57 76 58 77 59 54 60 55 61 63 62 56 63 58 64 64 65
REMARK SMILES IDX 57 66 59 67 60 68 61 69 62 70 5 71 6 72 7 73 8 74 9 76 10 77
REMARK SMILES IDX 11 78 14 79 12 80 13 81 15 82 16 83 17 84 18 85 26 86 19 87
REMARK SMILES IDX 25 88 27 89 20 90 24 91 21 92 23 93 22 94
REMARK H PARENT 3 5 84 23 52 34 7 75
REMARK Flexibility Score: inf
ROOT
ATOM      1  C   UNL A   1      33.402  28.877  25.019  1.00  0.00     0.118 C 
ENDROOT
BRANCH   1   2
ATOM      2  N   UNL A   1      32.779  30.087  25.550  1.00  0.00    -0.352 N 
ATOM      3  O   UNL A   1      32.272  31.733  26.987  1.00  0.00    -0.269 OA
ATOM      4  C   UNL A   1      33.092  30.887  26.626  1.00  0.00     0.251 C 
ATOM      5  H   UNL A   1      31.988  30.385  25.046  1.00  0.00     0.163 HD
BRANCH   4   6
ATOM      6  C   UNL A   1      34.360  30.726  27.377  1.00  0.00     0.039 A 
ATOM      7  C   UNL A   1      34.775  29.477  27.820  1.00  0.00     0.014 A 
ATOM      8  C   UNL A   1      35.192  31.831  27.606  1.00  0.00     0.014 A 
ATOM      9  C   UNL A   1      35.861  29.358  28.672  1.00  0.00     0.010 A 
ATOM     10  C   UNL A   1      36.393  31.677  28.317  1.00  0.00     0.010 A 
ATOM     11  C   UNL A   1      36.724  30.442  28.889  1.00  0.00    -0.014 A 
BRANCH  11  12
ATOM     12  C   UNL A   1      37.994  30.174  29.620  1.00  0.00     0.031 A 
ATOM     13  C   UNL A   1      38.225  30.653  31.026  1.00  0.00     0.074 A 
ATOM     14  C   UNL A   1      38.921  29.402  29.012  1.00  0.00     0.049 A 
ATOM     15  N   UNL A   1      39.231  30.393  31.821  1.00  0.00    -0.248 NA
ATOM     16  C   UNL A   1      37.217  31.549  31.615  1.00  0.00     0.031 C 
ATOM     17  C   UNL A   1      38.841  28.932  27.624  1.00  0.00     0.029 A 
ATOM     18  N   UNL A   1      40.081  28.837  29.478  1.00  0.00    -0.354 N 
ATOM     19  C   UNL A   1      39.002  31.117  32.984  1.00  0.00     0.074 A 
ATOM     20  C   UNL A   1      37.764  31.841  32.789  1.00  0.00     0.031 C 
ATOM     21  C   UNL A   1      39.848  28.085  27.381  1.00  0.00     0.029 A 
ATOM     22  C   UNL A   1      40.699  28.018  28.561  1.00  0.00     0.049 A 
ATOM     23  H   UNL A   1      40.437  29.002  30.381  1.00  0.00     0.167 HD
ATOM     24  C   UNL A   1      39.747  31.162  34.115  1.00  0.00     0.034 A 
ATOM     25  C   UNL A   1      41.834  27.298  28.645  1.00  0.00     0.034 A 
ATOM     26  C   UNL A   1      40.961  30.410  34.315  1.00  0.00     0.049 A 
ATOM     27  C   UNL A   1      42.601  27.319  29.932  1.00  0.00     0.074 A 
ATOM     28  C   UNL A   1      41.773  30.370  35.435  1.00  0.00     0.029 A 
ATOM     29  N   UNL A   1      41.536  29.565  33.378  1.00  0.00    -0.354 N 
ATOM     30  N   UNL A   1      42.312  27.939  31.050  1.00  0.00    -0.248 NA
ATOM     31  C   UNL A   1      43.839  26.531  29.979  1.00  0.00     0.031 C 
ATOM     32  C   UNL A   1      42.843  29.508  35.172  1.00  0.00     0.029 A 
ATOM     33  C   UNL A   1      42.689  28.995  33.895  1.00  0.00     0.049 A 
ATOM     34  H   UNL A   1      41.177  29.394  32.477  1.00  0.00     0.167 HD
ATOM     35  C   UNL A   1      43.330  27.615  31.936  1.00  0.00     0.074 A 
ATOM     36  C   UNL A   1      44.214  26.702  31.239  1.00  0.00     0.031 C 
ATOM     37  C   UNL A   1      43.535  28.061  33.199  1.00  0.00     0.034 A 
BRANCH  24  38
ATOM     38  C   UNL A   1      39.251  32.017  35.253  1.00  0.00     0.023 A 
ATOM     39  C   UNL A   1      38.334  31.475  36.177  1.00  0.00     0.012 A 
ATOM     40  C   UNL A   1      39.743  33.322  35.454  1.00  0.00     0.148 A 
ATOM     41  C   UNL A   1      37.899  32.224  37.271  1.00  0.00     0.002 A 
ATOM     42  C   UNL A   1      39.334  34.049  36.567  1.00  0.00     0.091 A 
ATOM     43  F   UNL A   1      40.599  33.828  34.554  1.00  0.00    -0.205 F 
ATOM     44  C   UNL A   1      38.406  33.505  37.470  1.00  0.00     0.022 A 
BRANCH  42  45
ATOM     45  S   UNL A   1      39.978  35.681  36.955  1.00  0.00     0.127 S 
ATOM     46  O   UNL A   1      39.288  35.976  38.211  1.00  0.00    -0.237 OA
ATOM     47  O   UNL A   1      41.410  35.421  37.094  1.00  0.00    -0.237 OA
ATOM     48  O   UNL A   1      39.618  36.533  35.831  1.00  0.00    -0.744 OA
ENDBRANCH  42  45
ENDBRANCH  24  38
BRANCH  25  49
ATOM     49  C   UNL A   1      42.290  26.492  27.476  1.00  0.00     0.023 A 
ATOM     50  C   UNL A   1      43.149  27.063  26.518  1.00  0.00     0.012 A 
ATOM     51  C   UNL A   1      41.916  25.141  27.341  1.00  0.00     0.148 A 
ATOM     52  C   UNL A   1      43.608  26.309  25.436  1.00  0.00     0.002 A 
ATOM     53  C   UNL A   1      42.434  24.377  26.303  1.00  0.00     0.091 A 
ATOM     54  F   UNL A   1      41.076  24.618  28.245  1.00  0.00    -0.205 F 
ATOM     55  C   UNL A   1      43.264  24.962  25.337  1.00  0.00     0.022 A 
BRANCH  53  56
ATOM     56  S   UNL A   1      42.170  22.602  26.221  1.00  0.00     0.127 S 
ATOM     57  O   UNL A   1      42.864  22.139  27.420  1.00  0.00    -0.237 OA
ATOM     58  O   UNL A   1      40.710  22.502  26.276  1.00  0.00    -0.237 OA
ATOM     59  O   UNL A   1      42.743  22.189  24.946  1.00  0.00    -0.744 OA
ENDBRANCH  53  56
ENDBRANCH  25  49
BRANCH  37  60
ATOM     60  C   UNL A   1      44.764  27.557  33.905  1.00  0.00     0.023 A 
ATOM     61  C   UNL A   1      45.972  28.276  33.796  1.00  0.00     0.012 A 
ATOM     62  C   UNL A   1      44.720  26.393  34.696  1.00  0.00     0.148 A 
ATOM     63  C   UNL A   1      47.128  27.821  34.428  1.00  0.00     0.002 A 
ATOM     64  C   UNL A   1      45.865  25.972  35.362  1.00  0.00     0.091 A 
ATOM     65  F   UNL A   1      43.569  25.710  34.768  1.00  0.00    -0.205 F 
ATOM     66  C   UNL A   1      47.073  26.676  35.218  1.00  0.00     0.022 A 
BRANCH  64  67
ATOM     67  S   UNL A   1      45.860  24.557  36.469  1.00  0.00     0.127 S 
ATOM     68  O   UNL A   1      47.225  24.582  36.990  1.00  0.00    -0.237 OA
ATOM     69  O   UNL A   1      44.828  24.924  37.440  1.00  0.00    -0.237 OA
ATOM     70  O   UNL A   1      45.523  23.408  35.640  1.00  0.00    -0.744 OA
ENDBRANCH  64  67
ENDBRANCH  37  60
ENDBRANCH  11  12
ENDBRANCH   4   6
ENDBRANCH   1   2
BRANCH   1  71
ATOM     71  C   UNL A   1      32.436  27.709  24.949  1.00  0.00     0.042 C 
BRANCH  71  72
ATOM     72  C   UNL A   1      32.611  26.763  26.123  1.00  0.00     0.117 C 
BRANCH  72  73
ATOM     73  N   UNL A   1      31.385  26.103  26.510  1.00  0.00    -0.354 N 
ATOM     74  C   UNL A   1      30.817  24.931  26.143  1.00  0.00     0.243 C 
ATOM     75  H   UNL A   1      30.858  26.607  27.172  1.00  0.00     0.163 HD
ATOM     76  O   UNL A   1      29.795  24.637  26.785  1.00  0.00    -0.273 OA
BRANCH  74  77
ATOM     77  C   UNL A   1      31.378  23.909  25.107  1.00  0.00     0.185 C 
ATOM     78  C   UNL A   1      30.746  24.276  23.746  1.00  0.00     0.106 C 
ATOM     79  N   UNL A   1      32.822  23.648  24.911  1.00  0.00    -0.316 N 
ATOM     80  S   UNL A   1      32.100  24.878  22.719  1.00  0.00    -0.138 SA
ATOM     81  C   UNL A   1      33.286  23.829  23.549  1.00  0.00     0.190 C 
BRANCH  79  82
ATOM     82  C   UNL A   1      33.523  22.886  25.831  1.00  0.00     0.262 C 
ATOM     83  O   UNL A   1      33.990  23.400  26.850  1.00  0.00    -0.269 OA
BRANCH  82  84
ATOM     84  C   UNL A   1      33.834  21.452  25.516  1.00  0.00     0.124 A 
ATOM     85  C   UNL A   1      35.093  21.149  25.171  1.00  0.00     0.133 A 
ATOM     86  C   UNL A   1      32.830  20.370  25.327  1.00  0.00     0.270 A 
ATOM     87  N   UNL A   1      35.545  19.915  24.787  1.00  0.00    -0.237 NA
ATOM     88  N   UNL A   1      33.332  19.107  25.043  1.00  0.00    -0.267 N 
ATOM     89  O   UNL A   1      31.625  20.613  25.387  1.00  0.00    -0.268 OA
ATOM     90  C   UNL A   1      34.679  18.949  24.746  1.00  0.00     0.139 A 
ATOM     91  C   UNL A   1      32.459  18.022  25.009  1.00  0.00     0.096 A 
ATOM     92  C   UNL A   1      35.129  17.582  24.361  1.00  0.00     0.048 A 
ATOM     93  C   UNL A   1      32.877  16.790  24.701  1.00  0.00     0.019 A 
ATOM     94  C   UNL A   1      34.256  16.567  24.359  1.00  0.00     0.005 A 
ENDBRANCH  82  84
ENDBRANCH  79  82
ENDBRANCH  74  77
ENDBRANCH  72  73
ENDBRANCH  71  72
ENDBRANCH   1  71
TORSDOF 15
ENDMDL
MODEL 3
REMARK VINA RESULT:     -12.8      2.063      3.966
REMARK SMILES O=C(NCCCNC(=O)[C@H]1CSCN1C(=O)c1cnc2ccccn2c1=O)c1ccc(-c2c3nc(c(-c4cccc(S(=O)(=O)[O-])c4F)c4ccc([nH]4)c(-c4cccc(S(=O)(=O)[O-])c4F)c4nc(c(-c5cccc(S(=O)(=O)[O-])c5F)c5ccc2[nH]5)C=C4)C=C3)cc1
REMARK SMILES IDX 4 1 3 2 1 3 2 4 28 6 29 7 90 8 30 9 89 10 31 11 32 12 33 13
REMARK SMILES IDX 83 14 34 15 88 16 82 17 84 18 35 19 87 20 81 21 80 22 36 24
REMARK SMILES IDX 68 25 48 26 67 27 49 28 52 29 66 30 85 31 50 32 51 33 65 35
REMARK SMILES IDX 86 36 53 37 37 38 38 39 46 40 39 41 41 42 47 43 40 44 42 45
REMARK SMILES IDX 43 46 44 47 45 48 69 49 70 50 78 51 71 52 73 53 79 54 72 55
REMARK SMILES IDX 74 56 75 57 76 58 77 59 54 60 55 61 63 62 56 63 58 64 64 65
REMARK SMILES IDX 57 66 59 67 60 68 61 69 62 70 5 71 6 72 7 73 8 74 9 76 10 77
REMARK SMILES IDX 11 78 14 79 12 80 13 81 15 82 16 83 17 84 18 85 26 86 19 87
REMARK SMILES IDX 25 88 27 89 20 90 24 91 21 92 23 93 22 94
REMARK H PARENT 3 5 84 23 52 34 7 75
REMARK Flexibility Score: inf
ROOT
ATOM      1  C   UNL A   1      32.925  29.153  25.446  1.00  0.00     0.118 C 
ENDROOT
BRANCH   1   2
ATOM      2  N   UNL A   1      32.460  30.475  25.854  1.00  0.00    -0.352 N 
ATOM      3  O   UNL A   1      32.197  32.317  27.108  1.00  0.00    -0.269 OA
ATOM      4  C   UNL A   1      32.905  31.350  26.820  1.00  0.00     0.251 C 
ATOM      5  H   UNL A   1      31.683  30.802  25.346  1.00  0.00     0.163 HD
BRANCH   4   6
ATOM      6  C   UNL A   1      34.182  31.134  27.542  1.00  0.00     0.039 A 
ATOM      7  C   UNL A   1      34.527  29.877  28.022  1.00  0.00     0.014 A 
ATOM      8  C   UNL A   1      35.090  32.189  27.705  1.00  0.00     0.014 A 
ATOM      9  C   UNL A   1      35.628  29.719  28.849  1.00  0.00     0.010 A 
ATOM     10  C   UNL A   1      36.300  31.983  28.388  1.00  0.00     0.010 A 
ATOM     11  C   UNL A   1      36.566  30.751  28.999  1.00  0.00    -0.014 A 
BRANCH  11  12
ATOM     12  C   UNL A   1      37.837  30.427  29.705  1.00  0.00     0.031 A 
ATOM     13  C   UNL A   1      38.106  30.874  31.115  1.00  0.00     0.074 A 
ATOM     14  C   UNL A   1      38.727  29.634  29.071  1.00  0.00     0.049 A 
ATOM     15  N   UNL A   1      39.115  30.566  31.890  1.00  0.00    -0.248 NA
ATOM     16  C   UNL A   1      37.139  31.794  31.735  1.00  0.00     0.031 C 
ATOM     17  C   UNL A   1      38.610  29.190  27.676  1.00  0.00     0.029 A 
ATOM     18  N   UNL A   1      39.874  29.021  29.508  1.00  0.00    -0.354 N 
ATOM     19  C   UNL A   1      38.929  31.279  33.068  1.00  0.00     0.074 A 
ATOM     20  C   UNL A   1      37.715  32.048  32.904  1.00  0.00     0.031 C 
ATOM     21  C   UNL A   1      39.583  28.312  27.403  1.00  0.00     0.029 A 
ATOM     22  C   UNL A   1      40.449  28.196  28.569  1.00  0.00     0.049 A 
ATOM     23  H   UNL A   1      40.249  29.159  30.408  1.00  0.00     0.167 HD
ATOM     24  C   UNL A   1      39.693  31.278  34.187  1.00  0.00     0.034 A 
ATOM     25  C   UNL A   1      41.559  27.436  28.623  1.00  0.00     0.034 A 
ATOM     26  C   UNL A   1      40.883  30.482  34.356  1.00  0.00     0.049 A 
ATOM     27  C   UNL A   1      42.346  27.409  29.898  1.00  0.00     0.074 A 
ATOM     28  C   UNL A   1      41.709  30.395  35.462  1.00  0.00     0.029 A 
ATOM     29  N   UNL A   1      41.413  29.633  33.396  1.00  0.00    -0.354 N 
ATOM     30  N   UNL A   1      42.095  28.020  31.030  1.00  0.00    -0.248 NA
ATOM     31  C   UNL A   1      43.556  26.578  29.912  1.00  0.00     0.031 C 
ATOM     32  C   UNL A   1      42.745  29.501  35.168  1.00  0.00     0.029 A 
ATOM     33  C   UNL A   1      42.553  29.015  33.885  1.00  0.00     0.049 A 
ATOM     34  H   UNL A   1      41.035  29.490  32.498  1.00  0.00     0.167 HD
ATOM     35  C   UNL A   1      43.115  27.646  31.894  1.00  0.00     0.074 A 
ATOM     36  C   UNL A   1      43.956  26.715  31.169  1.00  0.00     0.031 C 
ATOM     37  C   UNL A   1      43.356  28.063  33.161  1.00  0.00     0.034 A 
BRANCH  24  38
ATOM     38  C   UNL A   1      39.244  32.131  35.346  1.00  0.00     0.023 A 
ATOM     39  C   UNL A   1      38.369  31.587  36.309  1.00  0.00     0.012 A 
ATOM     40  C   UNL A   1      39.742  33.437  35.528  1.00  0.00     0.148 A 
ATOM     41  C   UNL A   1      37.980  32.333  37.420  1.00  0.00     0.002 A 
ATOM     42  C   UNL A   1      39.380  34.161  36.658  1.00  0.00     0.091 A 
ATOM     43  F   UNL A   1      40.557  33.945  34.593  1.00  0.00    -0.205 F 
ATOM     44  C   UNL A   1      38.492  33.614  37.600  1.00  0.00     0.022 A 
BRANCH  42  45
ATOM     45  S   UNL A   1      40.037  35.794  37.021  1.00  0.00     0.127 S 
ATOM     46  O   UNL A   1      41.470  35.515  37.130  1.00  0.00    -0.237 OA
ATOM     47  O   UNL A   1      39.654  36.552  35.830  1.00  0.00    -0.237 OA
ATOM     48  O   UNL A   1      39.390  36.224  38.252  1.00  0.00    -0.744 OA
ENDBRANCH  42  45
ENDBRANCH  24  38
BRANCH  25  49
ATOM     49  C   UNL A   1      41.969  26.635  27.434  1.00  0.00     0.023 A 
ATOM     50  C   UNL A   1      42.705  27.237  26.397  1.00  0.00     0.012 A 
ATOM     51  C   UNL A   1      41.675  25.259  27.355  1.00  0.00     0.148 A 
ATOM     52  C   UNL A   1      43.121  26.489  25.293  1.00  0.00     0.002 A 
ATOM     53  C   UNL A   1      42.154  24.507  26.290  1.00  0.00     0.091 A 
ATOM     54  F   UNL A   1      40.950  24.704  28.336  1.00  0.00    -0.205 F 
ATOM     55  C   UNL A   1      42.860  25.122  25.247  1.00  0.00     0.022 A 
BRANCH  53  56
ATOM     56  S   UNL A   1      42.003  22.716  26.263  1.00  0.00     0.127 S 
ATOM     57  O   UNL A   1      40.554  22.537  26.250  1.00  0.00    -0.237 OA
ATOM     58  O   UNL A   1      42.678  22.367  25.011  1.00  0.00    -0.237 OA
ATOM     59  O   UNL A   1      42.698  22.257  27.458  1.00  0.00    -0.744 OA
ENDBRANCH  53  56
ENDBRANCH  25  49
BRANCH  37  60
ATOM     60  C   UNL A   1      44.577  27.506  33.839  1.00  0.00     0.023 A 
ATOM     61  C   UNL A   1      45.802  28.196  33.741  1.00  0.00     0.012 A 
ATOM     62  C   UNL A   1      44.509  26.319  34.592  1.00  0.00     0.148 A 
ATOM     63  C   UNL A   1      46.951  27.692  34.348  1.00  0.00     0.002 A 
ATOM     64  C   UNL A   1      45.648  25.847  35.233  1.00  0.00     0.091 A 
ATOM     65  F   UNL A   1      43.341  25.663  34.653  1.00  0.00    -0.205 F 
ATOM     66  C   UNL A   1      46.873  26.523  35.101  1.00  0.00     0.022 A 
BRANCH  64  67
ATOM     67  S   UNL A   1      45.616  24.398  36.294  1.00  0.00     0.127 S 
ATOM     68  O   UNL A   1      44.572  24.755  37.254  1.00  0.00    -0.237 OA
ATOM     69  O   UNL A   1      45.247  23.334  35.359  1.00  0.00    -0.237 OA
ATOM     70  O   UNL A   1      46.960  24.277  36.841  1.00  0.00    -0.744 OA
ENDBRANCH  64  67
ENDBRANCH  37  60
ENDBRANCH  11  12
ENDBRANCH   4   6
ENDBRANCH   1   2
BRANCH   1  71
ATOM     71  C   UNL A   1      32.019  28.040  25.939  1.00  0.00     0.042 C 
BRANCH  71  72
ATOM     72  C   UNL A   1      32.811  26.817  26.364  1.00  0.00     0.117 C 
BRANCH  72  73
ATOM     73  N   UNL A   1      31.979  25.742  26.855  1.00  0.00    -0.354 N 
ATOM     74  C   UNL A   1      31.922  24.420  26.569  1.00  0.00     0.243 C 
ATOM     75  H   UNL A   1      31.322  26.028  27.530  1.00  0.00     0.163 HD
ATOM     76  O   UNL A   1      31.138  23.777  27.287  1.00  0.00    -0.273 OA
BRANCH  74  77
ATOM     77  C   UNL A   1      32.805  23.652  25.538  1.00  0.00     0.185 C 
ATOM     78  C   UNL A   1      33.090  22.266  26.157  1.00  0.00     0.106 C 
ATOM     79  N   UNL A   1      32.439  23.476  24.114  1.00  0.00    -0.316 N 
ATOM     80  S   UNL A   1      32.215  21.075  25.125  1.00  0.00    -0.138 SA
ATOM     81  C   UNL A   1      32.401  22.096  23.670  1.00  0.00     0.190 C 
BRANCH  79  82
ATOM     82  C   UNL A   1      32.570  24.531  23.227  1.00  0.00     0.262 C 
ATOM     83  O   UNL A   1      33.575  24.641  22.521  1.00  0.00    -0.269 OA
BRANCH  82  84
ATOM     84  C   UNL A   1      31.542  25.624  23.226  1.00  0.00     0.124 A 
ATOM     85  C   UNL A   1      30.310  25.323  23.660  1.00  0.00     0.133 A 
ATOM     86  C   UNL A   1      31.693  26.953  22.574  1.00  0.00     0.270 A 
ATOM     87  N   UNL A   1      29.232  26.166  23.667  1.00  0.00    -0.237 NA
ATOM     88  N   UNL A   1      30.618  27.825  22.694  1.00  0.00    -0.267 N 
ATOM     89  O   UNL A   1      32.710  27.229  21.938  1.00  0.00    -0.268 OA
ATOM     90  C   UNL A   1      29.413  27.367  23.208  1.00  0.00     0.139 A 
ATOM     91  C   UNL A   1      30.755  29.135  22.244  1.00  0.00     0.096 A 
ATOM     92  C   UNL A   1      28.277  28.331  23.222  1.00  0.00     0.048 A 
ATOM     93  C   UNL A   1      29.741  30.007  22.295  1.00  0.00     0.019 A 
ATOM     94  C   UNL A   1      28.460  29.587  22.794  1.00  0.00     0.005 A 
ENDBRANCH  82  84
ENDBRANCH  79  82
ENDBRANCH  74  77
ENDBRANCH  72  73
ENDBRANCH  71  72
ENDBRANCH   1  71
TORSDOF 15
ENDMDL
