MODEL 1
REMARK VINA RESULT:     -12.9      0.000      0.000
REMARK SMILES Cc1cc(C(=O)N2[C@@H](C(=O)NCCCNC(=O)c3ccc(-c4c5nc(c(-c6cccc(S(=O)(=O)[O-])c6F)c6ccc([nH]6)c(-c6cccc(S(=O)(=O)[O-])c6F)c6nc(c(-c7cccc(S(=O)(=O)[O-])c7F)c7ccc4[nH]7)C=C6)C=C5)cc3)C[C@H]3CCCC[C@H]32)c(C)s1
REMARK SMILES IDX 13 1 12 2 11 3 9 4 10 5 8 7 7 8 87 9 81 10 82 11 86 12 83 13
REMARK SMILES IDX 85 14 84 15 5 16 6 17 4 18 1 19 2 20 3 21 90 22 88 23 89 24
REMARK SMILES IDX 14 25 15 26 16 27 17 29 18 30 19 31 80 32 20 33 79 34 21 35
REMARK SMILES IDX 22 36 23 37 73 38 24 39 78 40 72 41 74 42 25 43 77 44 71 45
REMARK SMILES IDX 70 46 26 48 58 49 38 50 57 51 39 52 42 53 56 54 75 55 40 56
REMARK SMILES IDX 41 57 55 59 76 60 43 61 27 62 28 63 36 64 29 65 31 66 37 67
REMARK SMILES IDX 30 68 32 69 33 70 34 71 35 72 59 73 60 74 68 75 61 76 63 77
REMARK SMILES IDX 69 78 62 79 64 80 65 81 66 82 67 83 44 84 45 85 53 86 46 87
REMARK SMILES IDX 48 88 54 89 47 90 49 91 50 92 51 93 52 94
REMARK H PARENT 11 6 15 28 74 47 42 58
REMARK Flexibility Score: inf
ROOT
ATOM      1  C   UNL A   1      31.760  28.320  24.602  1.00  0.00     0.042 C 
ENDROOT
BRANCH   1   2
ATOM      2  C   UNL A   1      32.231  26.900  24.304  1.00  0.00     0.117 C 
BRANCH   2   3
ATOM      3  N   UNL A   1      32.210  26.028  25.465  1.00  0.00    -0.354 N 
ATOM      4  C   UNL A   1      32.609  24.748  25.684  1.00  0.00     0.242 C 
ATOM      5  O   UNL A   1      32.553  24.370  26.863  1.00  0.00    -0.273 OA
ATOM      6  H   UNL A   1      31.825  26.455  26.264  1.00  0.00     0.163 HD
BRANCH   4   7
ATOM      7  C   UNL A   1      33.034  23.724  24.600  1.00  0.00     0.175 C 
ATOM      8  N   UNL A   1      33.233  22.299  24.900  1.00  0.00    -0.323 N 
ATOM      9  C   UNL A   1      34.634  21.917  24.722  1.00  0.00     0.089 C 
ATOM     10  C   UNL A   1      34.395  24.182  24.018  1.00  0.00     0.041 C 
ATOM     11  C   UNL A   1      35.085  22.873  23.616  1.00  0.00     0.014 C 
ATOM     12  C   UNL A   1      35.447  22.080  26.009  1.00  0.00     0.025 C 
ATOM     13  C   UNL A   1      36.597  22.962  23.435  1.00  0.00     0.006 C 
ATOM     14  C   UNL A   1      36.948  22.025  25.751  1.00  0.00     0.002 C 
ATOM     15  C   UNL A   1      37.368  23.093  24.745  1.00  0.00     0.000 C 
BRANCH   8  16
ATOM     16  C   UNL A   1      32.267  21.319  25.061  1.00  0.00     0.255 C 
ATOM     17  O   UNL A   1      31.266  21.504  25.749  1.00  0.00    -0.269 OA
BRANCH  16  18
ATOM     18  C   UNL A   1      32.486  20.025  24.409  1.00  0.00     0.053 A 
ATOM     19  C   UNL A   1      33.160  16.294  24.620  1.00  0.00     0.056 C 
ATOM     20  C   UNL A   1      32.879  17.711  24.262  1.00  0.00     0.003 A 
ATOM     21  C   UNL A   1      32.816  18.805  25.095  1.00  0.00     0.029 A 
ATOM     22  S   UNL A   1      32.529  18.139  22.649  1.00  0.00    -0.145 S 
ATOM     23  C   UNL A   1      32.251  19.780  23.063  1.00  0.00     0.014 A 
ATOM     24  C   UNL A   1      31.784  20.718  21.998  1.00  0.00     0.057 C 
ENDBRANCH  16  18
ENDBRANCH   8  16
ENDBRANCH   4   7
ENDBRANCH   2   3
ENDBRANCH   1   2
BRANCH   1  25
ATOM     25  C   UNL A   1      32.873  29.300  24.941  1.00  0.00     0.118 C 
BRANCH  25  26
ATOM     26  N   UNL A   1      32.378  30.517  25.565  1.00  0.00    -0.352 N 
ATOM     27  C   UNL A   1      32.799  31.206  26.677  1.00  0.00     0.251 C 
ATOM     28  H   UNL A   1      31.602  30.918  25.111  1.00  0.00     0.163 HD
ATOM     29  O   UNL A   1      32.071  32.097  27.114  1.00  0.00    -0.269 OA
BRANCH  27  30
ATOM     30  C   UNL A   1      34.086  30.916  27.359  1.00  0.00     0.039 A 
ATOM     31  C   UNL A   1      34.356  29.593  27.738  1.00  0.00     0.014 A 
ATOM     32  C   UNL A   1      34.983  31.920  27.725  1.00  0.00     0.014 A 
ATOM     33  C   UNL A   1      35.519  29.285  28.453  1.00  0.00     0.010 A 
ATOM     34  C   UNL A   1      36.189  31.600  28.351  1.00  0.00     0.010 A 
ATOM     35  C   UNL A   1      36.454  30.285  28.759  1.00  0.00    -0.014 A 
BRANCH  35  36
ATOM     36  C   UNL A   1      37.667  29.997  29.571  1.00  0.00     0.031 A 
ATOM     37  C   UNL A   1      38.748  29.099  29.018  1.00  0.00     0.074 A 
ATOM     38  C   UNL A   1      37.780  30.483  30.824  1.00  0.00     0.049 A 
ATOM     39  N   UNL A   1      39.841  28.669  29.593  1.00  0.00    -0.248 NA
ATOM     40  C   UNL A   1      38.556  28.588  27.650  1.00  0.00     0.031 C 
ATOM     41  C   UNL A   1      36.777  31.297  31.511  1.00  0.00     0.029 A 
ATOM     42  N   UNL A   1      38.786  30.346  31.748  1.00  0.00    -0.354 N 
ATOM     43  C   UNL A   1      40.433  27.797  28.686  1.00  0.00     0.074 A 
ATOM     44  C   UNL A   1      39.563  27.734  27.532  1.00  0.00     0.031 C 
ATOM     45  C   UNL A   1      37.225  31.604  32.740  1.00  0.00     0.029 A 
ATOM     46  C   UNL A   1      38.540  30.997  32.934  1.00  0.00     0.049 A 
ATOM     47  H   UNL A   1      39.607  29.831  31.578  1.00  0.00     0.167 HD
ATOM     48  C   UNL A   1      41.612  27.139  28.778  1.00  0.00     0.034 A 
ATOM     49  C   UNL A   1      39.295  31.107  34.045  1.00  0.00     0.034 A 
ATOM     50  C   UNL A   1      42.532  27.283  29.873  1.00  0.00     0.049 A 
ATOM     51  C   UNL A   1      40.656  30.464  34.075  1.00  0.00     0.074 A 
ATOM     52  C   UNL A   1      43.793  26.733  30.019  1.00  0.00     0.029 A 
ATOM     53  N   UNL A   1      42.298  28.058  30.998  1.00  0.00    -0.354 N 
ATOM     54  N   UNL A   1      41.253  29.755  33.147  1.00  0.00    -0.248 NA
ATOM     55  C   UNL A   1      41.464  30.671  35.286  1.00  0.00     0.031 C 
ATOM     56  C   UNL A   1      44.331  27.192  31.226  1.00  0.00     0.029 A 
ATOM     57  C   UNL A   1      43.399  28.017  31.835  1.00  0.00     0.049 A 
ATOM     58  H   UNL A   1      41.472  28.563  31.175  1.00  0.00     0.167 HD
ATOM     59  C   UNL A   1      42.514  29.455  33.651  1.00  0.00     0.074 A 
ATOM     60  C   UNL A   1      42.604  30.080  34.954  1.00  0.00     0.031 C 
ATOM     61  C   UNL A   1      43.499  28.706  33.095  1.00  0.00     0.034 A 
BRANCH  48  62
ATOM     62  C   UNL A   1      42.019  26.276  27.614  1.00  0.00     0.023 A 
ATOM     63  C   UNL A   1      42.677  26.871  26.518  1.00  0.00     0.012 A 
ATOM     64  C   UNL A   1      41.785  24.888  27.609  1.00  0.00     0.148 A 
ATOM     65  C   UNL A   1      43.068  26.105  25.421  1.00  0.00     0.002 A 
ATOM     66  C   UNL A   1      42.210  24.124  26.526  1.00  0.00     0.091 A 
ATOM     67  F   UNL A   1      41.134  24.342  28.645  1.00  0.00    -0.205 F 
ATOM     68  C   UNL A   1      42.844  24.731  25.429  1.00  0.00     0.022 A 
BRANCH  66  69
ATOM     69  S   UNL A   1      42.017  22.337  26.480  1.00  0.00     0.127 S 
ATOM     70  O   UNL A   1      40.564  22.197  26.422  1.00  0.00    -0.237 OA
ATOM     71  O   UNL A   1      42.712  21.978  25.242  1.00  0.00    -0.237 OA
ATOM     72  O   UNL A   1      42.654  21.842  27.691  1.00  0.00    -0.744 OA
ENDBRANCH  66  69
ENDBRANCH  48  62
BRANCH  49  73
ATOM     73  C   UNL A   1      38.831  31.958  35.175  1.00  0.00     0.023 A 
ATOM     74  C   UNL A   1      38.882  33.359  35.035  1.00  0.00     0.012 A 
ATOM     75  C   UNL A   1      38.308  31.407  36.359  1.00  0.00     0.148 A 
ATOM     76  C   UNL A   1      38.444  34.196  36.063  1.00  0.00     0.002 A 
ATOM     77  C   UNL A   1      37.831  32.246  37.362  1.00  0.00     0.091 A 
ATOM     78  F   UNL A   1      38.285  30.073  36.488  1.00  0.00    -0.205 F 
ATOM     79  C   UNL A   1      37.909  33.639  37.221  1.00  0.00     0.022 A 
BRANCH  77  80
ATOM     80  S   UNL A   1      37.016  31.587  38.823  1.00  0.00     0.127 S 
ATOM     81  O   UNL A   1      38.006  31.843  39.862  1.00  0.00    -0.237 OA
ATOM     82  O   UNL A   1      35.808  32.408  38.909  1.00  0.00    -0.237 OA
ATOM     83  O   UNL A   1      36.759  30.188  38.503  1.00  0.00    -0.744 OA
ENDBRANCH  77  80
ENDBRANCH  49  73
BRANCH  61  84
ATOM     84  C   UNL A   1      44.767  28.530  33.882  1.00  0.00     0.023 A 
ATOM     85  C   UNL A   1      45.812  29.461  33.717  1.00  0.00     0.012 A 
ATOM     86  C   UNL A   1      44.898  27.503  34.835  1.00  0.00     0.148 A 
ATOM     87  C   UNL A   1      46.976  29.360  34.477  1.00  0.00     0.002 A 
ATOM     88  C   UNL A   1      46.049  27.429  35.613  1.00  0.00     0.091 A 
ATOM     89  F   UNL A   1      43.905  26.610  34.961  1.00  0.00    -0.205 F 
ATOM     90  C   UNL A   1      47.091  28.351  35.431  1.00  0.00     0.022 A 
BRANCH  88  91
ATOM     91  S   UNL A   1      46.220  26.202  36.915  1.00  0.00     0.127 S 
ATOM     92  O   UNL A   1      47.483  26.593  37.536  1.00  0.00    -0.237 OA
ATOM     93  O   UNL A   1      45.036  26.440  37.741  1.00  0.00    -0.237 OA
ATOM     94  O   UNL A   1      46.216  24.917  36.229  1.00  0.00    -0.744 OA
ENDBRANCH  88  91
ENDBRANCH  61  84
ENDBRANCH  35  36
ENDBRANCH  27  30
ENDBRANCH  25  26
ENDBRANCH   1  25
TORSDOF 15
ENDMDL
MODEL 2
REMARK VINA RESULT:     -12.9      1.759      8.065
REMARK SMILES Cc1cc(C(=O)N2[C@@H](C(=O)NCCCNC(=O)c3ccc(-c4c5nc(c(-c6cccc(S(=O)(=O)[O-])c6F)c6ccc([nH]6)c(-c6cccc(S(=O)(=O)[O-])c6F)c6nc(c(-c7cccc(S(=O)(=O)[O-])c7F)c7ccc4[nH]7)C=C6)C=C5)cc3)C[C@H]3CCCC[C@H]32)c(C)s1
REMARK SMILES IDX 13 1 12 2 11 3 9 4 10 5 8 7 7 8 87 9 81 10 82 11 86 12 83 13
REMARK SMILES IDX 85 14 84 15 5 16 6 17 4 18 1 19 2 20 3 21 90 22 88 23 89 24
REMARK SMILES IDX 14 25 15 26 16 27 17 29 18 30 19 31 80 32 20 33 79 34 21 35
REMARK SMILES IDX 22 36 23 37 73 38 24 39 78 40 72 41 74 42 25 43 77 44 71 45
REMARK SMILES IDX 70 46 26 48 58 49 38 50 57 51 39 52 42 53 56 54 75 55 40 56
REMARK SMILES IDX 41 57 55 59 76 60 43 61 27 62 28 63 36 64 29 65 31 66 37 67
REMARK SMILES IDX 30 68 32 69 33 70 34 71 35 72 59 73 60 74 68 75 61 76 63 77
REMARK SMILES IDX 69 78 62 79 64 80 65 81 66 82 67 83 44 84 45 85 53 86 46 87
REMARK SMILES IDX 48 88 54 89 47 90 49 91 50 92 51 93 52 94
REMARK H PARENT 11 6 15 28 74 47 42 58
REMARK Flexibility Score: inf
ROOT
ATOM      1  C   UNL A   1      31.490  29.078  26.418  1.00  0.00     0.042 C 
ENDROOT
BRANCH   1   2
ATOM      2  C   UNL A   1      31.924  27.798  27.125  1.00  0.00     0.117 C 
BRANCH   2   3
ATOM      3  N   UNL A   1      31.230  26.612  26.655  1.00  0.00    -0.354 N 
ATOM      4  C   UNL A   1      31.628  25.488  26.007  1.00  0.00     0.242 C 
ATOM      5  O   UNL A   1      30.759  24.612  25.881  1.00  0.00    -0.273 OA
ATOM      6  H   UNL A   1      30.265  26.627  26.848  1.00  0.00     0.163 HD
BRANCH   4   7
ATOM      7  C   UNL A   1      33.013  25.250  25.353  1.00  0.00     0.175 C 
ATOM      8  N   UNL A   1      33.158  24.742  23.982  1.00  0.00    -0.323 N 
ATOM      9  C   UNL A   1      33.781  23.418  23.977  1.00  0.00     0.089 C 
ATOM     10  C   UNL A   1      33.781  24.223  26.220  1.00  0.00     0.041 C 
ATOM     11  C   UNL A   1      34.674  23.483  25.218  1.00  0.00     0.014 C 
ATOM     12  C   UNL A   1      32.747  22.291  24.055  1.00  0.00     0.025 C 
ATOM     13  C   UNL A   1      35.204  22.133  25.687  1.00  0.00     0.006 C 
ATOM     14  C   UNL A   1      33.383  20.951  24.401  1.00  0.00     0.002 C 
ATOM     15  C   UNL A   1      34.146  21.034  25.720  1.00  0.00     0.000 C 
BRANCH   8  16
ATOM     16  C   UNL A   1      33.020  25.442  22.793  1.00  0.00     0.255 C 
ATOM     17  O   UNL A   1      33.679  25.159  21.796  1.00  0.00    -0.269 OA
BRANCH  16  18
ATOM     18  C   UNL A   1      32.078  26.564  22.763  1.00  0.00     0.053 A 
ATOM     19  C   UNL A   1      28.551  27.925  23.127  1.00  0.00     0.056 C 
ATOM     20  C   UNL A   1      30.005  27.659  22.947  1.00  0.00     0.003 A 
ATOM     21  C   UNL A   1      30.654  26.445  22.925  1.00  0.00     0.029 A 
ATOM     22  S   UNL A   1      31.104  28.952  22.786  1.00  0.00    -0.145 S 
ATOM     23  C   UNL A   1      32.455  27.899  22.728  1.00  0.00     0.014 A 
ATOM     24  C   UNL A   1      33.826  28.494  22.677  1.00  0.00     0.057 C 
ENDBRANCH  16  18
ENDBRANCH   8  16
ENDBRANCH   4   7
ENDBRANCH   2   3
ENDBRANCH   1   2
BRANCH   1  25
ATOM     25  C   UNL A   1      32.634  29.944  25.914  1.00  0.00     0.118 C 
BRANCH  25  26
ATOM     26  N   UNL A   1      32.526  31.327  26.352  1.00  0.00    -0.352 N 
ATOM     27  C   UNL A   1      33.255  32.055  27.261  1.00  0.00     0.251 C 
ATOM     28  H   UNL A   1      31.800  31.832  25.920  1.00  0.00     0.163 HD
ATOM     29  O   UNL A   1      32.820  33.154  27.602  1.00  0.00    -0.269 OA
BRANCH  27  30
ATOM     30  C   UNL A   1      34.533  31.564  27.838  1.00  0.00     0.039 A 
ATOM     31  C   UNL A   1      34.610  30.225  28.245  1.00  0.00     0.014 A 
ATOM     32  C   UNL A   1      35.618  32.408  28.081  1.00  0.00     0.014 A 
ATOM     33  C   UNL A   1      35.767  29.740  28.867  1.00  0.00     0.010 A 
ATOM     34  C   UNL A   1      36.805  31.901  28.610  1.00  0.00     0.010 A 
ATOM     35  C   UNL A   1      36.882  30.571  29.047  1.00  0.00    -0.014 A 
BRANCH  35  36
ATOM     36  C   UNL A   1      38.100  30.100  29.759  1.00  0.00     0.031 A 
ATOM     37  C   UNL A   1      38.372  30.562  31.171  1.00  0.00     0.074 A 
ATOM     38  C   UNL A   1      38.996  29.312  29.132  1.00  0.00     0.049 A 
ATOM     39  N   UNL A   1      39.408  30.326  31.934  1.00  0.00    -0.248 NA
ATOM     40  C   UNL A   1      37.363  31.435  31.795  1.00  0.00     0.031 C 
ATOM     41  C   UNL A   1      38.898  28.856  27.744  1.00  0.00     0.029 A 
ATOM     42  N   UNL A   1      40.176  28.769  29.577  1.00  0.00    -0.354 N 
ATOM     43  C   UNL A   1      39.204  31.063  33.095  1.00  0.00     0.074 A 
ATOM     44  C   UNL A   1      37.959  31.779  32.927  1.00  0.00     0.031 C 
ATOM     45  C   UNL A   1      39.962  28.087  27.457  1.00  0.00     0.029 A 
ATOM     46  C   UNL A   1      40.825  28.007  28.633  1.00  0.00     0.049 A 
ATOM     47  H   UNL A   1      40.524  28.912  30.486  1.00  0.00     0.167 HD
ATOM     48  C   UNL A   1      39.955  31.110  34.220  1.00  0.00     0.034 A 
ATOM     49  C   UNL A   1      41.975  27.309  28.713  1.00  0.00     0.034 A 
ATOM     50  C   UNL A   1      41.133  30.316  34.436  1.00  0.00     0.049 A 
ATOM     51  C   UNL A   1      42.729  27.282  30.016  1.00  0.00     0.074 A 
ATOM     52  C   UNL A   1      41.914  30.222  35.575  1.00  0.00     0.029 A 
ATOM     53  N   UNL A   1      41.684  29.457  33.499  1.00  0.00    -0.354 N 
ATOM     54  N   UNL A   1      42.442  27.881  31.147  1.00  0.00    -0.248 NA
ATOM     55  C   UNL A   1      43.942  26.452  30.066  1.00  0.00     0.031 C 
ATOM     56  C   UNL A   1      42.927  29.288  35.332  1.00  0.00     0.029 A 
ATOM     57  C   UNL A   1      42.783  28.812  34.039  1.00  0.00     0.049 A 
ATOM     58  H   UNL A   1      41.344  29.324  32.585  1.00  0.00     0.167 HD
ATOM     59  C   UNL A   1      43.421  27.478  32.049  1.00  0.00     0.074 A 
ATOM     60  C   UNL A   1      44.294  26.565  31.340  1.00  0.00     0.031 C 
ATOM     61  C   UNL A   1      43.596  27.851  33.341  1.00  0.00     0.034 A 
BRANCH  48  62
ATOM     62  C   UNL A   1      39.467  31.983  35.345  1.00  0.00     0.023 A 
ATOM     63  C   UNL A   1      39.750  33.363  35.313  1.00  0.00     0.012 A 
ATOM     64  C   UNL A   1      38.707  31.458  36.409  1.00  0.00     0.148 A 
ATOM     65  C   UNL A   1      39.314  34.203  36.336  1.00  0.00     0.002 A 
ATOM     66  C   UNL A   1      38.246  32.308  37.409  1.00  0.00     0.091 A 
ATOM     67  F   UNL A   1      38.470  30.139  36.439  1.00  0.00    -0.205 F 
ATOM     68  C   UNL A   1      38.555  33.678  37.378  1.00  0.00     0.022 A 
BRANCH  66  69
ATOM     69  S   UNL A   1      37.208  31.728  38.757  1.00  0.00     0.127 S 
ATOM     70  O   UNL A   1      36.112  32.694  38.723  1.00  0.00    -0.237 OA
ATOM     71  O   UNL A   1      36.845  30.380  38.317  1.00  0.00    -0.237 OA
ATOM     72  O   UNL A   1      38.050  31.767  39.944  1.00  0.00    -0.744 OA
ENDBRANCH  66  69
ENDBRANCH  48  62
BRANCH  49  73
ATOM     73  C   UNL A   1      42.419  26.479  27.559  1.00  0.00     0.023 A 
ATOM     74  C   UNL A   1      43.307  27.041  26.621  1.00  0.00     0.012 A 
ATOM     75  C   UNL A   1      42.010  25.142  27.401  1.00  0.00     0.148 A 
ATOM     76  C   UNL A   1      43.760  26.295  25.532  1.00  0.00     0.002 A 
ATOM     77  C   UNL A   1      42.501  24.389  26.338  1.00  0.00     0.091 A 
ATOM     78  F   UNL A   1      41.149  24.626  28.289  1.00  0.00    -0.205 F 
ATOM     79  C   UNL A   1      43.366  24.967  25.396  1.00  0.00     0.022 A 
BRANCH  77  80
ATOM     80  S   UNL A   1      42.128  22.638  26.182  1.00  0.00     0.127 S 
ATOM     81  O   UNL A   1      42.758  22.307  24.909  1.00  0.00    -0.237 OA
ATOM     82  O   UNL A   1      42.784  22.068  27.359  1.00  0.00    -0.237 OA
ATOM     83  O   UNL A   1      40.673  22.565  26.223  1.00  0.00    -0.744 OA
ENDBRANCH  77  80
ENDBRANCH  49  73
BRANCH  61  84
ATOM     84  C   UNL A   1      44.766  27.265  34.081  1.00  0.00     0.023 A 
ATOM     85  C   UNL A   1      46.011  27.922  34.028  1.00  0.00     0.012 A 
ATOM     86  C   UNL A   1      44.620  26.121  34.887  1.00  0.00     0.148 A 
ATOM     87  C   UNL A   1      47.099  27.437  34.753  1.00  0.00     0.002 A 
ATOM     88  C   UNL A   1      45.701  25.663  35.634  1.00  0.00     0.091 A 
ATOM     89  F   UNL A   1      43.435  25.493  34.906  1.00  0.00    -0.205 F 
ATOM     90  C   UNL A   1      46.941  26.315  35.563  1.00  0.00     0.022 A 
BRANCH  88  91
ATOM     91  S   UNL A   1      45.536  24.271  36.758  1.00  0.00     0.127 S 
ATOM     92  O   UNL A   1      44.443  24.708  37.623  1.00  0.00    -0.237 OA
ATOM     93  O   UNL A   1      45.197  23.168  35.859  1.00  0.00    -0.237 OA
ATOM     94  O   UNL A   1      46.841  24.139  37.394  1.00  0.00    -0.744 OA
ENDBRANCH  88  91
ENDBRANCH  61  84
ENDBRANCH  35  36
ENDBRANCH  27  30
ENDBRANCH  25  26
ENDBRANCH   1  25
TORSDOF 15
ENDMDL
MODEL 3
REMARK VINA RESULT:     -12.8      2.106      8.064
REMARK SMILES Cc1cc(C(=O)N2[C@@H](C(=O)NCCCNC(=O)c3ccc(-c4c5nc(c(-c6cccc(S(=O)(=O)[O-])c6F)c6ccc([nH]6)c(-c6cccc(S(=O)(=O)[O-])c6F)c6nc(c(-c7cccc(S(=O)(=O)[O-])c7F)c7ccc4[nH]7)C=C6)C=C5)cc3)C[C@H]3CCCC[C@H]32)c(C)s1
REMARK SMILES IDX 13 1 12 2 11 3 9 4 10 5 8 7 7 8 87 9 81 10 82 11 86 12 83 13
REMARK SMILES IDX 85 14 84 15 5 16 6 17 4 18 1 19 2 20 3 21 90 22 88 23 89 24
REMARK SMILES IDX 14 25 15 26 16 27 17 29 18 30 19 31 80 32 20 33 79 34 21 35
REMARK SMILES IDX 22 36 23 37 73 38 24 39 78 40 72 41 74 42 25 43 77 44 71 45
REMARK SMILES IDX 70 46 26 48 58 49 38 50 57 51 39 52 42 53 56 54 75 55 40 56
REMARK SMILES IDX 41 57 55 59 76 60 43 61 27 62 28 63 36 64 29 65 31 66 37 67
REMARK SMILES IDX 30 68 32 69 33 70 34 71 35 72 59 73 60 74 68 75 61 76 63 77
REMARK SMILES IDX 69 78 62 79 64 80 65 81 66 82 67 83 44 84 45 85 53 86 46 87
REMARK SMILES IDX 48 88 54 89 47 90 49 91 50 92 51 93 52 94
REMARK H PARENT 11 6 15 28 74 47 42 58
REMARK Flexibility Score: inf
ROOT
ATOM      1  C   UNL A   1      32.566  29.168  25.383  1.00  0.00     0.042 C 
ENDROOT
BRANCH   1   2
ATOM      2  C   UNL A   1      33.657  28.105  25.460  1.00  0.00     0.117 C 
BRANCH   2   3
ATOM      3  N   UNL A   1      33.190  26.832  25.980  1.00  0.00    -0.354 N 
ATOM      4  C   UNL A   1      33.523  25.539  25.733  1.00  0.00     0.242 C 
ATOM      5  O   UNL A   1      32.990  24.703  26.478  1.00  0.00    -0.273 OA
ATOM      6  H   UNL A   1      32.480  26.927  26.656  1.00  0.00     0.163 HD
BRANCH   4   7
ATOM      7  C   UNL A   1      34.420  25.030  24.577  1.00  0.00     0.175 C 
ATOM      8  N   UNL A   1      33.909  24.159  23.509  1.00  0.00    -0.323 N 
ATOM      9  C   UNL A   1      34.541  22.841  23.560  1.00  0.00     0.089 C 
ATOM     10  C   UNL A   1      35.587  24.222  25.197  1.00  0.00     0.041 C 
ATOM     11  C   UNL A   1      35.922  23.174  24.129  1.00  0.00     0.014 C 
ATOM     12  C   UNL A   1      33.763  21.858  24.438  1.00  0.00     0.025 C 
ATOM     13  C   UNL A   1      36.708  21.966  24.626  1.00  0.00     0.006 C 
ATOM     14  C   UNL A   1      34.580  20.619  24.777  1.00  0.00     0.002 C 
ATOM     15  C   UNL A   1      35.885  20.999  25.471  1.00  0.00     0.000 C 
BRANCH   8  16
ATOM     16  C   UNL A   1      33.154  24.519  22.403  1.00  0.00     0.255 C 
ATOM     17  O   UNL A   1      33.368  24.042  21.292  1.00  0.00    -0.269 OA
BRANCH  16  18
ATOM     18  C   UNL A   1      32.101  25.521  22.587  1.00  0.00     0.053 A 
ATOM     19  C   UNL A   1      28.691  26.519  23.928  1.00  0.00     0.056 C 
ATOM     20  C   UNL A   1      30.047  26.397  23.326  1.00  0.00     0.003 A 
ATOM     21  C   UNL A   1      30.821  25.266  23.190  1.00  0.00     0.029 A 
ATOM     22  S   UNL A   1      30.859  27.777  22.742  1.00  0.00    -0.145 S 
ATOM     23  C   UNL A   1      32.263  26.878  22.343  1.00  0.00     0.014 A 
ATOM     24  C   UNL A   1      33.461  27.610  21.829  1.00  0.00     0.057 C 
ENDBRANCH  16  18
ENDBRANCH   8  16
ENDBRANCH   4   7
ENDBRANCH   2   3
ENDBRANCH   1   2
BRANCH   1  25
ATOM     25  C   UNL A   1      32.191  29.791  26.719  1.00  0.00     0.118 C 
BRANCH  25  26
ATOM     26  N   UNL A   1      32.301  31.241  26.713  1.00  0.00    -0.352 N 
ATOM     27  C   UNL A   1      33.225  32.087  27.277  1.00  0.00     0.251 C 
ATOM     28  H   UNL A   1      31.585  31.699  26.216  1.00  0.00     0.163 HD
ATOM     29  O   UNL A   1      32.969  33.291  27.299  1.00  0.00    -0.269 OA
BRANCH  27  30
ATOM     30  C   UNL A   1      34.505  31.603  27.855  1.00  0.00     0.039 A 
ATOM     31  C   UNL A   1      34.614  30.246  28.190  1.00  0.00     0.014 A 
ATOM     32  C   UNL A   1      35.558  32.463  28.168  1.00  0.00     0.014 A 
ATOM     33  C   UNL A   1      35.772  29.760  28.810  1.00  0.00     0.010 A 
ATOM     34  C   UNL A   1      36.750  31.962  28.695  1.00  0.00     0.010 A 
ATOM     35  C   UNL A   1      36.858  30.613  29.060  1.00  0.00    -0.014 A 
BRANCH  35  36
ATOM     36  C   UNL A   1      38.074  30.138  29.773  1.00  0.00     0.031 A 
ATOM     37  C   UNL A   1      38.342  30.593  31.188  1.00  0.00     0.074 A 
ATOM     38  C   UNL A   1      38.972  29.355  29.142  1.00  0.00     0.049 A 
ATOM     39  N   UNL A   1      39.377  30.352  31.952  1.00  0.00    -0.248 NA
ATOM     40  C   UNL A   1      37.331  31.461  31.814  1.00  0.00     0.031 C 
ATOM     41  C   UNL A   1      38.878  28.906  27.752  1.00  0.00     0.029 A 
ATOM     42  N   UNL A   1      40.151  28.810  29.587  1.00  0.00    -0.354 N 
ATOM     43  C   UNL A   1      39.169  31.083  33.117  1.00  0.00     0.074 A 
ATOM     44  C   UNL A   1      37.925  31.799  32.950  1.00  0.00     0.031 C 
ATOM     45  C   UNL A   1      39.943  28.140  27.463  1.00  0.00     0.029 A 
ATOM     46  C   UNL A   1      40.803  28.054  28.641  1.00  0.00     0.049 A 
ATOM     47  H   UNL A   1      40.498  28.948  30.498  1.00  0.00     0.167 HD
ATOM     48  C   UNL A   1      39.918  31.124  34.244  1.00  0.00     0.034 A 
ATOM     49  C   UNL A   1      41.954  27.356  28.720  1.00  0.00     0.034 A 
ATOM     50  C   UNL A   1      41.096  30.330  34.458  1.00  0.00     0.049 A 
ATOM     51  C   UNL A   1      42.705  27.323  30.024  1.00  0.00     0.074 A 
ATOM     52  C   UNL A   1      41.874  30.230  35.598  1.00  0.00     0.029 A 
ATOM     53  N   UNL A   1      41.650  29.476  33.517  1.00  0.00    -0.354 N 
ATOM     54  N   UNL A   1      42.414  27.914  31.158  1.00  0.00    -0.248 NA
ATOM     55  C   UNL A   1      43.918  26.493  30.072  1.00  0.00     0.031 C 
ATOM     56  C   UNL A   1      42.889  29.298  35.352  1.00  0.00     0.029 A 
ATOM     57  C   UNL A   1      42.748  28.829  34.056  1.00  0.00     0.049 A 
ATOM     58  H   UNL A   1      41.312  29.348  32.601  1.00  0.00     0.167 HD
ATOM     59  C   UNL A   1      43.392  27.507  32.060  1.00  0.00     0.074 A 
ATOM     60  C   UNL A   1      44.267  26.599  31.348  1.00  0.00     0.031 C 
ATOM     61  C   UNL A   1      43.564  27.873  33.354  1.00  0.00     0.034 A 
BRANCH  48  62
ATOM     62  C   UNL A   1      39.426  31.990  35.373  1.00  0.00     0.023 A 
ATOM     63  C   UNL A   1      38.477  31.466  36.274  1.00  0.00     0.012 A 
ATOM     64  C   UNL A   1      39.916  33.296  35.566  1.00  0.00     0.148 A 
ATOM     65  C   UNL A   1      37.998  32.237  37.331  1.00  0.00     0.002 A 
ATOM     66  C   UNL A   1      39.458  34.048  36.644  1.00  0.00     0.091 A 
ATOM     67  F   UNL A   1      40.797  33.789  34.685  1.00  0.00    -0.205 F 
ATOM     68  C   UNL A   1      38.495  33.524  37.522  1.00  0.00     0.022 A 
BRANCH  66  69
ATOM     69  S   UNL A   1      40.090  35.692  37.003  1.00  0.00     0.127 S 
ATOM     70  O   UNL A   1      39.609  36.451  35.850  1.00  0.00    -0.237 OA
ATOM     71  O   UNL A   1      39.425  36.016  38.266  1.00  0.00    -0.237 OA
ATOM     72  O   UNL A   1      41.534  35.543  37.106  1.00  0.00    -0.744 OA
ENDBRANCH  66  69
ENDBRANCH  48  62
BRANCH  49  73
ATOM     73  C   UNL A   1      42.401  26.534  27.562  1.00  0.00     0.023 A 
ATOM     74  C   UNL A   1      43.243  27.120  26.597  1.00  0.00     0.012 A 
ATOM     75  C   UNL A   1      42.041  25.180  27.425  1.00  0.00     0.148 A 
ATOM     76  C   UNL A   1      43.698  26.383  25.504  1.00  0.00     0.002 A 
ATOM     77  C   UNL A   1      42.535  24.438  26.356  1.00  0.00     0.091 A 
ATOM     78  F   UNL A   1      41.222  24.640  28.338  1.00  0.00    -0.205 F 
ATOM     79  C   UNL A   1      43.353  25.039  25.389  1.00  0.00     0.022 A 
BRANCH  77  80
ATOM     80  S   UNL A   1      42.226  22.671  26.224  1.00  0.00     0.127 S 
ATOM     81  O   UNL A   1      42.971  22.148  27.363  1.00  0.00    -0.237 OA
ATOM     82  O   UNL A   1      40.770  22.594  26.353  1.00  0.00    -0.237 OA
ATOM     83  O   UNL A   1      42.722  22.308  24.903  1.00  0.00    -0.744 OA
ENDBRANCH  77  80
ENDBRANCH  49  73
BRANCH  61  84
ATOM     84  C   UNL A   1      44.732  27.284  34.094  1.00  0.00     0.023 A 
ATOM     85  C   UNL A   1      45.966  27.964  34.083  1.00  0.00     0.012 A 
ATOM     86  C   UNL A   1      44.594  26.112  34.860  1.00  0.00     0.148 A 
ATOM     87  C   UNL A   1      47.050  27.475  34.809  1.00  0.00     0.002 A 
ATOM     88  C   UNL A   1      45.671  25.648  35.608  1.00  0.00     0.091 A 
ATOM     89  F   UNL A   1      43.421  25.462  34.839  1.00  0.00    -0.205 F 
ATOM     90  C   UNL A   1      46.901  26.324  35.579  1.00  0.00     0.022 A 
BRANCH  88  91
ATOM     91  S   UNL A   1      45.515  24.217  36.684  1.00  0.00     0.127 S 
ATOM     92  O   UNL A   1      44.912  23.231  35.790  1.00  0.00    -0.237 OA
ATOM     93  O   UNL A   1      46.903  23.936  37.052  1.00  0.00    -0.237 OA
ATOM     94  O   UNL A   1      44.685  24.664  37.795  1.00  0.00    -0.744 OA
ENDBRANCH  88  91
ENDBRANCH  61  84
ENDBRANCH  35  36
ENDBRANCH  27  30
ENDBRANCH  25  26
ENDBRANCH   1  25
TORSDOF 15
ENDMDL
