MODEL 1
REMARK VINA RESULT:     -11.9      0.000      0.000
REMARK SMILES Cc1nc(CCc2ccc(S(=O)(=O)N3CCCC3)cc2)ncc1C(=O)NCCCNC(=O)c1ccc(-c2c3nc(c(-c4cccc(S(=O)(=O)[O-])c4F)c4ccc([nH]4)c(-c4cccc(S(=O)(=O)[O-])c4F)c4nc(c(-c5cccc(S(=O)(=O)[O-])c5F)c5ccc2[nH]5)C=C4)C=C3)cc1
REMARK SMILES IDX 27 1 26 2 24 3 25 4 23 6 1 7 2 8 3 9 4 10 22 11 21 12 5 13
REMARK SMILES IDX 6 14 7 15 8 16 20 17 9 18 19 19 10 20 11 21 12 22 13 23
REMARK SMILES IDX 14 24 15 25 18 26 16 27 17 28 28 29 29 30 30 31 31 32 32 34
REMARK SMILES IDX 33 35 34 36 95 37 35 38 94 39 36 40 37 41 38 42 88 43 39 44
REMARK SMILES IDX 93 45 87 46 89 47 40 48 92 49 86 50 85 51 41 53 73 54 53 55
REMARK SMILES IDX 72 56 54 57 57 58 71 59 90 60 55 61 56 62 70 64 91 65 58 66
REMARK SMILES IDX 42 67 43 68 51 69 44 70 46 71 52 72 45 73 47 74 48 75 49 76
REMARK SMILES IDX 50 77 74 78 75 79 83 80 76 81 78 82 84 83 77 84 79 85 80 86
REMARK SMILES IDX 81 87 82 88 59 89 60 90 68 91 61 92 63 93 69 94 62 95 64 96
REMARK SMILES IDX 65 97 66 98 67 99
REMARK H PARENT 26 5 30 33 89 52 57 63
REMARK Flexibility Score: inf
ROOT
ATOM      1  C   UNL A   1      38.194  21.702  25.720  1.00  0.00     0.118 C 
ENDROOT
BRANCH   1   2
ATOM      2  N   UNL A   1      37.745  22.137  24.417  1.00  0.00    -0.352 N 
ATOM      3  C   UNL A   1      36.506  22.566  23.999  1.00  0.00     0.254 C 
ATOM      4  O   UNL A   1      36.393  22.912  22.822  1.00  0.00    -0.269 OA
ATOM      5  H   UNL A   1      38.436  22.125  23.715  1.00  0.00     0.163 HD
BRANCH   3   6
ATOM      6  C   UNL A   1      35.282  22.557  24.837  1.00  0.00     0.079 A 
ATOM      7  C   UNL A   1      34.536  20.092  24.751  1.00  0.00     0.068 C 
ATOM      8  C   UNL A   1      34.447  21.512  25.198  1.00  0.00     0.054 A 
ATOM      9  N   UNL A   1      33.360  21.704  25.987  1.00  0.00    -0.237 NA
ATOM     10  C   UNL A   1      33.077  22.942  26.414  1.00  0.00     0.128 A 
ATOM     11  C   UNL A   1      34.956  23.774  25.425  1.00  0.00     0.129 A 
ATOM     12  N   UNL A   1      33.859  24.005  26.188  1.00  0.00    -0.241 NA
BRANCH  10  13
ATOM     13  C   UNL A   1      31.733  23.140  27.055  1.00  0.00     0.082 C 
BRANCH  13  14
ATOM     14  C   UNL A   1      30.656  23.504  26.022  1.00  0.00     0.043 C 
BRANCH  14  15
ATOM     15  C   UNL A   1      30.761  24.899  25.434  1.00  0.00    -0.047 A 
ATOM     16  C   UNL A   1      30.943  26.011  26.263  1.00  0.00     0.005 A 
ATOM     17  C   UNL A   1      30.679  25.102  24.044  1.00  0.00     0.005 A 
ATOM     18  C   UNL A   1      31.036  27.295  25.717  1.00  0.00     0.022 A 
ATOM     19  C   UNL A   1      30.769  26.388  23.492  1.00  0.00     0.022 A 
ATOM     20  C   UNL A   1      30.944  27.487  24.331  1.00  0.00     0.082 A 
BRANCH  20  21
ATOM     21  S   UNL A   1      31.026  29.162  23.714  1.00  0.00     0.243 S 
ATOM     22  O   UNL A   1      31.692  29.935  24.756  1.00  0.00    -0.207 OA
ATOM     23  O   UNL A   1      31.545  29.105  22.376  1.00  0.00    -0.207 OA
BRANCH  21  24
ATOM     24  N   UNL A   1      29.459  29.741  23.659  1.00  0.00    -0.198 NA
ATOM     25  C   UNL A   1      28.413  29.076  22.880  1.00  0.00     0.102 C 
ATOM     26  C   UNL A   1      29.149  31.165  23.867  1.00  0.00     0.102 C 
ATOM     27  C   UNL A   1      27.628  30.238  22.289  1.00  0.00     0.018 C 
ATOM     28  C   UNL A   1      27.712  31.298  23.371  1.00  0.00     0.018 C 
ENDBRANCH  21  24
ENDBRANCH  20  21
ENDBRANCH  14  15
ENDBRANCH  13  14
ENDBRANCH  10  13
ENDBRANCH   3   6
ENDBRANCH   1   2
BRANCH   1  29
ATOM     29  C   UNL A   1      39.654  21.305  25.821  1.00  0.00     0.042 C 
BRANCH  29  30
ATOM     30  C   UNL A   1      39.976  19.994  26.530  1.00  0.00     0.118 C 
BRANCH  30  31
ATOM     31  N   UNL A   1      41.088  19.229  25.971  1.00  0.00    -0.352 N 
ATOM     32  C   UNL A   1      42.407  19.553  25.732  1.00  0.00     0.251 C 
ATOM     33  H   UNL A   1      40.851  18.309  25.717  1.00  0.00     0.163 HD
ATOM     34  O   UNL A   1      43.126  18.706  25.203  1.00  0.00    -0.269 OA
BRANCH  32  35
ATOM     35  C   UNL A   1      42.961  20.894  26.041  1.00  0.00     0.039 A 
ATOM     36  C   UNL A   1      43.258  21.765  24.984  1.00  0.00     0.014 A 
ATOM     37  C   UNL A   1      43.191  21.313  27.349  1.00  0.00     0.014 A 
ATOM     38  C   UNL A   1      43.684  23.073  25.246  1.00  0.00     0.010 A 
ATOM     39  C   UNL A   1      43.491  22.646  27.612  1.00  0.00     0.010 A 
ATOM     40  C   UNL A   1      43.752  23.542  26.567  1.00  0.00    -0.014 A 
BRANCH  40  41
ATOM     41  C   UNL A   1      44.096  24.953  26.892  1.00  0.00     0.031 A 
ATOM     42  C   UNL A   1      45.529  25.418  26.804  1.00  0.00     0.074 A 
ATOM     43  C   UNL A   1      43.149  25.782  27.372  1.00  0.00     0.049 A 
ATOM     44  N   UNL A   1      46.047  26.565  27.159  1.00  0.00    -0.248 NA
ATOM     45  C   UNL A   1      46.515  24.453  26.287  1.00  0.00     0.031 C 
ATOM     46  C   UNL A   1      41.742  25.434  27.582  1.00  0.00     0.029 A 
ATOM     47  N   UNL A   1      43.233  27.084  27.803  1.00  0.00    -0.354 N 
ATOM     48  C   UNL A   1      47.417  26.443  26.952  1.00  0.00     0.074 A 
ATOM     49  C   UNL A   1      47.655  25.097  26.483  1.00  0.00     0.031 C 
ATOM     50  C   UNL A   1      41.095  26.495  28.092  1.00  0.00     0.029 A 
ATOM     51  C   UNL A   1      42.044  27.586  28.281  1.00  0.00     0.049 A 
ATOM     52  H   UNL A   1      44.065  27.609  27.773  1.00  0.00     0.167 HD
ATOM     53  C   UNL A   1      48.387  27.375  27.105  1.00  0.00     0.034 A 
ATOM     54  C   UNL A   1      41.753  28.785  28.824  1.00  0.00     0.034 A 
ATOM     55  C   UNL A   1      48.142  28.730  27.518  1.00  0.00     0.049 A 
ATOM     56  C   UNL A   1      42.842  29.816  28.944  1.00  0.00     0.074 A 
ATOM     57  C   UNL A   1      49.043  29.775  27.615  1.00  0.00     0.029 A 
ATOM     58  N   UNL A   1      46.908  29.226  27.906  1.00  0.00    -0.354 N 
ATOM     59  N   UNL A   1      44.105  29.727  28.605  1.00  0.00    -0.248 NA
ATOM     60  C   UNL A   1      42.459  31.126  29.491  1.00  0.00     0.031 C 
ATOM     61  C   UNL A   1      48.357  30.899  28.088  1.00  0.00     0.029 A 
ATOM     62  C   UNL A   1      47.023  30.561  28.252  1.00  0.00     0.049 A 
ATOM     63  H   UNL A   1      46.072  28.706  27.932  1.00  0.00     0.167 HD
ATOM     64  C   UNL A   1      44.657  30.978  28.859  1.00  0.00     0.074 A 
ATOM     65  C   UNL A   1      43.586  31.813  29.363  1.00  0.00     0.031 C 
ATOM     66  C   UNL A   1      45.938  31.395  28.700  1.00  0.00     0.034 A 
BRANCH  53  67
ATOM     67  C   UNL A   1      49.802  26.976  26.770  1.00  0.00     0.023 A 
ATOM     68  C   UNL A   1      50.582  26.297  27.729  1.00  0.00     0.012 A 
ATOM     69  C   UNL A   1      50.342  27.219  25.491  1.00  0.00     0.148 A 
ATOM     70  C   UNL A   1      51.888  25.904  27.438  1.00  0.00     0.002 A 
ATOM     71  C   UNL A   1      51.627  26.782  25.191  1.00  0.00     0.091 A 
ATOM     72  F   UNL A   1      49.594  27.883  24.598  1.00  0.00    -0.205 F 
ATOM     73  C   UNL A   1      52.405  26.137  26.167  1.00  0.00     0.022 A 
BRANCH  71  74
ATOM     74  S   UNL A   1      52.356  26.958  23.560  1.00  0.00     0.127 S 
ATOM     75  O   UNL A   1      53.052  28.238  23.686  1.00  0.00    -0.237 OA
ATOM     76  O   UNL A   1      53.235  25.791  23.489  1.00  0.00    -0.237 OA
ATOM     77  O   UNL A   1      51.245  26.942  22.618  1.00  0.00    -0.744 OA
ENDBRANCH  71  74
ENDBRANCH  53  67
BRANCH  54  78
ATOM     78  C   UNL A   1      40.357  29.101  29.236  1.00  0.00     0.023 A 
ATOM     79  C   UNL A   1      39.434  29.546  28.268  1.00  0.00     0.012 A 
ATOM     80  C   UNL A   1      39.933  28.951  30.571  1.00  0.00     0.148 A 
ATOM     81  C   UNL A   1      38.125  29.866  28.628  1.00  0.00     0.002 A 
ATOM     82  C   UNL A   1      38.614  29.223  30.912  1.00  0.00     0.091 A 
ATOM     83  F   UNL A   1      40.830  28.537  31.478  1.00  0.00    -0.205 F 
ATOM     84  C   UNL A   1      37.712  29.696  29.946  1.00  0.00     0.022 A 
BRANCH  82  85
ATOM     85  S   UNL A   1      37.968  28.925  32.562  1.00  0.00     0.127 S 
ATOM     86  O   UNL A   1      38.812  29.798  33.374  1.00  0.00    -0.237 OA
ATOM     87  O   UNL A   1      36.580  29.364  32.426  1.00  0.00    -0.237 OA
ATOM     88  O   UNL A   1      38.129  27.496  32.792  1.00  0.00    -0.744 OA
ENDBRANCH  82  85
ENDBRANCH  54  78
BRANCH  66  89
ATOM     89  C   UNL A   1      46.253  32.831  29.028  1.00  0.00     0.023 A 
ATOM     90  C   UNL A   1      46.846  33.158  30.264  1.00  0.00     0.012 A 
ATOM     91  C   UNL A   1      46.029  33.845  28.077  1.00  0.00     0.148 A 
ATOM     92  C   UNL A   1      47.181  34.479  30.560  1.00  0.00     0.002 A 
ATOM     93  C   UNL A   1      46.414  35.150  28.359  1.00  0.00     0.091 A 
ATOM     94  F   UNL A   1      45.448  33.515  26.915  1.00  0.00    -0.205 F 
ATOM     95  C   UNL A   1      46.977  35.472  29.604  1.00  0.00     0.022 A 
BRANCH  93  96
ATOM     96  S   UNL A   1      46.282  36.474  27.151  1.00  0.00     0.127 S 
ATOM     97  O   UNL A   1      46.685  37.637  27.939  1.00  0.00    -0.237 OA
ATOM     98  O   UNL A   1      47.249  36.061  26.134  1.00  0.00    -0.237 OA
ATOM     99  O   UNL A   1      44.897  36.473  26.702  1.00  0.00    -0.744 OA
ENDBRANCH  93  96
ENDBRANCH  66  89
ENDBRANCH  40  41
ENDBRANCH  32  35
ENDBRANCH  30  31
ENDBRANCH  29  30
ENDBRANCH   1  29
TORSDOF 18
ENDMDL
MODEL 2
REMARK VINA RESULT:     -11.9      2.108      2.447
REMARK SMILES Cc1nc(CCc2ccc(S(=O)(=O)N3CCCC3)cc2)ncc1C(=O)NCCCNC(=O)c1ccc(-c2c3nc(c(-c4cccc(S(=O)(=O)[O-])c4F)c4ccc([nH]4)c(-c4cccc(S(=O)(=O)[O-])c4F)c4nc(c(-c5cccc(S(=O)(=O)[O-])c5F)c5ccc2[nH]5)C=C4)C=C3)cc1
REMARK SMILES IDX 27 1 26 2 24 3 25 4 23 6 1 7 2 8 3 9 4 10 22 11 21 12 5 13
REMARK SMILES IDX 6 14 7 15 8 16 20 17 9 18 19 19 10 20 11 21 12 22 13 23
REMARK SMILES IDX 14 24 15 25 18 26 16 27 17 28 28 29 29 30 30 31 31 32 32 34
REMARK SMILES IDX 33 35 34 36 95 37 35 38 94 39 36 40 37 41 38 42 88 43 39 44
REMARK SMILES IDX 93 45 87 46 89 47 40 48 92 49 86 50 85 51 41 53 73 54 53 55
REMARK SMILES IDX 72 56 54 57 57 58 71 59 90 60 55 61 56 62 70 64 91 65 58 66
REMARK SMILES IDX 42 67 43 68 51 69 44 70 46 71 52 72 45 73 47 74 48 75 49 76
REMARK SMILES IDX 50 77 74 78 75 79 83 80 76 81 78 82 84 83 77 84 79 85 80 86
REMARK SMILES IDX 81 87 82 88 59 89 60 90 68 91 61 92 63 93 69 94 62 95 64 96
REMARK SMILES IDX 65 97 66 98 67 99
REMARK H PARENT 26 5 30 33 89 52 57 63
REMARK Flexibility Score: inf
ROOT
ATOM      1  C   UNL A   1      37.110  20.941  24.526  1.00  0.00     0.118 C 
ENDROOT
BRANCH   1   2
ATOM      2  N   UNL A   1      37.276  22.299  24.993  1.00  0.00    -0.352 N 
ATOM      3  C   UNL A   1      36.344  23.210  25.434  1.00  0.00     0.254 C 
ATOM      4  O   UNL A   1      36.757  24.309  25.807  1.00  0.00    -0.269 OA
ATOM      5  H   UNL A   1      38.206  22.624  24.997  1.00  0.00     0.163 HD
BRANCH   3   6
ATOM      6  C   UNL A   1      34.876  22.998  25.405  1.00  0.00     0.079 A 
ATOM      7  C   UNL A   1      34.310  23.172  22.898  1.00  0.00     0.068 C 
ATOM      8  C   UNL A   1      33.995  22.944  24.338  1.00  0.00     0.054 A 
ATOM      9  N   UNL A   1      32.666  22.733  24.515  1.00  0.00    -0.237 NA
ATOM     10  C   UNL A   1      32.191  22.591  25.760  1.00  0.00     0.128 A 
ATOM     11  C   UNL A   1      34.291  22.729  26.638  1.00  0.00     0.129 A 
ATOM     12  N   UNL A   1      32.964  22.550  26.852  1.00  0.00    -0.241 NA
BRANCH  10  13
ATOM     13  C   UNL A   1      30.697  22.627  25.916  1.00  0.00     0.082 C 
BRANCH  13  14
ATOM     14  C   UNL A   1      30.234  23.873  26.686  1.00  0.00     0.043 C 
BRANCH  14  15
ATOM     15  C   UNL A   1      30.425  25.195  25.965  1.00  0.00    -0.047 A 
ATOM     16  C   UNL A   1      31.352  26.134  26.430  1.00  0.00     0.005 A 
ATOM     17  C   UNL A   1      29.675  25.502  24.815  1.00  0.00     0.005 A 
ATOM     18  C   UNL A   1      31.523  27.351  25.765  1.00  0.00     0.022 A 
ATOM     19  C   UNL A   1      29.841  26.723  24.145  1.00  0.00     0.022 A 
ATOM     20  C   UNL A   1      30.764  27.651  24.624  1.00  0.00     0.082 A 
BRANCH  20  21
ATOM     21  S   UNL A   1      31.007  29.247  23.857  1.00  0.00     0.243 S 
ATOM     22  O   UNL A   1      31.521  30.117  24.909  1.00  0.00    -0.207 OA
ATOM     23  O   UNL A   1      31.736  29.034  22.638  1.00  0.00    -0.207 OA
BRANCH  21  24
ATOM     24  N   UNL A   1      29.492  29.844  23.481  1.00  0.00    -0.198 NA
ATOM     25  C   UNL A   1      28.748  29.387  22.307  1.00  0.00     0.102 C 
ATOM     26  C   UNL A   1      29.063  31.189  23.898  1.00  0.00     0.102 C 
ATOM     27  C   UNL A   1      28.103  30.662  21.785  1.00  0.00     0.018 C 
ATOM     28  C   UNL A   1      27.821  31.451  23.049  1.00  0.00     0.018 C 
ENDBRANCH  21  24
ENDBRANCH  20  21
ENDBRANCH  14  15
ENDBRANCH  13  14
ENDBRANCH  10  13
ENDBRANCH   3   6
ENDBRANCH   1   2
BRANCH   1  29
ATOM     29  C   UNL A   1      38.149  19.944  24.999  1.00  0.00     0.042 C 
BRANCH  29  30
ATOM     30  C   UNL A   1      39.212  20.446  25.971  1.00  0.00     0.118 C 
BRANCH  30  31
ATOM     31  N   UNL A   1      40.392  19.597  26.111  1.00  0.00    -0.352 N 
ATOM     32  C   UNL A   1      41.705  19.880  26.421  1.00  0.00     0.251 C 
ATOM     33  H   UNL A   1      40.217  18.641  25.954  1.00  0.00     0.163 HD
ATOM     34  O   UNL A   1      42.513  18.952  26.430  1.00  0.00    -0.269 OA
BRANCH  32  35
ATOM     35  C   UNL A   1      42.175  21.263  26.688  1.00  0.00     0.039 A 
ATOM     36  C   UNL A   1      42.280  22.161  25.618  1.00  0.00     0.014 A 
ATOM     37  C   UNL A   1      42.510  21.693  27.969  1.00  0.00     0.014 A 
ATOM     38  C   UNL A   1      42.620  23.499  25.852  1.00  0.00     0.010 A 
ATOM     39  C   UNL A   1      42.724  23.044  28.218  1.00  0.00     0.010 A 
ATOM     40  C   UNL A   1      42.792  23.966  27.164  1.00  0.00    -0.014 A 
BRANCH  40  41
ATOM     41  C   UNL A   1      43.050  25.398  27.470  1.00  0.00     0.031 A 
ATOM     42  C   UNL A   1      44.450  25.952  27.366  1.00  0.00     0.074 A 
ATOM     43  C   UNL A   1      42.055  26.173  27.947  1.00  0.00     0.049 A 
ATOM     44  N   UNL A   1      44.897  27.132  27.704  1.00  0.00    -0.248 NA
ATOM     45  C   UNL A   1      45.491  25.044  26.853  1.00  0.00     0.031 C 
ATOM     46  C   UNL A   1      40.674  25.740  28.172  1.00  0.00     0.029 A 
ATOM     47  N   UNL A   1      42.060  27.482  28.363  1.00  0.00    -0.354 N 
ATOM     48  C   UNL A   1      46.271  27.094  27.489  1.00  0.00     0.074 A 
ATOM     49  C   UNL A   1      46.590  25.760  27.034  1.00  0.00     0.031 C 
ATOM     50  C   UNL A   1      39.965  26.765  28.674  1.00  0.00     0.029 A 
ATOM     51  C   UNL A   1      40.846  27.914  28.844  1.00  0.00     0.049 A 
ATOM     52  H   UNL A   1      42.858  28.058  28.320  1.00  0.00     0.167 HD
ATOM     53  C   UNL A   1      47.182  28.087  27.624  1.00  0.00     0.034 A 
ATOM     54  C   UNL A   1      40.484  29.100  29.375  1.00  0.00     0.034 A 
ATOM     55  C   UNL A   1      46.855  29.428  28.023  1.00  0.00     0.049 A 
ATOM     56  C   UNL A   1      41.507  30.198  29.476  1.00  0.00     0.074 A 
ATOM     57  C   UNL A   1      47.689  30.529  28.102  1.00  0.00     0.029 A 
ATOM     58  N   UNL A   1      45.595  29.851  28.415  1.00  0.00    -0.354 N 
ATOM     59  N   UNL A   1      42.771  30.184  29.128  1.00  0.00    -0.248 NA
ATOM     60  C   UNL A   1      41.046  31.488  30.010  1.00  0.00     0.031 C 
ATOM     61  C   UNL A   1      46.937  31.613  28.566  1.00  0.00     0.029 A 
ATOM     62  C   UNL A   1      45.628  31.195  28.744  1.00  0.00     0.049 A 
ATOM     63  H   UNL A   1      44.794  29.280  28.453  1.00  0.00     0.167 HD
ATOM     64  C   UNL A   1      43.245  31.470  29.364  1.00  0.00     0.074 A 
ATOM     65  C   UNL A   1      42.127  32.242  29.866  1.00  0.00     0.031 C 
ATOM     66  C   UNL A   1      44.496  31.964  29.191  1.00  0.00     0.034 A 
BRANCH  53  67
ATOM     67  C   UNL A   1      48.617  27.773  27.283  1.00  0.00     0.023 A 
ATOM     68  C   UNL A   1      49.065  27.917  25.953  1.00  0.00     0.012 A 
ATOM     69  C   UNL A   1      49.534  27.392  28.282  1.00  0.00     0.148 A 
ATOM     70  C   UNL A   1      50.390  27.647  25.615  1.00  0.00     0.002 A 
ATOM     71  C   UNL A   1      50.865  27.172  27.946  1.00  0.00     0.091 A 
ATOM     72  F   UNL A   1      49.087  27.240  29.536  1.00  0.00    -0.205 F 
ATOM     73  C   UNL A   1      51.292  27.286  26.612  1.00  0.00     0.022 A 
BRANCH  71  74
ATOM     74  S   UNL A   1      52.123  26.784  29.168  1.00  0.00     0.127 S 
ATOM     75  O   UNL A   1      52.346  28.090  29.786  1.00  0.00    -0.237 OA
ATOM     76  O   UNL A   1      51.433  25.816  30.021  1.00  0.00    -0.237 OA
ATOM     77  O   UNL A   1      53.253  26.244  28.425  1.00  0.00    -0.744 OA
ENDBRANCH  71  74
ENDBRANCH  53  67
BRANCH  54  78
ATOM     78  C   UNL A   1      39.073  29.332  29.793  1.00  0.00     0.023 A 
ATOM     79  C   UNL A   1      38.684  29.026  31.112  1.00  0.00     0.012 A 
ATOM     80  C   UNL A   1      38.121  29.866  28.903  1.00  0.00     0.148 A 
ATOM     81  C   UNL A   1      37.366  29.216  31.527  1.00  0.00     0.002 A 
ATOM     82  C   UNL A   1      36.822  30.100  29.338  1.00  0.00     0.091 A 
ATOM     83  F   UNL A   1      38.509  30.140  27.649  1.00  0.00    -0.205 F 
ATOM     84  C   UNL A   1      36.438  29.762  30.645  1.00  0.00     0.022 A 
BRANCH  82  85
ATOM     85  S   UNL A   1      35.593  30.903  28.302  1.00  0.00     0.127 S 
ATOM     86  O   UNL A   1      34.581  31.286  29.284  1.00  0.00    -0.237 OA
ATOM     87  O   UNL A   1      36.355  32.016  27.738  1.00  0.00    -0.237 OA
ATOM     88  O   UNL A   1      35.184  29.898  27.331  1.00  0.00    -0.744 OA
ENDBRANCH  82  85
ENDBRANCH  54  78
BRANCH  66  89
ATOM     89  C   UNL A   1      44.723  33.421  29.500  1.00  0.00     0.023 A 
ATOM     90  C   UNL A   1      45.194  33.807  30.770  1.00  0.00     0.012 A 
ATOM     91  C   UNL A   1      44.539  34.399  28.503  1.00  0.00     0.148 A 
ATOM     92  C   UNL A   1      45.448  35.149  31.053  1.00  0.00     0.002 A 
ATOM     93  C   UNL A   1      44.845  35.726  28.775  1.00  0.00     0.091 A 
ATOM     94  F   UNL A   1      44.074  34.012  27.306  1.00  0.00    -0.205 F 
ATOM     95  C   UNL A   1      45.286  36.105  30.053  1.00  0.00     0.022 A 
BRANCH  93  96
ATOM     96  S   UNL A   1      44.763  37.010  27.521  1.00  0.00     0.127 S 
ATOM     97  O   UNL A   1      45.029  38.213  28.308  1.00  0.00    -0.237 OA
ATOM     98  O   UNL A   1      45.843  36.623  26.613  1.00  0.00    -0.237 OA
ATOM     99  O   UNL A   1      43.429  36.924  26.943  1.00  0.00    -0.744 OA
ENDBRANCH  93  96
ENDBRANCH  66  89
ENDBRANCH  40  41
ENDBRANCH  32  35
ENDBRANCH  30  31
ENDBRANCH  29  30
ENDBRANCH   1  29
TORSDOF 18
ENDMDL
MODEL 3
REMARK VINA RESULT:     -11.8      1.671      7.453
REMARK SMILES Cc1nc(CCc2ccc(S(=O)(=O)N3CCCC3)cc2)ncc1C(=O)NCCCNC(=O)c1ccc(-c2c3nc(c(-c4cccc(S(=O)(=O)[O-])c4F)c4ccc([nH]4)c(-c4cccc(S(=O)(=O)[O-])c4F)c4nc(c(-c5cccc(S(=O)(=O)[O-])c5F)c5ccc2[nH]5)C=C4)C=C3)cc1
REMARK SMILES IDX 27 1 26 2 24 3 25 4 23 6 1 7 2 8 3 9 4 10 22 11 21 12 5 13
REMARK SMILES IDX 6 14 7 15 8 16 20 17 9 18 19 19 10 20 11 21 12 22 13 23
REMARK SMILES IDX 14 24 15 25 18 26 16 27 17 28 28 29 29 30 30 31 31 32 32 34
REMARK SMILES IDX 33 35 34 36 95 37 35 38 94 39 36 40 37 41 38 42 88 43 39 44
REMARK SMILES IDX 93 45 87 46 89 47 40 48 92 49 86 50 85 51 41 53 73 54 53 55
REMARK SMILES IDX 72 56 54 57 57 58 71 59 90 60 55 61 56 62 70 64 91 65 58 66
REMARK SMILES IDX 42 67 43 68 51 69 44 70 46 71 52 72 45 73 47 74 48 75 49 76
REMARK SMILES IDX 50 77 74 78 75 79 83 80 76 81 78 82 84 83 77 84 79 85 80 86
REMARK SMILES IDX 81 87 82 88 59 89 60 90 68 91 61 92 63 93 69 94 62 95 64 96
REMARK SMILES IDX 65 97 66 98 67 99
REMARK H PARENT 26 5 30 33 89 52 57 63
REMARK Flexibility Score: inf
ROOT
ATOM      1  C   UNL A   1      36.875  20.956  24.470  1.00  0.00     0.118 C 
ENDROOT
BRANCH   1   2
ATOM      2  N   UNL A   1      37.092  22.257  25.061  1.00  0.00    -0.352 N 
ATOM      3  C   UNL A   1      36.195  23.158  25.586  1.00  0.00     0.254 C 
ATOM      4  O   UNL A   1      36.651  24.201  26.059  1.00  0.00    -0.269 OA
ATOM      5  H   UNL A   1      38.034  22.543  25.093  1.00  0.00     0.163 HD
BRANCH   3   6
ATOM      6  C   UNL A   1      34.721  23.007  25.540  1.00  0.00     0.079 A 
ATOM      7  C   UNL A   1      34.177  23.350  23.045  1.00  0.00     0.068 C 
ATOM      8  C   UNL A   1      33.844  23.051  24.468  1.00  0.00     0.054 A 
ATOM      9  N   UNL A   1      32.507  22.884  24.628  1.00  0.00    -0.237 NA
ATOM     10  C   UNL A   1      32.020  22.689  25.861  1.00  0.00     0.128 A 
ATOM     11  C   UNL A   1      34.119  22.690  26.753  1.00  0.00     0.129 A 
ATOM     12  N   UNL A   1      32.784  22.553  26.951  1.00  0.00    -0.241 NA
BRANCH  10  13
ATOM     13  C   UNL A   1      30.528  22.775  26.013  1.00  0.00     0.082 C 
BRANCH  13  14
ATOM     14  C   UNL A   1      30.104  24.046  26.765  1.00  0.00     0.043 C 
BRANCH  14  15
ATOM     15  C   UNL A   1      30.352  25.352  26.033  1.00  0.00    -0.047 A 
ATOM     16  C   UNL A   1      31.293  26.270  26.510  1.00  0.00     0.005 A 
ATOM     17  C   UNL A   1      29.642  25.664  24.859  1.00  0.00     0.005 A 
ATOM     18  C   UNL A   1      31.516  27.473  25.834  1.00  0.00     0.022 A 
ATOM     19  C   UNL A   1      29.860  26.871  24.179  1.00  0.00     0.022 A 
ATOM     20  C   UNL A   1      30.797  27.779  24.670  1.00  0.00     0.082 A 
BRANCH  20  21
ATOM     21  S   UNL A   1      31.106  29.356  23.889  1.00  0.00     0.243 S 
ATOM     22  O   UNL A   1      31.511  30.256  24.963  1.00  0.00    -0.207 OA
ATOM     23  O   UNL A   1      31.951  29.117  22.752  1.00  0.00    -0.207 OA
BRANCH  21  24
ATOM     24  N   UNL A   1      29.632  29.933  23.352  1.00  0.00    -0.198 NA
ATOM     25  C   UNL A   1      29.111  29.613  22.022  1.00  0.00     0.102 C 
ATOM     26  C   UNL A   1      29.055  31.186  23.868  1.00  0.00     0.102 C 
ATOM     27  C   UNL A   1      28.472  30.920  21.575  1.00  0.00     0.018 C 
ATOM     28  C   UNL A   1      27.945  31.509  22.869  1.00  0.00     0.018 C 
ENDBRANCH  21  24
ENDBRANCH  20  21
ENDBRANCH  14  15
ENDBRANCH  13  14
ENDBRANCH  10  13
ENDBRANCH   3   6
ENDBRANCH   1   2
BRANCH   1  29
ATOM     29  C   UNL A   1      37.852  19.869  24.874  1.00  0.00     0.042 C 
BRANCH  29  30
ATOM     30  C   UNL A   1      39.021  20.274  25.764  1.00  0.00     0.118 C 
BRANCH  30  31
ATOM     31  N   UNL A   1      40.094  19.290  25.886  1.00  0.00    -0.352 N 
ATOM     32  C   UNL A   1      41.434  19.413  26.187  1.00  0.00     0.251 C 
ATOM     33  H   UNL A   1      39.806  18.364  25.722  1.00  0.00     0.163 HD
ATOM     34  O   UNL A   1      42.126  18.396  26.180  1.00  0.00    -0.269 OA
BRANCH  32  35
ATOM     35  C   UNL A   1      42.065  20.728  26.462  1.00  0.00     0.039 A 
ATOM     36  C   UNL A   1      42.275  21.615  25.399  1.00  0.00     0.014 A 
ATOM     37  C   UNL A   1      42.453  21.105  27.746  1.00  0.00     0.014 A 
ATOM     38  C   UNL A   1      42.773  22.901  25.641  1.00  0.00     0.010 A 
ATOM     39  C   UNL A   1      42.827  22.419  28.004  1.00  0.00     0.010 A 
ATOM     40  C   UNL A   1      43.002  23.334  26.957  1.00  0.00    -0.014 A 
BRANCH  40  41
ATOM     41  C   UNL A   1      43.430  24.723  27.272  1.00  0.00     0.031 A 
ATOM     42  C   UNL A   1      42.458  25.685  27.909  1.00  0.00     0.074 A 
ATOM     43  C   UNL A   1      44.647  25.155  26.885  1.00  0.00     0.049 A 
ATOM     44  N   UNL A   1      42.599  26.962  28.149  1.00  0.00    -0.248 NA
ATOM     45  C   UNL A   1      41.139  25.149  28.290  1.00  0.00     0.031 C 
ATOM     46  C   UNL A   1      45.653  24.351  26.189  1.00  0.00     0.029 A 
ATOM     47  N   UNL A   1      45.235  26.392  26.995  1.00  0.00    -0.354 N 
ATOM     48  C   UNL A   1      41.379  27.389  28.662  1.00  0.00     0.074 A 
ATOM     49  C   UNL A   1      40.495  26.246  28.658  1.00  0.00     0.031 C 
ATOM     50  C   UNL A   1      46.733  25.110  25.942  1.00  0.00     0.029 A 
ATOM     51  C   UNL A   1      46.486  26.462  26.427  1.00  0.00     0.049 A 
ATOM     52  H   UNL A   1      44.802  27.157  27.439  1.00  0.00     0.167 HD
ATOM     53  C   UNL A   1      41.032  28.613  29.128  1.00  0.00     0.034 A 
ATOM     54  C   UNL A   1      47.334  27.503  26.298  1.00  0.00     0.034 A 
ATOM     55  C   UNL A   1      41.928  29.735  29.183  1.00  0.00     0.049 A 
ATOM     56  C   UNL A   1      46.939  28.841  26.860  1.00  0.00     0.074 A 
ATOM     57  C   UNL A   1      41.704  30.989  29.721  1.00  0.00     0.029 A 
ATOM     58  N   UNL A   1      43.220  29.740  28.681  1.00  0.00    -0.354 N 
ATOM     59  N   UNL A   1      45.834  29.185  27.475  1.00  0.00    -0.248 NA
ATOM     60  C   UNL A   1      47.924  29.927  26.743  1.00  0.00     0.031 C 
ATOM     61  C   UNL A   1      42.852  31.763  29.519  1.00  0.00     0.029 A 
ATOM     62  C   UNL A   1      43.803  30.978  28.887  1.00  0.00     0.049 A 
ATOM     63  H   UNL A   1      43.659  28.976  28.241  1.00  0.00     0.167 HD
ATOM     64  C   UNL A   1      46.006  30.512  27.851  1.00  0.00     0.074 A 
ATOM     65  C   UNL A   1      47.329  30.904  27.413  1.00  0.00     0.031 C 
ATOM     66  C   UNL A   1      45.140  31.337  28.493  1.00  0.00     0.034 A 
BRANCH  53  67
ATOM     67  C   UNL A   1      39.635  28.788  29.669  1.00  0.00     0.023 A 
ATOM     68  C   UNL A   1      39.346  28.400  30.993  1.00  0.00     0.012 A 
ATOM     69  C   UNL A   1      38.625  29.386  28.890  1.00  0.00     0.148 A 
ATOM     70  C   UNL A   1      38.067  28.565  31.521  1.00  0.00     0.002 A 
ATOM     71  C   UNL A   1      37.364  29.593  29.439  1.00  0.00     0.091 A 
ATOM     72  F   UNL A   1      38.911  29.731  27.627  1.00  0.00    -0.205 F 
ATOM     73  C   UNL A   1      37.080  29.171  30.748  1.00  0.00     0.022 A 
BRANCH  71  74
ATOM     74  S   UNL A   1      36.049  30.438  28.557  1.00  0.00     0.127 S 
ATOM     75  O   UNL A   1      35.384  29.323  27.882  1.00  0.00    -0.237 OA
ATOM     76  O   UNL A   1      35.280  31.034  29.649  1.00  0.00    -0.237 OA
ATOM     77  O   UNL A   1      36.704  31.397  27.679  1.00  0.00    -0.744 OA
ENDBRANCH  71  74
ENDBRANCH  53  67
BRANCH  54  78
ATOM     78  C   UNL A   1      48.668  27.306  25.664  1.00  0.00     0.023 A 
ATOM     79  C   UNL A   1      48.800  27.460  24.270  1.00  0.00     0.012 A 
ATOM     80  C   UNL A   1      49.804  26.983  26.430  1.00  0.00     0.148 A 
ATOM     81  C   UNL A   1      50.032  27.264  23.646  1.00  0.00     0.002 A 
ATOM     82  C   UNL A   1      51.039  26.839  25.809  1.00  0.00     0.091 A 
ATOM     83  F   UNL A   1      49.655  26.830  27.754  1.00  0.00    -0.205 F 
ATOM     84  C   UNL A   1      51.153  26.964  24.415  1.00  0.00     0.022 A 
BRANCH  82  85
ATOM     85  S   UNL A   1      52.554  26.563  26.735  1.00  0.00     0.127 S 
ATOM     86  O   UNL A   1      52.341  25.216  27.258  1.00  0.00    -0.237 OA
ATOM     87  O   UNL A   1      53.570  26.663  25.688  1.00  0.00    -0.237 OA
ATOM     88  O   UNL A   1      52.604  27.627  27.728  1.00  0.00    -0.744 OA
ENDBRANCH  82  85
ENDBRANCH  54  78
BRANCH  66  89
ATOM     89  C   UNL A   1      45.607  32.735  28.807  1.00  0.00     0.023 A 
ATOM     90  C   UNL A   1      46.344  32.986  29.981  1.00  0.00     0.012 A 
ATOM     91  C   UNL A   1      45.378  33.784  27.895  1.00  0.00     0.148 A 
ATOM     92  C   UNL A   1      46.817  34.267  30.260  1.00  0.00     0.002 A 
ATOM     93  C   UNL A   1      45.898  35.047  28.154  1.00  0.00     0.091 A 
ATOM     94  F   UNL A   1      44.661  33.528  26.792  1.00  0.00    -0.205 F 
ATOM     95  C   UNL A   1      46.605  35.293  29.341  1.00  0.00     0.022 A 
BRANCH  93  96
ATOM     96  S   UNL A   1      45.762  36.402  26.983  1.00  0.00     0.127 S 
ATOM     97  O   UNL A   1      46.384  35.830  25.791  1.00  0.00    -0.237 OA
ATOM     98  O   UNL A   1      44.312  36.583  26.887  1.00  0.00    -0.237 OA
ATOM     99  O   UNL A   1      46.471  37.524  27.581  1.00  0.00    -0.744 OA
ENDBRANCH  93  96
ENDBRANCH  66  89
ENDBRANCH  40  41
ENDBRANCH  32  35
ENDBRANCH  30  31
ENDBRANCH  29  30
ENDBRANCH   1  29
TORSDOF 18
ENDMDL
