MODEL 1
REMARK VINA RESULT:     -11.0      0.000      0.000
REMARK SMILES CC[C@H](C)[C@@H](C)NC(=O)c1ccncc1/C=C/C(=O)NCCCNC(=O)c1ccc(-c2c3nc(c(-c4cccc(S(=O)(=O)[O-])c4F)c4ccc([nH]4)c(-c4cccc(S(=O)(=O)[O-])c4F)c4nc(c(-c5cccc(S(=O)(=O)[O-])c5F)c5ccc2[nH]5)C=C4)C=C3)cc1
REMARK SMILES IDX 21 1 20 2 18 3 19 4 17 6 16 7 15 8 10 9 11 10 12 11 14 12
REMARK SMILES IDX 13 13 8 14 7 15 9 17 5 18 6 19 3 20 4 21 2 22 1 23 22 24
REMARK SMILES IDX 23 25 24 26 25 27 26 29 27 30 28 31 89 32 29 33 88 34 30 35
REMARK SMILES IDX 31 36 32 37 82 38 33 39 87 40 81 41 83 42 34 43 86 44 80 45
REMARK SMILES IDX 79 46 35 48 67 49 47 50 66 51 48 52 51 53 65 54 84 55 49 56
REMARK SMILES IDX 50 57 64 59 85 60 52 61 36 62 37 63 45 64 38 65 40 66 46 67
REMARK SMILES IDX 39 68 41 69 42 70 43 71 44 72 68 73 69 74 77 75 70 76 72 77
REMARK SMILES IDX 78 78 71 79 73 80 74 81 75 82 76 83 53 84 54 85 62 86 55 87
REMARK SMILES IDX 57 88 63 89 56 90 58 91 59 92 60 93 61 94
REMARK H PARENT 20 5 7 16 24 28 83 47 51 58
REMARK Flexibility Score: inf
ROOT
ATOM      1  C   UNL A   1      36.971  21.135  24.779  1.00  0.00     0.118 C 
ENDROOT
BRANCH   1   2
ATOM      2  N   UNL A   1      36.183  21.250  25.996  1.00  0.00    -0.352 N 
ATOM      3  C   UNL A   1      35.114  22.038  26.276  1.00  0.00     0.244 C 
ATOM      4  O   UNL A   1      34.503  21.892  27.333  1.00  0.00    -0.270 OA
ATOM      5  H   UNL A   1      36.470  20.663  26.734  1.00  0.00     0.163 HD
BRANCH   3   6
ATOM      6  C   UNL A   1      34.596  22.997  25.274  1.00  0.00     0.072 C 
ATOM      7  C   UNL A   1      34.357  24.298  25.498  1.00  0.00     0.016 C 
BRANCH   7   8
ATOM      8  C   UNL A   1      33.878  25.214  24.447  1.00  0.00     0.006 A 
ATOM      9  C   UNL A   1      33.005  26.286  24.694  1.00  0.00     0.050 A 
ATOM     10  C   UNL A   1      32.640  27.152  23.658  1.00  0.00     0.034 A 
ATOM     11  C   UNL A   1      33.089  26.872  22.383  1.00  0.00     0.112 A 
ATOM     12  C   UNL A   1      34.256  25.029  23.118  1.00  0.00     0.119 A 
ATOM     13  N   UNL A   1      33.883  25.826  22.086  1.00  0.00    -0.264 NA
BRANCH   9  14
ATOM     14  C   UNL A   1      32.515  26.580  26.062  1.00  0.00     0.252 C 
ATOM     15  N   UNL A   1      31.375  25.982  26.538  1.00  0.00    -0.349 N 
ATOM     16  H   UNL A   1      31.135  26.226  27.462  1.00  0.00     0.164 HD
ATOM     17  O   UNL A   1      33.141  27.362  26.773  1.00  0.00    -0.269 OA
BRANCH  15  18
ATOM     18  C   UNL A   1      30.455  25.037  25.893  1.00  0.00     0.082 C 
ATOM     19  C   UNL A   1      29.043  25.339  26.405  1.00  0.00     0.031 C 
BRANCH  18  20
ATOM     20  C   UNL A   1      30.882  23.556  26.109  1.00  0.00     0.008 C 
ATOM     21  C   UNL A   1      29.867  22.843  27.015  1.00  0.00     0.010 C 
BRANCH  20  22
ATOM     22  C   UNL A   1      31.061  22.848  24.743  1.00  0.00     0.002 C 
ATOM     23  C   UNL A   1      30.701  23.677  23.520  1.00  0.00     0.004 C 
ENDBRANCH  20  22
ENDBRANCH  18  20
ENDBRANCH  15  18
ENDBRANCH   9  14
ENDBRANCH   7   8
ENDBRANCH   3   6
ENDBRANCH   1   2
BRANCH   1  24
ATOM     24  C   UNL A   1      38.007  20.020  24.889  1.00  0.00     0.042 C 
BRANCH  24  25
ATOM     25  C   UNL A   1      38.960  20.199  26.069  1.00  0.00     0.118 C 
BRANCH  25  26
ATOM     26  N   UNL A   1      40.069  19.251  26.030  1.00  0.00    -0.352 N 
ATOM     27  C   UNL A   1      41.423  19.473  26.059  1.00  0.00     0.251 C 
ATOM     28  H   UNL A   1      39.803  18.304  25.974  1.00  0.00     0.163 HD
ATOM     29  O   UNL A   1      42.193  18.555  25.796  1.00  0.00    -0.269 OA
BRANCH  27  30
ATOM     30  C   UNL A   1      41.955  20.810  26.398  1.00  0.00     0.039 A 
ATOM     31  C   UNL A   1      42.137  21.744  25.372  1.00  0.00     0.014 A 
ATOM     32  C   UNL A   1      42.304  21.134  27.711  1.00  0.00     0.014 A 
ATOM     33  C   UNL A   1      42.611  23.022  25.675  1.00  0.00     0.010 A 
ATOM     34  C   UNL A   1      42.708  22.431  28.020  1.00  0.00     0.010 A 
ATOM     35  C   UNL A   1      42.868  23.387  27.006  1.00  0.00    -0.014 A 
BRANCH  35  36
ATOM     36  C   UNL A   1      43.277  24.769  27.364  1.00  0.00     0.031 A 
ATOM     37  C   UNL A   1      42.287  25.719  27.985  1.00  0.00     0.074 A 
ATOM     38  C   UNL A   1      44.510  25.201  27.031  1.00  0.00     0.049 A 
ATOM     39  N   UNL A   1      42.435  26.983  28.284  1.00  0.00    -0.248 NA
ATOM     40  C   UNL A   1      40.947  25.186  28.283  1.00  0.00     0.031 C 
ATOM     41  C   UNL A   1      45.532  24.398  26.355  1.00  0.00     0.029 A 
ATOM     42  N   UNL A   1      45.102  26.432  27.178  1.00  0.00    -0.354 N 
ATOM     43  C   UNL A   1      41.200  27.409  28.759  1.00  0.00     0.074 A 
ATOM     44  C   UNL A   1      40.308  26.273  28.693  1.00  0.00     0.031 C 
ATOM     45  C   UNL A   1      46.619  25.156  26.142  1.00  0.00     0.029 A 
ATOM     46  C   UNL A   1      46.361  26.507  26.628  1.00  0.00     0.049 A 
ATOM     47  H   UNL A   1      44.666  27.188  27.634  1.00  0.00     0.167 HD
ATOM     48  C   UNL A   1      40.848  28.630  29.227  1.00  0.00     0.034 A 
ATOM     49  C   UNL A   1      47.205  27.551  26.508  1.00  0.00     0.034 A 
ATOM     50  C   UNL A   1      41.755  29.741  29.335  1.00  0.00     0.049 A 
ATOM     51  C   UNL A   1      46.798  28.886  27.072  1.00  0.00     0.074 A 
ATOM     52  C   UNL A   1      41.527  30.982  29.904  1.00  0.00     0.029 A 
ATOM     53  N   UNL A   1      43.053  29.756  28.851  1.00  0.00    -0.354 N 
ATOM     54  N   UNL A   1      45.688  29.219  27.686  1.00  0.00    -0.248 NA
ATOM     55  C   UNL A   1      47.771  29.983  26.956  1.00  0.00     0.031 C 
ATOM     56  C   UNL A   1      42.676  31.760  29.729  1.00  0.00     0.029 A 
ATOM     57  C   UNL A   1      43.631  30.991  29.083  1.00  0.00     0.049 A 
ATOM     58  H   UNL A   1      43.498  28.998  28.406  1.00  0.00     0.167 HD
ATOM     59  C   UNL A   1      45.843  30.549  28.059  1.00  0.00     0.074 A 
ATOM     60  C   UNL A   1      47.163  30.955  27.622  1.00  0.00     0.031 C 
ATOM     61  C   UNL A   1      44.966  31.365  28.692  1.00  0.00     0.034 A 
BRANCH  48  62
ATOM     62  C   UNL A   1      39.431  28.829  29.697  1.00  0.00     0.023 A 
ATOM     63  C   UNL A   1      39.064  28.443  31.002  1.00  0.00     0.012 A 
ATOM     64  C   UNL A   1      38.484  29.474  28.875  1.00  0.00     0.148 A 
ATOM     65  C   UNL A   1      37.771  28.669  31.473  1.00  0.00     0.002 A 
ATOM     66  C   UNL A   1      37.212  29.736  29.367  1.00  0.00     0.091 A 
ATOM     67  F   UNL A   1      38.847  29.815  27.630  1.00  0.00    -0.205 F 
ATOM     68  C   UNL A   1      36.850  29.325  30.660  1.00  0.00     0.022 A 
BRANCH  66  69
ATOM     69  S   UNL A   1      35.980  30.650  28.432  1.00  0.00     0.127 S 
ATOM     70  O   UNL A   1      35.388  29.592  27.613  1.00  0.00    -0.237 OA
ATOM     71  O   UNL A   1      35.108  31.160  29.491  1.00  0.00    -0.237 OA
ATOM     72  O   UNL A   1      36.708  31.673  27.697  1.00  0.00    -0.744 OA
ENDBRANCH  66  69
ENDBRANCH  48  62
BRANCH  49  73
ATOM     73  C   UNL A   1      48.538  27.366  25.865  1.00  0.00     0.023 A 
ATOM     74  C   UNL A   1      49.645  27.003  26.657  1.00  0.00     0.012 A 
ATOM     75  C   UNL A   1      48.713  27.530  24.477  1.00  0.00     0.148 A 
ATOM     76  C   UNL A   1      50.909  26.848  26.086  1.00  0.00     0.002 A 
ATOM     77  C   UNL A   1      49.962  27.314  23.905  1.00  0.00     0.091 A 
ATOM     78  F   UNL A   1      47.652  27.888  23.739  1.00  0.00    -0.205 F 
ATOM     79  C   UNL A   1      51.065  26.993  24.710  1.00  0.00     0.022 A 
BRANCH  77  80
ATOM     80  S   UNL A   1      50.222  27.337  22.126  1.00  0.00     0.127 S 
ATOM     81  O   UNL A   1      49.983  28.743  21.807  1.00  0.00    -0.237 OA
ATOM     82  O   UNL A   1      51.616  26.908  22.016  1.00  0.00    -0.237 OA
ATOM     83  O   UNL A   1      49.262  26.388  21.577  1.00  0.00    -0.744 OA
ENDBRANCH  77  80
ENDBRANCH  49  73
BRANCH  61  84
ATOM     84  C   UNL A   1      45.407  32.775  28.988  1.00  0.00     0.023 A 
ATOM     85  C   UNL A   1      46.121  33.054  30.169  1.00  0.00     0.012 A 
ATOM     86  C   UNL A   1      45.187  33.805  28.051  1.00  0.00     0.148 A 
ATOM     87  C   UNL A   1      46.586  34.343  30.427  1.00  0.00     0.002 A 
ATOM     88  C   UNL A   1      45.698  35.074  28.291  1.00  0.00     0.091 A 
ATOM     89  F   UNL A   1      44.491  33.521  26.941  1.00  0.00    -0.205 F 
ATOM     90  C   UNL A   1      46.386  35.349  29.484  1.00  0.00     0.022 A 
BRANCH  88  91
ATOM     91  S   UNL A   1      45.578  36.406  27.091  1.00  0.00     0.127 S 
ATOM     92  O   UNL A   1      46.408  37.439  27.709  1.00  0.00    -0.237 OA
ATOM     93  O   UNL A   1      46.153  35.796  25.893  1.00  0.00    -0.237 OA
ATOM     94  O   UNL A   1      44.161  36.729  26.988  1.00  0.00    -0.744 OA
ENDBRANCH  88  91
ENDBRANCH  61  84
ENDBRANCH  35  36
ENDBRANCH  27  30
ENDBRANCH  25  26
ENDBRANCH  24  25
ENDBRANCH   1  24
TORSDOF 18
ENDMDL
MODEL 2
REMARK VINA RESULT:     -10.9      5.856     11.137
REMARK SMILES CC[C@H](C)[C@@H](C)NC(=O)c1ccncc1/C=C/C(=O)NCCCNC(=O)c1ccc(-c2c3nc(c(-c4cccc(S(=O)(=O)[O-])c4F)c4ccc([nH]4)c(-c4cccc(S(=O)(=O)[O-])c4F)c4nc(c(-c5cccc(S(=O)(=O)[O-])c5F)c5ccc2[nH]5)C=C4)C=C3)cc1
REMARK SMILES IDX 21 1 20 2 18 3 19 4 17 6 16 7 15 8 10 9 11 10 12 11 14 12
REMARK SMILES IDX 13 13 8 14 7 15 9 17 5 18 6 19 3 20 4 21 2 22 1 23 22 24
REMARK SMILES IDX 23 25 24 26 25 27 26 29 27 30 28 31 89 32 29 33 88 34 30 35
REMARK SMILES IDX 31 36 32 37 82 38 33 39 87 40 81 41 83 42 34 43 86 44 80 45
REMARK SMILES IDX 79 46 35 48 67 49 47 50 66 51 48 52 51 53 65 54 84 55 49 56
REMARK SMILES IDX 50 57 64 59 85 60 52 61 36 62 37 63 45 64 38 65 40 66 46 67
REMARK SMILES IDX 39 68 41 69 42 70 43 71 44 72 68 73 69 74 77 75 70 76 72 77
REMARK SMILES IDX 78 78 71 79 73 80 74 81 75 82 76 83 53 84 54 85 62 86 55 87
REMARK SMILES IDX 57 88 63 89 56 90 58 91 59 92 60 93 61 94
REMARK H PARENT 20 5 7 16 24 28 83 47 51 58
REMARK Flexibility Score: inf
ROOT
ATOM      1  C   UNL A   1      31.648  30.214  26.629  1.00  0.00     0.118 C 
ENDROOT
BRANCH   1   2
ATOM      2  N   UNL A   1      32.984  29.868  27.089  1.00  0.00    -0.352 N 
ATOM      3  C   UNL A   1      33.939  29.099  26.506  1.00  0.00     0.244 C 
ATOM      4  O   UNL A   1      35.062  29.034  27.003  1.00  0.00    -0.270 OA
ATOM      5  H   UNL A   1      33.236  30.253  27.960  1.00  0.00     0.163 HD
BRANCH   3   6
ATOM      6  C   UNL A   1      33.686  28.427  25.212  1.00  0.00     0.072 C 
ATOM      7  C   UNL A   1      33.349  27.136  25.062  1.00  0.00     0.016 C 
BRANCH   7   8
ATOM      8  C   UNL A   1      33.070  26.533  23.747  1.00  0.00     0.006 A 
ATOM      9  C   UNL A   1      32.143  25.495  23.553  1.00  0.00     0.050 A 
ATOM     10  C   UNL A   1      31.885  25.012  22.266  1.00  0.00     0.034 A 
ATOM     11  C   UNL A   1      32.625  25.518  21.216  1.00  0.00     0.112 A 
ATOM     12  C   UNL A   1      33.759  26.954  22.611  1.00  0.00     0.119 A 
ATOM     13  N   UNL A   1      33.562  26.474  21.358  1.00  0.00    -0.264 NA
BRANCH   9  14
ATOM     14  C   UNL A   1      31.357  24.945  24.683  1.00  0.00     0.252 C 
ATOM     15  N   UNL A   1      31.780  23.818  25.343  1.00  0.00    -0.349 N 
ATOM     16  H   UNL A   1      31.202  23.536  26.089  1.00  0.00     0.164 HD
ATOM     17  O   UNL A   1      30.321  25.509  25.029  1.00  0.00    -0.269 OA
BRANCH  15  18
ATOM     18  C   UNL A   1      32.954  22.967  25.118  1.00  0.00     0.082 C 
ATOM     19  C   UNL A   1      32.622  21.567  25.643  1.00  0.00     0.031 C 
BRANCH  18  20
ATOM     20  C   UNL A   1      34.247  23.566  25.743  1.00  0.00     0.008 C 
ATOM     21  C   UNL A   1      34.713  22.698  26.921  1.00  0.00     0.010 C 
BRANCH  20  22
ATOM     22  C   UNL A   1      35.339  23.731  24.657  1.00  0.00     0.002 C 
ATOM     23  C   UNL A   1      36.052  22.453  24.242  1.00  0.00     0.004 C 
ENDBRANCH  20  22
ENDBRANCH  18  20
ENDBRANCH  15  18
ENDBRANCH   9  14
ENDBRANCH   7   8
ENDBRANCH   3   6
ENDBRANCH   1   2
BRANCH   1  24
ATOM     24  C   UNL A   1      31.311  31.670  26.934  1.00  0.00     0.042 C 
BRANCH  24  25
ATOM     25  C   UNL A   1      32.437  32.637  26.572  1.00  0.00     0.118 C 
BRANCH  25  26
ATOM     26  N   UNL A   1      32.295  33.924  27.243  1.00  0.00    -0.352 N 
ATOM     27  C   UNL A   1      32.949  34.425  28.342  1.00  0.00     0.251 C 
ATOM     28  H   UNL A   1      31.626  34.528  26.846  1.00  0.00     0.163 HD
ATOM     29  O   UNL A   1      32.531  35.443  28.883  1.00  0.00    -0.269 OA
BRANCH  27  30
ATOM     30  C   UNL A   1      34.145  33.741  28.877  1.00  0.00     0.039 A 
ATOM     31  C   UNL A   1      35.404  34.305  28.647  1.00  0.00     0.014 A 
ATOM     32  C   UNL A   1      34.035  32.535  29.572  1.00  0.00     0.014 A 
ATOM     33  C   UNL A   1      36.545  33.691  29.167  1.00  0.00     0.010 A 
ATOM     34  C   UNL A   1      35.165  31.962  30.150  1.00  0.00     0.010 A 
ATOM     35  C   UNL A   1      36.432  32.533  29.953  1.00  0.00    -0.014 A 
BRANCH  35  36
ATOM     36  C   UNL A   1      37.619  31.917  30.600  1.00  0.00     0.031 A 
ATOM     37  C   UNL A   1      38.404  30.848  29.888  1.00  0.00     0.074 A 
ATOM     38  C   UNL A   1      37.922  32.245  31.873  1.00  0.00     0.049 A 
ATOM     39  N   UNL A   1      39.411  30.138  30.326  1.00  0.00    -0.248 NA
ATOM     40  C   UNL A   1      37.989  30.515  28.515  1.00  0.00     0.031 C 
ATOM     41  C   UNL A   1      37.187  33.210  32.694  1.00  0.00     0.029 A 
ATOM     42  N   UNL A   1      38.903  31.777  32.712  1.00  0.00    -0.354 N 
ATOM     43  C   UNL A   1      39.718  29.245  29.306  1.00  0.00     0.074 A 
ATOM     44  C   UNL A   1      38.780  29.490  28.233  1.00  0.00     0.031 C 
ATOM     45  C   UNL A   1      37.736  33.257  33.917  1.00  0.00     0.029 A 
ATOM     46  C   UNL A   1      38.837  32.301  33.982  1.00  0.00     0.049 A 
ATOM     47  H   UNL A   1      39.587  31.127  32.431  1.00  0.00     0.167 HD
ATOM     48  C   UNL A   1      40.705  28.318  29.260  1.00  0.00     0.034 A 
ATOM     49  C   UNL A   1      39.566  32.028  35.083  1.00  0.00     0.034 A 
ATOM     50  C   UNL A   1      41.665  28.113  30.312  1.00  0.00     0.049 A 
ATOM     51  C   UNL A   1      40.679  31.020  34.988  1.00  0.00     0.074 A 
ATOM     52  C   UNL A   1      42.772  27.283  30.313  1.00  0.00     0.029 A 
ATOM     53  N   UNL A   1      41.624  28.728  31.553  1.00  0.00    -0.354 N 
ATOM     54  N   UNL A   1      41.069  30.317  33.953  1.00  0.00    -0.248 NA
ATOM     55  C   UNL A   1      41.474  30.788  36.204  1.00  0.00     0.031 C 
ATOM     56  C   UNL A   1      43.379  27.367  31.570  1.00  0.00     0.029 A 
ATOM     57  C   UNL A   1      42.670  28.277  32.339  1.00  0.00     0.049 A 
ATOM     58  H   UNL A   1      40.949  29.387  31.834  1.00  0.00     0.167 HD
ATOM     59  C   UNL A   1      42.174  29.588  34.381  1.00  0.00     0.074 A 
ATOM     60  C   UNL A   1      42.404  29.953  35.764  1.00  0.00     0.031 C 
ATOM     61  C   UNL A   1      42.920  28.688  33.696  1.00  0.00     0.034 A 
BRANCH  48  62
ATOM     62  C   UNL A   1      40.829  27.474  28.019  1.00  0.00     0.023 A 
ATOM     63  C   UNL A   1      41.501  27.983  26.889  1.00  0.00     0.012 A 
ATOM     64  C   UNL A   1      40.354  26.147  28.001  1.00  0.00     0.148 A 
ATOM     65  C   UNL A   1      41.673  27.197  25.751  1.00  0.00     0.002 A 
ATOM     66  C   UNL A   1      40.570  25.354  26.880  1.00  0.00     0.091 A 
ATOM     67  F   UNL A   1      39.701  25.688  29.078  1.00  0.00    -0.205 F 
ATOM     68  C   UNL A   1      41.218  25.881  25.751  1.00  0.00     0.022 A 
BRANCH  66  69
ATOM     69  S   UNL A   1      40.098  23.622  26.811  1.00  0.00     0.127 S 
ATOM     70  O   UNL A   1      40.401  23.180  28.173  1.00  0.00    -0.237 OA
ATOM     71  O   UNL A   1      38.671  23.705  26.500  1.00  0.00    -0.237 OA
ATOM     72  O   UNL A   1      40.916  23.023  25.766  1.00  0.00    -0.744 OA
ENDBRANCH  66  69
ENDBRANCH  48  62
BRANCH  49  73
ATOM     73  C   UNL A   1      39.295  32.751  36.358  1.00  0.00     0.023 A 
ATOM     74  C   UNL A   1      39.883  34.012  36.579  1.00  0.00     0.012 A 
ATOM     75  C   UNL A   1      38.447  32.209  37.345  1.00  0.00     0.148 A 
ATOM     76  C   UNL A   1      39.667  34.699  37.774  1.00  0.00     0.002 A 
ATOM     77  C   UNL A   1      38.187  32.927  38.507  1.00  0.00     0.091 A 
ATOM     78  F   UNL A   1      37.904  31.003  37.126  1.00  0.00    -0.205 F 
ATOM     79  C   UNL A   1      38.812  34.163  38.733  1.00  0.00     0.022 A 
BRANCH  77  80
ATOM     80  S   UNL A   1      36.987  32.378  39.727  1.00  0.00     0.127 S 
ATOM     81  O   UNL A   1      37.070  33.439  40.729  1.00  0.00    -0.237 OA
ATOM     82  O   UNL A   1      35.748  32.360  38.949  1.00  0.00    -0.237 OA
ATOM     83  O   UNL A   1      37.438  31.061  40.157  1.00  0.00    -0.744 OA
ENDBRANCH  77  80
ENDBRANCH  49  73
BRANCH  61  84
ATOM     84  C   UNL A   1      44.083  28.051  34.411  1.00  0.00     0.023 A 
ATOM     85  C   UNL A   1      45.339  28.687  34.416  1.00  0.00     0.012 A 
ATOM     86  C   UNL A   1      43.904  26.865  35.152  1.00  0.00     0.148 A 
ATOM     87  C   UNL A   1      46.408  28.138  35.122  1.00  0.00     0.002 A 
ATOM     88  C   UNL A   1      44.959  26.353  35.896  1.00  0.00     0.091 A 
ATOM     89  F   UNL A   1      42.704  26.267  35.121  1.00  0.00    -0.205 F 
ATOM     90  C   UNL A   1      46.215  26.979  35.872  1.00  0.00     0.022 A 
BRANCH  88  91
ATOM     91  S   UNL A   1      44.780  24.923  36.969  1.00  0.00     0.127 S 
ATOM     92  O   UNL A   1      44.885  23.820  36.016  1.00  0.00    -0.237 OA
ATOM     93  O   UNL A   1      45.926  25.065  37.867  1.00  0.00    -0.237 OA
ATOM     94  O   UNL A   1      43.481  25.064  37.614  1.00  0.00    -0.744 OA
ENDBRANCH  88  91
ENDBRANCH  61  84
ENDBRANCH  35  36
ENDBRANCH  27  30
ENDBRANCH  25  26
ENDBRANCH  24  25
ENDBRANCH   1  24
TORSDOF 18
ENDMDL
MODEL 3
REMARK VINA RESULT:     -10.9      1.710      2.693
REMARK SMILES CC[C@H](C)[C@@H](C)NC(=O)c1ccncc1/C=C/C(=O)NCCCNC(=O)c1ccc(-c2c3nc(c(-c4cccc(S(=O)(=O)[O-])c4F)c4ccc([nH]4)c(-c4cccc(S(=O)(=O)[O-])c4F)c4nc(c(-c5cccc(S(=O)(=O)[O-])c5F)c5ccc2[nH]5)C=C4)C=C3)cc1
REMARK SMILES IDX 21 1 20 2 18 3 19 4 17 6 16 7 15 8 10 9 11 10 12 11 14 12
REMARK SMILES IDX 13 13 8 14 7 15 9 17 5 18 6 19 3 20 4 21 2 22 1 23 22 24
REMARK SMILES IDX 23 25 24 26 25 27 26 29 27 30 28 31 89 32 29 33 88 34 30 35
REMARK SMILES IDX 31 36 32 37 82 38 33 39 87 40 81 41 83 42 34 43 86 44 80 45
REMARK SMILES IDX 79 46 35 48 67 49 47 50 66 51 48 52 51 53 65 54 84 55 49 56
REMARK SMILES IDX 50 57 64 59 85 60 52 61 36 62 37 63 45 64 38 65 40 66 46 67
REMARK SMILES IDX 39 68 41 69 42 70 43 71 44 72 68 73 69 74 77 75 70 76 72 77
REMARK SMILES IDX 78 78 71 79 73 80 74 81 75 82 76 83 53 84 54 85 62 86 55 87
REMARK SMILES IDX 57 88 63 89 56 90 58 91 59 92 60 93 61 94
REMARK H PARENT 20 5 7 16 24 28 83 47 51 58
REMARK Flexibility Score: inf
ROOT
ATOM      1  C   UNL A   1      37.341  21.366  24.643  1.00  0.00     0.118 C 
ENDROOT
BRANCH   1   2
ATOM      2  N   UNL A   1      37.942  22.535  25.267  1.00  0.00    -0.352 N 
ATOM      3  C   UNL A   1      37.359  23.600  25.875  1.00  0.00     0.244 C 
ATOM      4  O   UNL A   1      38.054  24.430  26.458  1.00  0.00    -0.270 OA
ATOM      5  H   UNL A   1      38.926  22.558  25.244  1.00  0.00     0.163 HD
BRANCH   3   6
ATOM      6  C   UNL A   1      35.885  23.716  25.951  1.00  0.00     0.072 C 
ATOM      7  C   UNL A   1      35.036  22.694  26.141  1.00  0.00     0.016 C 
BRANCH   7   8
ATOM      8  C   UNL A   1      33.578  22.878  26.247  1.00  0.00     0.006 A 
ATOM      9  C   UNL A   1      32.752  23.164  25.147  1.00  0.00     0.050 A 
ATOM     10  C   UNL A   1      31.367  23.266  25.312  1.00  0.00     0.034 A 
ATOM     11  C   UNL A   1      30.851  23.165  26.589  1.00  0.00     0.112 A 
ATOM     12  C   UNL A   1      32.941  22.808  27.485  1.00  0.00     0.119 A 
ATOM     13  N   UNL A   1      31.606  22.946  27.682  1.00  0.00    -0.264 NA
BRANCH   9  14
ATOM     14  C   UNL A   1      33.309  23.282  23.778  1.00  0.00     0.252 C 
ATOM     15  N   UNL A   1      33.288  24.485  23.118  1.00  0.00    -0.349 N 
ATOM     16  H   UNL A   1      33.693  24.471  22.220  1.00  0.00     0.164 HD
ATOM     17  O   UNL A   1      33.794  22.292  23.237  1.00  0.00    -0.269 OA
BRANCH  15  18
ATOM     18  C   UNL A   1      32.761  25.790  23.534  1.00  0.00     0.082 C 
ATOM     19  C   UNL A   1      32.150  26.461  22.299  1.00  0.00     0.031 C 
BRANCH  18  20
ATOM     20  C   UNL A   1      33.837  26.665  24.239  1.00  0.00     0.008 C 
ATOM     21  C   UNL A   1      33.748  28.114  23.736  1.00  0.00     0.010 C 
BRANCH  20  22
ATOM     22  C   UNL A   1      33.690  26.559  25.777  1.00  0.00     0.002 C 
ATOM     23  C   UNL A   1      32.292  26.806  26.322  1.00  0.00     0.004 C 
ENDBRANCH  20  22
ENDBRANCH  18  20
ENDBRANCH  15  18
ENDBRANCH   9  14
ENDBRANCH   7   8
ENDBRANCH   3   6
ENDBRANCH   1   2
BRANCH   1  24
ATOM     24  C   UNL A   1      38.145  20.103  24.935  1.00  0.00     0.042 C 
BRANCH  24  25
ATOM     25  C   UNL A   1      39.158  20.282  26.064  1.00  0.00     0.118 C 
BRANCH  25  26
ATOM     26  N   UNL A   1      40.200  19.261  26.036  1.00  0.00    -0.352 N 
ATOM     27  C   UNL A   1      41.566  19.393  26.058  1.00  0.00     0.251 C 
ATOM     28  H   UNL A   1      39.872  18.333  25.994  1.00  0.00     0.163 HD
ATOM     29  O   UNL A   1      42.273  18.422  25.806  1.00  0.00    -0.269 OA
BRANCH  27  30
ATOM     30  C   UNL A   1      42.187  20.697  26.376  1.00  0.00     0.039 A 
ATOM     31  C   UNL A   1      42.465  21.585  25.332  1.00  0.00     0.014 A 
ATOM     32  C   UNL A   1      42.526  21.031  27.689  1.00  0.00     0.014 A 
ATOM     33  C   UNL A   1      43.024  22.833  25.613  1.00  0.00     0.010 A 
ATOM     34  C   UNL A   1      43.017  22.303  27.975  1.00  0.00     0.010 A 
ATOM     35  C   UNL A   1      43.274  23.215  26.941  1.00  0.00    -0.014 A 
BRANCH  35  36
ATOM     36  C   UNL A   1      43.776  24.573  27.275  1.00  0.00     0.031 A 
ATOM     37  C   UNL A   1      42.828  25.634  27.769  1.00  0.00     0.074 A 
ATOM     38  C   UNL A   1      45.066  24.880  27.028  1.00  0.00     0.049 A 
ATOM     39  N   UNL A   1      43.065  26.894  28.026  1.00  0.00    -0.248 NA
ATOM     40  C   UNL A   1      41.426  25.234  27.975  1.00  0.00     0.031 C 
ATOM     41  C   UNL A   1      46.062  23.960  26.476  1.00  0.00     0.029 A 
ATOM     42  N   UNL A   1      45.752  26.061  27.173  1.00  0.00    -0.354 N 
ATOM     43  C   UNL A   1      41.839  27.447  28.377  1.00  0.00     0.074 A 
ATOM     44  C   UNL A   1      40.856  26.390  28.283  1.00  0.00     0.031 C 
ATOM     45  C   UNL A   1      47.226  24.609  26.323  1.00  0.00     0.029 A 
ATOM     46  C   UNL A   1      47.052  26.000  26.729  1.00  0.00     0.049 A 
ATOM     47  H   UNL A   1      45.350  26.874  27.558  1.00  0.00     0.167 HD
ATOM     48  C   UNL A   1      41.562  28.716  28.761  1.00  0.00     0.034 A 
ATOM     49  C   UNL A   1      47.994  26.961  26.637  1.00  0.00     0.034 A 
ATOM     50  C   UNL A   1      42.553  29.749  28.899  1.00  0.00     0.049 A 
ATOM     51  C   UNL A   1      47.664  28.352  27.108  1.00  0.00     0.074 A 
ATOM     52  C   UNL A   1      42.392  31.032  29.393  1.00  0.00     0.029 A 
ATOM     53  N   UNL A   1      43.882  29.628  28.526  1.00  0.00    -0.354 N 
ATOM     54  N   UNL A   1      46.543  28.809  27.611  1.00  0.00    -0.248 NA
ATOM     55  C   UNL A   1      48.738  29.354  27.028  1.00  0.00     0.031 C 
ATOM     56  C   UNL A   1      43.617  31.698  29.283  1.00  0.00     0.029 A 
ATOM     57  C   UNL A   1      44.548  30.819  28.754  1.00  0.00     0.049 A 
ATOM     58  H   UNL A   1      44.291  28.814  28.153  1.00  0.00     0.167 HD
ATOM     59  C   UNL A   1      46.786  30.138  27.940  1.00  0.00     0.074 A 
ATOM     60  C   UNL A   1      48.168  30.406  27.599  1.00  0.00     0.031 C 
ATOM     61  C   UNL A   1      45.938  31.057  28.461  1.00  0.00     0.034 A 
BRANCH  48  62
ATOM     62  C   UNL A   1      40.135  29.060  29.101  1.00  0.00     0.023 A 
ATOM     63  C   UNL A   1      39.207  29.302  28.068  1.00  0.00     0.012 A 
ATOM     64  C   UNL A   1      39.694  29.062  30.440  1.00  0.00     0.148 A 
ATOM     65  C   UNL A   1      37.871  29.569  28.361  1.00  0.00     0.002 A 
ATOM     66  C   UNL A   1      38.352  29.283  30.722  1.00  0.00     0.091 A 
ATOM     67  F   UNL A   1      40.596  28.848  31.409  1.00  0.00    -0.205 F 
ATOM     68  C   UNL A   1      37.442  29.548  29.685  1.00  0.00     0.022 A 
BRANCH  66  69
ATOM     69  S   UNL A   1      37.683  29.194  32.386  1.00  0.00     0.127 S 
ATOM     70  O   UNL A   1      38.545  30.135  33.101  1.00  0.00    -0.237 OA
ATOM     71  O   UNL A   1      36.308  29.654  32.188  1.00  0.00    -0.237 OA
ATOM     72  O   UNL A   1      37.806  27.802  32.796  1.00  0.00    -0.744 OA
ENDBRANCH  66  69
ENDBRANCH  48  62
BRANCH  49  73
ATOM     73  C   UNL A   1      49.351  26.630  26.117  1.00  0.00     0.023 A 
ATOM     74  C   UNL A   1      50.211  25.823  26.888  1.00  0.00     0.012 A 
ATOM     75  C   UNL A   1      49.791  27.094  24.861  1.00  0.00     0.148 A 
ATOM     76  C   UNL A   1      51.497  25.519  26.437  1.00  0.00     0.002 A 
ATOM     77  C   UNL A   1      51.050  26.736  24.391  1.00  0.00     0.091 A 
ATOM     78  F   UNL A   1      48.966  27.872  24.145  1.00  0.00    -0.205 F 
ATOM     79  C   UNL A   1      51.912  25.966  25.186  1.00  0.00     0.022 A 
BRANCH  77  80
ATOM     80  S   UNL A   1      51.609  27.147  22.732  1.00  0.00     0.127 S 
ATOM     81  O   UNL A   1      51.844  28.584  22.843  1.00  0.00    -0.237 OA
ATOM     82  O   UNL A   1      52.817  26.331  22.607  1.00  0.00    -0.237 OA
ATOM     83  O   UNL A   1      50.527  26.746  21.843  1.00  0.00    -0.744 OA
ENDBRANCH  77  80
ENDBRANCH  49  73
BRANCH  61  84
ATOM     84  C   UNL A   1      46.479  32.436  28.734  1.00  0.00     0.023 A 
ATOM     85  C   UNL A   1      47.040  32.735  29.990  1.00  0.00     0.012 A 
ATOM     86  C   UNL A   1      46.508  33.408  27.713  1.00  0.00     0.148 A 
ATOM     87  C   UNL A   1      47.597  33.989  30.237  1.00  0.00     0.002 A 
ATOM     88  C   UNL A   1      47.111  34.636  27.949  1.00  0.00     0.091 A 
ATOM     89  F   UNL A   1      45.954  33.108  26.529  1.00  0.00    -0.205 F 
ATOM     90  C   UNL A   1      47.643  34.934  29.214  1.00  0.00     0.022 A 
BRANCH  88  91
ATOM     91  S   UNL A   1      47.308  35.879  26.666  1.00  0.00     0.127 S 
ATOM     92  O   UNL A   1      48.058  36.917  27.370  1.00  0.00    -0.237 OA
ATOM     93  O   UNL A   1      48.073  35.155  25.651  1.00  0.00    -0.237 OA
ATOM     94  O   UNL A   1      45.961  36.254  26.258  1.00  0.00    -0.744 OA
ENDBRANCH  88  91
ENDBRANCH  61  84
ENDBRANCH  35  36
ENDBRANCH  27  30
ENDBRANCH  25  26
ENDBRANCH  24  25
ENDBRANCH   1  24
TORSDOF 18
ENDMDL
