MODEL 1
REMARK VINA RESULT:     -11.1      0.000      0.000
REMARK SMILES C[C@@H](NC(=O)CCCNC(=O)c1ccco1)C(=O)NCCCNC(=O)c1ccc(-c2c3nc(c(-c4cccc(S(=O)(=O)[O-])c4F)c4ccc([nH]4)c(-c4cccc(S(=O)(=O)[O-])c4F)c4nc(c(-c5cccc(S(=O)(=O)[O-])c5F)c5ccc2[nH]5)C=C4)C=C3)cc1
REMARK SMILES IDX 17 1 18 2 19 3 2 5 1 6 3 7 4 8 5 10 6 11 7 12 8 13 9 14
REMARK SMILES IDX 10 15 11 17 12 18 13 19 16 20 14 21 15 22 20 23 21 24 22 25
REMARK SMILES IDX 23 26 24 27 25 29 26 30 27 31 88 32 28 33 87 34 29 35 30 36
REMARK SMILES IDX 31 37 81 38 32 39 86 40 80 41 82 42 33 43 85 44 79 45 78 46
REMARK SMILES IDX 34 48 66 49 46 50 65 51 47 52 50 53 64 54 83 55 48 56 49 57
REMARK SMILES IDX 63 59 84 60 51 61 35 62 36 63 44 64 37 65 39 66 45 67 38 68
REMARK SMILES IDX 40 69 41 70 42 71 43 72 67 73 68 74 76 75 69 76 71 77 77 78
REMARK SMILES IDX 70 79 72 80 73 81 74 82 75 83 52 84 53 85 61 86 54 87 56 88
REMARK SMILES IDX 62 89 55 90 57 91 58 92 59 93 60 94
REMARK H PARENT 19 4 3 9 9 16 23 28 82 47 50 58
REMARK Flexibility Score: inf
ROOT
ATOM      1  C   UNL A   1      30.871  24.840  26.213  1.00  0.00     0.242 C 
ATOM      2  O   UNL A   1      29.958  24.292  26.876  1.00  0.00    -0.273 OA
ATOM      3  N   UNL A   1      30.848  26.189  26.451  1.00  0.00    -0.354 N 
ATOM      4  H   UNL A   1      29.911  26.396  26.673  1.00  0.00     0.163 HD
ENDROOT
BRANCH   1   5
ATOM      5  C   UNL A   1      31.680  23.747  25.234  1.00  0.00     0.168 C 
ATOM      6  C   UNL A   1      32.065  22.402  25.945  1.00  0.00     0.041 C 
BRANCH   5   7
ATOM      7  N   UNL A   1      31.517  23.281  23.853  1.00  0.00    -0.345 N 
ATOM      8  C   UNL A   1      32.456  23.252  22.888  1.00  0.00     0.220 C 
ATOM      9  H   UNL A   1      30.622  22.952  23.604  1.00  0.00     0.164 HD
ATOM     10  O   UNL A   1      32.550  22.327  22.100  1.00  0.00    -0.275 OA
BRANCH   8  11
ATOM     11  C   UNL A   1      33.245  24.502  22.824  1.00  0.00     0.102 C 
BRANCH  11  12
ATOM     12  C   UNL A   1      32.607  25.541  21.848  1.00  0.00     0.031 C 
BRANCH  12  13
ATOM     13  C   UNL A   1      31.489  26.687  22.050  1.00  0.00     0.117 C 
BRANCH  13  14
ATOM     14  N   UNL A   1      30.320  26.586  22.936  1.00  0.00    -0.349 N 
ATOM     15  C   UNL A   1      29.194  27.195  23.465  1.00  0.00     0.286 C 
ATOM     16  H   UNL A   1      30.351  25.684  23.328  1.00  0.00     0.163 HD
ATOM     17  O   UNL A   1      28.553  26.451  24.218  1.00  0.00    -0.266 OA
BRANCH  15  18
ATOM     18  C   UNL A   1      28.716  28.540  23.256  1.00  0.00     0.191 A 
ATOM     19  C   UNL A   1      27.481  29.111  23.036  1.00  0.00     0.056 A 
ATOM     20  O   UNL A   1      29.635  29.555  23.464  1.00  0.00    -0.459 OA
ATOM     21  C   UNL A   1      27.652  30.522  23.119  1.00  0.00     0.043 A 
ATOM     22  C   UNL A   1      28.986  30.742  23.362  1.00  0.00     0.196 A 
ENDBRANCH  15  18
ENDBRANCH  13  14
ENDBRANCH  12  13
ENDBRANCH  11  12
ENDBRANCH   8  11
ENDBRANCH   5   7
ENDBRANCH   1   5
BRANCH   3  23
ATOM     23  C   UNL A   1      31.582  27.518  26.537  1.00  0.00     0.117 C 
BRANCH  23  24
ATOM     24  C   UNL A   1      32.233  28.099  25.263  1.00  0.00     0.042 C 
BRANCH  24  25
ATOM     25  C   UNL A   1      33.328  29.148  25.432  1.00  0.00     0.118 C 
BRANCH  25  26
ATOM     26  N   UNL A   1      32.857  30.421  25.943  1.00  0.00    -0.352 N 
ATOM     27  C   UNL A   1      33.345  31.209  26.965  1.00  0.00     0.251 C 
ATOM     28  H   UNL A   1      32.061  30.782  25.488  1.00  0.00     0.163 HD
ATOM     29  O   UNL A   1      32.702  32.196  27.311  1.00  0.00    -0.269 OA
BRANCH  27  30
ATOM     30  C   UNL A   1      34.613  30.867  27.654  1.00  0.00     0.039 A 
ATOM     31  C   UNL A   1      35.601  31.845  27.809  1.00  0.00     0.014 A 
ATOM     32  C   UNL A   1      34.836  29.581  28.143  1.00  0.00     0.014 A 
ATOM     33  C   UNL A   1      36.783  31.535  28.488  1.00  0.00     0.010 A 
ATOM     34  C   UNL A   1      35.926  29.327  28.958  1.00  0.00     0.010 A 
ATOM     35  C   UNL A   1      36.941  30.278  29.095  1.00  0.00    -0.014 A 
BRANCH  35  36
ATOM     36  C   UNL A   1      38.178  29.911  29.826  1.00  0.00     0.031 A 
ATOM     37  C   UNL A   1      38.394  30.409  31.235  1.00  0.00     0.074 A 
ATOM     38  C   UNL A   1      39.128  29.195  29.193  1.00  0.00     0.049 A 
ATOM     39  N   UNL A   1      39.406  30.202  32.035  1.00  0.00    -0.248 NA
ATOM     40  C   UNL A   1      37.365  31.299  31.806  1.00  0.00     0.031 C 
ATOM     41  C   UNL A   1      39.078  28.773  27.790  1.00  0.00     0.029 A 
ATOM     42  N   UNL A   1      40.323  28.700  29.644  1.00  0.00    -0.354 N 
ATOM     43  C   UNL A   1      39.155  30.968  33.169  1.00  0.00     0.074 A 
ATOM     44  C   UNL A   1      37.940  31.706  32.926  1.00  0.00     0.031 C 
ATOM     45  C   UNL A   1      40.168  28.040  27.511  1.00  0.00     0.029 A 
ATOM     46  C   UNL A   1      41.005  27.965  28.701  1.00  0.00     0.049 A 
ATOM     47  H   UNL A   1      40.662  28.855  30.555  1.00  0.00     0.167 HD
ATOM     48  C   UNL A   1      39.843  31.014  34.333  1.00  0.00     0.034 A 
ATOM     49  C   UNL A   1      42.167  27.292  28.801  1.00  0.00     0.034 A 
ATOM     50  C   UNL A   1      41.011  30.219  34.581  1.00  0.00     0.049 A 
ATOM     51  C   UNL A   1      42.861  27.276  30.134  1.00  0.00     0.074 A 
ATOM     52  C   UNL A   1      41.743  30.097  35.747  1.00  0.00     0.029 A 
ATOM     53  N   UNL A   1      41.618  29.406  33.636  1.00  0.00    -0.354 N 
ATOM     54  N   UNL A   1      42.520  27.876  31.250  1.00  0.00    -0.248 NA
ATOM     55  C   UNL A   1      44.071  26.451  30.238  1.00  0.00     0.031 C 
ATOM     56  C   UNL A   1      42.811  29.229  35.496  1.00  0.00     0.029 A 
ATOM     57  C   UNL A   1      42.719  28.780  34.186  1.00  0.00     0.049 A 
ATOM     58  H   UNL A   1      41.308  29.290  32.708  1.00  0.00     0.167 HD
ATOM     59  C   UNL A   1      43.453  27.478  32.198  1.00  0.00     0.074 A 
ATOM     60  C   UNL A   1      44.353  26.558  31.528  1.00  0.00     0.031 C 
ATOM     61  C   UNL A   1      43.571  27.844  33.499  1.00  0.00     0.034 A 
BRANCH  48  62
ATOM     62  C   UNL A   1      39.311  31.902  35.429  1.00  0.00     0.023 A 
ATOM     63  C   UNL A   1      38.319  31.418  36.311  1.00  0.00     0.012 A 
ATOM     64  C   UNL A   1      39.807  33.207  35.607  1.00  0.00     0.148 A 
ATOM     65  C   UNL A   1      37.799  32.230  37.318  1.00  0.00     0.002 A 
ATOM     66  C   UNL A   1      39.324  33.993  36.648  1.00  0.00     0.091 A 
ATOM     67  F   UNL A   1      40.728  33.663  34.747  1.00  0.00    -0.205 F 
ATOM     68  C   UNL A   1      38.309  33.513  37.492  1.00  0.00     0.022 A 
BRANCH  66  69
ATOM     69  S   UNL A   1      39.973  35.627  37.011  1.00  0.00     0.127 S 
ATOM     70  O   UNL A   1      39.254  35.963  38.239  1.00  0.00    -0.237 OA
ATOM     71  O   UNL A   1      41.398  35.354  37.194  1.00  0.00    -0.237 OA
ATOM     72  O   UNL A   1      39.653  36.454  35.857  1.00  0.00    -0.744 OA
ENDBRANCH  66  69
ENDBRANCH  48  62
BRANCH  49  73
ATOM     73  C   UNL A   1      42.682  26.514  27.641  1.00  0.00     0.023 A 
ATOM     74  C   UNL A   1      43.423  27.166  26.635  1.00  0.00     0.012 A 
ATOM     75  C   UNL A   1      42.479  25.124  27.547  1.00  0.00     0.148 A 
ATOM     76  C   UNL A   1      43.918  26.457  25.539  1.00  0.00     0.002 A 
ATOM     77  C   UNL A   1      43.025  24.413  26.485  1.00  0.00     0.091 A 
ATOM     78  F   UNL A   1      41.769  24.521  28.511  1.00  0.00    -0.205 F 
ATOM     79  C   UNL A   1      43.727  25.080  25.469  1.00  0.00     0.022 A 
BRANCH  77  80
ATOM     80  S   UNL A   1      42.949  22.621  26.390  1.00  0.00     0.127 S 
ATOM     81  O   UNL A   1      44.278  22.239  26.857  1.00  0.00    -0.237 OA
ATOM     82  O   UNL A   1      41.857  22.316  27.317  1.00  0.00    -0.237 OA
ATOM     83  O   UNL A   1      42.652  22.314  24.997  1.00  0.00    -0.744 OA
ENDBRANCH  77  80
ENDBRANCH  49  73
BRANCH  61  84
ATOM     84  C   UNL A   1      44.691  27.221  34.284  1.00  0.00     0.023 A 
ATOM     85  C   UNL A   1      45.950  27.852  34.340  1.00  0.00     0.012 A 
ATOM     86  C   UNL A   1      44.479  26.029  35.003  1.00  0.00     0.148 A 
ATOM     87  C   UNL A   1      46.997  27.276  35.054  1.00  0.00     0.002 A 
ATOM     88  C   UNL A   1      45.510  25.493  35.760  1.00  0.00     0.091 A 
ATOM     89  F   UNL A   1      43.278  25.437  34.923  1.00  0.00    -0.205 F 
ATOM     90  C   UNL A   1      46.774  26.103  35.772  1.00  0.00     0.022 A 
BRANCH  88  91
ATOM     91  S   UNL A   1      45.277  24.048  36.800  1.00  0.00     0.127 S 
ATOM     92  O   UNL A   1      44.773  23.069  35.839  1.00  0.00    -0.237 OA
ATOM     93  O   UNL A   1      46.634  23.790  37.280  1.00  0.00    -0.237 OA
ATOM     94  O   UNL A   1      44.338  24.452  37.839  1.00  0.00    -0.744 OA
ENDBRANCH  88  91
ENDBRANCH  61  84
ENDBRANCH  35  36
ENDBRANCH  27  30
ENDBRANCH  25  26
ENDBRANCH  24  25
ENDBRANCH  23  24
ENDBRANCH   3  23
TORSDOF 19
ENDMDL
MODEL 2
REMARK VINA RESULT:     -10.9      5.213     10.327
REMARK SMILES C[C@@H](NC(=O)CCCNC(=O)c1ccco1)C(=O)NCCCNC(=O)c1ccc(-c2c3nc(c(-c4cccc(S(=O)(=O)[O-])c4F)c4ccc([nH]4)c(-c4cccc(S(=O)(=O)[O-])c4F)c4nc(c(-c5cccc(S(=O)(=O)[O-])c5F)c5ccc2[nH]5)C=C4)C=C3)cc1
REMARK SMILES IDX 17 1 18 2 19 3 2 5 1 6 3 7 4 8 5 10 6 11 7 12 8 13 9 14
REMARK SMILES IDX 10 15 11 17 12 18 13 19 16 20 14 21 15 22 20 23 21 24 22 25
REMARK SMILES IDX 23 26 24 27 25 29 26 30 27 31 88 32 28 33 87 34 29 35 30 36
REMARK SMILES IDX 31 37 81 38 32 39 86 40 80 41 82 42 33 43 85 44 79 45 78 46
REMARK SMILES IDX 34 48 66 49 46 50 65 51 47 52 50 53 64 54 83 55 48 56 49 57
REMARK SMILES IDX 63 59 84 60 51 61 35 62 36 63 44 64 37 65 39 66 45 67 38 68
REMARK SMILES IDX 40 69 41 70 42 71 43 72 67 73 68 74 76 75 69 76 71 77 77 78
REMARK SMILES IDX 70 79 72 80 73 81 74 82 75 83 52 84 53 85 61 86 54 87 56 88
REMARK SMILES IDX 62 89 55 90 57 91 58 92 59 93 60 94
REMARK H PARENT 19 4 3 9 9 16 23 28 82 47 50 58
REMARK Flexibility Score: inf
ROOT
ATOM      1  C   UNL A   1      33.457  24.331  22.747  1.00  0.00     0.242 C 
ATOM      2  O   UNL A   1      33.100  24.479  21.553  1.00  0.00    -0.273 OA
ATOM      3  N   UNL A   1      34.641  23.641  22.776  1.00  0.00    -0.354 N 
ATOM      4  H   UNL A   1      34.635  23.085  21.963  1.00  0.00     0.163 HD
ENDROOT
BRANCH   1   5
ATOM      5  C   UNL A   1      32.321  24.930  23.822  1.00  0.00     0.168 C 
ATOM      6  C   UNL A   1      31.337  25.985  23.205  1.00  0.00     0.041 C 
BRANCH   5   7
ATOM      7  N   UNL A   1      31.463  24.337  24.853  1.00  0.00    -0.345 N 
ATOM      8  C   UNL A   1      31.723  24.240  26.171  1.00  0.00     0.220 C 
ATOM      9  H   UNL A   1      30.601  23.969  24.549  1.00  0.00     0.164 HD
ATOM     10  O   UNL A   1      30.865  24.418  27.019  1.00  0.00    -0.275 OA
BRANCH   8  11
ATOM     11  C   UNL A   1      33.100  23.776  26.447  1.00  0.00     0.102 C 
BRANCH  11  12
ATOM     12  C   UNL A   1      33.113  22.496  27.342  1.00  0.00     0.031 C 
BRANCH  12  13
ATOM     13  C   UNL A   1      33.864  21.074  27.205  1.00  0.00     0.117 C 
BRANCH  13  14
ATOM     14  N   UNL A   1      33.256  19.840  26.688  1.00  0.00    -0.349 N 
ATOM     15  C   UNL A   1      32.734  19.155  25.603  1.00  0.00     0.286 C 
ATOM     16  H   UNL A   1      33.190  19.226  27.454  1.00  0.00     0.163 HD
ATOM     17  O   UNL A   1      32.384  18.002  25.884  1.00  0.00    -0.266 OA
BRANCH  15  18
ATOM     18  C   UNL A   1      32.551  19.618  24.249  1.00  0.00     0.191 A 
ATOM     19  C   UNL A   1      32.359  19.008  23.028  1.00  0.00     0.056 A 
ATOM     20  O   UNL A   1      32.363  20.982  24.090  1.00  0.00    -0.459 OA
ATOM     21  C   UNL A   1      32.035  20.034  22.095  1.00  0.00     0.043 A 
ATOM     22  C   UNL A   1      32.070  21.220  22.787  1.00  0.00     0.196 A 
ENDBRANCH  15  18
ENDBRANCH  13  14
ENDBRANCH  12  13
ENDBRANCH  11  12
ENDBRANCH   8  11
ENDBRANCH   5   7
ENDBRANCH   1   5
BRANCH   3  23
ATOM     23  C   UNL A   1      35.959  23.328  23.466  1.00  0.00     0.117 C 
BRANCH  23  24
ATOM     24  C   UNL A   1      36.022  22.151  24.463  1.00  0.00     0.042 C 
BRANCH  24  25
ATOM     25  C   UNL A   1      36.867  22.321  25.722  1.00  0.00     0.118 C 
BRANCH  25  26
ATOM     26  N   UNL A   1      37.876  21.293  25.902  1.00  0.00    -0.352 N 
ATOM     27  C   UNL A   1      39.207  21.401  26.249  1.00  0.00     0.251 C 
ATOM     28  H   UNL A   1      37.561  20.372  25.754  1.00  0.00     0.163 HD
ATOM     29  O   UNL A   1      39.910  20.395  26.219  1.00  0.00    -0.269 OA
BRANCH  27  30
ATOM     30  C   UNL A   1      39.794  22.707  26.635  1.00  0.00     0.039 A 
ATOM     31  C   UNL A   1      39.344  23.878  26.014  1.00  0.00     0.014 A 
ATOM     32  C   UNL A   1      40.794  22.783  27.603  1.00  0.00     0.014 A 
ATOM     33  C   UNL A   1      39.872  25.113  26.400  1.00  0.00     0.010 A 
ATOM     34  C   UNL A   1      41.189  24.014  28.100  1.00  0.00     0.010 A 
ATOM     35  C   UNL A   1      40.779  25.192  27.470  1.00  0.00    -0.014 A 
BRANCH  35  36
ATOM     36  C   UNL A   1      41.360  26.483  27.911  1.00  0.00     0.031 A 
ATOM     37  C   UNL A   1      42.800  26.807  27.589  1.00  0.00     0.074 A 
ATOM     38  C   UNL A   1      40.614  27.320  28.657  1.00  0.00     0.049 A 
ATOM     39  N   UNL A   1      43.489  27.876  27.889  1.00  0.00    -0.248 NA
ATOM     40  C   UNL A   1      43.588  25.778  26.884  1.00  0.00     0.031 C 
ATOM     41  C   UNL A   1      39.255  27.048  29.134  1.00  0.00     0.029 A 
ATOM     42  N   UNL A   1      40.892  28.568  29.151  1.00  0.00    -0.354 N 
ATOM     43  C   UNL A   1      44.787  27.624  27.454  1.00  0.00     0.074 A 
ATOM     44  C   UNL A   1      44.811  26.275  26.943  1.00  0.00     0.031 C 
ATOM     45  C   UNL A   1      38.800  28.117  29.807  1.00  0.00     0.029 A 
ATOM     46  C   UNL A   1      39.842  29.135  29.835  1.00  0.00     0.049 A 
ATOM     47  H   UNL A   1      41.760  29.015  29.027  1.00  0.00     0.167 HD
ATOM     48  C   UNL A   1      45.852  28.457  27.430  1.00  0.00     0.034 A 
ATOM     49  C   UNL A   1      39.734  30.351  30.402  1.00  0.00     0.034 A 
ATOM     50  C   UNL A   1      45.789  29.818  27.879  1.00  0.00     0.049 A 
ATOM     51  C   UNL A   1      40.896  31.296  30.274  1.00  0.00     0.074 A 
ATOM     52  C   UNL A   1      46.764  30.795  27.819  1.00  0.00     0.029 A 
ATOM     53  N   UNL A   1      44.677  30.393  28.475  1.00  0.00    -0.354 N 
ATOM     54  N   UNL A   1      42.064  31.096  29.711  1.00  0.00    -0.248 NA
ATOM     55  C   UNL A   1      40.710  32.648  30.814  1.00  0.00     0.031 C 
ATOM     56  C   UNL A   1      46.248  31.955  28.406  1.00  0.00     0.029 A 
ATOM     57  C   UNL A   1      44.938  31.711  28.794  1.00  0.00     0.049 A 
ATOM     58  H   UNL A   1      43.824  29.930  28.645  1.00  0.00     0.167 HD
ATOM     59  C   UNL A   1      42.741  32.305  29.798  1.00  0.00     0.074 A 
ATOM     60  C   UNL A   1      41.836  33.239  30.441  1.00  0.00     0.031 C 
ATOM     61  C   UNL A   1      44.000  32.619  29.401  1.00  0.00     0.034 A 
BRANCH  48  62
ATOM     62  C   UNL A   1      47.141  27.934  26.848  1.00  0.00     0.023 A 
ATOM     63  C   UNL A   1      48.150  27.437  27.702  1.00  0.00     0.012 A 
ATOM     64  C   UNL A   1      47.349  27.909  25.456  1.00  0.00     0.148 A 
ATOM     65  C   UNL A   1      49.358  26.969  27.185  1.00  0.00     0.002 A 
ATOM     66  C   UNL A   1      48.532  27.391  24.944  1.00  0.00     0.091 A 
ATOM     67  F   UNL A   1      46.393  28.409  24.659  1.00  0.00    -0.205 F 
ATOM     68  C   UNL A   1      49.544  26.937  25.807  1.00  0.00     0.022 A 
BRANCH  66  69
ATOM     69  S   UNL A   1      48.837  27.225  23.183  1.00  0.00     0.127 S 
ATOM     70  O   UNL A   1      48.068  28.345  22.643  1.00  0.00    -0.237 OA
ATOM     71  O   UNL A   1      50.289  27.390  23.109  1.00  0.00    -0.237 OA
ATOM     72  O   UNL A   1      48.355  25.902  22.812  1.00  0.00    -0.744 OA
ENDBRANCH  66  69
ENDBRANCH  48  62
BRANCH  49  73
ATOM     73  C   UNL A   1      38.457  30.765  31.048  1.00  0.00     0.023 A 
ATOM     74  C   UNL A   1      38.256  30.515  32.420  1.00  0.00     0.012 A 
ATOM     75  C   UNL A   1      37.458  31.440  30.321  1.00  0.00     0.148 A 
ATOM     76  C   UNL A   1      37.068  30.895  33.047  1.00  0.00     0.002 A 
ATOM     77  C   UNL A   1      36.303  31.868  30.965  1.00  0.00     0.091 A 
ATOM     78  F   UNL A   1      37.666  31.665  29.017  1.00  0.00    -0.205 F 
ATOM     79  C   UNL A   1      36.096  31.579  32.323  1.00  0.00     0.022 A 
BRANCH  77  80
ATOM     80  S   UNL A   1      35.066  32.878  30.143  1.00  0.00     0.127 S 
ATOM     81  O   UNL A   1      34.605  31.986  29.084  1.00  0.00    -0.237 OA
ATOM     82  O   UNL A   1      34.101  33.110  31.219  1.00  0.00    -0.237 OA
ATOM     83  O   UNL A   1      35.768  34.078  29.703  1.00  0.00    -0.744 OA
ENDBRANCH  77  80
ENDBRANCH  49  73
BRANCH  61  84
ATOM     84  C   UNL A   1      44.451  34.037  29.620  1.00  0.00     0.023 A 
ATOM     85  C   UNL A   1      44.907  34.444  30.890  1.00  0.00     0.012 A 
ATOM     86  C   UNL A   1      44.462  34.953  28.552  1.00  0.00     0.148 A 
ATOM     87  C   UNL A   1      45.314  35.757  31.106  1.00  0.00     0.002 A 
ATOM     88  C   UNL A   1      44.926  36.243  28.760  1.00  0.00     0.091 A 
ATOM     89  F   UNL A   1      44.009  34.549  27.356  1.00  0.00    -0.205 F 
ATOM     90  C   UNL A   1      45.333  36.654  30.040  1.00  0.00     0.022 A 
BRANCH  88  91
ATOM     91  S   UNL A   1      45.087  37.427  27.420  1.00  0.00     0.127 S 
ATOM     92  O   UNL A   1      43.689  37.735  27.126  1.00  0.00    -0.237 OA
ATOM     93  O   UNL A   1      45.833  38.514  28.054  1.00  0.00    -0.237 OA
ATOM     94  O   UNL A   1      45.814  36.735  26.363  1.00  0.00    -0.744 OA
ENDBRANCH  88  91
ENDBRANCH  61  84
ENDBRANCH  35  36
ENDBRANCH  27  30
ENDBRANCH  25  26
ENDBRANCH  24  25
ENDBRANCH  23  24
ENDBRANCH   3  23
TORSDOF 19
ENDMDL
MODEL 3
REMARK VINA RESULT:     -10.9      2.128      2.794
REMARK SMILES C[C@@H](NC(=O)CCCNC(=O)c1ccco1)C(=O)NCCCNC(=O)c1ccc(-c2c3nc(c(-c4cccc(S(=O)(=O)[O-])c4F)c4ccc([nH]4)c(-c4cccc(S(=O)(=O)[O-])c4F)c4nc(c(-c5cccc(S(=O)(=O)[O-])c5F)c5ccc2[nH]5)C=C4)C=C3)cc1
REMARK SMILES IDX 17 1 18 2 19 3 2 5 1 6 3 7 4 8 5 10 6 11 7 12 8 13 9 14
REMARK SMILES IDX 10 15 11 17 12 18 13 19 16 20 14 21 15 22 20 23 21 24 22 25
REMARK SMILES IDX 23 26 24 27 25 29 26 30 27 31 88 32 28 33 87 34 29 35 30 36
REMARK SMILES IDX 31 37 81 38 32 39 86 40 80 41 82 42 33 43 85 44 79 45 78 46
REMARK SMILES IDX 34 48 66 49 46 50 65 51 47 52 50 53 64 54 83 55 48 56 49 57
REMARK SMILES IDX 63 59 84 60 51 61 35 62 36 63 44 64 37 65 39 66 45 67 38 68
REMARK SMILES IDX 40 69 41 70 42 71 43 72 67 73 68 74 76 75 69 76 71 77 77 78
REMARK SMILES IDX 70 79 72 80 73 81 74 82 75 83 52 84 53 85 61 86 54 87 56 88
REMARK SMILES IDX 62 89 55 90 57 91 58 92 59 93 60 94
REMARK H PARENT 19 4 3 9 9 16 23 28 82 47 50 58
REMARK Flexibility Score: inf
ROOT
ATOM      1  C   UNL A   1      33.409  25.090  24.904  1.00  0.00     0.242 C 
ATOM      2  O   UNL A   1      34.656  25.188  24.994  1.00  0.00    -0.273 OA
ATOM      3  N   UNL A   1      32.835  25.688  25.995  1.00  0.00    -0.354 N 
ATOM      4  H   UNL A   1      33.502  25.606  26.715  1.00  0.00     0.163 HD
ENDROOT
BRANCH   1   5
ATOM      5  C   UNL A   1      32.943  24.197  23.565  1.00  0.00     0.168 C 
ATOM      6  C   UNL A   1      32.035  22.960  23.895  1.00  0.00     0.041 C 
BRANCH   5   7
ATOM      7  N   UNL A   1      32.463  24.529  22.220  1.00  0.00    -0.345 N 
ATOM      8  C   UNL A   1      32.842  25.570  21.454  1.00  0.00     0.220 C 
ATOM      9  H   UNL A   1      31.789  23.923  21.833  1.00  0.00     0.164 HD
ATOM     10  O   UNL A   1      33.009  25.466  20.251  1.00  0.00    -0.275 OA
BRANCH   8  11
ATOM     11  C   UNL A   1      32.900  26.840  22.209  1.00  0.00     0.102 C 
BRANCH  11  12
ATOM     12  C   UNL A   1      31.511  27.554  22.249  1.00  0.00     0.031 C 
BRANCH  12  13
ATOM     13  C   UNL A   1      30.486  27.883  23.451  1.00  0.00     0.117 C 
BRANCH  13  14
ATOM     14  N   UNL A   1      29.042  28.112  23.297  1.00  0.00    -0.349 N 
ATOM     15  C   UNL A   1      28.018  29.009  23.041  1.00  0.00     0.286 C 
ATOM     16  H   UNL A   1      28.610  27.240  23.440  1.00  0.00     0.163 HD
ATOM     17  O   UNL A   1      26.902  28.475  23.026  1.00  0.00    -0.266 OA
BRANCH  15  18
ATOM     18  C   UNL A   1      28.103  30.431  22.814  1.00  0.00     0.191 A 
ATOM     19  C   UNL A   1      28.437  31.523  23.586  1.00  0.00     0.056 A 
ATOM     20  O   UNL A   1      27.982  30.848  21.498  1.00  0.00    -0.459 OA
ATOM     21  C   UNL A   1      28.530  32.642  22.710  1.00  0.00     0.043 A 
ATOM     22  C   UNL A   1      28.224  32.182  21.452  1.00  0.00     0.196 A 
ENDBRANCH  15  18
ENDBRANCH  13  14
ENDBRANCH  12  13
ENDBRANCH  11  12
ENDBRANCH   8  11
ENDBRANCH   5   7
ENDBRANCH   1   5
BRANCH   3  23
ATOM     23  C   UNL A   1      31.657  26.418  26.623  1.00  0.00     0.117 C 
BRANCH  23  24
ATOM     24  C   UNL A   1      31.840  27.880  27.083  1.00  0.00     0.042 C 
BRANCH  24  25
ATOM     25  C   UNL A   1      33.254  28.451  27.113  1.00  0.00     0.118 C 
BRANCH  25  26
ATOM     26  N   UNL A   1      33.307  29.900  27.175  1.00  0.00    -0.352 N 
ATOM     27  C   UNL A   1      34.294  30.737  27.651  1.00  0.00     0.251 C 
ATOM     28  H   UNL A   1      32.511  30.360  26.820  1.00  0.00     0.163 HD
ATOM     29  O   UNL A   1      34.067  31.942  27.721  1.00  0.00    -0.269 OA
BRANCH  27  30
ATOM     30  C   UNL A   1      35.604  30.201  28.092  1.00  0.00     0.039 A 
ATOM     31  C   UNL A   1      36.714  30.301  27.246  1.00  0.00     0.014 A 
ATOM     32  C   UNL A   1      35.744  29.591  29.338  1.00  0.00     0.014 A 
ATOM     33  C   UNL A   1      37.957  29.827  27.674  1.00  0.00     0.010 A 
ATOM     34  C   UNL A   1      37.002  29.280  29.823  1.00  0.00     0.010 A 
ATOM     35  C   UNL A   1      38.116  29.339  28.981  1.00  0.00    -0.014 A 
BRANCH  35  36
ATOM     36  C   UNL A   1      39.418  28.828  29.473  1.00  0.00     0.031 A 
ATOM     37  C   UNL A   1      40.103  29.512  30.632  1.00  0.00     0.074 A 
ATOM     38  C   UNL A   1      40.009  27.801  28.831  1.00  0.00     0.049 A 
ATOM     39  N   UNL A   1      41.242  29.222  31.203  1.00  0.00    -0.248 NA
ATOM     40  C   UNL A   1      39.454  30.713  31.193  1.00  0.00     0.031 C 
ATOM     41  C   UNL A   1      39.496  27.151  27.622  1.00  0.00     0.029 A 
ATOM     42  N   UNL A   1      41.170  27.127  29.100  1.00  0.00    -0.354 N 
ATOM     43  C   UNL A   1      41.459  30.222  32.145  1.00  0.00     0.074 A 
ATOM     44  C   UNL A   1      40.381  31.171  32.018  1.00  0.00     0.031 C 
ATOM     45  C   UNL A   1      40.311  26.139  27.284  1.00  0.00     0.029 A 
ATOM     46  C   UNL A   1      41.417  26.089  28.232  1.00  0.00     0.049 A 
ATOM     47  H   UNL A   1      41.771  27.363  29.844  1.00  0.00     0.167 HD
ATOM     48  C   UNL A   1      42.439  30.317  33.073  1.00  0.00     0.034 A 
ATOM     49  C   UNL A   1      42.418  25.188  28.221  1.00  0.00     0.034 A 
ATOM     50  C   UNL A   1      43.465  29.326  33.230  1.00  0.00     0.049 A 
ATOM     51  C   UNL A   1      43.440  25.254  29.322  1.00  0.00     0.074 A 
ATOM     52  C   UNL A   1      44.456  29.252  34.190  1.00  0.00     0.029 A 
ATOM     53  N   UNL A   1      43.627  28.231  32.395  1.00  0.00    -0.354 N 
ATOM     54  N   UNL A   1      43.537  26.115  30.307  1.00  0.00    -0.248 NA
ATOM     55  C   UNL A   1      44.459  24.198  29.340  1.00  0.00     0.031 C 
ATOM     56  C   UNL A   1      45.235  28.122  33.917  1.00  0.00     0.029 A 
ATOM     57  C   UNL A   1      44.704  27.473  32.812  1.00  0.00     0.049 A 
ATOM     58  H   UNL A   1      43.056  28.023  31.620  1.00  0.00     0.167 HD
ATOM     59  C   UNL A   1      44.606  25.687  31.082  1.00  0.00     0.074 A 
ATOM     60  C   UNL A   1      45.102  24.472  30.466  1.00  0.00     0.031 C 
ATOM     61  C   UNL A   1      45.146  26.250  32.193  1.00  0.00     0.034 A 
BRANCH  48  62
ATOM     62  C   UNL A   1      42.404  31.494  34.015  1.00  0.00     0.023 A 
ATOM     63  C   UNL A   1      43.150  32.657  33.720  1.00  0.00     0.012 A 
ATOM     64  C   UNL A   1      41.616  31.464  35.181  1.00  0.00     0.148 A 
ATOM     65  C   UNL A   1      43.148  33.748  34.589  1.00  0.00     0.002 A 
ATOM     66  C   UNL A   1      41.575  32.576  36.015  1.00  0.00     0.091 A 
ATOM     67  F   UNL A   1      40.934  30.344  35.462  1.00  0.00    -0.205 F 
ATOM     68  C   UNL A   1      42.353  33.710  35.730  1.00  0.00     0.022 A 
BRANCH  66  69
ATOM     69  S   UNL A   1      40.518  32.663  37.463  1.00  0.00     0.127 S 
ATOM     70  O   UNL A   1      41.390  32.113  38.499  1.00  0.00    -0.237 OA
ATOM     71  O   UNL A   1      40.272  34.101  37.574  1.00  0.00    -0.237 OA
ATOM     72  O   UNL A   1      39.340  31.866  37.153  1.00  0.00    -0.744 OA
ENDBRANCH  66  69
ENDBRANCH  48  62
BRANCH  49  73
ATOM     73  C   UNL A   1      42.441  24.107  27.196  1.00  0.00     0.023 A 
ATOM     74  C   UNL A   1      43.317  24.205  26.097  1.00  0.00     0.012 A 
ATOM     75  C   UNL A   1      41.629  22.964  27.324  1.00  0.00     0.148 A 
ATOM     76  C   UNL A   1      43.357  23.204  25.125  1.00  0.00     0.002 A 
ATOM     77  C   UNL A   1      41.717  21.943  26.385  1.00  0.00     0.091 A 
ATOM     78  F   UNL A   1      40.800  22.891  28.375  1.00  0.00    -0.205 F 
ATOM     79  C   UNL A   1      42.564  22.069  25.274  1.00  0.00     0.022 A 
BRANCH  77  80
ATOM     80  S   UNL A   1      40.838  20.388  26.576  1.00  0.00     0.127 S 
ATOM     81  O   UNL A   1      39.523  20.718  26.034  1.00  0.00    -0.237 OA
ATOM     82  O   UNL A   1      41.639  19.486  25.747  1.00  0.00    -0.237 OA
ATOM     83  O   UNL A   1      40.880  20.085  28.001  1.00  0.00    -0.744 OA
ENDBRANCH  77  80
ENDBRANCH  49  73
BRANCH  61  84
ATOM     84  C   UNL A   1      46.306  25.534  32.826  1.00  0.00     0.023 A 
ATOM     85  C   UNL A   1      47.625  25.935  32.536  1.00  0.00     0.012 A 
ATOM     86  C   UNL A   1      46.083  24.489  33.744  1.00  0.00     0.148 A 
ATOM     87  C   UNL A   1      48.707  25.269  33.107  1.00  0.00     0.002 A 
ATOM     88  C   UNL A   1      47.164  23.871  34.354  1.00  0.00     0.091 A 
ATOM     89  F   UNL A   1      44.820  24.114  33.993  1.00  0.00    -0.205 F 
ATOM     90  C   UNL A   1      48.476  24.245  34.023  1.00  0.00     0.022 A 
BRANCH  88  91
ATOM     91  S   UNL A   1      46.953  22.620  35.625  1.00  0.00     0.127 S 
ATOM     92  O   UNL A   1      46.327  21.536  34.873  1.00  0.00    -0.237 OA
ATOM     93  O   UNL A   1      48.334  22.362  36.036  1.00  0.00    -0.237 OA
ATOM     94  O   UNL A   1      46.125  23.234  36.654  1.00  0.00    -0.744 OA
ENDBRANCH  88  91
ENDBRANCH  61  84
ENDBRANCH  35  36
ENDBRANCH  27  30
ENDBRANCH  25  26
ENDBRANCH  24  25
ENDBRANCH  23  24
ENDBRANCH   3  23
TORSDOF 19
ENDMDL
