MODEL 1
REMARK VINA RESULT:     -11.9      0.000      0.000
REMARK SMILES CCCc1nc(C[N@H+]2CCCC[C@@H]2C(=O)NCCCNC(=O)c2ccc(-c3c4nc(c(-c5cccc(S(=O)(=O)[O-])c5F)c5ccc([nH]5)c(-c5cccc(S(=O)(=O)[O-])c5F)c5nc(c(-c6cccc(S(=O)(=O)[O-])c6F)c6ccc3[nH]6)C=C5)C=C4)cc2)cs1
REMARK SMILES IDX 17 1 16 2 14 3 15 4 13 6 8 7 9 8 10 10 12 11 11 12 7 13 6 14
REMARK SMILES IDX 4 15 5 16 87 17 86 18 3 19 2 20 1 21 18 22 19 23 20 24 21 25
REMARK SMILES IDX 22 27 23 28 24 29 85 30 25 31 84 32 26 33 27 34 28 35 78 36
REMARK SMILES IDX 29 37 83 38 77 39 79 40 30 41 82 42 76 43 75 44 31 46 63 47
REMARK SMILES IDX 43 48 62 49 44 50 47 51 61 52 80 53 45 54 46 55 60 57 81 58
REMARK SMILES IDX 48 59 32 60 33 61 41 62 34 63 36 64 42 65 35 66 37 67 38 68
REMARK SMILES IDX 39 69 40 70 64 71 65 72 73 73 66 74 68 75 74 76 67 77 69 78
REMARK SMILES IDX 70 79 71 80 72 81 49 82 50 83 58 84 51 85 53 86 59 87 52 88
REMARK SMILES IDX 54 89 55 90 56 91 57 92
REMARK H PARENT 16 5 8 9 20 26 79 45 47 56
REMARK Flexibility Score: inf
ROOT
ATOM      1  C   UNL A   1      31.923  29.560  25.568  1.00  0.00     0.118 C 
ENDROOT
BRANCH   1   2
ATOM      2  N   UNL A   1      32.838  29.628  24.441  1.00  0.00    -0.351 N 
ATOM      3  C   UNL A   1      33.426  28.624  23.732  1.00  0.00     0.278 C 
ATOM      4  O   UNL A   1      34.248  28.945  22.867  1.00  0.00    -0.268 OA
ATOM      5  H   UNL A   1      33.066  30.539  24.143  1.00  0.00     0.163 HD
BRANCH   3   6
ATOM      6  C   UNL A   1      33.051  27.143  23.960  1.00  0.00     0.274 C 
ATOM      7  N   UNL A   1      31.596  26.927  23.753  1.00  0.00    -0.320 N 
ATOM      8  C   UNL A   1      31.177  25.558  24.059  1.00  0.00     0.263 C 
ATOM      9  H   UNL A   1      31.152  27.540  24.436  1.00  0.00     0.349 HD
ATOM     10  C   UNL A   1      31.577  25.162  25.481  1.00  0.00     0.062 C 
ATOM     11  C   UNL A   1      33.550  26.681  25.339  1.00  0.00     0.076 C 
ATOM     12  C   UNL A   1      33.084  25.270  25.669  1.00  0.00     0.012 C 
BRANCH   7  13
ATOM     13  C   UNL A   1      31.088  27.382  22.442  1.00  0.00     0.321 C 
BRANCH  13  14
ATOM     14  C   UNL A   1      29.886  28.284  22.503  1.00  0.00     0.106 A 
ATOM     15  C   UNL A   1      28.693  30.050  21.845  1.00  0.00     0.093 A 
ATOM     16  N   UNL A   1      29.847  29.424  21.707  1.00  0.00    -0.240 NA
ATOM     17  S   UNL A   1      27.596  29.302  22.935  1.00  0.00    -0.127 S 
ATOM     18  C   UNL A   1      28.737  28.074  23.242  1.00  0.00     0.096 A 
BRANCH  15  19
ATOM     19  C   UNL A   1      28.354  31.278  21.044  1.00  0.00     0.067 C 
BRANCH  19  20
ATOM     20  C   UNL A   1      28.114  32.584  21.803  1.00  0.00     0.004 C 
ATOM     21  C   UNL A   1      28.852  32.659  23.133  1.00  0.00     0.004 C 
ENDBRANCH  19  20
ENDBRANCH  15  19
ENDBRANCH  13  14
ENDBRANCH   7  13
ENDBRANCH   3   6
ENDBRANCH   1   2
BRANCH   1  22
ATOM     22  C   UNL A   1      31.647  30.949  26.132  1.00  0.00     0.042 C 
BRANCH  22  23
ATOM     23  C   UNL A   1      32.586  31.340  27.264  1.00  0.00     0.118 C 
BRANCH  23  24
ATOM     24  N   UNL A   1      32.886  32.766  27.268  1.00  0.00    -0.352 N 
ATOM     25  C   UNL A   1      33.945  33.430  27.832  1.00  0.00     0.251 C 
ATOM     26  H   UNL A   1      32.233  33.335  26.798  1.00  0.00     0.163 HD
ATOM     27  O   UNL A   1      33.923  34.657  27.916  1.00  0.00    -0.269 OA
BRANCH  25  28
ATOM     28  C   UNL A   1      35.100  32.669  28.350  1.00  0.00     0.039 A 
ATOM     29  C   UNL A   1      36.368  33.252  28.317  1.00  0.00     0.014 A 
ATOM     30  C   UNL A   1      34.931  31.384  28.873  1.00  0.00     0.014 A 
ATOM     31  C   UNL A   1      37.456  32.572  28.868  1.00  0.00     0.010 A 
ATOM     32  C   UNL A   1      35.995  30.748  29.502  1.00  0.00     0.010 A 
ATOM     33  C   UNL A   1      37.271  31.330  29.500  1.00  0.00    -0.014 A 
BRANCH  33  34
ATOM     34  C   UNL A   1      38.393  30.630  30.172  1.00  0.00     0.031 A 
ATOM     35  C   UNL A   1      38.794  31.010  31.572  1.00  0.00     0.074 A 
ATOM     36  C   UNL A   1      39.112  29.716  29.488  1.00  0.00     0.049 A 
ATOM     37  N   UNL A   1      39.789  30.565  32.294  1.00  0.00    -0.248 NA
ATOM     38  C   UNL A   1      37.987  32.047  32.240  1.00  0.00     0.031 C 
ATOM     39  C   UNL A   1      38.870  29.316  28.101  1.00  0.00     0.029 A 
ATOM     40  N   UNL A   1      40.210  28.980  29.859  1.00  0.00    -0.354 N 
ATOM     41  C   UNL A   1      39.752  31.289  33.481  1.00  0.00     0.074 A 
ATOM     42  C   UNL A   1      38.657  32.227  33.368  1.00  0.00     0.031 C 
ATOM     43  C   UNL A   1      39.788  28.406  27.739  1.00  0.00     0.029 A 
ATOM     44  C   UNL A   1      40.706  28.187  28.850  1.00  0.00     0.049 A 
ATOM     45  H   UNL A   1      40.605  29.017  30.760  1.00  0.00     0.167 HD
ATOM     46  C   UNL A   1      40.540  31.167  34.574  1.00  0.00     0.034 A 
ATOM     47  C   UNL A   1      41.790  27.386  28.818  1.00  0.00     0.034 A 
ATOM     48  C   UNL A   1      41.605  30.208  34.694  1.00  0.00     0.049 A 
ATOM     49  C   UNL A   1      42.637  27.253  30.055  1.00  0.00     0.074 A 
ATOM     50  C   UNL A   1      42.404  29.944  35.793  1.00  0.00     0.029 A 
ATOM     51  N   UNL A   1      42.032  29.368  33.677  1.00  0.00    -0.354 N 
ATOM     52  N   UNL A   1      42.490  27.832  31.221  1.00  0.00    -0.248 NA
ATOM     53  C   UNL A   1      43.781  26.332  29.981  1.00  0.00     0.031 C 
ATOM     54  C   UNL A   1      43.338  28.970  35.428  1.00  0.00     0.029 A 
ATOM     55  C   UNL A   1      43.095  28.597  34.115  1.00  0.00     0.049 A 
ATOM     56  H   UNL A   1      41.638  29.326  32.776  1.00  0.00     0.167 HD
ATOM     57  C   UNL A   1      43.497  27.320  32.031  1.00  0.00     0.074 A 
ATOM     58  C   UNL A   1      44.237  26.369  31.226  1.00  0.00     0.031 C 
ATOM     59  C   UNL A   1      43.792  27.619  33.320  1.00  0.00     0.034 A 
BRANCH  46  60
ATOM     60  C   UNL A   1      40.256  32.066  35.749  1.00  0.00     0.023 A 
ATOM     61  C   UNL A   1      41.051  33.212  35.961  1.00  0.00     0.012 A 
ATOM     62  C   UNL A   1      39.169  31.813  36.608  1.00  0.00     0.148 A 
ATOM     63  C   UNL A   1      40.792  34.069  37.030  1.00  0.00     0.002 A 
ATOM     64  C   UNL A   1      38.886  32.698  37.641  1.00  0.00     0.091 A 
ATOM     65  F   UNL A   1      38.436  30.709  36.403  1.00  0.00    -0.205 F 
ATOM     66  C   UNL A   1      39.704  33.819  37.862  1.00  0.00     0.022 A 
BRANCH  64  67
ATOM     67  S   UNL A   1      37.461  32.511  38.718  1.00  0.00     0.127 S 
ATOM     68  O   UNL A   1      37.766  33.468  39.779  1.00  0.00    -0.237 OA
ATOM     69  O   UNL A   1      36.359  32.905  37.839  1.00  0.00    -0.237 OA
ATOM     70  O   UNL A   1      37.444  31.113  39.124  1.00  0.00    -0.744 OA
ENDBRANCH  64  67
ENDBRANCH  46  60
BRANCH  47  71
ATOM     71  C   UNL A   1      42.107  26.609  27.586  1.00  0.00     0.023 A 
ATOM     72  C   UNL A   1      42.713  27.258  26.493  1.00  0.00     0.012 A 
ATOM     73  C   UNL A   1      41.832  25.231  27.499  1.00  0.00     0.148 A 
ATOM     74  C   UNL A   1      43.007  26.558  25.323  1.00  0.00     0.002 A 
ATOM     75  C   UNL A   1      42.179  24.526  26.353  1.00  0.00     0.091 A 
ATOM     76  F   UNL A   1      41.246  24.634  28.547  1.00  0.00    -0.205 F 
ATOM     77  C   UNL A   1      42.749  25.191  25.256  1.00  0.00     0.022 A 
BRANCH  75  78
ATOM     78  S   UNL A   1      42.005  22.743  26.227  1.00  0.00     0.127 S 
ATOM     79  O   UNL A   1      42.656  22.469  24.948  1.00  0.00    -0.237 OA
ATOM     80  O   UNL A   1      42.742  22.286  27.405  1.00  0.00    -0.237 OA
ATOM     81  O   UNL A   1      40.573  22.482  26.275  1.00  0.00    -0.744 OA
ENDBRANCH  75  78
ENDBRANCH  47  71
BRANCH  59  82
ATOM     82  C   UNL A   1      44.937  26.884  33.967  1.00  0.00     0.023 A 
ATOM     83  C   UNL A   1      46.252  27.371  33.836  1.00  0.00     0.012 A 
ATOM     84  C   UNL A   1      44.695  25.755  34.776  1.00  0.00     0.148 A 
ATOM     85  C   UNL A   1      47.313  26.729  34.473  1.00  0.00     0.002 A 
ATOM     86  C   UNL A   1      45.748  25.152  35.452  1.00  0.00     0.091 A 
ATOM     87  F   UNL A   1      43.438  25.299  34.875  1.00  0.00    -0.205 F 
ATOM     88  C   UNL A   1      47.059  25.629  35.290  1.00  0.00     0.022 A 
BRANCH  86  89
ATOM     89  S   UNL A   1      45.507  23.796  36.602  1.00  0.00     0.127 S 
ATOM     90  O   UNL A   1      44.644  24.409  37.610  1.00  0.00    -0.237 OA
ATOM     91  O   UNL A   1      44.849  22.794  35.765  1.00  0.00    -0.237 OA
ATOM     92  O   UNL A   1      46.836  23.419  37.068  1.00  0.00    -0.744 OA
ENDBRANCH  86  89
ENDBRANCH  59  82
ENDBRANCH  33  34
ENDBRANCH  25  28
ENDBRANCH  23  24
ENDBRANCH  22  23
ENDBRANCH   1  22
TORSDOF 17
ENDMDL
MODEL 2
REMARK VINA RESULT:     -11.8      1.860      7.965
REMARK SMILES CCCc1nc(C[N@H+]2CCCC[C@@H]2C(=O)NCCCNC(=O)c2ccc(-c3c4nc(c(-c5cccc(S(=O)(=O)[O-])c5F)c5ccc([nH]5)c(-c5cccc(S(=O)(=O)[O-])c5F)c5nc(c(-c6cccc(S(=O)(=O)[O-])c6F)c6ccc3[nH]6)C=C5)C=C4)cc2)cs1
REMARK SMILES IDX 17 1 16 2 14 3 15 4 13 6 8 7 9 8 10 10 12 11 11 12 7 13 6 14
REMARK SMILES IDX 4 15 5 16 87 17 86 18 3 19 2 20 1 21 18 22 19 23 20 24 21 25
REMARK SMILES IDX 22 27 23 28 24 29 85 30 25 31 84 32 26 33 27 34 28 35 78 36
REMARK SMILES IDX 29 37 83 38 77 39 79 40 30 41 82 42 76 43 75 44 31 46 63 47
REMARK SMILES IDX 43 48 62 49 44 50 47 51 61 52 80 53 45 54 46 55 60 57 81 58
REMARK SMILES IDX 48 59 32 60 33 61 41 62 34 63 36 64 42 65 35 66 37 67 38 68
REMARK SMILES IDX 39 69 40 70 64 71 65 72 73 73 66 74 68 75 74 76 67 77 69 78
REMARK SMILES IDX 70 79 71 80 72 81 49 82 50 83 58 84 51 85 53 86 59 87 52 88
REMARK SMILES IDX 54 89 55 90 56 91 57 92
REMARK H PARENT 16 5 8 9 20 26 79 45 47 56
REMARK Flexibility Score: inf
ROOT
ATOM      1  C   UNL A   1      32.206  29.773  25.958  1.00  0.00     0.118 C 
ENDROOT
BRANCH   1   2
ATOM      2  N   UNL A   1      32.892  29.825  24.678  1.00  0.00    -0.351 N 
ATOM      3  C   UNL A   1      33.351  28.811  23.892  1.00  0.00     0.278 C 
ATOM      4  O   UNL A   1      33.992  29.121  22.882  1.00  0.00    -0.268 OA
ATOM      5  H   UNL A   1      33.048  30.731  24.325  1.00  0.00     0.163 HD
BRANCH   3   6
ATOM      6  C   UNL A   1      33.045  27.332  24.215  1.00  0.00     0.274 C 
ATOM      7  N   UNL A   1      31.582  27.077  24.193  1.00  0.00    -0.320 N 
ATOM      8  C   UNL A   1      31.239  25.711  24.595  1.00  0.00     0.263 C 
ATOM      9  H   UNL A   1      31.207  27.705  24.902  1.00  0.00     0.349 HD
ATOM     10  C   UNL A   1      31.817  25.378  25.971  1.00  0.00     0.062 C 
ATOM     11  C   UNL A   1      33.718  26.934  25.539  1.00  0.00     0.076 C 
ATOM     12  C   UNL A   1      33.332  25.526  25.972  1.00  0.00     0.012 C 
BRANCH   7  13
ATOM     13  C   UNL A   1      30.909  27.470  22.937  1.00  0.00     0.321 C 
BRANCH  13  14
ATOM     14  C   UNL A   1      29.684  28.324  23.112  1.00  0.00     0.106 A 
ATOM     15  C   UNL A   1      28.644  30.287  23.313  1.00  0.00     0.093 A 
ATOM     16  N   UNL A   1      29.825  29.702  23.237  1.00  0.00    -0.240 NA
ATOM     17  S   UNL A   1      27.305  29.213  23.240  1.00  0.00    -0.127 S 
ATOM     18  C   UNL A   1      28.371  27.891  23.103  1.00  0.00     0.096 A 
BRANCH  15  19
ATOM     19  C   UNL A   1      28.501  31.784  23.382  1.00  0.00     0.067 C 
BRANCH  19  20
ATOM     20  C   UNL A   1      28.811  32.591  22.121  1.00  0.00     0.004 C 
ATOM     21  C   UNL A   1      28.065  32.102  20.886  1.00  0.00     0.004 C 
ENDBRANCH  19  20
ENDBRANCH  15  19
ENDBRANCH  13  14
ENDBRANCH   7  13
ENDBRANCH   3   6
ENDBRANCH   1   2
BRANCH   1  22
ATOM     22  C   UNL A   1      31.839  31.172  26.439  1.00  0.00     0.042 C 
BRANCH  22  23
ATOM     23  C   UNL A   1      32.942  31.844  27.244  1.00  0.00     0.118 C 
BRANCH  23  24
ATOM     24  N   UNL A   1      32.681  33.260  27.468  1.00  0.00    -0.352 N 
ATOM     25  C   UNL A   1      33.218  34.105  28.405  1.00  0.00     0.251 C 
ATOM     26  H   UNL A   1      32.023  33.668  26.858  1.00  0.00     0.163 HD
ATOM     27  O   UNL A   1      32.723  35.218  28.580  1.00  0.00    -0.269 OA
BRANCH  25  28
ATOM     28  C   UNL A   1      34.378  33.671  29.209  1.00  0.00     0.039 A 
ATOM     29  C   UNL A   1      34.175  32.790  30.274  1.00  0.00     0.014 A 
ATOM     30  C   UNL A   1      35.665  34.127  28.910  1.00  0.00     0.014 A 
ATOM     31  C   UNL A   1      35.271  32.316  30.997  1.00  0.00     0.010 A 
ATOM     32  C   UNL A   1      36.761  33.585  29.572  1.00  0.00     0.010 A 
ATOM     33  C   UNL A   1      36.577  32.680  30.627  1.00  0.00    -0.014 A 
BRANCH  33  34
ATOM     34  C   UNL A   1      37.762  32.119  31.322  1.00  0.00     0.031 A 
ATOM     35  C   UNL A   1      38.564  31.017  30.683  1.00  0.00     0.074 A 
ATOM     36  C   UNL A   1      38.061  32.536  32.569  1.00  0.00     0.049 A 
ATOM     37  N   UNL A   1      39.583  30.354  31.164  1.00  0.00    -0.248 NA
ATOM     38  C   UNL A   1      38.152  30.585  29.336  1.00  0.00     0.031 C 
ATOM     39  C   UNL A   1      37.314  33.543  33.325  1.00  0.00     0.029 A 
ATOM     40  N   UNL A   1      39.055  32.143  33.431  1.00  0.00    -0.354 N 
ATOM     41  C   UNL A   1      39.909  29.405  30.201  1.00  0.00     0.074 A 
ATOM     42  C   UNL A   1      38.957  29.556  29.123  1.00  0.00     0.031 C 
ATOM     43  C   UNL A   1      37.878  33.692  34.535  1.00  0.00     0.029 A 
ATOM     44  C   UNL A   1      38.997  32.766  34.657  1.00  0.00     0.049 A 
ATOM     45  H   UNL A   1      39.742  31.479  33.195  1.00  0.00     0.167 HD
ATOM     46  C   UNL A   1      40.922  28.508  30.203  1.00  0.00     0.034 A 
ATOM     47  C   UNL A   1      39.751  32.597  35.761  1.00  0.00     0.034 A 
ATOM     48  C   UNL A   1      41.886  28.386  31.263  1.00  0.00     0.049 A 
ATOM     49  C   UNL A   1      40.885  31.608  35.728  1.00  0.00     0.074 A 
ATOM     50  C   UNL A   1      43.002  27.570  31.319  1.00  0.00     0.029 A 
ATOM     51  N   UNL A   1      41.841  29.087  32.459  1.00  0.00    -0.354 N 
ATOM     52  N   UNL A   1      41.272  30.831  34.747  1.00  0.00    -0.248 NA
ATOM     53  C   UNL A   1      41.704  31.494  36.944  1.00  0.00     0.031 C 
ATOM     54  C   UNL A   1      43.611  27.751  32.565  1.00  0.00     0.029 A 
ATOM     55  C   UNL A   1      42.898  28.710  33.268  1.00  0.00     0.049 A 
ATOM     56  H   UNL A   1      41.157  29.753  32.697  1.00  0.00     0.167 HD
ATOM     57  C   UNL A   1      42.401  30.164  35.211  1.00  0.00     0.074 A 
ATOM     58  C   UNL A   1      42.645  30.644  36.556  1.00  0.00     0.031 C 
ATOM     59  C   UNL A   1      43.159  29.230  34.586  1.00  0.00     0.034 A 
BRANCH  46  60
ATOM     60  C   UNL A   1      41.068  27.610  29.002  1.00  0.00     0.023 A 
ATOM     61  C   UNL A   1      40.232  26.483  28.865  1.00  0.00     0.012 A 
ATOM     62  C   UNL A   1      41.988  27.913  27.979  1.00  0.00     0.148 A 
ATOM     63  C   UNL A   1      40.335  25.651  27.751  1.00  0.00     0.002 A 
ATOM     64  C   UNL A   1      42.052  27.108  26.848  1.00  0.00     0.091 A 
ATOM     65  F   UNL A   1      42.789  28.978  28.135  1.00  0.00    -0.205 F 
ATOM     66  C   UNL A   1      41.236  25.970  26.738  1.00  0.00     0.022 A 
BRANCH  64  67
ATOM     67  S   UNL A   1      43.119  27.478  25.452  1.00  0.00     0.127 S 
ATOM     68  O   UNL A   1      43.425  26.139  24.952  1.00  0.00    -0.237 OA
ATOM     69  O   UNL A   1      42.235  28.263  24.590  1.00  0.00    -0.237 OA
ATOM     70  O   UNL A   1      44.252  28.215  25.995  1.00  0.00    -0.744 OA
ENDBRANCH  64  67
ENDBRANCH  46  60
BRANCH  47  71
ATOM     71  C   UNL A   1      39.489  33.420  36.976  1.00  0.00     0.023 A 
ATOM     72  C   UNL A   1      39.993  34.733  37.047  1.00  0.00     0.012 A 
ATOM     73  C   UNL A   1      38.728  32.918  38.049  1.00  0.00     0.148 A 
ATOM     74  C   UNL A   1      39.775  35.519  38.179  1.00  0.00     0.002 A 
ATOM     75  C   UNL A   1      38.464  33.725  39.150  1.00  0.00     0.091 A 
ATOM     76  F   UNL A   1      38.264  31.663  37.966  1.00  0.00    -0.205 F 
ATOM     77  C   UNL A   1      39.003  35.019  39.226  1.00  0.00     0.022 A 
BRANCH  75  78
ATOM     78  S   UNL A   1      37.374  33.215  40.482  1.00  0.00     0.127 S 
ATOM     79  O   UNL A   1      38.107  32.089  41.054  1.00  0.00    -0.237 OA
ATOM     80  O   UNL A   1      37.338  34.416  41.317  1.00  0.00    -0.237 OA
ATOM     81  O   UNL A   1      36.105  32.885  39.848  1.00  0.00    -0.744 OA
ENDBRANCH  75  78
ENDBRANCH  47  71
BRANCH  59  82
ATOM     82  C   UNL A   1      44.355  28.687  35.324  1.00  0.00     0.023 A 
ATOM     83  C   UNL A   1      45.624  29.268  35.133  1.00  0.00     0.012 A 
ATOM     84  C   UNL A   1      44.202  27.656  36.272  1.00  0.00     0.148 A 
ATOM     85  C   UNL A   1      46.728  28.809  35.850  1.00  0.00     0.002 A 
ATOM     86  C   UNL A   1      45.295  27.240  37.022  1.00  0.00     0.091 A 
ATOM     87  F   UNL A   1      42.988  27.107  36.427  1.00  0.00    -0.205 F 
ATOM     88  C   UNL A   1      46.561  27.805  36.802  1.00  0.00     0.022 A 
BRANCH  86  89
ATOM     89  S   UNL A   1      45.158  26.027  38.338  1.00  0.00     0.127 S 
ATOM     90  O   UNL A   1      44.220  26.680  39.249  1.00  0.00    -0.237 OA
ATOM     91  O   UNL A   1      44.614  24.866  37.633  1.00  0.00    -0.237 OA
ATOM     92  O   UNL A   1      46.505  25.842  38.860  1.00  0.00    -0.744 OA
ENDBRANCH  86  89
ENDBRANCH  59  82
ENDBRANCH  33  34
ENDBRANCH  25  28
ENDBRANCH  23  24
ENDBRANCH  22  23
ENDBRANCH   1  22
TORSDOF 17
ENDMDL
MODEL 3
REMARK VINA RESULT:     -11.5      3.080      3.985
REMARK SMILES CCCc1nc(C[N@H+]2CCCC[C@@H]2C(=O)NCCCNC(=O)c2ccc(-c3c4nc(c(-c5cccc(S(=O)(=O)[O-])c5F)c5ccc([nH]5)c(-c5cccc(S(=O)(=O)[O-])c5F)c5nc(c(-c6cccc(S(=O)(=O)[O-])c6F)c6ccc3[nH]6)C=C5)C=C4)cc2)cs1
REMARK SMILES IDX 17 1 16 2 14 3 15 4 13 6 8 7 9 8 10 10 12 11 11 12 7 13 6 14
REMARK SMILES IDX 4 15 5 16 87 17 86 18 3 19 2 20 1 21 18 22 19 23 20 24 21 25
REMARK SMILES IDX 22 27 23 28 24 29 85 30 25 31 84 32 26 33 27 34 28 35 78 36
REMARK SMILES IDX 29 37 83 38 77 39 79 40 30 41 82 42 76 43 75 44 31 46 63 47
REMARK SMILES IDX 43 48 62 49 44 50 47 51 61 52 80 53 45 54 46 55 60 57 81 58
REMARK SMILES IDX 48 59 32 60 33 61 41 62 34 63 36 64 42 65 35 66 37 67 38 68
REMARK SMILES IDX 39 69 40 70 64 71 65 72 73 73 66 74 68 75 74 76 67 77 69 78
REMARK SMILES IDX 70 79 71 80 72 81 49 82 50 83 58 84 51 85 53 86 59 87 52 88
REMARK SMILES IDX 54 89 55 90 56 91 57 92
REMARK H PARENT 16 5 8 9 20 26 79 45 47 56
REMARK Flexibility Score: inf
ROOT
ATOM      1  C   UNL A   1      32.557  26.757  25.875  1.00  0.00     0.118 C 
ENDROOT
BRANCH   1   2
ATOM      2  N   UNL A   1      31.775  25.778  26.612  1.00  0.00    -0.351 N 
ATOM      3  C   UNL A   1      31.853  24.418  26.607  1.00  0.00     0.278 C 
ATOM      4  O   UNL A   1      31.003  23.799  27.257  1.00  0.00    -0.268 OA
ATOM      5  H   UNL A   1      31.086  26.155  27.204  1.00  0.00     0.163 HD
BRANCH   3   6
ATOM      6  C   UNL A   1      32.981  23.672  25.862  1.00  0.00     0.274 C 
ATOM      7  N   UNL A   1      32.430  22.566  25.037  1.00  0.00    -0.320 N 
ATOM      8  C   UNL A   1      33.474  21.765  24.393  1.00  0.00     0.263 C 
ATOM      9  H   UNL A   1      31.957  21.963  25.710  1.00  0.00     0.349 HD
ATOM     10  C   UNL A   1      34.465  21.219  25.422  1.00  0.00     0.062 C 
ATOM     11  C   UNL A   1      34.058  23.216  26.860  1.00  0.00     0.076 C 
ATOM     12  C   UNL A   1      35.122  22.354  26.195  1.00  0.00     0.012 C 
BRANCH   7  13
ATOM     13  C   UNL A   1      31.378  22.976  24.083  1.00  0.00     0.321 C 
BRANCH  13  14
ATOM     14  C   UNL A   1      31.733  24.149  23.212  1.00  0.00     0.106 A 
ATOM     15  C   UNL A   1      31.434  26.230  22.466  1.00  0.00     0.093 A 
ATOM     16  N   UNL A   1      30.932  25.286  23.240  1.00  0.00    -0.240 NA
ATOM     17  S   UNL A   1      32.894  25.801  21.666  1.00  0.00    -0.127 S 
ATOM     18  C   UNL A   1      32.843  24.262  22.396  1.00  0.00     0.096 A 
BRANCH  15  19
ATOM     19  C   UNL A   1      30.807  27.594  22.364  1.00  0.00     0.067 C 
BRANCH  19  20
ATOM     20  C   UNL A   1      29.921  28.061  23.519  1.00  0.00     0.004 C 
ATOM     21  C   UNL A   1      28.472  28.305  23.116  1.00  0.00     0.004 C 
ENDBRANCH  19  20
ENDBRANCH  15  19
ENDBRANCH  13  14
ENDBRANCH   7  13
ENDBRANCH   3   6
ENDBRANCH   1   2
BRANCH   1  22
ATOM     22  C   UNL A   1      32.773  28.018  26.703  1.00  0.00     0.042 C 
BRANCH  22  23
ATOM     23  C   UNL A   1      33.883  28.911  26.167  1.00  0.00     0.118 C 
BRANCH  23  24
ATOM     24  N   UNL A   1      33.813  30.265  26.704  1.00  0.00    -0.352 N 
ATOM     25  C   UNL A   1      34.606  30.867  27.648  1.00  0.00     0.251 C 
ATOM     26  H   UNL A   1      33.094  30.827  26.335  1.00  0.00     0.163 HD
ATOM     27  O   UNL A   1      34.268  31.947  28.131  1.00  0.00    -0.269 OA
BRANCH  25  28
ATOM     28  C   UNL A   1      35.851  30.209  28.092  1.00  0.00     0.039 A 
ATOM     29  C   UNL A   1      36.978  30.263  27.269  1.00  0.00     0.014 A 
ATOM     30  C   UNL A   1      35.909  29.546  29.320  1.00  0.00     0.014 A 
ATOM     31  C   UNL A   1      38.181  29.707  27.709  1.00  0.00     0.010 A 
ATOM     32  C   UNL A   1      37.128  29.074  29.794  1.00  0.00     0.010 A 
ATOM     33  C   UNL A   1      38.275  29.142  28.992  1.00  0.00    -0.014 A 
BRANCH  33  34
ATOM     34  C   UNL A   1      39.564  28.626  29.517  1.00  0.00     0.031 A 
ATOM     35  C   UNL A   1      40.281  29.358  30.620  1.00  0.00     0.074 A 
ATOM     36  C   UNL A   1      40.136  27.551  28.937  1.00  0.00     0.049 A 
ATOM     37  N   UNL A   1      41.445  29.103  31.157  1.00  0.00    -0.248 NA
ATOM     38  C   UNL A   1      39.613  30.548  31.175  1.00  0.00     0.031 C 
ATOM     39  C   UNL A   1      39.578  26.801  27.810  1.00  0.00     0.029 A 
ATOM     40  N   UNL A   1      41.328  26.921  29.197  1.00  0.00    -0.354 N 
ATOM     41  C   UNL A   1      41.667  30.117  32.082  1.00  0.00     0.074 A 
ATOM     42  C   UNL A   1      40.532  31.011  32.009  1.00  0.00     0.031 C 
ATOM     43  C   UNL A   1      40.422  25.812  27.478  1.00  0.00     0.029 A 
ATOM     44  C   UNL A   1      41.598  25.880  28.338  1.00  0.00     0.049 A 
ATOM     45  H   UNL A   1      41.932  27.189  29.926  1.00  0.00     0.167 HD
ATOM     46  C   UNL A   1      42.708  30.276  32.933  1.00  0.00     0.034 A 
ATOM     47  C   UNL A   1      42.679  25.081  28.244  1.00  0.00     0.034 A 
ATOM     48  C   UNL A   1      43.817  29.366  33.025  1.00  0.00     0.049 A 
ATOM     49  C   UNL A   1      43.813  25.267  29.216  1.00  0.00     0.074 A 
ATOM     50  C   UNL A   1      44.876  29.390  33.916  1.00  0.00     0.029 A 
ATOM     51  N   UNL A   1      44.020  28.279  32.190  1.00  0.00    -0.354 N 
ATOM     52  N   UNL A   1      43.931  26.137  30.188  1.00  0.00    -0.248 NA
ATOM     53  C   UNL A   1      44.949  24.340  29.098  1.00  0.00     0.031 C 
ATOM     54  C   UNL A   1      45.739  28.338  33.594  1.00  0.00     0.029 A 
ATOM     55  C   UNL A   1      45.196  27.633  32.531  1.00  0.00     0.049 A 
ATOM     56  H   UNL A   1      43.417  28.005  31.461  1.00  0.00     0.167 HD
ATOM     57  C   UNL A   1      45.133  25.842  30.821  1.00  0.00     0.074 A 
ATOM     58  C   UNL A   1      45.697  24.698  30.133  1.00  0.00     0.031 C 
ATOM     59  C   UNL A   1      45.723  26.468  31.869  1.00  0.00     0.034 A 
BRANCH  46  60
ATOM     60  C   UNL A   1      42.679  31.460  33.864  1.00  0.00     0.023 A 
ATOM     61  C   UNL A   1      43.224  32.693  33.446  1.00  0.00     0.012 A 
ATOM     62  C   UNL A   1      42.062  31.373  35.127  1.00  0.00     0.148 A 
ATOM     63  C   UNL A   1      43.188  33.807  34.284  1.00  0.00     0.002 A 
ATOM     64  C   UNL A   1      41.986  32.500  35.937  1.00  0.00     0.091 A 
ATOM     65  F   UNL A   1      41.566  30.189  35.516  1.00  0.00    -0.205 F 
ATOM     66  C   UNL A   1      42.560  33.714  35.523  1.00  0.00     0.022 A 
BRANCH  64  67
ATOM     67  S   UNL A   1      41.127  32.507  37.514  1.00  0.00     0.127 S 
ATOM     68  O   UNL A   1      39.817  31.975  37.139  1.00  0.00    -0.237 OA
ATOM     69  O   UNL A   1      41.948  31.596  38.313  1.00  0.00    -0.237 OA
ATOM     70  O   UNL A   1      41.132  33.889  37.970  1.00  0.00    -0.744 OA
ENDBRANCH  64  67
ENDBRANCH  46  60
BRANCH  47  71
ATOM     71  C   UNL A   1      42.720  23.999  27.219  1.00  0.00     0.023 A 
ATOM     72  C   UNL A   1      43.375  24.228  25.993  1.00  0.00     0.012 A 
ATOM     73  C   UNL A   1      42.133  22.741  27.459  1.00  0.00     0.148 A 
ATOM     74  C   UNL A   1      43.414  23.238  25.011  1.00  0.00     0.002 A 
ATOM     75  C   UNL A   1      42.225  21.739  26.500  1.00  0.00     0.091 A 
ATOM     76  F   UNL A   1      41.507  22.547  28.628  1.00  0.00    -0.205 F 
ATOM     77  C   UNL A   1      42.848  21.991  25.268  1.00  0.00     0.022 A 
BRANCH  75  78
ATOM     78  S   UNL A   1      41.643  20.066  26.794  1.00  0.00     0.127 S 
ATOM     79  O   UNL A   1      40.274  20.301  27.246  1.00  0.00    -0.237 OA
ATOM     80  O   UNL A   1      41.760  19.470  25.463  1.00  0.00    -0.237 OA
ATOM     81  O   UNL A   1      42.548  19.503  27.787  1.00  0.00    -0.744 OA
ENDBRANCH  75  78
ENDBRANCH  47  71
BRANCH  59  82
ATOM     82  C   UNL A   1      47.029  25.911  32.374  1.00  0.00     0.023 A 
ATOM     83  C   UNL A   1      47.049  25.085  33.515  1.00  0.00     0.012 A 
ATOM     84  C   UNL A   1      48.225  26.141  31.665  1.00  0.00     0.148 A 
ATOM     85  C   UNL A   1      48.245  24.522  33.960  1.00  0.00     0.002 A 
ATOM     86  C   UNL A   1      49.402  25.534  32.083  1.00  0.00     0.091 A 
ATOM     87  F   UNL A   1      48.186  26.943  30.591  1.00  0.00    -0.205 F 
ATOM     88  C   UNL A   1      49.416  24.735  33.238  1.00  0.00     0.022 A 
BRANCH  86  89
ATOM     89  S   UNL A   1      50.938  25.668  31.163  1.00  0.00     0.127 S 
ATOM     90  O   UNL A   1      51.835  24.830  31.956  1.00  0.00    -0.237 OA
ATOM     91  O   UNL A   1      50.569  25.106  29.863  1.00  0.00    -0.237 OA
ATOM     92  O   UNL A   1      51.272  27.086  31.138  1.00  0.00    -0.744 OA
ENDBRANCH  86  89
ENDBRANCH  59  82
ENDBRANCH  33  34
ENDBRANCH  25  28
ENDBRANCH  23  24
ENDBRANCH  22  23
ENDBRANCH   1  22
TORSDOF 17
ENDMDL
