MODEL 1
REMARK VINA RESULT:     -13.9      0.000      0.000
REMARK SMILES O=C(NCCCNC(=O)c1cc(SCc2csc(-c3ccsc3)n2)ccn1)c1ccc(-c2c3nc(c(-c4cccc(S(=O)(=O)[O-])c4F)c4ccc([nH]4)c(-c4cccc(S(=O)(=O)[O-])c4F)c4nc(c(-c5cccc(S(=O)(=O)[O-])c5F)c5ccc2[nH]5)C=C4)C=C3)cc1
REMARK SMILES IDX 5 1 4 2 3 3 1 4 2 5 28 7 29 8 90 9 30 10 89 11 31 12 32 13
REMARK SMILES IDX 33 14 83 15 34 16 88 17 82 18 84 19 35 20 87 21 81 22 80 23
REMARK SMILES IDX 36 25 68 26 48 27 67 28 49 29 52 30 66 31 85 32 50 33 51 34
REMARK SMILES IDX 65 36 86 37 53 38 37 39 38 40 46 41 39 42 41 43 47 44 40 45
REMARK SMILES IDX 42 46 43 47 44 48 45 49 69 50 70 51 78 52 71 53 73 54 79 55
REMARK SMILES IDX 72 56 74 57 75 58 76 59 77 60 54 61 55 62 63 63 56 64 58 65
REMARK SMILES IDX 64 66 57 67 59 68 60 69 61 70 62 71 6 72 7 73 8 74 9 76
REMARK SMILES IDX 10 77 11 78 27 79 12 80 26 81 25 82 13 83 14 84 15 85 16 86
REMARK SMILES IDX 24 87 17 88 18 89 19 90 20 91 23 92 21 93 22 94
REMARK H PARENT 3 6 84 24 52 35 7 75
REMARK Flexibility Score: inf
ROOT
ATOM      1  C   UNL A   1      32.616  29.725  25.702  1.00  0.00     0.042 C 
ENDROOT
BRANCH   1   2
ATOM      2  C   UNL A   1      31.285  30.471  25.720  1.00  0.00     0.118 C 
BRANCH   2   3
ATOM      3  N   UNL A   1      31.360  32.068  26.379  1.00  0.00    -0.352 N 
ATOM      4  O   UNL A   1      32.731  34.250  27.951  1.00  0.00    -0.269 OA
ATOM      5  C   UNL A   1      32.745  33.086  27.457  1.00  0.00     0.251 C 
ATOM      6  H   UNL A   1      30.554  32.599  26.191  1.00  0.00     0.163 HD
BRANCH   5   7
ATOM      7  C   UNL A   1      34.360  32.465  28.009  1.00  0.00     0.039 A 
ATOM      8  C   UNL A   1      34.595  31.188  28.622  1.00  0.00     0.014 A 
ATOM      9  C   UNL A   1      35.486  33.299  27.947  1.00  0.00     0.014 A 
ATOM     10  C   UNL A   1      35.769  30.808  29.218  1.00  0.00     0.010 A 
ATOM     11  C   UNL A   1      36.732  32.879  28.495  1.00  0.00     0.010 A 
ATOM     12  C   UNL A   1      36.867  31.634  29.141  1.00  0.00    -0.014 A 
BRANCH  12  13
ATOM     13  C   UNL A   1      38.054  31.099  29.844  1.00  0.00     0.031 A 
ATOM     14  C   UNL A   1      38.240  31.392  31.300  1.00  0.00     0.074 A 
ATOM     15  C   UNL A   1      38.780  30.129  29.245  1.00  0.00     0.049 A 
ATOM     16  N   UNL A   1      39.141  30.928  32.122  1.00  0.00    -0.248 NA
ATOM     17  C   UNL A   1      37.265  32.303  31.923  1.00  0.00     0.031 C 
ATOM     18  C   UNL A   1      38.562  29.634  27.879  1.00  0.00     0.029 A 
ATOM     19  N   UNL A   1      39.800  29.343  29.717  1.00  0.00    -0.354 N 
ATOM     20  C   UNL A   1      38.897  31.550  33.338  1.00  0.00     0.074 A 
ATOM     21  C   UNL A   1      37.735  32.393  33.159  1.00  0.00     0.031 C 
ATOM     22  C   UNL A   1      39.408  28.622  27.633  1.00  0.00     0.029 A 
ATOM     23  C   UNL A   1      40.284  28.455  28.784  1.00  0.00     0.049 A 
ATOM     24  H   UNL A   1      40.152  29.408  30.634  1.00  0.00     0.167 HD
ATOM     25  C   UNL A   1      39.597  31.440  34.490  1.00  0.00     0.034 A 
ATOM     26  C   UNL A   1      41.350  27.633  28.833  1.00  0.00     0.034 A 
ATOM     27  C   UNL A   1      40.738  30.576  34.653  1.00  0.00     0.049 A 
ATOM     28  C   UNL A   1      42.159  27.599  30.097  1.00  0.00     0.074 A 
ATOM     29  C   UNL A   1      41.528  30.400  35.774  1.00  0.00     0.029 A 
ATOM     30  N   UNL A   1      41.260  29.757  33.661  1.00  0.00    -0.354 N 
ATOM     31  N   UNL A   1      41.930  28.203  31.238  1.00  0.00    -0.248 NA
ATOM     32  C   UNL A   1      43.365  26.763  30.089  1.00  0.00     0.031 C 
ATOM     33  C   UNL A   1      42.560  29.518  35.442  1.00  0.00     0.029 A 
ATOM     34  C   UNL A   1      42.376  29.091  34.136  1.00  0.00     0.049 A 
ATOM     35  H   UNL A   1      40.890  29.664  32.754  1.00  0.00     0.167 HD
ATOM     36  C   UNL A   1      42.939  27.790  32.097  1.00  0.00     0.074 A 
ATOM     37  C   UNL A   1      43.769  26.868  31.347  1.00  0.00     0.031 C 
ATOM     38  C   UNL A   1      43.163  28.145  33.386  1.00  0.00     0.034 A 
BRANCH  25  39
ATOM     39  C   UNL A   1      39.199  32.334  35.633  1.00  0.00     0.023 A 
ATOM     40  C   UNL A   1      38.315  31.882  36.633  1.00  0.00     0.012 A 
ATOM     41  C   UNL A   1      39.730  33.636  35.714  1.00  0.00     0.148 A 
ATOM     42  C   UNL A   1      37.936  32.729  37.675  1.00  0.00     0.002 A 
ATOM     43  C   UNL A   1      39.390  34.455  36.782  1.00  0.00     0.091 A 
ATOM     44  F   UNL A   1      40.547  34.055  34.738  1.00  0.00    -0.205 F 
ATOM     45  C   UNL A   1      38.480  34.010  37.755  1.00  0.00     0.022 A 
BRANCH  43  46
ATOM     46  S   UNL A   1      40.101  36.087  37.013  1.00  0.00     0.127 S 
ATOM     47  O   UNL A   1      39.342  36.579  38.163  1.00  0.00    -0.237 OA
ATOM     48  O   UNL A   1      41.501  35.771  37.296  1.00  0.00    -0.237 OA
ATOM     49  O   UNL A   1      39.878  36.805  35.766  1.00  0.00    -0.744 OA
ENDBRANCH  43  46
ENDBRANCH  25  39
BRANCH  26  50
ATOM     50  C   UNL A   1      41.734  26.817  27.645  1.00  0.00     0.023 A 
ATOM     51  C   UNL A   1      42.358  27.427  26.540  1.00  0.00     0.012 A 
ATOM     52  C   UNL A   1      41.471  25.432  27.604  1.00  0.00     0.148 A 
ATOM     53  C   UNL A   1      42.681  26.681  25.405  1.00  0.00     0.002 A 
ATOM     54  C   UNL A   1      41.851  24.684  26.497  1.00  0.00     0.091 A 
ATOM     55  F   UNL A   1      40.860  24.870  28.656  1.00  0.00    -0.205 F 
ATOM     56  C   UNL A   1      42.436  25.310  25.387  1.00  0.00     0.022 A 
BRANCH  54  57
ATOM     57  S   UNL A   1      41.684  22.897  26.436  1.00  0.00     0.127 S 
ATOM     58  O   UNL A   1      42.374  22.491  27.657  1.00  0.00    -0.237 OA
ATOM     59  O   UNL A   1      40.230  22.733  26.466  1.00  0.00    -0.237 OA
ATOM     60  O   UNL A   1      42.312  22.482  25.190  1.00  0.00    -0.744 OA
ENDBRANCH  54  57
ENDBRANCH  26  50
BRANCH  38  61
ATOM     61  C   UNL A   1      44.313  27.479  34.094  1.00  0.00     0.023 A 
ATOM     62  C   UNL A   1      45.598  28.059  34.075  1.00  0.00     0.012 A 
ATOM     63  C   UNL A   1      44.099  26.294  34.824  1.00  0.00     0.148 A 
ATOM     64  C   UNL A   1      46.660  27.443  34.734  1.00  0.00     0.002 A 
ATOM     65  C   UNL A   1      45.148  25.720  35.529  1.00  0.00     0.091 A 
ATOM     66  F   UNL A   1      42.874  25.748  34.813  1.00  0.00    -0.205 F 
ATOM     67  C   UNL A   1      46.433  26.282  35.470  1.00  0.00     0.022 A 
BRANCH  65  68
ATOM     68  S   UNL A   1      44.920  24.289  36.589  1.00  0.00     0.127 S 
ATOM     69  O   UNL A   1      44.081  24.837  37.653  1.00  0.00    -0.237 OA
ATOM     70  O   UNL A   1      44.239  23.350  35.697  1.00  0.00    -0.237 OA
ATOM     71  O   UNL A   1      46.254  23.874  36.999  1.00  0.00    -0.744 OA
ENDBRANCH  65  68
ENDBRANCH  38  61
ENDBRANCH  12  13
ENDBRANCH   5   7
ENDBRANCH   2   3
ENDBRANCH   1   2
BRANCH   1  72
ATOM     72  C   UNL A   1      32.920  29.241  24.319  1.00  0.00     0.118 C 
BRANCH  72  73
ATOM     73  N   UNL A   1      31.846  29.587  23.407  1.00  0.00    -0.351 N 
ATOM     74  C   UNL A   1      31.001  28.723  22.751  1.00  0.00     0.269 C 
ATOM     75  H   UNL A   1      31.707  30.547  23.239  1.00  0.00     0.163 HD
ATOM     76  O   UNL A   1      30.271  29.139  21.859  1.00  0.00    -0.268 OA
BRANCH  74  77
ATOM     77  C   UNL A   1      31.019  27.293  23.174  1.00  0.00     0.129 A 
ATOM     78  C   UNL A   1      32.098  26.497  22.782  1.00  0.00     0.049 A 
ATOM     79  N   UNL A   1      29.885  26.824  23.738  1.00  0.00    -0.251 NA
ATOM     80  C   UNL A   1      31.948  25.121  22.827  1.00  0.00     0.011 A 
ATOM     81  C   UNL A   1      29.812  25.491  23.886  1.00  0.00     0.113 A 
ATOM     82  C   UNL A   1      30.794  24.614  23.438  1.00  0.00     0.035 A 
BRANCH  80  83
ATOM     83  S   UNL A   1      33.114  23.954  22.133  1.00  0.00    -0.120 SA
BRANCH  83  84
ATOM     84  C   UNL A   1      34.551  23.885  23.294  1.00  0.00     0.132 C 
BRANCH  84  85
ATOM     85  C   UNL A   1      34.467  22.849  24.388  1.00  0.00     0.062 A 
ATOM     86  C   UNL A   1      34.359  23.036  25.754  1.00  0.00     0.091 A 
ATOM     87  N   UNL A   1      34.590  21.504  24.036  1.00  0.00    -0.240 NA
ATOM     88  S   UNL A   1      34.129  21.522  26.552  1.00  0.00    -0.122 S 
ATOM     89  C   UNL A   1      34.365  20.710  25.074  1.00  0.00     0.124 A 
BRANCH  89  90
ATOM     90  C   UNL A   1      34.199  19.227  24.828  1.00  0.00     0.021 A 
ATOM     91  C   UNL A   1      32.575  18.408  25.425  1.00  0.00     0.023 A 
ATOM     92  C   UNL A   1      35.528  18.041  24.591  1.00  0.00     0.076 A 
ATOM     93  C   UNL A   1      32.666  16.682  25.632  1.00  0.00     0.065 A 
ATOM     94  S   UNL A   1      34.758  15.823  25.186  1.00  0.00    -0.152 S 
ENDBRANCH  89  90
ENDBRANCH  84  85
ENDBRANCH  83  84
ENDBRANCH  80  83
ENDBRANCH  74  77
ENDBRANCH  72  73
ENDBRANCH   1  72
TORSDOF 17
ENDMDL
MODEL 2
REMARK VINA RESULT:     -13.5      1.678      2.190
REMARK SMILES O=C(NCCCNC(=O)c1cc(SCc2csc(-c3ccsc3)n2)ccn1)c1ccc(-c2c3nc(c(-c4cccc(S(=O)(=O)[O-])c4F)c4ccc([nH]4)c(-c4cccc(S(=O)(=O)[O-])c4F)c4nc(c(-c5cccc(S(=O)(=O)[O-])c5F)c5ccc2[nH]5)C=C4)C=C3)cc1
REMARK SMILES IDX 5 1 4 2 3 3 1 4 2 5 28 7 29 8 90 9 30 10 89 11 31 12 32 13
REMARK SMILES IDX 33 14 83 15 34 16 88 17 82 18 84 19 35 20 87 21 81 22 80 23
REMARK SMILES IDX 36 25 68 26 48 27 67 28 49 29 52 30 66 31 85 32 50 33 51 34
REMARK SMILES IDX 65 36 86 37 53 38 37 39 38 40 46 41 39 42 41 43 47 44 40 45
REMARK SMILES IDX 42 46 43 47 44 48 45 49 69 50 70 51 78 52 71 53 73 54 79 55
REMARK SMILES IDX 72 56 74 57 75 58 76 59 77 60 54 61 55 62 63 63 56 64 58 65
REMARK SMILES IDX 64 66 57 67 59 68 60 69 61 70 62 71 6 72 7 73 8 74 9 76
REMARK SMILES IDX 10 77 11 78 27 79 12 80 26 81 25 82 13 83 14 84 15 85 16 86
REMARK SMILES IDX 24 87 17 88 18 89 19 90 20 91 23 92 21 93 22 94
REMARK H PARENT 3 6 84 24 52 35 7 75
REMARK Flexibility Score: inf
ROOT
ATOM      1  C   UNL A   1      31.844  29.662  26.745  1.00  0.00     0.042 C 
ENDROOT
BRANCH   1   2
ATOM      2  C   UNL A   1      31.366  30.807  25.857  1.00  0.00     0.118 C 
BRANCH   2   3
ATOM      3  N   UNL A   1      31.458  32.373  26.585  1.00  0.00    -0.352 N 
ATOM      4  O   UNL A   1      32.855  34.472  28.245  1.00  0.00    -0.269 OA
ATOM      5  C   UNL A   1      32.856  33.331  27.701  1.00  0.00     0.251 C 
ATOM      6  H   UNL A   1      30.656  32.920  26.424  1.00  0.00     0.163 HD
BRANCH   5   7
ATOM      7  C   UNL A   1      34.467  32.671  28.219  1.00  0.00     0.039 A 
ATOM      8  C   UNL A   1      34.685  31.388  28.826  1.00  0.00     0.014 A 
ATOM      9  C   UNL A   1      35.611  33.479  28.134  1.00  0.00     0.014 A 
ATOM     10  C   UNL A   1      35.862  30.980  29.397  1.00  0.00     0.010 A 
ATOM     11  C   UNL A   1      36.858  33.028  28.655  1.00  0.00     0.010 A 
ATOM     12  C   UNL A   1      36.977  31.780  29.297  1.00  0.00    -0.014 A 
BRANCH  12  13
ATOM     13  C   UNL A   1      38.165  31.217  29.976  1.00  0.00     0.031 A 
ATOM     14  C   UNL A   1      38.388  31.504  31.428  1.00  0.00     0.074 A 
ATOM     15  C   UNL A   1      38.855  30.230  29.362  1.00  0.00     0.049 A 
ATOM     16  N   UNL A   1      39.296  31.018  32.231  1.00  0.00    -0.248 NA
ATOM     17  C   UNL A   1      37.449  32.437  32.071  1.00  0.00     0.031 C 
ATOM     18  C   UNL A   1      38.598  29.742  28.000  1.00  0.00     0.029 A 
ATOM     19  N   UNL A   1      39.866  29.420  29.811  1.00  0.00    -0.354 N 
ATOM     20  C   UNL A   1      39.092  31.645  33.452  1.00  0.00     0.074 A 
ATOM     21  C   UNL A   1      37.946  32.515  33.297  1.00  0.00     0.031 C 
ATOM     22  C   UNL A   1      39.414  28.710  27.737  1.00  0.00     0.029 A 
ATOM     23  C   UNL A   1      40.310  28.521  28.868  1.00  0.00     0.049 A 
ATOM     24  H   UNL A   1      40.239  29.476  30.721  1.00  0.00     0.167 HD
ATOM     25  C   UNL A   1      39.813  31.517  34.588  1.00  0.00     0.034 A 
ATOM     26  C   UNL A   1      41.357  27.675  28.895  1.00  0.00     0.034 A 
ATOM     27  C   UNL A   1      40.936  30.627  34.727  1.00  0.00     0.049 A 
ATOM     28  C   UNL A   1      42.191  27.621  30.142  1.00  0.00     0.074 A 
ATOM     29  C   UNL A   1      41.745  30.431  35.832  1.00  0.00     0.029 A 
ATOM     30  N   UNL A   1      41.418  29.797  33.725  1.00  0.00    -0.354 N 
ATOM     31  N   UNL A   1      42.000  28.229  31.288  1.00  0.00    -0.248 NA
ATOM     32  C   UNL A   1      43.376  26.756  30.108  1.00  0.00     0.031 C 
ATOM     33  C   UNL A   1      42.749  29.525  35.478  1.00  0.00     0.029 A 
ATOM     34  C   UNL A   1      42.527  29.103  34.176  1.00  0.00     0.049 A 
ATOM     35  H   UNL A   1      41.026  29.713  32.825  1.00  0.00     0.167 HD
ATOM     36  C   UNL A   1      43.017  27.791  32.125  1.00  0.00     0.074 A 
ATOM     37  C   UNL A   1      43.809  26.850  31.358  1.00  0.00     0.031 C 
ATOM     38  C   UNL A   1      43.276  28.139  33.409  1.00  0.00     0.034 A 
BRANCH  25  39
ATOM     39  C   UNL A   1      39.461  32.420  35.740  1.00  0.00     0.023 A 
ATOM     40  C   UNL A   1      39.976  33.729  35.819  1.00  0.00     0.012 A 
ATOM     41  C   UNL A   1      38.590  31.956  36.745  1.00  0.00     0.148 A 
ATOM     42  C   UNL A   1      39.659  34.547  36.904  1.00  0.00     0.002 A 
ATOM     43  C   UNL A   1      38.238  32.794  37.794  1.00  0.00     0.091 A 
ATOM     44  F   UNL A   1      38.134  30.698  36.665  1.00  0.00    -0.205 F 
ATOM     45  C   UNL A   1      38.783  34.085  37.884  1.00  0.00     0.022 A 
BRANCH  43  46
ATOM     46  S   UNL A   1      37.056  32.315  39.058  1.00  0.00     0.127 S 
ATOM     47  O   UNL A   1      37.484  33.139  40.189  1.00  0.00    -0.237 OA
ATOM     48  O   UNL A   1      35.785  32.719  38.456  1.00  0.00    -0.237 OA
ATOM     49  O   UNL A   1      37.216  30.879  39.238  1.00  0.00    -0.744 OA
ENDBRANCH  43  46
ENDBRANCH  25  39
BRANCH  26  50
ATOM     50  C   UNL A   1      41.696  26.850  27.699  1.00  0.00     0.023 A 
ATOM     51  C   UNL A   1      42.316  27.445  26.584  1.00  0.00     0.012 A 
ATOM     52  C   UNL A   1      41.395  25.473  27.661  1.00  0.00     0.148 A 
ATOM     53  C   UNL A   1      42.597  26.693  25.442  1.00  0.00     0.002 A 
ATOM     54  C   UNL A   1      41.734  24.717  26.546  1.00  0.00     0.091 A 
ATOM     55  F   UNL A   1      40.788  24.926  28.724  1.00  0.00    -0.205 F 
ATOM     56  C   UNL A   1      42.315  25.328  25.427  1.00  0.00     0.022 A 
BRANCH  54  57
ATOM     57  S   UNL A   1      41.517  22.936  26.486  1.00  0.00     0.127 S 
ATOM     58  O   UNL A   1      42.192  22.594  25.238  1.00  0.00    -0.237 OA
ATOM     59  O   UNL A   1      42.213  22.509  27.701  1.00  0.00    -0.237 OA
ATOM     60  O   UNL A   1      40.079  22.710  26.506  1.00  0.00    -0.744 OA
ENDBRANCH  54  57
ENDBRANCH  26  50
BRANCH  38  61
ATOM     61  C   UNL A   1      44.425  27.447  34.093  1.00  0.00     0.023 A 
ATOM     62  C   UNL A   1      45.733  27.964  33.997  1.00  0.00     0.012 A 
ATOM     63  C   UNL A   1      44.189  26.300  34.876  1.00  0.00     0.148 A 
ATOM     64  C   UNL A   1      46.793  27.322  34.634  1.00  0.00     0.002 A 
ATOM     65  C   UNL A   1      45.241  25.703  35.558  1.00  0.00     0.091 A 
ATOM     66  F   UNL A   1      42.941  25.813  34.938  1.00  0.00    -0.205 F 
ATOM     67  C   UNL A   1      46.547  26.201  35.423  1.00  0.00     0.022 A 
BRANCH  65  68
ATOM     68  S   UNL A   1      44.995  24.324  36.681  1.00  0.00     0.127 S 
ATOM     69  O   UNL A   1      44.423  23.314  35.791  1.00  0.00    -0.237 OA
ATOM     70  O   UNL A   1      46.360  24.042  37.125  1.00  0.00    -0.237 OA
ATOM     71  O   UNL A   1      44.106  24.809  37.727  1.00  0.00    -0.744 OA
ENDBRANCH  65  68
ENDBRANCH  38  61
ENDBRANCH  12  13
ENDBRANCH   5   7
ENDBRANCH   2   3
ENDBRANCH   1   2
BRANCH   1  72
ATOM     72  C   UNL A   1      32.227  28.483  25.908  1.00  0.00     0.118 C 
BRANCH  72  73
ATOM     73  N   UNL A   1      31.050  27.859  25.332  1.00  0.00    -0.351 N 
ATOM     74  C   UNL A   1      30.801  26.512  25.205  1.00  0.00     0.269 C 
ATOM     75  H   UNL A   1      30.353  28.467  24.995  1.00  0.00     0.163 HD
ATOM     76  O   UNL A   1      29.860  26.126  24.521  1.00  0.00    -0.268 OA
BRANCH  74  77
ATOM     77  C   UNL A   1      31.710  25.575  25.925  1.00  0.00     0.129 A 
ATOM     78  C   UNL A   1      33.064  25.565  25.582  1.00  0.00     0.049 A 
ATOM     79  N   UNL A   1      31.113  24.661  26.721  1.00  0.00    -0.251 NA
ATOM     80  C   UNL A   1      33.825  24.468  25.947  1.00  0.00     0.011 A 
ATOM     81  C   UNL A   1      31.903  23.669  27.166  1.00  0.00     0.113 A 
ATOM     82  C   UNL A   1      33.236  23.525  26.799  1.00  0.00     0.035 A 
BRANCH  80  83
ATOM     83  S   UNL A   1      35.496  24.163  25.382  1.00  0.00    -0.120 SA
BRANCH  83  84
ATOM     84  C   UNL A   1      35.356  23.223  23.797  1.00  0.00     0.132 C 
BRANCH  84  85
ATOM     85  C   UNL A   1      34.269  22.179  23.740  1.00  0.00     0.062 A 
ATOM     86  C   UNL A   1      33.081  22.201  23.032  1.00  0.00     0.091 A 
ATOM     87  N   UNL A   1      34.391  21.052  24.555  1.00  0.00    -0.240 NA
ATOM     88  S   UNL A   1      32.266  20.685  23.178  1.00  0.00    -0.122 S 
ATOM     89  C   UNL A   1      33.436  20.167  24.301  1.00  0.00     0.124 A 
BRANCH  89  90
ATOM     90  C   UNL A   1      33.557  18.783  24.899  1.00  0.00     0.021 A 
ATOM     91  C   UNL A   1      35.145  17.788  24.508  1.00  0.00     0.023 A 
ATOM     92  C   UNL A   1      32.192  17.737  25.421  1.00  0.00     0.076 A 
ATOM     93  C   UNL A   1      34.995  16.066  24.726  1.00  0.00     0.065 A 
ATOM     94  S   UNL A   1      32.881  15.415  25.377  1.00  0.00    -0.152 S 
ENDBRANCH  89  90
ENDBRANCH  84  85
ENDBRANCH  83  84
ENDBRANCH  80  83
ENDBRANCH  74  77
ENDBRANCH  72  73
ENDBRANCH   1  72
TORSDOF 17
ENDMDL
MODEL 3
REMARK VINA RESULT:     -13.0      1.757      3.299
REMARK SMILES O=C(NCCCNC(=O)c1cc(SCc2csc(-c3ccsc3)n2)ccn1)c1ccc(-c2c3nc(c(-c4cccc(S(=O)(=O)[O-])c4F)c4ccc([nH]4)c(-c4cccc(S(=O)(=O)[O-])c4F)c4nc(c(-c5cccc(S(=O)(=O)[O-])c5F)c5ccc2[nH]5)C=C4)C=C3)cc1
REMARK SMILES IDX 5 1 4 2 3 3 1 4 2 5 28 7 29 8 90 9 30 10 89 11 31 12 32 13
REMARK SMILES IDX 33 14 83 15 34 16 88 17 82 18 84 19 35 20 87 21 81 22 80 23
REMARK SMILES IDX 36 25 68 26 48 27 67 28 49 29 52 30 66 31 85 32 50 33 51 34
REMARK SMILES IDX 65 36 86 37 53 38 37 39 38 40 46 41 39 42 41 43 47 44 40 45
REMARK SMILES IDX 42 46 43 47 44 48 45 49 69 50 70 51 78 52 71 53 73 54 79 55
REMARK SMILES IDX 72 56 74 57 75 58 76 59 77 60 54 61 55 62 63 63 56 64 58 65
REMARK SMILES IDX 64 66 57 67 59 68 60 69 61 70 62 71 6 72 7 73 8 74 9 76
REMARK SMILES IDX 10 77 11 78 27 79 12 80 26 81 25 82 13 83 14 84 15 85 16 86
REMARK SMILES IDX 24 87 17 88 18 89 19 90 20 91 23 92 21 93 22 94
REMARK H PARENT 3 6 84 24 52 35 7 75
REMARK Flexibility Score: inf
ROOT
ATOM      1  C   UNL A   1      31.942  28.633  27.133  1.00  0.00     0.042 C 
ENDROOT
BRANCH   1   2
ATOM      2  C   UNL A   1      31.554  29.609  26.026  1.00  0.00     0.118 C 
BRANCH   2   3
ATOM      3  N   UNL A   1      31.617  31.277  26.478  1.00  0.00    -0.352 N 
ATOM      4  O   UNL A   1      32.994  33.663  27.712  1.00  0.00    -0.269 OA
ATOM      5  C   UNL A   1      33.016  32.447  27.367  1.00  0.00     0.251 C 
ATOM      6  H   UNL A   1      30.793  31.767  26.256  1.00  0.00     0.163 HD
BRANCH   5   7
ATOM      7  C   UNL A   1      34.663  31.928  27.930  1.00  0.00     0.039 A 
ATOM      8  C   UNL A   1      35.007  30.615  28.399  1.00  0.00     0.014 A 
ATOM      9  C   UNL A   1      35.695  32.873  28.031  1.00  0.00     0.014 A 
ATOM     10  C   UNL A   1      36.188  30.285  29.010  1.00  0.00     0.010 A 
ATOM     11  C   UNL A   1      36.954  32.516  28.593  1.00  0.00     0.010 A 
ATOM     12  C   UNL A   1      37.194  31.221  29.093  1.00  0.00    -0.014 A 
BRANCH  12  13
ATOM     13  C   UNL A   1      38.400  30.725  29.792  1.00  0.00     0.031 A 
ATOM     14  C   UNL A   1      38.593  31.047  31.242  1.00  0.00     0.074 A 
ATOM     15  C   UNL A   1      39.141  29.762  29.203  1.00  0.00     0.049 A 
ATOM     16  N   UNL A   1      39.513  30.617  32.062  1.00  0.00    -0.248 NA
ATOM     17  C   UNL A   1      37.604  31.945  31.859  1.00  0.00     0.031 C 
ATOM     18  C   UNL A   1      38.922  29.239  27.847  1.00  0.00     0.029 A 
ATOM     19  N   UNL A   1      40.184  29.007  29.676  1.00  0.00    -0.354 N 
ATOM     20  C   UNL A   1      39.267  31.255  33.270  1.00  0.00     0.074 A 
ATOM     21  C   UNL A   1      38.084  32.067  33.089  1.00  0.00     0.031 C 
ATOM     22  C   UNL A   1      39.788  28.242  27.610  1.00  0.00     0.029 A 
ATOM     23  C   UNL A   1      40.680  28.115  28.754  1.00  0.00     0.049 A 
ATOM     24  H   UNL A   1      40.544  29.096  30.589  1.00  0.00     0.167 HD
ATOM     25  C   UNL A   1      39.982  31.180  34.415  1.00  0.00     0.034 A 
ATOM     26  C   UNL A   1      41.764  27.319  28.805  1.00  0.00     0.034 A 
ATOM     27  C   UNL A   1      41.143  30.346  34.581  1.00  0.00     0.049 A 
ATOM     28  C   UNL A   1      42.587  27.325  30.061  1.00  0.00     0.074 A 
ATOM     29  C   UNL A   1      41.948  30.207  35.697  1.00  0.00     0.029 A 
ATOM     30  N   UNL A   1      41.674  29.522  33.598  1.00  0.00    -0.354 N 
ATOM     31  N   UNL A   1      42.356  27.943  31.194  1.00  0.00    -0.248 NA
ATOM     32  C   UNL A   1      43.811  26.516  30.054  1.00  0.00     0.031 C 
ATOM     33  C   UNL A   1      42.998  29.343  35.369  1.00  0.00     0.029 A 
ATOM     34  C   UNL A   1      42.810  28.890  34.072  1.00  0.00     0.049 A 
ATOM     35  H   UNL A   1      41.297  29.405  32.696  1.00  0.00     0.167 HD
ATOM     36  C   UNL A   1      43.382  27.567  32.049  1.00  0.00     0.074 A 
ATOM     37  C   UNL A   1      44.226  26.652  31.306  1.00  0.00     0.031 C 
ATOM     38  C   UNL A   1      43.611  27.949  33.330  1.00  0.00     0.034 A 
BRANCH  25  39
ATOM     39  C   UNL A   1      39.575  32.084  35.548  1.00  0.00     0.023 A 
ATOM     40  C   UNL A   1      38.653  31.654  36.523  1.00  0.00     0.012 A 
ATOM     41  C   UNL A   1      40.134  33.373  35.643  1.00  0.00     0.148 A 
ATOM     42  C   UNL A   1      38.267  32.511  37.555  1.00  0.00     0.002 A 
ATOM     43  C   UNL A   1      39.785  34.201  36.702  1.00  0.00     0.091 A 
ATOM     44  F   UNL A   1      40.987  33.772  34.689  1.00  0.00    -0.205 F 
ATOM     45  C   UNL A   1      38.839  33.778  37.650  1.00  0.00     0.022 A 
BRANCH  43  46
ATOM     46  S   UNL A   1      40.528  35.815  36.952  1.00  0.00     0.127 S 
ATOM     47  O   UNL A   1      39.740  36.647  36.043  1.00  0.00    -0.237 OA
ATOM     48  O   UNL A   1      40.272  36.052  38.373  1.00  0.00    -0.237 OA
ATOM     49  O   UNL A   1      41.935  35.671  36.603  1.00  0.00    -0.744 OA
ENDBRANCH  43  46
ENDBRANCH  25  39
BRANCH  26  50
ATOM     50  C   UNL A   1      42.156  26.491  27.627  1.00  0.00     0.023 A 
ATOM     51  C   UNL A   1      42.888  27.067  26.572  1.00  0.00     0.012 A 
ATOM     52  C   UNL A   1      41.791  25.131  27.546  1.00  0.00     0.148 A 
ATOM     53  C   UNL A   1      43.220  26.313  25.444  1.00  0.00     0.002 A 
ATOM     54  C   UNL A   1      42.178  24.371  26.450  1.00  0.00     0.091 A 
ATOM     55  F   UNL A   1      41.077  24.604  28.551  1.00  0.00    -0.205 F 
ATOM     56  C   UNL A   1      42.874  24.965  25.387  1.00  0.00     0.022 A 
BRANCH  54  57
ATOM     57  S   UNL A   1      41.880  22.604  26.348  1.00  0.00     0.127 S 
ATOM     58  O   UNL A   1      42.567  22.256  25.107  1.00  0.00    -0.237 OA
ATOM     59  O   UNL A   1      42.527  22.121  27.568  1.00  0.00    -0.237 OA
ATOM     60  O   UNL A   1      40.432  22.446  26.331  1.00  0.00    -0.744 OA
ENDBRANCH  54  57
ENDBRANCH  26  50
BRANCH  38  61
ATOM     61  C   UNL A   1      44.784  27.322  34.037  1.00  0.00     0.023 A 
ATOM     62  C   UNL A   1      46.068  27.896  33.940  1.00  0.00     0.012 A 
ATOM     63  C   UNL A   1      44.592  26.183  34.842  1.00  0.00     0.148 A 
ATOM     64  C   UNL A   1      47.150  27.315  34.599  1.00  0.00     0.002 A 
ATOM     65  C   UNL A   1      45.663  25.648  35.545  1.00  0.00     0.091 A 
ATOM     66  F   UNL A   1      43.366  25.642  34.905  1.00  0.00    -0.205 F 
ATOM     67  C   UNL A   1      46.947  26.201  35.410  1.00  0.00     0.022 A 
BRANCH  65  68
ATOM     68  S   UNL A   1      45.469  24.283  36.695  1.00  0.00     0.127 S 
ATOM     69  O   UNL A   1      46.785  24.240  37.330  1.00  0.00    -0.237 OA
ATOM     70  O   UNL A   1      44.389  24.760  37.559  1.00  0.00    -0.237 OA
ATOM     71  O   UNL A   1      45.128  23.120  35.887  1.00  0.00    -0.744 OA
ENDBRANCH  65  68
ENDBRANCH  38  61
ENDBRANCH  12  13
ENDBRANCH   5   7
ENDBRANCH   2   3
ENDBRANCH   1   2
BRANCH   1  72
ATOM     72  C   UNL A   1      32.472  27.365  26.543  1.00  0.00     0.118 C 
BRANCH  72  73
ATOM     73  N   UNL A   1      31.397  26.578  25.969  1.00  0.00    -0.351 N 
ATOM     74  C   UNL A   1      31.350  25.210  25.832  1.00  0.00     0.269 C 
ATOM     75  H   UNL A   1      30.614  27.078  25.642  1.00  0.00     0.163 HD
ATOM     76  O   UNL A   1      30.472  24.694  25.150  1.00  0.00    -0.268 OA
BRANCH  74  77
ATOM     77  C   UNL A   1      32.393  24.413  26.538  1.00  0.00     0.129 A 
ATOM     78  C   UNL A   1      33.722  24.547  26.131  1.00  0.00     0.049 A 
ATOM     79  N   UNL A   1      31.944  23.466  27.391  1.00  0.00    -0.251 NA
ATOM     80  C   UNL A   1      34.623  23.560  26.495  1.00  0.00     0.011 A 
ATOM     81  C   UNL A   1      32.863  22.591  27.830  1.00  0.00     0.113 A 
ATOM     82  C   UNL A   1      34.186  22.588  27.404  1.00  0.00     0.035 A 
BRANCH  80  83
ATOM     83  S   UNL A   1      36.291  23.430  25.860  1.00  0.00    -0.120 SA
BRANCH  83  84
ATOM     84  C   UNL A   1      36.148  22.920  24.090  1.00  0.00     0.132 C 
BRANCH  84  85
ATOM     85  C   UNL A   1      34.808  23.159  23.439  1.00  0.00     0.062 A 
ATOM     86  C   UNL A   1      33.796  22.252  23.177  1.00  0.00     0.091 A 
ATOM     87  N   UNL A   1      34.530  24.435  22.947  1.00  0.00    -0.240 NA
ATOM     88  S   UNL A   1      32.400  23.068  22.570  1.00  0.00    -0.122 S 
ATOM     89  C   UNL A   1      33.276  24.528  22.527  1.00  0.00     0.124 A 
BRANCH  89  90
ATOM     90  C   UNL A   1      32.722  25.898  22.203  1.00  0.00     0.021 A 
ATOM     91  C   UNL A   1      33.825  27.412  22.595  1.00  0.00     0.023 A 
ATOM     92  C   UNL A   1      30.982  26.325  22.057  1.00  0.00     0.076 A 
ATOM     93  C   UNL A   1      32.964  28.920  22.739  1.00  0.00     0.065 A 
ATOM     94  S   UNL A   1      30.685  28.692  22.477  1.00  0.00    -0.152 S 
ENDBRANCH  89  90
ENDBRANCH  84  85
ENDBRANCH  83  84
ENDBRANCH  80  83
ENDBRANCH  74  77
ENDBRANCH  72  73
ENDBRANCH   1  72
TORSDOF 17
ENDMDL
