MODEL 1
REMARK VINA RESULT:     -13.6      0.000      0.000
REMARK SMILES O=C(NCCCNC(=O)[C@H](c1c[nH]c2cc(F)ccc12)[NH+]1CCN(c2ccccc2)CC1)c1ccc(-c2c3nc(c(-c4cccc(S(=O)(=O)[O-])c4F)c4ccc([nH]4)c(-c4cccc(S(=O)(=O)[O-])c4F)c4nc(c(-c5cccc(S(=O)(=O)[O-])c5F)c5ccc2[nH]5)C=C4)C=C3)cc1
REMARK SMILES IDX 4 1 3 2 1 3 2 4 33 6 34 7 95 8 35 9 94 10 36 11 37 12 38 13
REMARK SMILES IDX 88 14 39 15 93 16 87 17 89 18 40 19 92 20 86 21 85 22 41 24
REMARK SMILES IDX 73 25 53 26 72 27 54 28 57 29 71 30 90 31 55 32 56 33 70 35
REMARK SMILES IDX 91 36 58 37 42 38 43 39 51 40 44 41 46 42 52 43 45 44 47 45
REMARK SMILES IDX 48 46 49 47 50 48 74 49 75 50 83 51 76 52 78 53 84 54 77 55
REMARK SMILES IDX 79 56 80 57 81 58 82 59 59 60 60 61 68 62 61 63 63 64 69 65
REMARK SMILES IDX 62 66 64 67 65 68 66 69 67 70 5 71 6 72 7 73 8 74 9 76 10 77
REMARK SMILES IDX 21 78 22 79 32 80 23 82 31 83 24 84 25 85 26 86 30 87 27 88
REMARK SMILES IDX 29 89 28 90 11 91 12 92 20 93 13 94 14 95 19 96 15 98 18 99
REMARK SMILES IDX 16 100 17 101
REMARK H PARENT 3 5 89 23 57 34 7 75 21 81 13 97
REMARK Flexibility Score: inf
ROOT
ATOM      1  C   UNL A   1      33.747  28.883  25.180  1.00  0.00     0.118 C 
ENDROOT
BRANCH   1   2
ATOM      2  N   UNL A   1      33.076  30.093  25.626  1.00  0.00    -0.352 N 
ATOM      3  O   UNL A   1      32.436  31.635  27.134  1.00  0.00    -0.269 OA
ATOM      4  C   UNL A   1      33.283  30.830  26.770  1.00  0.00     0.251 C 
ATOM      5  H   UNL A   1      32.375  30.434  25.025  1.00  0.00     0.163 HD
BRANCH   4   6
ATOM      6  C   UNL A   1      34.527  30.630  27.547  1.00  0.00     0.039 A 
ATOM      7  C   UNL A   1      34.757  29.414  28.186  1.00  0.00     0.014 A 
ATOM      8  C   UNL A   1      35.476  31.652  27.627  1.00  0.00     0.014 A 
ATOM      9  C   UNL A   1      35.831  29.280  29.049  1.00  0.00     0.010 A 
ATOM     10  C   UNL A   1      36.639  31.459  28.383  1.00  0.00     0.010 A 
ATOM     11  C   UNL A   1      36.815  30.278  29.118  1.00  0.00    -0.014 A 
BRANCH  11  12
ATOM     12  C   UNL A   1      38.058  29.973  29.870  1.00  0.00     0.031 A 
ATOM     13  C   UNL A   1      38.297  30.491  31.259  1.00  0.00     0.074 A 
ATOM     14  C   UNL A   1      38.961  29.161  29.280  1.00  0.00     0.049 A 
ATOM     15  N   UNL A   1      39.301  30.240  32.061  1.00  0.00    -0.248 NA
ATOM     16  C   UNL A   1      37.297  31.411  31.822  1.00  0.00     0.031 C 
ATOM     17  C   UNL A   1      38.856  28.648  27.909  1.00  0.00     0.029 A 
ATOM     18  N   UNL A   1      40.121  28.606  29.748  1.00  0.00    -0.354 N 
ATOM     19  C   UNL A   1      39.075  30.993  33.207  1.00  0.00     0.074 A 
ATOM     20  C   UNL A   1      37.842  31.721  32.992  1.00  0.00     0.031 C 
ATOM     21  C   UNL A   1      39.874  27.812  27.668  1.00  0.00     0.029 A 
ATOM     22  C   UNL A   1      40.746  27.793  28.832  1.00  0.00     0.049 A 
ATOM     23  H   UNL A   1      40.474  28.773  30.652  1.00  0.00     0.167 HD
ATOM     24  C   UNL A   1      39.818  31.054  34.338  1.00  0.00     0.034 A 
ATOM     25  C   UNL A   1      41.911  27.122  28.904  1.00  0.00     0.034 A 
ATOM     26  C   UNL A   1      41.035  30.309  34.543  1.00  0.00     0.049 A 
ATOM     27  C   UNL A   1      42.694  27.189  30.179  1.00  0.00     0.074 A 
ATOM     28  C   UNL A   1      41.847  30.278  35.664  1.00  0.00     0.029 A 
ATOM     29  N   UNL A   1      41.620  29.468  33.607  1.00  0.00    -0.354 N 
ATOM     30  N   UNL A   1      42.406  27.823  31.289  1.00  0.00    -0.248 NA
ATOM     31  C   UNL A   1      43.949  26.431  30.223  1.00  0.00     0.031 C 
ATOM     32  C   UNL A   1      42.931  29.435  35.398  1.00  0.00     0.029 A 
ATOM     33  C   UNL A   1      42.781  28.915  34.124  1.00  0.00     0.049 A 
ATOM     34  H   UNL A   1      41.262  29.290  32.707  1.00  0.00     0.167 HD
ATOM     35  C   UNL A   1      43.435  27.529  32.172  1.00  0.00     0.074 A 
ATOM     36  C   UNL A   1      44.330  26.622  31.478  1.00  0.00     0.031 C 
ATOM     37  C   UNL A   1      43.638  27.987  33.431  1.00  0.00     0.034 A 
BRANCH  24  38
ATOM     38  C   UNL A   1      39.322  31.928  35.463  1.00  0.00     0.023 A 
ATOM     39  C   UNL A   1      38.445  31.388  36.425  1.00  0.00     0.012 A 
ATOM     40  C   UNL A   1      39.782  33.251  35.614  1.00  0.00     0.148 A 
ATOM     41  C   UNL A   1      38.011  32.157  37.504  1.00  0.00     0.002 A 
ATOM     42  C   UNL A   1      39.379  33.998  36.716  1.00  0.00     0.091 A 
ATOM     43  F   UNL A   1      40.603  33.753  34.681  1.00  0.00    -0.205 F 
ATOM     44  C   UNL A   1      38.486  33.458  37.655  1.00  0.00     0.022 A 
BRANCH  42  45
ATOM     45  S   UNL A   1      39.993  35.654  37.049  1.00  0.00     0.127 S 
ATOM     46  O   UNL A   1      39.268  35.998  38.271  1.00  0.00    -0.237 OA
ATOM     47  O   UNL A   1      41.425  35.418  37.235  1.00  0.00    -0.237 OA
ATOM     48  O   UNL A   1      39.654  36.452  35.879  1.00  0.00    -0.744 OA
ENDBRANCH  42  45
ENDBRANCH  24  38
BRANCH  25  49
ATOM     49  C   UNL A   1      42.386  26.331  27.734  1.00  0.00     0.023 A 
ATOM     50  C   UNL A   1      43.313  26.890  26.834  1.00  0.00     0.012 A 
ATOM     51  C   UNL A   1      41.945  25.008  27.532  1.00  0.00     0.148 A 
ATOM     52  C   UNL A   1      43.765  26.156  25.737  1.00  0.00     0.002 A 
ATOM     53  C   UNL A   1      42.451  24.261  26.478  1.00  0.00     0.091 A 
ATOM     54  F   UNL A   1      41.049  24.499  28.391  1.00  0.00    -0.205 F 
ATOM     55  C   UNL A   1      43.346  24.839  25.566  1.00  0.00     0.022 A 
BRANCH  53  56
ATOM     56  S   UNL A   1      42.081  22.515  26.288  1.00  0.00     0.127 S 
ATOM     57  O   UNL A   1      42.696  22.218  24.998  1.00  0.00    -0.237 OA
ATOM     58  O   UNL A   1      42.762  21.931  27.446  1.00  0.00    -0.237 OA
ATOM     59  O   UNL A   1      40.629  22.417  26.342  1.00  0.00    -0.744 OA
ENDBRANCH  53  56
ENDBRANCH  25  49
BRANCH  37  60
ATOM     60  C   UNL A   1      44.868  27.490  34.144  1.00  0.00     0.023 A 
ATOM     61  C   UNL A   1      46.069  28.222  34.065  1.00  0.00     0.012 A 
ATOM     62  C   UNL A   1      44.824  26.310  34.912  1.00  0.00     0.148 A 
ATOM     63  C   UNL A   1      47.222  27.762  34.698  1.00  0.00     0.002 A 
ATOM     64  C   UNL A   1      45.964  25.886  35.585  1.00  0.00     0.091 A 
ATOM     65  F   UNL A   1      43.678  25.615  34.956  1.00  0.00    -0.205 F 
ATOM     66  C   UNL A   1      47.167  26.600  35.465  1.00  0.00     0.022 A 
BRANCH  64  67
ATOM     67  S   UNL A   1      45.960  24.455  36.668  1.00  0.00     0.127 S 
ATOM     68  O   UNL A   1      47.329  24.465  37.180  1.00  0.00    -0.237 OA
ATOM     69  O   UNL A   1      44.938  24.814  37.652  1.00  0.00    -0.237 OA
ATOM     70  O   UNL A   1      45.614  23.317  35.827  1.00  0.00    -0.744 OA
ENDBRANCH  64  67
ENDBRANCH  37  60
ENDBRANCH  11  12
ENDBRANCH   4   6
ENDBRANCH   1   2
BRANCH   1  71
ATOM     71  C   UNL A   1      33.116  27.642  25.783  1.00  0.00     0.042 C 
BRANCH  71  72
ATOM     72  C   UNL A   1      31.758  27.924  26.409  1.00  0.00     0.118 C 
BRANCH  72  73
ATOM     73  N   UNL A   1      31.071  26.690  26.744  1.00  0.00    -0.351 N 
ATOM     74  C   UNL A   1      30.261  25.925  25.941  1.00  0.00     0.283 C 
ATOM     75  H   UNL A   1      31.204  26.359  27.661  1.00  0.00     0.163 HD
ATOM     76  O   UNL A   1      29.529  25.125  26.528  1.00  0.00    -0.268 OA
BRANCH  74  77
ATOM     77  C   UNL A   1      30.314  26.126  24.393  1.00  0.00     0.307 C 
BRANCH  77  78
ATOM     78  N   UNL A   1      30.646  24.904  23.605  1.00  0.00    -0.318 N 
ATOM     79  C   UNL A   1      31.648  24.982  22.532  1.00  0.00     0.284 C 
ATOM     80  C   UNL A   1      30.950  23.711  24.423  1.00  0.00     0.284 C 
ATOM     81  H   UNL A   1      29.748  24.815  23.130  1.00  0.00     0.349 HD
ATOM     82  C   UNL A   1      33.108  25.046  22.994  1.00  0.00     0.178 C 
ATOM     83  C   UNL A   1      32.415  23.551  24.918  1.00  0.00     0.178 C 
ATOM     84  N   UNL A   1      33.413  23.936  23.904  1.00  0.00    -0.360 N 
BRANCH  84  85
ATOM     85  C   UNL A   1      34.745  23.675  24.206  1.00  0.00     0.037 A 
ATOM     86  C   UNL A   1      35.562  22.862  23.409  1.00  0.00     0.026 A 
ATOM     87  C   UNL A   1      35.302  24.214  25.372  1.00  0.00     0.026 A 
ATOM     88  C   UNL A   1      36.880  22.577  23.777  1.00  0.00     0.002 A 
ATOM     89  C   UNL A   1      36.612  23.922  25.755  1.00  0.00     0.002 A 
ATOM     90  C   UNL A   1      37.401  23.098  24.958  1.00  0.00     0.000 A 
ENDBRANCH  84  85
ENDBRANCH  77  78
BRANCH  77  91
ATOM     91  C   UNL A   1      29.141  26.942  23.892  1.00  0.00     0.044 A 
ATOM     92  C   UNL A   1      27.790  26.765  24.145  1.00  0.00     0.094 A 
ATOM     93  C   UNL A   1      29.234  28.162  23.120  1.00  0.00     0.009 A 
ATOM     94  N   UNL A   1      27.078  27.704  23.448  1.00  0.00    -0.361 N 
ATOM     95  C   UNL A   1      27.934  28.597  22.853  1.00  0.00     0.049 A 
ATOM     96  C   UNL A   1      30.310  28.949  22.647  1.00  0.00     0.014 A 
ATOM     97  H   UNL A   1      26.096  27.734  23.384  1.00  0.00     0.166 HD
ATOM     98  C   UNL A   1      27.654  29.753  22.115  1.00  0.00     0.065 A 
ATOM     99  C   UNL A   1      30.049  30.131  21.944  1.00  0.00     0.040 A 
ATOM    100  C   UNL A   1      28.740  30.509  21.681  1.00  0.00     0.125 A 
ATOM    101  F   UNL A   1      28.516  31.637  20.993  1.00  0.00    -0.207 F 
ENDBRANCH  77  91
ENDBRANCH  74  77
ENDBRANCH  72  73
ENDBRANCH  71  72
ENDBRANCH   1  71
TORSDOF 16
ENDMDL
MODEL 2
REMARK VINA RESULT:     -13.3      2.293      4.416
REMARK SMILES O=C(NCCCNC(=O)[C@H](c1c[nH]c2cc(F)ccc12)[NH+]1CCN(c2ccccc2)CC1)c1ccc(-c2c3nc(c(-c4cccc(S(=O)(=O)[O-])c4F)c4ccc([nH]4)c(-c4cccc(S(=O)(=O)[O-])c4F)c4nc(c(-c5cccc(S(=O)(=O)[O-])c5F)c5ccc2[nH]5)C=C4)C=C3)cc1
REMARK SMILES IDX 4 1 3 2 1 3 2 4 33 6 34 7 95 8 35 9 94 10 36 11 37 12 38 13
REMARK SMILES IDX 88 14 39 15 93 16 87 17 89 18 40 19 92 20 86 21 85 22 41 24
REMARK SMILES IDX 73 25 53 26 72 27 54 28 57 29 71 30 90 31 55 32 56 33 70 35
REMARK SMILES IDX 91 36 58 37 42 38 43 39 51 40 44 41 46 42 52 43 45 44 47 45
REMARK SMILES IDX 48 46 49 47 50 48 74 49 75 50 83 51 76 52 78 53 84 54 77 55
REMARK SMILES IDX 79 56 80 57 81 58 82 59 59 60 60 61 68 62 61 63 63 64 69 65
REMARK SMILES IDX 62 66 64 67 65 68 66 69 67 70 5 71 6 72 7 73 8 74 9 76 10 77
REMARK SMILES IDX 21 78 22 79 32 80 23 82 31 83 24 84 25 85 26 86 30 87 27 88
REMARK SMILES IDX 29 89 28 90 11 91 12 92 20 93 13 94 14 95 19 96 15 98 18 99
REMARK SMILES IDX 16 100 17 101
REMARK H PARENT 3 5 89 23 57 34 7 75 21 81 13 97
REMARK Flexibility Score: inf
ROOT
ATOM      1  C   UNL A   1      33.529  29.186  25.359  1.00  0.00     0.118 C 
ENDROOT
BRANCH   1   2
ATOM      2  N   UNL A   1      32.955  30.455  25.778  1.00  0.00    -0.352 N 
ATOM      3  O   UNL A   1      32.468  32.091  27.244  1.00  0.00    -0.269 OA
ATOM      4  C   UNL A   1      33.248  31.217  26.885  1.00  0.00     0.251 C 
ATOM      5  H   UNL A   1      32.258  30.820  25.185  1.00  0.00     0.163 HD
BRANCH   4   6
ATOM      6  C   UNL A   1      34.501  30.964  27.631  1.00  0.00     0.039 A 
ATOM      7  C   UNL A   1      34.696  29.737  28.262  1.00  0.00     0.014 A 
ATOM      8  C   UNL A   1      35.494  31.945  27.689  1.00  0.00     0.014 A 
ATOM      9  C   UNL A   1      35.784  29.555  29.098  1.00  0.00     0.010 A 
ATOM     10  C   UNL A   1      36.666  31.701  28.415  1.00  0.00     0.010 A 
ATOM     11  C   UNL A   1      36.810  30.511  29.144  1.00  0.00    -0.014 A 
BRANCH  11  12
ATOM     12  C   UNL A   1      38.058  30.152  29.865  1.00  0.00     0.031 A 
ATOM     13  C   UNL A   1      38.347  30.645  31.253  1.00  0.00     0.074 A 
ATOM     14  C   UNL A   1      38.916  29.314  29.246  1.00  0.00     0.049 A 
ATOM     15  N   UNL A   1      39.358  30.348  32.029  1.00  0.00    -0.248 NA
ATOM     16  C   UNL A   1      37.394  31.595  31.848  1.00  0.00     0.031 C 
ATOM     17  C   UNL A   1      38.762  28.821  27.872  1.00  0.00     0.029 A 
ATOM     18  N   UNL A   1      40.065  28.711  29.682  1.00  0.00    -0.354 N 
ATOM     19  C   UNL A   1      39.185  31.096  33.188  1.00  0.00     0.074 A 
ATOM     20  C   UNL A   1      37.976  31.872  33.009  1.00  0.00     0.031 C 
ATOM     21  C   UNL A   1      39.743  27.951  27.599  1.00  0.00     0.029 A 
ATOM     22  C   UNL A   1      40.640  27.886  28.743  1.00  0.00     0.049 A 
ATOM     23  H   UNL A   1      40.444  28.855  30.579  1.00  0.00     0.167 HD
ATOM     24  C   UNL A   1      39.956  31.117  34.302  1.00  0.00     0.034 A 
ATOM     25  C   UNL A   1      41.780  27.172  28.782  1.00  0.00     0.034 A 
ATOM     26  C   UNL A   1      41.148  30.325  34.472  1.00  0.00     0.049 A 
ATOM     27  C   UNL A   1      42.593  27.196  30.039  1.00  0.00     0.074 A 
ATOM     28  C   UNL A   1      41.983  30.252  35.574  1.00  0.00     0.029 A 
ATOM     29  N   UNL A   1      41.680  29.474  33.514  1.00  0.00    -0.354 N 
ATOM     30  N   UNL A   1      42.353  27.828  31.162  1.00  0.00    -0.248 NA
ATOM     31  C   UNL A   1      43.820  26.391  30.047  1.00  0.00     0.031 C 
ATOM     32  C   UNL A   1      43.029  29.373  35.275  1.00  0.00     0.029 A 
ATOM     33  C   UNL A   1      42.832  28.872  33.999  1.00  0.00     0.049 A 
ATOM     34  H   UNL A   1      41.296  29.319  32.621  1.00  0.00     0.167 HD
ATOM     35  C   UNL A   1      43.391  27.486  32.018  1.00  0.00     0.074 A 
ATOM     36  C   UNL A   1      44.235  26.555  31.295  1.00  0.00     0.031 C 
ATOM     37  C   UNL A   1      43.638  27.921  33.277  1.00  0.00     0.034 A 
BRANCH  24  38
ATOM     38  C   UNL A   1      39.517  31.995  35.447  1.00  0.00     0.023 A 
ATOM     39  C   UNL A   1      39.862  33.362  35.445  1.00  0.00     0.012 A 
ATOM     40  C   UNL A   1      38.700  31.492  36.479  1.00  0.00     0.148 A 
ATOM     41  C   UNL A   1      39.426  34.208  36.464  1.00  0.00     0.002 A 
ATOM     42  C   UNL A   1      38.233  32.351  37.469  1.00  0.00     0.091 A 
ATOM     43  F   UNL A   1      38.395  30.187  36.474  1.00  0.00    -0.205 F 
ATOM     44  C   UNL A   1      38.604  33.705  37.469  1.00  0.00     0.022 A 
BRANCH  42  45
ATOM     45  S   UNL A   1      37.105  31.824  38.764  1.00  0.00     0.127 S 
ATOM     46  O   UNL A   1      36.873  30.426  38.403  1.00  0.00    -0.237 OA
ATOM     47  O   UNL A   1      37.911  32.017  39.970  1.00  0.00    -0.237 OA
ATOM     48  O   UNL A   1      35.941  32.694  38.664  1.00  0.00    -0.744 OA
ENDBRANCH  42  45
ENDBRANCH  24  38
BRANCH  25  49
ATOM     49  C   UNL A   1      42.199  26.378  27.593  1.00  0.00     0.023 A 
ATOM     50  C   UNL A   1      43.030  26.956  26.615  1.00  0.00     0.012 A 
ATOM     51  C   UNL A   1      41.802  25.034  27.449  1.00  0.00     0.148 A 
ATOM     52  C   UNL A   1      43.429  26.219  25.499  1.00  0.00     0.002 A 
ATOM     53  C   UNL A   1      42.260  24.286  26.373  1.00  0.00     0.091 A 
ATOM     54  F   UNL A   1      40.997  24.505  28.382  1.00  0.00    -0.205 F 
ATOM     55  C   UNL A   1      43.056  24.882  25.384  1.00  0.00     0.022 A 
BRANCH  53  56
ATOM     56  S   UNL A   1      41.954  22.522  26.243  1.00  0.00     0.127 S 
ATOM     57  O   UNL A   1      42.662  22.187  25.011  1.00  0.00    -0.237 OA
ATOM     58  O   UNL A   1      42.572  22.014  27.469  1.00  0.00    -0.237 OA
ATOM     59  O   UNL A   1      40.504  22.381  26.206  1.00  0.00    -0.744 OA
ENDBRANCH  53  56
ENDBRANCH  25  49
BRANCH  37  60
ATOM     60  C   UNL A   1      44.864  27.371  33.957  1.00  0.00     0.023 A 
ATOM     61  C   UNL A   1      46.092  28.053  33.847  1.00  0.00     0.012 A 
ATOM     62  C   UNL A   1      44.791  26.192  34.724  1.00  0.00     0.148 A 
ATOM     63  C   UNL A   1      47.242  27.543  34.450  1.00  0.00     0.002 A 
ATOM     64  C   UNL A   1      45.929  25.719  35.366  1.00  0.00     0.091 A 
ATOM     65  F   UNL A   1      43.618  25.547  34.798  1.00  0.00    -0.205 F 
ATOM     66  C   UNL A   1      47.158  26.383  35.216  1.00  0.00     0.022 A 
BRANCH  64  67
ATOM     67  S   UNL A   1      45.893  24.287  36.447  1.00  0.00     0.127 S 
ATOM     68  O   UNL A   1      47.289  24.201  36.874  1.00  0.00    -0.237 OA
ATOM     69  O   UNL A   1      44.960  24.710  37.492  1.00  0.00    -0.237 OA
ATOM     70  O   UNL A   1      45.420  23.179  35.629  1.00  0.00    -0.744 OA
ENDBRANCH  64  67
ENDBRANCH  37  60
ENDBRANCH  11  12
ENDBRANCH   4   6
ENDBRANCH   1   2
BRANCH   1  71
ATOM     71  C   UNL A   1      32.679  28.014  25.812  1.00  0.00     0.042 C 
BRANCH  71  72
ATOM     72  C   UNL A   1      33.498  26.749  26.029  1.00  0.00     0.118 C 
BRANCH  72  73
ATOM     73  N   UNL A   1      34.084  26.287  24.785  1.00  0.00    -0.351 N 
ATOM     74  C   UNL A   1      33.704  25.217  24.013  1.00  0.00     0.283 C 
ATOM     75  H   UNL A   1      34.850  26.807  24.452  1.00  0.00     0.163 HD
ATOM     76  O   UNL A   1      34.542  24.819  23.201  1.00  0.00    -0.268 OA
BRANCH  74  77
ATOM     77  C   UNL A   1      32.287  24.593  24.222  1.00  0.00     0.307 C 
BRANCH  77  78
ATOM     78  N   UNL A   1      31.350  24.747  23.072  1.00  0.00    -0.318 N 
ATOM     79  C   UNL A   1      29.903  24.825  23.321  1.00  0.00     0.284 C 
ATOM     80  C   UNL A   1      31.706  25.829  22.131  1.00  0.00     0.284 C 
ATOM     81  H   UNL A   1      31.504  23.826  22.662  1.00  0.00     0.349 HD
ATOM     82  C   UNL A   1      29.399  26.162  23.875  1.00  0.00     0.178 C 
ATOM     83  C   UNL A   1      31.205  27.259  22.479  1.00  0.00     0.178 C 
ATOM     84  N   UNL A   1      29.835  27.274  23.024  1.00  0.00    -0.360 N 
BRANCH  84  85
ATOM     85  C   UNL A   1      29.250  28.521  23.212  1.00  0.00     0.037 A 
ATOM     86  C   UNL A   1      27.891  28.769  22.979  1.00  0.00     0.026 A 
ATOM     87  C   UNL A   1      30.048  29.598  23.621  1.00  0.00     0.026 A 
ATOM     88  C   UNL A   1      27.353  30.051  23.126  1.00  0.00     0.002 A 
ATOM     89  C   UNL A   1      29.522  30.884  23.754  1.00  0.00     0.002 A 
ATOM     90  C   UNL A   1      28.172  31.111  23.502  1.00  0.00     0.000 A 
ENDBRANCH  84  85
ENDBRANCH  77  78
BRANCH  77  91
ATOM     91  C   UNL A   1      32.368  23.210  24.834  1.00  0.00     0.044 A 
ATOM     92  C   UNL A   1      32.383  22.854  26.173  1.00  0.00     0.094 A 
ATOM     93  C   UNL A   1      32.333  21.963  24.102  1.00  0.00     0.009 A 
ATOM     94  N   UNL A   1      32.516  21.495  26.273  1.00  0.00    -0.361 N 
ATOM     95  C   UNL A   1      32.440  20.922  25.027  1.00  0.00     0.049 A 
ATOM     96  C   UNL A   1      32.193  21.627  22.735  1.00  0.00     0.014 A 
ATOM     97  H   UNL A   1      32.646  21.001  27.114  1.00  0.00     0.166 HD
ATOM     98  C   UNL A   1      32.447  19.573  24.658  1.00  0.00     0.065 A 
ATOM     99  C   UNL A   1      32.155  20.282  22.352  1.00  0.00     0.040 A 
ATOM    100  C   UNL A   1      32.291  19.282  23.305  1.00  0.00     0.125 A 
ATOM    101  F   UNL A   1      32.266  18.002  22.911  1.00  0.00    -0.207 F 
ENDBRANCH  77  91
ENDBRANCH  74  77
ENDBRANCH  72  73
ENDBRANCH  71  72
ENDBRANCH   1  71
TORSDOF 16
ENDMDL
MODEL 3
REMARK VINA RESULT:     -13.1      4.913      9.521
REMARK SMILES O=C(NCCCNC(=O)[C@H](c1c[nH]c2cc(F)ccc12)[NH+]1CCN(c2ccccc2)CC1)c1ccc(-c2c3nc(c(-c4cccc(S(=O)(=O)[O-])c4F)c4ccc([nH]4)c(-c4cccc(S(=O)(=O)[O-])c4F)c4nc(c(-c5cccc(S(=O)(=O)[O-])c5F)c5ccc2[nH]5)C=C4)C=C3)cc1
REMARK SMILES IDX 4 1 3 2 1 3 2 4 33 6 34 7 95 8 35 9 94 10 36 11 37 12 38 13
REMARK SMILES IDX 88 14 39 15 93 16 87 17 89 18 40 19 92 20 86 21 85 22 41 24
REMARK SMILES IDX 73 25 53 26 72 27 54 28 57 29 71 30 90 31 55 32 56 33 70 35
REMARK SMILES IDX 91 36 58 37 42 38 43 39 51 40 44 41 46 42 52 43 45 44 47 45
REMARK SMILES IDX 48 46 49 47 50 48 74 49 75 50 83 51 76 52 78 53 84 54 77 55
REMARK SMILES IDX 79 56 80 57 81 58 82 59 59 60 60 61 68 62 61 63 63 64 69 65
REMARK SMILES IDX 62 66 64 67 65 68 66 69 67 70 5 71 6 72 7 73 8 74 9 76 10 77
REMARK SMILES IDX 21 78 22 79 32 80 23 82 31 83 24 84 25 85 26 86 30 87 27 88
REMARK SMILES IDX 29 89 28 90 11 91 12 92 20 93 13 94 14 95 19 96 15 98 18 99
REMARK SMILES IDX 16 100 17 101
REMARK H PARENT 3 5 89 23 57 34 7 75 21 81 13 97
REMARK Flexibility Score: inf
ROOT
ATOM      1  C   UNL A   1      37.126  22.396  25.569  1.00  0.00     0.118 C 
ENDROOT
BRANCH   1   2
ATOM      2  N   UNL A   1      38.057  21.350  25.960  1.00  0.00    -0.352 N 
ATOM      3  O   UNL A   1      40.090  20.464  26.341  1.00  0.00    -0.269 OA
ATOM      4  C   UNL A   1      39.375  21.458  26.339  1.00  0.00     0.251 C 
ATOM      5  H   UNL A   1      37.693  20.436  25.953  1.00  0.00     0.163 HD
BRANCH   4   6
ATOM      6  C   UNL A   1      39.912  22.780  26.734  1.00  0.00     0.039 A 
ATOM      7  C   UNL A   1      40.855  22.868  27.757  1.00  0.00     0.014 A 
ATOM      8  C   UNL A   1      39.488  23.936  26.074  1.00  0.00     0.014 A 
ATOM      9  C   UNL A   1      41.233  24.108  28.243  1.00  0.00     0.010 A 
ATOM     10  C   UNL A   1      39.987  25.183  26.470  1.00  0.00     0.010 A 
ATOM     11  C   UNL A   1      40.848  25.280  27.573  1.00  0.00    -0.014 A 
BRANCH  11  12
ATOM     12  C   UNL A   1      41.479  26.556  27.995  1.00  0.00     0.031 A 
ATOM     13  C   UNL A   1      42.890  26.909  27.623  1.00  0.00     0.074 A 
ATOM     14  C   UNL A   1      40.719  27.428  28.691  1.00  0.00     0.049 A 
ATOM     15  N   UNL A   1      43.541  28.020  27.857  1.00  0.00    -0.248 NA
ATOM     16  C   UNL A   1      43.679  25.893  26.908  1.00  0.00     0.031 C 
ATOM     17  C   UNL A   1      39.353  27.161  29.157  1.00  0.00     0.029 A 
ATOM     18  N   UNL A   1      40.963  28.708  29.109  1.00  0.00    -0.354 N 
ATOM     19  C   UNL A   1      44.822  27.829  27.352  1.00  0.00     0.074 A 
ATOM     20  C   UNL A   1      44.861  26.488  26.808  1.00  0.00     0.031 C 
ATOM     21  C   UNL A   1      38.861  28.260  29.743  1.00  0.00     0.029 A 
ATOM     22  C   UNL A   1      39.900  29.278  29.770  1.00  0.00     0.049 A 
ATOM     23  H   UNL A   1      41.815  29.175  28.952  1.00  0.00     0.167 HD
ATOM     24  C   UNL A   1      45.860  28.700  27.329  1.00  0.00     0.034 A 
ATOM     25  C   UNL A   1      39.777  30.481  30.361  1.00  0.00     0.034 A 
ATOM     26  C   UNL A   1      45.799  30.039  27.860  1.00  0.00     0.049 A 
ATOM     27  C   UNL A   1      40.934  31.430  30.293  1.00  0.00     0.074 A 
ATOM     28  C   UNL A   1      46.786  31.010  27.860  1.00  0.00     0.029 A 
ATOM     29  N   UNL A   1      44.695  30.594  28.491  1.00  0.00    -0.354 N 
ATOM     30  N   UNL A   1      42.099  31.267  29.716  1.00  0.00    -0.248 NA
ATOM     31  C   UNL A   1      40.753  32.737  30.935  1.00  0.00     0.031 C 
ATOM     32  C   UNL A   1      46.286  32.144  28.508  1.00  0.00     0.029 A 
ATOM     33  C   UNL A   1      44.977  31.894  28.884  1.00  0.00     0.049 A 
ATOM     34  H   UNL A   1      43.838  30.134  28.637  1.00  0.00     0.167 HD
ATOM     35  C   UNL A   1      42.788  32.455  29.910  1.00  0.00     0.074 A 
ATOM     36  C   UNL A   1      41.889  33.345  30.620  1.00  0.00     0.031 C 
ATOM     37  C   UNL A   1      44.057  32.775  29.558  1.00  0.00     0.034 A 
BRANCH  24  38
ATOM     38  C   UNL A   1      47.143  28.252  26.676  1.00  0.00     0.023 A 
ATOM     39  C   UNL A   1      48.221  27.830  27.480  1.00  0.00     0.012 A 
ATOM     40  C   UNL A   1      47.256  28.170  25.274  1.00  0.00     0.148 A 
ATOM     41  C   UNL A   1      49.401  27.362  26.903  1.00  0.00     0.002 A 
ATOM     42  C   UNL A   1      48.419  27.661  24.705  1.00  0.00     0.091 A 
ATOM     43  F   UNL A   1      46.227  28.589  24.524  1.00  0.00    -0.205 F 
ATOM     44  C   UNL A   1      49.496  27.268  25.517  1.00  0.00     0.022 A 
BRANCH  42  45
ATOM     45  S   UNL A   1      48.616  27.423  22.935  1.00  0.00     0.127 S 
ATOM     46  O   UNL A   1      49.952  27.973  22.710  1.00  0.00    -0.237 OA
ATOM     47  O   UNL A   1      48.526  25.968  22.810  1.00  0.00    -0.237 OA
ATOM     48  O   UNL A   1      47.526  28.157  22.306  1.00  0.00    -0.744 OA
ENDBRANCH  42  45
ENDBRANCH  24  38
BRANCH  25  49
ATOM     49  C   UNL A   1      38.508  30.842  31.053  1.00  0.00     0.023 A 
ATOM     50  C   UNL A   1      38.355  30.581  32.428  1.00  0.00     0.012 A 
ATOM     51  C   UNL A   1      37.462  31.478  30.355  1.00  0.00     0.148 A 
ATOM     52  C   UNL A   1      37.171  30.918  33.085  1.00  0.00     0.002 A 
ATOM     53  C   UNL A   1      36.316  31.872  31.030  1.00  0.00     0.091 A 
ATOM     54  F   UNL A   1      37.619  31.703  29.042  1.00  0.00    -0.205 F 
ATOM     55  C   UNL A   1      36.157  31.574  32.391  1.00  0.00     0.022 A 
BRANCH  53  56
ATOM     56  S   UNL A   1      35.041  32.860  30.241  1.00  0.00     0.127 S 
ATOM     57  O   UNL A   1      34.529  31.936  29.233  1.00  0.00    -0.237 OA
ATOM     58  O   UNL A   1      34.129  33.128  31.355  1.00  0.00    -0.237 OA
ATOM     59  O   UNL A   1      35.725  34.043  29.735  1.00  0.00    -0.744 OA
ENDBRANCH  53  56
ENDBRANCH  25  49
BRANCH  37  60
ATOM     60  C   UNL A   1      44.534  34.157  29.918  1.00  0.00     0.023 A 
ATOM     61  C   UNL A   1      45.208  34.370  31.137  1.00  0.00     0.012 A 
ATOM     62  C   UNL A   1      44.334  35.237  29.037  1.00  0.00     0.148 A 
ATOM     63  C   UNL A   1      45.633  35.648  31.497  1.00  0.00     0.002 A 
ATOM     64  C   UNL A   1      44.809  36.498  29.378  1.00  0.00     0.091 A 
ATOM     65  F   UNL A   1      43.672  35.018  27.892  1.00  0.00    -0.205 F 
ATOM     66  C   UNL A   1      45.442  36.709  30.614  1.00  0.00     0.022 A 
BRANCH  64  67
ATOM     67  S   UNL A   1      44.691  37.900  28.263  1.00  0.00     0.127 S 
ATOM     68  O   UNL A   1      43.244  38.099  28.188  1.00  0.00    -0.237 OA
ATOM     69  O   UNL A   1      45.412  38.941  28.997  1.00  0.00    -0.237 OA
ATOM     70  O   UNL A   1      45.331  37.481  27.025  1.00  0.00    -0.744 OA
ENDBRANCH  64  67
ENDBRANCH  37  60
ENDBRANCH  11  12
ENDBRANCH   4   6
ENDBRANCH   1   2
BRANCH   1  71
ATOM     71  C   UNL A   1      36.791  22.318  24.091  1.00  0.00     0.042 C 
BRANCH  71  72
ATOM     72  C   UNL A   1      35.826  23.410  23.653  1.00  0.00     0.118 C 
BRANCH  72  73
ATOM     73  N   UNL A   1      35.326  24.154  24.794  1.00  0.00    -0.351 N 
ATOM     74  C   UNL A   1      34.161  24.875  24.893  1.00  0.00     0.283 C 
ATOM     75  H   UNL A   1      35.892  24.138  25.599  1.00  0.00     0.163 HD
ATOM     76  O   UNL A   1      34.112  25.686  25.820  1.00  0.00    -0.268 OA
BRANCH  74  77
ATOM     77  C   UNL A   1      33.025  24.632  23.850  1.00  0.00     0.307 C 
BRANCH  77  78
ATOM     78  N   UNL A   1      31.932  23.723  24.302  1.00  0.00    -0.318 N 
ATOM     79  C   UNL A   1      31.297  22.815  23.335  1.00  0.00     0.284 C 
ATOM     80  C   UNL A   1      32.247  22.941  25.516  1.00  0.00     0.284 C 
ATOM     81  H   UNL A   1      31.238  24.446  24.490  1.00  0.00     0.349 HD
ATOM     82  C   UNL A   1      32.121  21.584  22.944  1.00  0.00     0.178 C 
ATOM     83  C   UNL A   1      33.012  21.603  25.314  1.00  0.00     0.178 C 
ATOM     84  N   UNL A   1      32.551  20.846  24.136  1.00  0.00    -0.360 N 
BRANCH  84  85
ATOM     85  C   UNL A   1      33.069  19.567  23.972  1.00  0.00     0.037 A 
ATOM     86  C   UNL A   1      34.223  19.120  24.630  1.00  0.00     0.026 A 
ATOM     87  C   UNL A   1      32.439  18.681  23.088  1.00  0.00     0.026 A 
ATOM     88  C   UNL A   1      34.744  17.844  24.394  1.00  0.00     0.002 A 
ATOM     89  C   UNL A   1      32.962  17.411  22.835  1.00  0.00     0.002 A 
ATOM     90  C   UNL A   1      34.119  16.994  23.486  1.00  0.00     0.000 A 
ENDBRANCH  84  85
ENDBRANCH  77  78
BRANCH  77  91
ATOM     91  C   UNL A   1      32.586  25.921  23.187  1.00  0.00     0.044 A 
ATOM     92  C   UNL A   1      33.281  26.715  22.291  1.00  0.00     0.094 A 
ATOM     93  C   UNL A   1      31.272  26.517  23.295  1.00  0.00     0.009 A 
ATOM     94  N   UNL A   1      32.524  27.815  21.986  1.00  0.00    -0.361 N 
ATOM     95  C   UNL A   1      31.276  27.696  22.547  1.00  0.00     0.049 A 
ATOM     96  C   UNL A   1      30.070  26.142  23.941  1.00  0.00     0.014 A 
ATOM     97  H   UNL A   1      32.830  28.578  21.446  1.00  0.00     0.166 HD
ATOM     98  C   UNL A   1      30.160  28.533  22.438  1.00  0.00     0.065 A 
ATOM     99  C   UNL A   1      28.932  26.945  23.807  1.00  0.00     0.040 A 
ATOM    100  C   UNL A   1      28.992  28.122  23.075  1.00  0.00     0.125 A 
ATOM    101  F   UNL A   1      27.893  28.881  22.974  1.00  0.00    -0.207 F 
ENDBRANCH  77  91
ENDBRANCH  74  77
ENDBRANCH  72  73
ENDBRANCH  71  72
ENDBRANCH   1  71
TORSDOF 16
ENDMDL
