MODEL 1
REMARK VINA RESULT:     -12.9      0.000      0.000
REMARK SMILES O=C(CCC(=O)Nc1ccc2nc(-c3ccccc3)oc2c1)NCCCNC(=O)c1ccc(-c2c3nc(c(-c4cccc(S(=O)(=O)[O-])c4F)c4ccc([nH]4)c(-c4cccc(S(=O)(=O)[O-])c4F)c4nc(c(-c5cccc(S(=O)(=O)[O-])c5F)c5ccc2[nH]5)C=C4)C=C3)cc1
REMARK SMILES IDX 24 1 23 2 1 3 2 4 3 6 4 7 5 8 6 9 7 10 8 12 9 13 22 14 10 15
REMARK SMILES IDX 21 16 11 17 20 18 12 19 13 20 14 21 15 22 19 23 16 24 18 25
REMARK SMILES IDX 17 26 25 27 26 28 27 29 28 30 29 32 30 33 31 34 92 35 32 36
REMARK SMILES IDX 91 37 33 38 34 39 35 40 85 41 36 42 90 43 84 44 86 45 37 46
REMARK SMILES IDX 89 47 83 48 82 49 38 51 70 52 50 53 69 54 51 55 54 56 68 57
REMARK SMILES IDX 87 58 52 59 53 60 67 62 88 63 55 64 39 65 40 66 48 67 41 68
REMARK SMILES IDX 43 69 49 70 42 71 44 72 45 73 46 74 47 75 71 76 72 77 80 78
REMARK SMILES IDX 73 79 75 80 81 81 74 82 76 83 77 84 78 85 79 86 56 87 57 88
REMARK SMILES IDX 65 89 58 90 60 91 66 92 59 93 61 94 62 95 63 96 64 97
REMARK H PARENT 23 5 7 11 27 31 86 50 54 61
REMARK Flexibility Score: inf
ROOT
ATOM      1  C   UNL A   1      31.387  27.390  26.311  1.00  0.00     0.117 C 
ENDROOT
BRANCH   1   2
ATOM      2  N   UNL A   1      32.486  26.463  26.121  1.00  0.00    -0.356 N 
ATOM      3  O   UNL A   1      31.466  24.621  27.058  1.00  0.00    -0.275 OA
ATOM      4  C   UNL A   1      32.389  25.126  26.427  1.00  0.00     0.220 C 
ATOM      5  H   UNL A   1      33.336  26.806  25.758  1.00  0.00     0.163 HD
BRANCH   4   6
ATOM      6  C   UNL A   1      33.481  24.280  25.812  1.00  0.00     0.110 C 
BRANCH   6   7
ATOM      7  C   UNL A   1      34.184  24.980  24.649  1.00  0.00     0.110 C 
BRANCH   7   8
ATOM      8  C   UNL A   1      33.893  24.356  23.303  1.00  0.00     0.224 C 
ATOM      9  O   UNL A   1      34.786  23.698  22.754  1.00  0.00    -0.275 OA
ATOM     10  N   UNL A   1      32.724  24.484  22.615  1.00  0.00    -0.326 N 
ATOM     11  H   UNL A   1      32.673  23.867  21.849  1.00  0.00     0.169 HD
BRANCH  10  12
ATOM     12  C   UNL A   1      31.568  25.285  22.732  1.00  0.00     0.045 A 
ATOM     13  C   UNL A   1      30.418  24.923  23.439  1.00  0.00     0.028 A 
ATOM     14  C   UNL A   1      31.657  26.583  22.177  1.00  0.00     0.075 A 
ATOM     15  C   UNL A   1      29.404  25.842  23.747  1.00  0.00     0.034 A 
ATOM     16  C   UNL A   1      30.614  27.462  22.472  1.00  0.00     0.157 A 
ATOM     17  C   UNL A   1      29.529  27.140  23.266  1.00  0.00     0.110 A 
ATOM     18  O   UNL A   1      30.449  28.759  22.060  1.00  0.00    -0.436 OA
ATOM     19  N   UNL A   1      28.716  28.218  23.426  1.00  0.00    -0.209 NA
ATOM     20  C   UNL A   1      29.277  29.140  22.670  1.00  0.00     0.227 A 
BRANCH  20  21
ATOM     21  C   UNL A   1      28.698  30.416  22.299  1.00  0.00     0.037 A 
ATOM     22  C   UNL A   1      28.314  30.656  20.973  1.00  0.00     0.014 A 
ATOM     23  C   UNL A   1      28.717  31.478  23.212  1.00  0.00     0.014 A 
ATOM     24  C   UNL A   1      27.980  31.947  20.561  1.00  0.00     0.001 A 
ATOM     25  C   UNL A   1      28.400  32.771  22.793  1.00  0.00     0.001 A 
ATOM     26  C   UNL A   1      28.041  33.005  21.467  1.00  0.00     0.000 A 
ENDBRANCH  20  21
ENDBRANCH  10  12
ENDBRANCH   7   8
ENDBRANCH   6   7
ENDBRANCH   4   6
ENDBRANCH   1   2
BRANCH   1  27
ATOM     27  C   UNL A   1      31.642  28.774  25.750  1.00  0.00     0.042 C 
BRANCH  27  28
ATOM     28  C   UNL A   1      32.819  29.514  26.367  1.00  0.00     0.118 C 
BRANCH  28  29
ATOM     29  N   UNL A   1      32.551  30.901  26.745  1.00  0.00    -0.352 N 
ATOM     30  C   UNL A   1      33.400  31.811  27.341  1.00  0.00     0.251 C 
ATOM     31  H   UNL A   1      31.643  31.228  26.549  1.00  0.00     0.163 HD
ATOM     32  O   UNL A   1      32.999  32.937  27.624  1.00  0.00    -0.269 OA
BRANCH  30  33
ATOM     33  C   UNL A   1      34.777  31.395  27.693  1.00  0.00     0.039 A 
ATOM     34  C   UNL A   1      35.721  32.374  28.010  1.00  0.00     0.014 A 
ATOM     35  C   UNL A   1      35.094  30.042  27.831  1.00  0.00     0.014 A 
ATOM     36  C   UNL A   1      36.935  31.998  28.593  1.00  0.00     0.010 A 
ATOM     37  C   UNL A   1      36.253  29.680  28.506  1.00  0.00     0.010 A 
ATOM     38  C   UNL A   1      37.178  30.652  28.917  1.00  0.00    -0.014 A 
BRANCH  38  39
ATOM     39  C   UNL A   1      38.349  30.237  29.737  1.00  0.00     0.031 A 
ATOM     40  C   UNL A   1      39.364  29.274  29.180  1.00  0.00     0.074 A 
ATOM     41  C   UNL A   1      38.424  30.612  31.032  1.00  0.00     0.049 A 
ATOM     42  N   UNL A   1      40.367  28.692  29.784  1.00  0.00    -0.248 NA
ATOM     43  C   UNL A   1      39.205  28.882  27.770  1.00  0.00     0.031 C 
ATOM     44  C   UNL A   1      37.455  31.460  31.730  1.00  0.00     0.029 A 
ATOM     45  N   UNL A   1      39.343  30.297  32.006  1.00  0.00    -0.354 N 
ATOM     46  C   UNL A   1      40.925  27.830  28.848  1.00  0.00     0.074 A 
ATOM     47  C   UNL A   1      40.128  27.940  27.646  1.00  0.00     0.031 C 
ATOM     48  C   UNL A   1      37.832  31.606  33.011  1.00  0.00     0.029 A 
ATOM     49  C   UNL A   1      39.049  30.833  33.240  1.00  0.00     0.049 A 
ATOM     50  H   UNL A   1      40.137  29.740  31.836  1.00  0.00     0.167 HD
ATOM     51  C   UNL A   1      42.021  27.043  28.963  1.00  0.00     0.034 A 
ATOM     52  C   UNL A   1      39.679  30.712  34.424  1.00  0.00     0.034 A 
ATOM     53  C   UNL A   1      42.857  26.990  30.131  1.00  0.00     0.049 A 
ATOM     54  C   UNL A   1      40.934  29.885  34.506  1.00  0.00     0.074 A 
ATOM     55  C   UNL A   1      44.053  26.315  30.302  1.00  0.00     0.029 A 
ATOM     56  N   UNL A   1      42.587  27.635  31.327  1.00  0.00    -0.354 N 
ATOM     57  N   UNL A   1      41.542  29.214  33.559  1.00  0.00    -0.248 NA
ATOM     58  C   UNL A   1      41.607  29.823  35.813  1.00  0.00     0.031 C 
ATOM     59  C   UNL A   1      44.502  26.547  31.607  1.00  0.00     0.029 A 
ATOM     60  C   UNL A   1      43.590  27.372  32.244  1.00  0.00     0.049 A 
ATOM     61  H   UNL A   1      41.798  28.199  31.500  1.00  0.00     0.167 HD
ATOM     62  C   UNL A   1      42.681  28.674  34.144  1.00  0.00     0.074 A 
ATOM     63  C   UNL A   1      42.692  29.117  35.524  1.00  0.00     0.031 C 
ATOM     64  C   UNL A   1      43.620  27.865  33.596  1.00  0.00     0.034 A 
BRANCH  51  65
ATOM     65  C   UNL A   1      42.424  26.231  27.761  1.00  0.00     0.023 A 
ATOM     66  C   UNL A   1      43.301  26.794  26.810  1.00  0.00     0.012 A 
ATOM     67  C   UNL A   1      41.983  24.904  27.594  1.00  0.00     0.148 A 
ATOM     68  C   UNL A   1      43.703  26.063  25.693  1.00  0.00     0.002 A 
ATOM     69  C   UNL A   1      42.423  24.167  26.500  1.00  0.00     0.091 A 
ATOM     70  F   UNL A   1      41.133  24.393  28.495  1.00  0.00    -0.205 F 
ATOM     71  C   UNL A   1      43.272  24.748  25.545  1.00  0.00     0.022 A 
BRANCH  69  72
ATOM     72  S   UNL A   1      41.985  22.441  26.258  1.00  0.00     0.127 S 
ATOM     73  O   UNL A   1      42.659  22.140  24.996  1.00  0.00    -0.237 OA
ATOM     74  O   UNL A   1      42.579  21.803  27.433  1.00  0.00    -0.237 OA
ATOM     75  O   UNL A   1      40.530  22.400  26.218  1.00  0.00    -0.744 OA
ENDBRANCH  69  72
ENDBRANCH  51  65
BRANCH  52  76
ATOM     76  C   UNL A   1      39.177  31.453  35.617  1.00  0.00     0.023 A 
ATOM     77  C   UNL A   1      38.204  30.851  36.438  1.00  0.00     0.012 A 
ATOM     78  C   UNL A   1      39.671  32.726  35.961  1.00  0.00     0.148 A 
ATOM     79  C   UNL A   1      37.711  31.512  37.562  1.00  0.00     0.002 A 
ATOM     80  C   UNL A   1      39.213  33.358  37.112  1.00  0.00     0.091 A 
ATOM     81  F   UNL A   1      40.586  33.292  35.160  1.00  0.00    -0.205 F 
ATOM     82  C   UNL A   1      38.221  32.761  37.905  1.00  0.00     0.022 A 
BRANCH  80  83
ATOM     83  S   UNL A   1      39.909  34.907  37.700  1.00  0.00     0.127 S 
ATOM     84  O   UNL A   1      38.908  35.335  38.674  1.00  0.00    -0.237 OA
ATOM     85  O   UNL A   1      41.183  34.471  38.275  1.00  0.00    -0.237 OA
ATOM     86  O   UNL A   1      40.045  35.745  36.516  1.00  0.00    -0.744 OA
ENDBRANCH  80  83
ENDBRANCH  52  76
BRANCH  64  87
ATOM     87  C   UNL A   1      44.757  27.417  34.477  1.00  0.00     0.023 A 
ATOM     88  C   UNL A   1      45.908  28.222  34.586  1.00  0.00     0.012 A 
ATOM     89  C   UNL A   1      44.651  26.248  35.256  1.00  0.00     0.148 A 
ATOM     90  C   UNL A   1      46.949  27.856  35.438  1.00  0.00     0.002 A 
ATOM     91  C   UNL A   1      45.674  25.914  36.135  1.00  0.00     0.091 A 
ATOM     92  F   UNL A   1      43.557  25.486  35.122  1.00  0.00    -0.205 F 
ATOM     93  C   UNL A   1      46.827  26.710  36.221  1.00  0.00     0.022 A 
BRANCH  91  94
ATOM     94  S   UNL A   1      45.561  24.508  37.248  1.00  0.00     0.127 S 
ATOM     95  O   UNL A   1      46.858  24.554  37.920  1.00  0.00    -0.237 OA
ATOM     96  O   UNL A   1      44.423  24.868  38.094  1.00  0.00    -0.237 OA
ATOM     97  O   UNL A   1      45.336  23.345  36.400  1.00  0.00    -0.744 OA
ENDBRANCH  91  94
ENDBRANCH  64  87
ENDBRANCH  38  39
ENDBRANCH  30  33
ENDBRANCH  28  29
ENDBRANCH  27  28
ENDBRANCH   1  27
TORSDOF 17
ENDMDL
MODEL 2
REMARK VINA RESULT:     -12.7      1.784      2.106
REMARK SMILES O=C(CCC(=O)Nc1ccc2nc(-c3ccccc3)oc2c1)NCCCNC(=O)c1ccc(-c2c3nc(c(-c4cccc(S(=O)(=O)[O-])c4F)c4ccc([nH]4)c(-c4cccc(S(=O)(=O)[O-])c4F)c4nc(c(-c5cccc(S(=O)(=O)[O-])c5F)c5ccc2[nH]5)C=C4)C=C3)cc1
REMARK SMILES IDX 24 1 23 2 1 3 2 4 3 6 4 7 5 8 6 9 7 10 8 12 9 13 22 14 10 15
REMARK SMILES IDX 21 16 11 17 20 18 12 19 13 20 14 21 15 22 19 23 16 24 18 25
REMARK SMILES IDX 17 26 25 27 26 28 27 29 28 30 29 32 30 33 31 34 92 35 32 36
REMARK SMILES IDX 91 37 33 38 34 39 35 40 85 41 36 42 90 43 84 44 86 45 37 46
REMARK SMILES IDX 89 47 83 48 82 49 38 51 70 52 50 53 69 54 51 55 54 56 68 57
REMARK SMILES IDX 87 58 52 59 53 60 67 62 88 63 55 64 39 65 40 66 48 67 41 68
REMARK SMILES IDX 43 69 49 70 42 71 44 72 45 73 46 74 47 75 71 76 72 77 80 78
REMARK SMILES IDX 73 79 75 80 81 81 74 82 76 83 77 84 78 85 79 86 56 87 57 88
REMARK SMILES IDX 65 89 58 90 60 91 66 92 59 93 61 94 62 95 63 96 64 97
REMARK H PARENT 23 5 7 11 27 31 86 50 54 61
REMARK Flexibility Score: inf
ROOT
ATOM      1  C   UNL A   1      31.493  27.809  26.089  1.00  0.00     0.117 C 
ENDROOT
BRANCH   1   2
ATOM      2  N   UNL A   1      32.663  26.956  25.998  1.00  0.00    -0.356 N 
ATOM      3  O   UNL A   1      31.668  25.030  26.780  1.00  0.00    -0.275 OA
ATOM      4  C   UNL A   1      32.619  25.607  26.263  1.00  0.00     0.220 C 
ATOM      5  H   UNL A   1      33.522  27.360  25.736  1.00  0.00     0.163 HD
BRANCH   4   6
ATOM      6  C   UNL A   1      33.820  24.848  25.751  1.00  0.00     0.110 C 
BRANCH   6   7
ATOM      7  C   UNL A   1      34.282  25.331  24.376  1.00  0.00     0.110 C 
BRANCH   7   8
ATOM      8  C   UNL A   1      33.809  24.454  23.238  1.00  0.00     0.224 C 
ATOM      9  O   UNL A   1      34.623  23.683  22.712  1.00  0.00    -0.275 OA
ATOM     10  N   UNL A   1      32.554  24.463  22.709  1.00  0.00    -0.326 N 
ATOM     11  H   UNL A   1      32.402  23.706  22.097  1.00  0.00     0.169 HD
BRANCH  10  12
ATOM     12  C   UNL A   1      31.418  25.293  22.822  1.00  0.00     0.045 A 
ATOM     13  C   UNL A   1      30.277  24.980  23.566  1.00  0.00     0.028 A 
ATOM     14  C   UNL A   1      31.522  26.569  22.222  1.00  0.00     0.075 A 
ATOM     15  C   UNL A   1      29.290  25.931  23.864  1.00  0.00     0.034 A 
ATOM     16  C   UNL A   1      30.504  27.480  22.508  1.00  0.00     0.157 A 
ATOM     17  C   UNL A   1      29.431  27.209  23.336  1.00  0.00     0.110 A 
ATOM     18  O   UNL A   1      30.358  28.766  22.056  1.00  0.00    -0.436 OA
ATOM     19  N   UNL A   1      28.644  28.309  23.476  1.00  0.00    -0.209 NA
ATOM     20  C   UNL A   1      29.208  29.192  22.677  1.00  0.00     0.227 A 
BRANCH  20  21
ATOM     21  C   UNL A   1      28.647  30.467  22.275  1.00  0.00     0.037 A 
ATOM     22  C   UNL A   1      28.245  30.673  20.948  1.00  0.00     0.014 A 
ATOM     23  C   UNL A   1      28.704  31.557  23.152  1.00  0.00     0.014 A 
ATOM     24  C   UNL A   1      27.929  31.956  20.501  1.00  0.00     0.001 A 
ATOM     25  C   UNL A   1      28.405  32.842  22.698  1.00  0.00     0.001 A 
ATOM     26  C   UNL A   1      28.028  33.042  21.371  1.00  0.00     0.000 A 
ENDBRANCH  20  21
ENDBRANCH  10  12
ENDBRANCH   7   8
ENDBRANCH   6   7
ENDBRANCH   4   6
ENDBRANCH   1   2
BRANCH   1  27
ATOM     27  C   UNL A   1      31.710  29.214  25.565  1.00  0.00     0.042 C 
BRANCH  27  28
ATOM     28  C   UNL A   1      32.920  29.936  26.138  1.00  0.00     0.118 C 
BRANCH  28  29
ATOM     29  N   UNL A   1      32.632  31.216  26.782  1.00  0.00    -0.352 N 
ATOM     30  C   UNL A   1      33.467  32.003  27.549  1.00  0.00     0.251 C 
ATOM     31  H   UNL A   1      31.720  31.564  26.651  1.00  0.00     0.163 HD
ATOM     32  O   UNL A   1      33.050  33.045  28.047  1.00  0.00    -0.269 OA
BRANCH  30  33
ATOM     33  C   UNL A   1      34.850  31.545  27.816  1.00  0.00     0.039 A 
ATOM     34  C   UNL A   1      35.864  32.496  27.953  1.00  0.00     0.014 A 
ATOM     35  C   UNL A   1      35.115  30.196  28.055  1.00  0.00     0.014 A 
ATOM     36  C   UNL A   1      37.108  32.108  28.461  1.00  0.00     0.010 A 
ATOM     37  C   UNL A   1      36.314  29.833  28.657  1.00  0.00     0.010 A 
ATOM     38  C   UNL A   1      37.317  30.786  28.890  1.00  0.00    -0.014 A 
BRANCH  38  39
ATOM     39  C   UNL A   1      38.538  30.383  29.640  1.00  0.00     0.031 A 
ATOM     40  C   UNL A   1      39.477  29.355  29.068  1.00  0.00     0.074 A 
ATOM     41  C   UNL A   1      38.730  30.837  30.898  1.00  0.00     0.049 A 
ATOM     42  N   UNL A   1      40.509  28.778  29.626  1.00  0.00    -0.248 NA
ATOM     43  C   UNL A   1      39.193  28.881  27.703  1.00  0.00     0.031 C 
ATOM     44  C   UNL A   1      37.844  31.759  31.614  1.00  0.00     0.029 A 
ATOM     45  N   UNL A   1      39.715  30.552  31.814  1.00  0.00    -0.354 N 
ATOM     46  C   UNL A   1      40.964  27.841  28.708  1.00  0.00     0.074 A 
ATOM     47  C   UNL A   1      40.076  27.902  27.568  1.00  0.00     0.031 C 
ATOM     48  C   UNL A   1      38.329  31.970  32.848  1.00  0.00     0.029 A 
ATOM     49  C   UNL A   1      39.538  31.173  33.030  1.00  0.00     0.049 A 
ATOM     50  H   UNL A   1      40.476  29.959  31.618  1.00  0.00     0.167 HD
ATOM     51  C   UNL A   1      42.043  27.026  28.785  1.00  0.00     0.034 A 
ATOM     52  C   UNL A   1      40.259  31.105  34.166  1.00  0.00     0.034 A 
ATOM     53  C   UNL A   1      42.969  27.018  29.885  1.00  0.00     0.049 A 
ATOM     54  C   UNL A   1      41.492  30.243  34.201  1.00  0.00     0.074 A 
ATOM     55  C   UNL A   1      44.155  26.315  30.004  1.00  0.00     0.029 A 
ATOM     56  N   UNL A   1      42.816  27.745  31.054  1.00  0.00    -0.354 N 
ATOM     57  N   UNL A   1      42.001  29.494  33.254  1.00  0.00    -0.248 NA
ATOM     58  C   UNL A   1      42.266  30.240  35.452  1.00  0.00     0.031 C 
ATOM     59  C   UNL A   1      44.715  26.612  31.251  1.00  0.00     0.029 A 
ATOM     60  C   UNL A   1      43.882  27.505  31.904  1.00  0.00     0.049 A 
ATOM     61  H   UNL A   1      42.059  28.344  31.252  1.00  0.00     0.167 HD
ATOM     62  C   UNL A   1      43.168  28.953  33.782  1.00  0.00     0.074 A 
ATOM     63  C   UNL A   1      43.304  29.481  35.124  1.00  0.00     0.031 C 
ATOM     64  C   UNL A   1      44.036  28.081  33.214  1.00  0.00     0.034 A 
BRANCH  51  65
ATOM     65  C   UNL A   1      42.323  26.127  27.611  1.00  0.00     0.023 A 
ATOM     66  C   UNL A   1      43.045  26.635  26.510  1.00  0.00     0.012 A 
ATOM     67  C   UNL A   1      41.924  24.777  27.612  1.00  0.00     0.148 A 
ATOM     68  C   UNL A   1      43.332  25.824  25.413  1.00  0.00     0.002 A 
ATOM     69  C   UNL A   1      42.251  23.964  26.532  1.00  0.00     0.091 A 
ATOM     70  F   UNL A   1      41.220  24.317  28.655  1.00  0.00    -0.205 F 
ATOM     71  C   UNL A   1      42.945  24.488  25.430  1.00  0.00     0.022 A 
BRANCH  69  72
ATOM     72  S   UNL A   1      41.863  22.210  26.490  1.00  0.00     0.127 S 
ATOM     73  O   UNL A   1      42.310  21.777  27.813  1.00  0.00    -0.237 OA
ATOM     74  O   UNL A   1      40.411  22.218  26.312  1.00  0.00    -0.237 OA
ATOM     75  O   UNL A   1      42.607  21.663  25.365  1.00  0.00    -0.744 OA
ENDBRANCH  69  72
ENDBRANCH  51  65
BRANCH  52  76
ATOM     76  C   UNL A   1      39.876  31.936  35.344  1.00  0.00     0.023 A 
ATOM     77  C   UNL A   1      40.416  33.230  35.473  1.00  0.00     0.012 A 
ATOM     78  C   UNL A   1      38.969  31.471  36.315  1.00  0.00     0.148 A 
ATOM     79  C   UNL A   1      40.082  34.037  36.561  1.00  0.00     0.002 A 
ATOM     80  C   UNL A   1      38.600  32.300  37.370  1.00  0.00     0.091 A 
ATOM     81  F   UNL A   1      38.478  30.230  36.186  1.00  0.00    -0.205 F 
ATOM     82  C   UNL A   1      39.167  33.576  37.504  1.00  0.00     0.022 A 
BRANCH  80  83
ATOM     83  S   UNL A   1      37.332  31.838  38.556  1.00  0.00     0.127 S 
ATOM     84  O   UNL A   1      36.281  32.809  38.264  1.00  0.00    -0.237 OA
ATOM     85  O   UNL A   1      37.028  30.462  38.159  1.00  0.00    -0.237 OA
ATOM     86  O   UNL A   1      37.963  31.957  39.864  1.00  0.00    -0.744 OA
ENDBRANCH  80  83
ENDBRANCH  52  76
BRANCH  64  87
ATOM     87  C   UNL A   1      45.227  27.651  34.029  1.00  0.00     0.023 A 
ATOM     88  C   UNL A   1      45.138  26.494  34.830  1.00  0.00     0.012 A 
ATOM     89  C   UNL A   1      46.453  28.339  33.939  1.00  0.00     0.148 A 
ATOM     90  C   UNL A   1      46.244  26.045  35.549  1.00  0.00     0.002 A 
ATOM     91  C   UNL A   1      47.563  27.859  34.625  1.00  0.00     0.091 A 
ATOM     92  F   UNL A   1      46.511  29.448  33.189  1.00  0.00    -0.205 F 
ATOM     93  C   UNL A   1      47.458  26.719  35.437  1.00  0.00     0.022 A 
BRANCH  91  94
ATOM     94  S   UNL A   1      49.187  28.611  34.466  1.00  0.00     0.127 S 
ATOM     95  O   UNL A   1      48.940  29.962  34.964  1.00  0.00    -0.237 OA
ATOM     96  O   UNL A   1      50.006  27.776  35.345  1.00  0.00    -0.237 OA
ATOM     97  O   UNL A   1      49.533  28.517  33.054  1.00  0.00    -0.744 OA
ENDBRANCH  91  94
ENDBRANCH  64  87
ENDBRANCH  38  39
ENDBRANCH  30  33
ENDBRANCH  28  29
ENDBRANCH  27  28
ENDBRANCH   1  27
TORSDOF 17
ENDMDL
MODEL 3
REMARK VINA RESULT:     -12.4      3.062      5.513
REMARK SMILES O=C(CCC(=O)Nc1ccc2nc(-c3ccccc3)oc2c1)NCCCNC(=O)c1ccc(-c2c3nc(c(-c4cccc(S(=O)(=O)[O-])c4F)c4ccc([nH]4)c(-c4cccc(S(=O)(=O)[O-])c4F)c4nc(c(-c5cccc(S(=O)(=O)[O-])c5F)c5ccc2[nH]5)C=C4)C=C3)cc1
REMARK SMILES IDX 24 1 23 2 1 3 2 4 3 6 4 7 5 8 6 9 7 10 8 12 9 13 22 14 10 15
REMARK SMILES IDX 21 16 11 17 20 18 12 19 13 20 14 21 15 22 19 23 16 24 18 25
REMARK SMILES IDX 17 26 25 27 26 28 27 29 28 30 29 32 30 33 31 34 92 35 32 36
REMARK SMILES IDX 91 37 33 38 34 39 35 40 85 41 36 42 90 43 84 44 86 45 37 46
REMARK SMILES IDX 89 47 83 48 82 49 38 51 70 52 50 53 69 54 51 55 54 56 68 57
REMARK SMILES IDX 87 58 52 59 53 60 67 62 88 63 55 64 39 65 40 66 48 67 41 68
REMARK SMILES IDX 43 69 49 70 42 71 44 72 45 73 46 74 47 75 71 76 72 77 80 78
REMARK SMILES IDX 73 79 75 80 81 81 74 82 76 83 77 84 78 85 79 86 56 87 57 88
REMARK SMILES IDX 65 89 58 90 60 91 66 92 59 93 61 94 62 95 63 96 64 97
REMARK H PARENT 23 5 7 11 27 31 86 50 54 61
REMARK Flexibility Score: inf
ROOT
ATOM      1  C   UNL A   1      33.096  29.742  26.040  1.00  0.00     0.117 C 
ENDROOT
BRANCH   1   2
ATOM      2  N   UNL A   1      32.317  28.529  25.876  1.00  0.00    -0.356 N 
ATOM      3  O   UNL A   1      34.022  27.210  25.057  1.00  0.00    -0.275 OA
ATOM      4  C   UNL A   1      32.879  27.335  25.486  1.00  0.00     0.220 C 
ATOM      5  H   UNL A   1      31.348  28.562  26.049  1.00  0.00     0.163 HD
BRANCH   4   6
ATOM      6  C   UNL A   1      31.996  26.136  25.742  1.00  0.00     0.110 C 
BRANCH   6   7
ATOM      7  C   UNL A   1      30.940  25.938  24.654  1.00  0.00     0.110 C 
BRANCH   7   8
ATOM      8  C   UNL A   1      31.494  26.030  23.250  1.00  0.00     0.224 C 
ATOM      9  O   UNL A   1      30.964  26.822  22.460  1.00  0.00    -0.275 OA
ATOM     10  N   UNL A   1      32.520  25.281  22.761  1.00  0.00    -0.326 N 
ATOM     11  H   UNL A   1      32.839  25.609  21.888  1.00  0.00     0.169 HD
BRANCH  10  12
ATOM     12  C   UNL A   1      33.240  24.147  23.198  1.00  0.00     0.045 A 
ATOM     13  C   UNL A   1      34.515  24.187  23.769  1.00  0.00     0.028 A 
ATOM     14  C   UNL A   1      32.546  22.916  23.144  1.00  0.00     0.075 A 
ATOM     15  C   UNL A   1      35.081  23.082  24.422  1.00  0.00     0.034 A 
ATOM     16  C   UNL A   1      33.154  21.828  23.771  1.00  0.00     0.157 A 
ATOM     17  C   UNL A   1      34.365  21.892  24.434  1.00  0.00     0.110 A 
ATOM     18  O   UNL A   1      32.708  20.534  23.858  1.00  0.00    -0.436 OA
ATOM     19  N   UNL A   1      34.666  20.692  25.000  1.00  0.00    -0.209 NA
ATOM     20  C   UNL A   1      33.680  19.912  24.605  1.00  0.00     0.227 A 
BRANCH  20  21
ATOM     21  C   UNL A   1      33.620  18.470  24.738  1.00  0.00     0.037 A 
ATOM     22  C   UNL A   1      34.223  17.649  23.776  1.00  0.00     0.014 A 
ATOM     23  C   UNL A   1      32.784  17.896  25.704  1.00  0.00     0.014 A 
ATOM     24  C   UNL A   1      33.971  16.276  23.766  1.00  0.00     0.001 A 
ATOM     25  C   UNL A   1      32.519  16.526  25.681  1.00  0.00     0.001 A 
ATOM     26  C   UNL A   1      33.105  15.720  24.707  1.00  0.00     0.000 A 
ENDBRANCH  20  21
ENDBRANCH  10  12
ENDBRANCH   7   8
ENDBRANCH   6   7
ENDBRANCH   4   6
ENDBRANCH   1   2
BRANCH   1  27
ATOM     27  C   UNL A   1      32.489  30.738  27.008  1.00  0.00     0.042 C 
BRANCH  27  28
ATOM     28  C   UNL A   1      33.425  31.848  27.462  1.00  0.00     0.118 C 
BRANCH  28  29
ATOM     29  N   UNL A   1      32.813  33.171  27.568  1.00  0.00    -0.352 N 
ATOM     30  C   UNL A   1      33.178  34.228  28.377  1.00  0.00     0.251 C 
ATOM     31  H   UNL A   1      32.036  33.330  26.984  1.00  0.00     0.163 HD
ATOM     32  O   UNL A   1      32.528  35.270  28.364  1.00  0.00    -0.269 OA
BRANCH  30  33
ATOM     33  C   UNL A   1      34.322  34.068  29.304  1.00  0.00     0.039 A 
ATOM     34  C   UNL A   1      34.113  33.452  30.540  1.00  0.00     0.014 A 
ATOM     35  C   UNL A   1      35.613  34.411  28.899  1.00  0.00     0.014 A 
ATOM     36  C   UNL A   1      35.212  33.058  31.309  1.00  0.00     0.010 A 
ATOM     37  C   UNL A   1      36.702  33.924  29.613  1.00  0.00     0.010 A 
ATOM     38  C   UNL A   1      36.517  33.221  30.814  1.00  0.00    -0.014 A 
BRANCH  38  39
ATOM     39  C   UNL A   1      37.699  32.618  31.488  1.00  0.00     0.031 A 
ATOM     40  C   UNL A   1      38.439  31.474  30.847  1.00  0.00     0.074 A 
ATOM     41  C   UNL A   1      38.021  33.003  32.742  1.00  0.00     0.049 A 
ATOM     42  N   UNL A   1      39.398  30.733  31.338  1.00  0.00    -0.248 NA
ATOM     43  C   UNL A   1      38.018  31.086  29.491  1.00  0.00     0.031 C 
ATOM     44  C   UNL A   1      37.324  34.029  33.522  1.00  0.00     0.029 A 
ATOM     45  N   UNL A   1      38.996  32.548  33.598  1.00  0.00    -0.354 N 
ATOM     46  C   UNL A   1      39.657  29.763  30.379  1.00  0.00     0.074 A 
ATOM     47  C   UNL A   1      38.732  29.989  29.290  1.00  0.00     0.031 C 
ATOM     48  C   UNL A   1      37.897  34.132  34.732  1.00  0.00     0.029 A 
ATOM     49  C   UNL A   1      38.978  33.156  34.834  1.00  0.00     0.049 A 
ATOM     50  H   UNL A   1      39.647  31.852  33.351  1.00  0.00     0.167 HD
ATOM     51  C   UNL A   1      40.601  28.792  30.383  1.00  0.00     0.034 A 
ATOM     52  C   UNL A   1      39.736  32.949  35.927  1.00  0.00     0.034 A 
ATOM     53  C   UNL A   1      41.570  28.614  31.430  1.00  0.00     0.049 A 
ATOM     54  C   UNL A   1      40.823  31.909  35.880  1.00  0.00     0.074 A 
ATOM     55  C   UNL A   1      42.639  27.736  31.471  1.00  0.00     0.029 A 
ATOM     56  N   UNL A   1      41.589  29.324  32.619  1.00  0.00    -0.354 N 
ATOM     57  N   UNL A   1      41.164  31.117  34.893  1.00  0.00    -0.248 NA
ATOM     58  C   UNL A   1      41.651  31.755  37.086  1.00  0.00     0.031 C 
ATOM     59  C   UNL A   1      43.301  27.912  32.692  1.00  0.00     0.029 A 
ATOM     60  C   UNL A   1      42.648  28.903  33.405  1.00  0.00     0.049 A 
ATOM     61  H   UNL A   1      40.944  30.026  32.869  1.00  0.00     0.167 HD
ATOM     62  C   UNL A   1      42.260  30.392  35.346  1.00  0.00     0.074 A 
ATOM     63  C   UNL A   1      42.543  30.857  36.689  1.00  0.00     0.031 C 
ATOM     64  C   UNL A   1      42.954  29.414  34.716  1.00  0.00     0.034 A 
BRANCH  51  65
ATOM     65  C   UNL A   1      40.682  27.893  29.178  1.00  0.00     0.023 A 
ATOM     66  C   UNL A   1      39.848  26.757  29.107  1.00  0.00     0.012 A 
ATOM     67  C   UNL A   1      41.536  28.191  28.100  1.00  0.00     0.148 A 
ATOM     68  C   UNL A   1      39.890  25.912  27.999  1.00  0.00     0.002 A 
ATOM     69  C   UNL A   1      41.540  27.367  26.979  1.00  0.00     0.091 A 
ATOM     70  F   UNL A   1      42.337  29.261  28.193  1.00  0.00    -0.205 F 
ATOM     71  C   UNL A   1      40.727  26.223  26.933  1.00  0.00     0.022 A 
BRANCH  69  72
ATOM     72  S   UNL A   1      42.529  27.722  25.521  1.00  0.00     0.127 S 
ATOM     73  O   UNL A   1      42.276  26.541  24.698  1.00  0.00    -0.237 OA
ATOM     74  O   UNL A   1      41.916  28.954  25.024  1.00  0.00    -0.237 OA
ATOM     75  O   UNL A   1      43.898  27.876  25.995  1.00  0.00    -0.744 OA
ENDBRANCH  69  72
ENDBRANCH  51  65
BRANCH  52  76
ATOM     76  C   UNL A   1      39.546  33.796  37.140  1.00  0.00     0.023 A 
ATOM     77  C   UNL A   1      40.023  35.121  37.131  1.00  0.00     0.012 A 
ATOM     78  C   UNL A   1      38.876  33.316  38.282  1.00  0.00     0.148 A 
ATOM     79  C   UNL A   1      39.863  35.944  38.246  1.00  0.00     0.002 A 
ATOM     80  C   UNL A   1      38.674  34.157  39.370  1.00  0.00     0.091 A 
ATOM     81  F   UNL A   1      38.443  32.047  38.279  1.00  0.00    -0.205 F 
ATOM     82  C   UNL A   1      39.180  35.466  39.362  1.00  0.00     0.022 A 
BRANCH  80  83
ATOM     83  S   UNL A   1      37.694  33.668  40.795  1.00  0.00     0.127 S 
ATOM     84  O   UNL A   1      37.544  34.935  41.505  1.00  0.00    -0.237 OA
ATOM     85  O   UNL A   1      36.472  33.164  40.166  1.00  0.00    -0.237 OA
ATOM     86  O   UNL A   1      38.480  32.646  41.474  1.00  0.00    -0.744 OA
ENDBRANCH  80  83
ENDBRANCH  52  76
BRANCH  64  87
ATOM     87  C   UNL A   1      44.105  28.786  35.457  1.00  0.00     0.023 A 
ATOM     88  C   UNL A   1      45.406  29.302  35.284  1.00  0.00     0.012 A 
ATOM     89  C   UNL A   1      43.890  27.747  36.383  1.00  0.00     0.148 A 
ATOM     90  C   UNL A   1      46.477  28.774  36.001  1.00  0.00     0.002 A 
ATOM     91  C   UNL A   1      44.956  27.256  37.127  1.00  0.00     0.091 A 
ATOM     92  F   UNL A   1      42.649  27.257  36.518  1.00  0.00    -0.205 F 
ATOM     93  C   UNL A   1      46.252  27.761  36.930  1.00  0.00     0.022 A 
BRANCH  91  94
ATOM     94  S   UNL A   1      44.741  26.017  38.410  1.00  0.00     0.127 S 
ATOM     95  O   UNL A   1      46.110  25.848  38.894  1.00  0.00    -0.237 OA
ATOM     96  O   UNL A   1      43.842  26.690  39.348  1.00  0.00    -0.237 OA
ATOM     97  O   UNL A   1      44.162  24.855  37.750  1.00  0.00    -0.744 OA
ENDBRANCH  91  94
ENDBRANCH  64  87
ENDBRANCH  38  39
ENDBRANCH  30  33
ENDBRANCH  28  29
ENDBRANCH  27  28
ENDBRANCH   1  27
TORSDOF 17
ENDMDL
