MODEL 1
REMARK VINA RESULT:     -13.7      0.000      0.000
REMARK SMILES Cc1c(CC(=O)N[C@@H](CCO)C(=O)NCCCNC(=O)c2ccc(-c3c4nc(c(-c5cccc(S(=O)(=O)[O-])c5F)c5ccc([nH]5)c(-c5cccc(S(=O)(=O)[O-])c5F)c5nc(c(-c6cccc(S(=O)(=O)[O-])c6F)c6ccc3[nH]6)C=C5)C=C4)cc2)cc(-c2ccc(S(C)(=O)=O)cc2)n1-c1ccc(F)cc1
REMARK SMILES IDX 15 1 14 2 12 3 13 4 8 6 7 7 5 8 6 9 4 11 3 12 1 13 2 14
REMARK SMILES IDX 96 15 84 16 85 17 97 18 98 19 103 20 99 21 102 22 100 23
REMARK SMILES IDX 101 24 86 25 87 26 95 27 88 28 94 29 89 30 90 31 91 32 92 33
REMARK SMILES IDX 93 34 9 35 10 36 11 37 16 39 17 40 18 41 19 42 20 44 21 45
REMARK SMILES IDX 22 46 83 47 23 48 82 49 24 50 25 51 26 52 76 53 27 54 81 55
REMARK SMILES IDX 75 56 77 57 28 58 80 59 74 60 73 61 29 63 61 64 41 65 60 66
REMARK SMILES IDX 42 67 45 68 59 69 78 70 43 71 44 72 58 74 79 75 46 76 30 77
REMARK SMILES IDX 31 78 39 79 32 80 34 81 40 82 33 83 35 84 36 85 37 86 38 87
REMARK SMILES IDX 62 88 63 89 71 90 64 91 66 92 72 93 65 94 67 95 68 96 69 97
REMARK SMILES IDX 70 98 47 99 48 100 56 101 49 102 51 103 57 104 50 105 52 106
REMARK SMILES IDX 53 107 54 108 55 109
REMARK H PARENT 14 5 7 10 11 38 18 43 77 62 45 73
REMARK Flexibility Score: inf
ROOT
ATOM      1  C   UNL A   1      37.100  21.416  25.654  1.00  0.00     0.117 C 
ENDROOT
BRANCH   1   2
ATOM      2  N   UNL A   1      36.270  20.288  25.260  1.00  0.00    -0.354 N 
ATOM      3  C   UNL A   1      34.938  20.105  25.069  1.00  0.00     0.242 C 
ATOM      4  O   UNL A   1      34.605  19.023  24.571  1.00  0.00    -0.273 OA
ATOM      5  H   UNL A   1      36.794  19.471  25.092  1.00  0.00     0.163 HD
BRANCH   3   6
ATOM      6  C   UNL A   1      33.876  21.196  25.269  1.00  0.00     0.173 C 
BRANCH   6   7
ATOM      7  N   UNL A   1      32.805  21.172  24.279  1.00  0.00    -0.344 N 
ATOM      8  C   UNL A   1      32.692  21.953  23.158  1.00  0.00     0.225 C 
ATOM      9  O   UNL A   1      31.813  21.660  22.343  1.00  0.00    -0.275 OA
ATOM     10  H   UNL A   1      32.082  20.522  24.434  1.00  0.00     0.164 HD
BRANCH   8  11
ATOM     11  C   UNL A   1      33.622  23.145  22.926  1.00  0.00     0.137 C 
BRANCH  11  12
ATOM     12  C   UNL A   1      33.033  24.447  23.400  1.00  0.00    -0.017 A 
ATOM     13  C   UNL A   1      34.430  24.849  25.545  1.00  0.00     0.065 C 
ATOM     14  C   UNL A   1      33.440  25.215  24.484  1.00  0.00     0.024 A 
ATOM     15  N   UNL A   1      32.688  26.385  24.493  1.00  0.00    -0.314 N 
ATOM     16  C   UNL A   1      31.927  25.123  22.813  1.00  0.00     0.033 A 
ATOM     17  C   UNL A   1      31.748  26.332  23.462  1.00  0.00     0.053 A 
BRANCH  15  18
ATOM     18  C   UNL A   1      32.857  27.471  25.392  1.00  0.00     0.046 A 
ATOM     19  C   UNL A   1      32.107  27.517  26.574  1.00  0.00     0.029 A 
ATOM     20  C   UNL A   1      33.712  28.527  25.045  1.00  0.00     0.029 A 
ATOM     21  C   UNL A   1      32.227  28.619  27.419  1.00  0.00     0.041 A 
ATOM     22  C   UNL A   1      33.818  29.629  25.892  1.00  0.00     0.041 A 
ATOM     23  C   UNL A   1      33.078  29.663  27.070  1.00  0.00     0.123 A 
ATOM     24  F   UNL A   1      33.177  30.727  27.878  1.00  0.00    -0.207 F 
ENDBRANCH  15  18
BRANCH  17  25
ATOM     25  C   UNL A   1      30.818  27.417  23.106  1.00  0.00    -0.001 A 
ATOM     26  C   UNL A   1      31.263  28.554  22.411  1.00  0.00     0.011 A 
ATOM     27  C   UNL A   1      29.471  27.340  23.483  1.00  0.00     0.011 A 
ATOM     28  C   UNL A   1      30.406  29.630  22.176  1.00  0.00     0.021 A 
ATOM     29  C   UNL A   1      28.603  28.410  23.246  1.00  0.00     0.021 A 
ATOM     30  C   UNL A   1      29.086  29.563  22.622  1.00  0.00     0.067 A 
BRANCH  30  31
ATOM     31  S   UNL A   1      28.017  30.964  22.393  1.00  0.00     0.175 S 
ATOM     32  C   UNL A   1      29.032  32.352  22.833  1.00  0.00     0.163 C 
ATOM     33  O   UNL A   1      27.726  31.053  20.968  1.00  0.00    -0.224 OA
ATOM     34  O   UNL A   1      26.951  30.881  23.366  1.00  0.00    -0.224 OA
ENDBRANCH  30  31
ENDBRANCH  17  25
ENDBRANCH  11  12
ENDBRANCH   8  11
ENDBRANCH   6   7
BRANCH   6  35
ATOM     35  C   UNL A   1      33.393  21.397  26.717  1.00  0.00     0.063 C 
BRANCH  35  36
ATOM     36  C   UNL A   1      32.616  22.655  27.068  1.00  0.00     0.158 C 
BRANCH  36  37
ATOM     37  O   UNL A   1      31.304  22.386  27.531  1.00  0.00    -0.396 OA
ATOM     38  H   UNL A   1      30.874  23.217  27.788  1.00  0.00     0.210 HD
ENDBRANCH  36  37
ENDBRANCH  35  36
ENDBRANCH   6  35
ENDBRANCH   3   6
ENDBRANCH   1   2
BRANCH   1  39
ATOM     39  C   UNL A   1      38.589  21.253  25.338  1.00  0.00     0.042 C 
BRANCH  39  40
ATOM     40  C   UNL A   1      39.575  21.768  26.397  1.00  0.00     0.118 C 
BRANCH  40  41
ATOM     41  N   UNL A   1      40.839  22.218  25.859  1.00  0.00    -0.352 N 
ATOM     42  C   UNL A   1      41.511  23.392  26.169  1.00  0.00     0.251 C 
ATOM     43  H   UNL A   1      41.271  21.627  25.201  1.00  0.00     0.163 HD
ATOM     44  O   UNL A   1      42.581  23.599  25.600  1.00  0.00    -0.269 OA
BRANCH  42  45
ATOM     45  C   UNL A   1      40.870  24.433  27.054  1.00  0.00     0.039 A 
ATOM     46  C   UNL A   1      39.886  25.233  26.497  1.00  0.00     0.014 A 
ATOM     47  C   UNL A   1      41.266  24.741  28.367  1.00  0.00     0.014 A 
ATOM     48  C   UNL A   1      39.282  26.275  27.257  1.00  0.00     0.010 A 
ATOM     49  C   UNL A   1      40.710  25.873  29.103  1.00  0.00     0.010 A 
ATOM     50  C   UNL A   1      39.701  26.703  28.573  1.00  0.00    -0.014 A 
BRANCH  50  51
ATOM     51  C   UNL A   1      39.453  28.275  28.903  1.00  0.00     0.031 A 
ATOM     52  C   UNL A   1      40.857  28.736  29.119  1.00  0.00     0.074 A 
ATOM     53  C   UNL A   1      38.474  29.243  29.158  1.00  0.00     0.049 A 
ATOM     54  N   UNL A   1      41.610  28.090  29.968  1.00  0.00    -0.248 NA
ATOM     55  C   UNL A   1      41.610  29.539  28.153  1.00  0.00     0.031 C 
ATOM     56  C   UNL A   1      37.021  29.046  29.306  1.00  0.00     0.029 A 
ATOM     57  N   UNL A   1      38.529  30.671  29.351  1.00  0.00    -0.354 N 
ATOM     58  C   UNL A   1      42.836  28.682  29.924  1.00  0.00     0.074 A 
ATOM     59  C   UNL A   1      42.849  29.329  28.618  1.00  0.00     0.031 C 
ATOM     60  C   UNL A   1      36.346  30.234  29.391  1.00  0.00     0.029 A 
ATOM     61  C   UNL A   1      37.260  31.376  29.369  1.00  0.00     0.049 A 
ATOM     62  H   UNL A   1      39.385  31.144  29.466  1.00  0.00     0.167 HD
ATOM     63  C   UNL A   1      43.251  29.175  31.129  1.00  0.00     0.034 A 
ATOM     64  C   UNL A   1      36.950  32.741  29.444  1.00  0.00     0.034 A 
ATOM     65  C   UNL A   1      43.099  30.602  31.200  1.00  0.00     0.049 A 
ATOM     66  C   UNL A   1      38.108  33.368  30.091  1.00  0.00     0.074 A 
ATOM     67  C   UNL A   1      43.340  31.618  30.293  1.00  0.00     0.029 A 
ATOM     68  N   UNL A   1      42.173  31.084  32.100  1.00  0.00    -0.354 N 
ATOM     69  N   UNL A   1      38.264  33.331  31.380  1.00  0.00    -0.248 NA
ATOM     70  C   UNL A   1      39.078  34.176  29.360  1.00  0.00     0.031 C 
ATOM     71  C   UNL A   1      42.186  32.426  30.354  1.00  0.00     0.029 A 
ATOM     72  C   UNL A   1      41.530  32.175  31.549  1.00  0.00     0.049 A 
ATOM     73  H   UNL A   1      41.996  30.709  32.993  1.00  0.00     0.167 HD
ATOM     74  C   UNL A   1      39.595  33.579  31.513  1.00  0.00     0.074 A 
ATOM     75  C   UNL A   1      39.961  34.359  30.344  1.00  0.00     0.031 C 
ATOM     76  C   UNL A   1      40.313  32.637  32.168  1.00  0.00     0.034 A 
BRANCH  63  77
ATOM     77  C   UNL A   1      43.061  28.214  32.287  1.00  0.00     0.023 A 
ATOM     78  C   UNL A   1      42.115  28.570  33.261  1.00  0.00     0.012 A 
ATOM     79  C   UNL A   1      43.906  27.097  32.537  1.00  0.00     0.148 A 
ATOM     80  C   UNL A   1      42.051  27.880  34.474  1.00  0.00     0.002 A 
ATOM     81  C   UNL A   1      43.915  26.492  33.790  1.00  0.00     0.091 A 
ATOM     82  F   UNL A   1      44.693  26.639  31.551  1.00  0.00    -0.205 F 
ATOM     83  C   UNL A   1      42.974  26.873  34.755  1.00  0.00     0.022 A 
BRANCH  81  84
ATOM     84  S   UNL A   1      45.238  25.382  34.315  1.00  0.00     0.127 S 
ATOM     85  O   UNL A   1      44.964  25.216  35.746  1.00  0.00    -0.237 OA
ATOM     86  O   UNL A   1      44.997  24.186  33.517  1.00  0.00    -0.237 OA
ATOM     87  O   UNL A   1      46.492  26.077  34.044  1.00  0.00    -0.744 OA
ENDBRANCH  81  84
ENDBRANCH  63  77
BRANCH  64  88
ATOM     88  C   UNL A   1      35.835  33.848  29.333  1.00  0.00     0.023 A 
ATOM     89  C   UNL A   1      35.045  33.904  28.124  1.00  0.00     0.012 A 
ATOM     90  C   UNL A   1      35.240  34.489  30.440  1.00  0.00     0.148 A 
ATOM     91  C   UNL A   1      33.737  34.423  28.047  1.00  0.00     0.002 A 
ATOM     92  C   UNL A   1      33.930  35.042  30.353  1.00  0.00     0.091 A 
ATOM     93  F   UNL A   1      35.898  34.475  31.606  1.00  0.00    -0.205 F 
ATOM     94  C   UNL A   1      33.171  34.981  29.172  1.00  0.00     0.022 A 
BRANCH  92  95
ATOM     95  S   UNL A   1      33.054  35.780  31.751  1.00  0.00     0.127 S 
ATOM     96  O   UNL A   1      34.058  36.683  32.319  1.00  0.00    -0.237 OA
ATOM     97  O   UNL A   1      31.942  36.457  31.087  1.00  0.00    -0.237 OA
ATOM     98  O   UNL A   1      32.693  34.663  32.612  1.00  0.00    -0.744 OA
ENDBRANCH  92  95
ENDBRANCH  64  88
BRANCH  76  99
ATOM     99  C   UNL A   1      39.693  32.008  33.398  1.00  0.00     0.023 A 
ATOM    100  C   UNL A   1      38.992  30.782  33.426  1.00  0.00     0.012 A 
ATOM    101  C   UNL A   1      39.809  32.721  34.600  1.00  0.00     0.148 A 
ATOM    102  C   UNL A   1      38.403  30.306  34.605  1.00  0.00     0.002 A 
ATOM    103  C   UNL A   1      39.271  32.224  35.781  1.00  0.00     0.091 A 
ATOM    104  F   UNL A   1      40.440  33.904  34.568  1.00  0.00    -0.205 F 
ATOM    105  C   UNL A   1      38.558  31.020  35.789  1.00  0.00     0.022 A 
BRANCH 103 106
ATOM    106  S   UNL A   1      39.496  33.120  37.316  1.00  0.00     0.127 S 
ATOM    107  O   UNL A   1      38.813  32.252  38.274  1.00  0.00    -0.237 OA
ATOM    108  O   UNL A   1      40.948  33.171  37.469  1.00  0.00    -0.237 OA
ATOM    109  O   UNL A   1      38.870  34.421  37.096  1.00  0.00    -0.744 OA
ENDBRANCH 103 106
ENDBRANCH  76  99
ENDBRANCH  50  51
ENDBRANCH  42  45
ENDBRANCH  40  41
ENDBRANCH  39  40
ENDBRANCH   1  39
TORSDOF 22
ENDMDL
MODEL 2
REMARK VINA RESULT:     -13.2      1.719      2.385
REMARK SMILES Cc1c(CC(=O)N[C@@H](CCO)C(=O)NCCCNC(=O)c2ccc(-c3c4nc(c(-c5cccc(S(=O)(=O)[O-])c5F)c5ccc([nH]5)c(-c5cccc(S(=O)(=O)[O-])c5F)c5nc(c(-c6cccc(S(=O)(=O)[O-])c6F)c6ccc3[nH]6)C=C5)C=C4)cc2)cc(-c2ccc(S(C)(=O)=O)cc2)n1-c1ccc(F)cc1
REMARK SMILES IDX 15 1 14 2 12 3 13 4 8 6 7 7 5 8 6 9 4 11 3 12 1 13 2 14
REMARK SMILES IDX 96 15 84 16 85 17 97 18 98 19 103 20 99 21 102 22 100 23
REMARK SMILES IDX 101 24 86 25 87 26 95 27 88 28 94 29 89 30 90 31 91 32 92 33
REMARK SMILES IDX 93 34 9 35 10 36 11 37 16 39 17 40 18 41 19 42 20 44 21 45
REMARK SMILES IDX 22 46 83 47 23 48 82 49 24 50 25 51 26 52 76 53 27 54 81 55
REMARK SMILES IDX 75 56 77 57 28 58 80 59 74 60 73 61 29 63 61 64 41 65 60 66
REMARK SMILES IDX 42 67 45 68 59 69 78 70 43 71 44 72 58 74 79 75 46 76 30 77
REMARK SMILES IDX 31 78 39 79 32 80 34 81 40 82 33 83 35 84 36 85 37 86 38 87
REMARK SMILES IDX 62 88 63 89 71 90 64 91 66 92 72 93 65 94 67 95 68 96 69 97
REMARK SMILES IDX 70 98 47 99 48 100 56 101 49 102 51 103 57 104 50 105 52 106
REMARK SMILES IDX 53 107 54 108 55 109
REMARK H PARENT 14 5 7 10 11 38 18 43 77 62 45 73
REMARK Flexibility Score: inf
ROOT
ATOM      1  C   UNL A   1      36.504  21.913  25.776  1.00  0.00     0.117 C 
ENDROOT
BRANCH   1   2
ATOM      2  N   UNL A   1      35.742  20.706  25.494  1.00  0.00    -0.354 N 
ATOM      3  C   UNL A   1      34.448  20.448  25.174  1.00  0.00     0.242 C 
ATOM      4  O   UNL A   1      34.191  19.283  24.846  1.00  0.00    -0.273 OA
ATOM      5  H   UNL A   1      36.291  19.889  25.547  1.00  0.00     0.163 HD
BRANCH   3   6
ATOM      6  C   UNL A   1      33.359  21.522  25.036  1.00  0.00     0.173 C 
BRANCH   6   7
ATOM      7  N   UNL A   1      32.602  21.445  23.791  1.00  0.00    -0.344 N 
ATOM      8  C   UNL A   1      32.802  22.179  22.651  1.00  0.00     0.225 C 
ATOM      9  O   UNL A   1      32.182  21.843  21.638  1.00  0.00    -0.275 OA
ATOM     10  H   UNL A   1      31.865  20.793  23.768  1.00  0.00     0.164 HD
BRANCH   8  11
ATOM     11  C   UNL A   1      33.759  23.372  22.635  1.00  0.00     0.137 C 
BRANCH  11  12
ATOM     12  C   UNL A   1      33.129  24.634  23.160  1.00  0.00    -0.017 A 
ATOM     13  C   UNL A   1      34.486  24.970  25.342  1.00  0.00     0.065 C 
ATOM     14  C   UNL A   1      33.500  25.361  24.285  1.00  0.00     0.024 A 
ATOM     15  N   UNL A   1      32.717  26.509  24.338  1.00  0.00    -0.314 N 
ATOM     16  C   UNL A   1      32.013  25.308  22.590  1.00  0.00     0.033 A 
ATOM     17  C   UNL A   1      31.793  26.480  23.292  1.00  0.00     0.053 A 
BRANCH  15  18
ATOM     18  C   UNL A   1      32.845  27.555  25.290  1.00  0.00     0.046 A 
ATOM     19  C   UNL A   1      33.836  28.530  25.121  1.00  0.00     0.029 A 
ATOM     20  C   UNL A   1      32.032  27.552  26.433  1.00  0.00     0.029 A 
ATOM     21  C   UNL A   1      34.001  29.515  26.092  1.00  0.00     0.041 A 
ATOM     22  C   UNL A   1      32.211  28.535  27.403  1.00  0.00     0.041 A 
ATOM     23  C   UNL A   1      33.191  29.507  27.224  1.00  0.00     0.123 A 
ATOM     24  F   UNL A   1      33.365  30.446  28.162  1.00  0.00    -0.207 F 
ENDBRANCH  15  18
BRANCH  17  25
ATOM     25  C   UNL A   1      30.839  27.556  22.975  1.00  0.00    -0.001 A 
ATOM     26  C   UNL A   1      31.247  28.703  22.274  1.00  0.00     0.011 A 
ATOM     27  C   UNL A   1      29.505  27.458  23.392  1.00  0.00     0.011 A 
ATOM     28  C   UNL A   1      30.370  29.771  22.076  1.00  0.00     0.021 A 
ATOM     29  C   UNL A   1      28.617  28.520  23.191  1.00  0.00     0.021 A 
ATOM     30  C   UNL A   1      29.065  29.683  22.561  1.00  0.00     0.067 A 
BRANCH  30  31
ATOM     31  S   UNL A   1      27.973  31.072  22.377  1.00  0.00     0.175 S 
ATOM     32  C   UNL A   1      29.020  32.478  22.649  1.00  0.00     0.163 C 
ATOM     33  O   UNL A   1      27.540  31.096  20.986  1.00  0.00    -0.224 OA
ATOM     34  O   UNL A   1      27.011  31.034  23.456  1.00  0.00    -0.224 OA
ENDBRANCH  30  31
ENDBRANCH  17  25
ENDBRANCH  11  12
ENDBRANCH   8  11
ENDBRANCH   6   7
BRANCH   6  35
ATOM     35  C   UNL A   1      32.493  21.757  26.288  1.00  0.00     0.063 C 
BRANCH  35  36
ATOM     36  C   UNL A   1      31.624  23.002  26.361  1.00  0.00     0.158 C 
BRANCH  36  37
ATOM     37  O   UNL A   1      30.426  22.886  25.615  1.00  0.00    -0.396 OA
ATOM     38  H   UNL A   1      30.164  21.953  25.566  1.00  0.00     0.210 HD
ENDBRANCH  36  37
ENDBRANCH  35  36
ENDBRANCH   6  35
ENDBRANCH   3   6
ENDBRANCH   1   2
BRANCH   1  39
ATOM     39  C   UNL A   1      37.899  21.947  25.147  1.00  0.00     0.042 C 
BRANCH  39  40
ATOM     40  C   UNL A   1      39.058  22.348  26.072  1.00  0.00     0.118 C 
BRANCH  40  41
ATOM     41  N   UNL A   1      40.303  21.667  25.790  1.00  0.00    -0.352 N 
ATOM     42  C   UNL A   1      41.587  22.132  26.040  1.00  0.00     0.251 C 
ATOM     43  H   UNL A   1      40.232  20.777  25.375  1.00  0.00     0.163 HD
ATOM     44  O   UNL A   1      42.524  21.401  25.724  1.00  0.00    -0.269 OA
BRANCH  42  45
ATOM     45  C   UNL A   1      41.811  23.538  26.539  1.00  0.00     0.039 A 
ATOM     46  C   UNL A   1      41.567  23.792  27.878  1.00  0.00     0.014 A 
ATOM     47  C   UNL A   1      42.134  24.645  25.735  1.00  0.00     0.014 A 
ATOM     48  C   UNL A   1      41.700  25.109  28.403  1.00  0.00     0.010 A 
ATOM     49  C   UNL A   1      42.171  26.007  26.262  1.00  0.00     0.010 A 
ATOM     50  C   UNL A   1      41.940  26.302  27.621  1.00  0.00    -0.014 A 
BRANCH  50  51
ATOM     51  C   UNL A   1      41.308  27.670  28.232  1.00  0.00     0.031 A 
ATOM     52  C   UNL A   1      42.465  28.601  28.075  1.00  0.00     0.074 A 
ATOM     53  C   UNL A   1      40.208  28.211  28.908  1.00  0.00     0.049 A 
ATOM     54  N   UNL A   1      43.628  28.250  28.553  1.00  0.00    -0.248 NA
ATOM     55  C   UNL A   1      42.537  29.646  27.051  1.00  0.00     0.031 C 
ATOM     56  C   UNL A   1      39.043  27.499  29.461  1.00  0.00     0.029 A 
ATOM     57  N   UNL A   1      39.847  29.557  29.279  1.00  0.00    -0.354 N 
ATOM     58  C   UNL A   1      44.497  29.245  28.225  1.00  0.00     0.074 A 
ATOM     59  C   UNL A   1      43.856  29.886  27.083  1.00  0.00     0.031 C 
ATOM     60  C   UNL A   1      38.081  28.360  29.917  1.00  0.00     0.029 A 
ATOM     61  C   UNL A   1      38.500  29.756  29.782  1.00  0.00     0.049 A 
ATOM     62  H   UNL A   1      40.483  30.305  29.194  1.00  0.00     0.167 HD
ATOM     63  C   UNL A   1      45.102  29.825  29.304  1.00  0.00     0.034 A 
ATOM     64  C   UNL A   1      37.797  30.914  30.143  1.00  0.00     0.034 A 
ATOM     65  C   UNL A   1      44.517  31.097  29.622  1.00  0.00     0.049 A 
ATOM     66  C   UNL A   1      38.826  31.900  30.489  1.00  0.00     0.074 A 
ATOM     67  C   UNL A   1      44.088  32.154  28.840  1.00  0.00     0.029 A 
ATOM     68  N   UNL A   1      43.842  31.189  30.819  1.00  0.00    -0.354 N 
ATOM     69  N   UNL A   1      39.408  31.890  31.651  1.00  0.00    -0.248 NA
ATOM     70  C   UNL A   1      39.168  33.023  29.623  1.00  0.00     0.031 C 
ATOM     71  C   UNL A   1      42.823  32.490  29.363  1.00  0.00     0.029 A 
ATOM     72  C   UNL A   1      42.727  31.989  30.652  1.00  0.00     0.049 A 
ATOM     73  H   UNL A   1      44.111  30.754  31.660  1.00  0.00     0.167 HD
ATOM     74  C   UNL A   1      40.543  32.598  31.407  1.00  0.00     0.074 A 
ATOM     75  C   UNL A   1      40.214  33.487  30.307  1.00  0.00     0.031 C 
ATOM     76  C   UNL A   1      41.709  31.963  31.671  1.00  0.00     0.034 A 
BRANCH  63  77
ATOM     77  C   UNL A   1      45.642  28.830  30.314  1.00  0.00     0.023 A 
ATOM     78  C   UNL A   1      47.034  28.649  30.346  1.00  0.00     0.012 A 
ATOM     79  C   UNL A   1      44.824  27.949  31.074  1.00  0.00     0.148 A 
ATOM     80  C   UNL A   1      47.595  27.587  31.061  1.00  0.00     0.002 A 
ATOM     81  C   UNL A   1      45.380  26.829  31.685  1.00  0.00     0.091 A 
ATOM     82  F   UNL A   1      43.513  28.213  31.193  1.00  0.00    -0.205 F 
ATOM     83  C   UNL A   1      46.770  26.657  31.693  1.00  0.00     0.022 A 
BRANCH  81  84
ATOM     84  S   UNL A   1      44.370  25.458  32.284  1.00  0.00     0.127 S 
ATOM     85  O   UNL A   1      43.440  26.127  33.201  1.00  0.00    -0.237 OA
ATOM     86  O   UNL A   1      43.748  24.953  31.065  1.00  0.00    -0.237 OA
ATOM     87  O   UNL A   1      45.280  24.537  32.955  1.00  0.00    -0.744 OA
ENDBRANCH  81  84
ENDBRANCH  63  77
BRANCH  64  88
ATOM     88  C   UNL A   1      36.409  31.546  30.535  1.00  0.00     0.023 A 
ATOM     89  C   UNL A   1      36.137  31.789  31.934  1.00  0.00     0.012 A 
ATOM     90  C   UNL A   1      35.600  32.295  29.653  1.00  0.00     0.148 A 
ATOM     91  C   UNL A   1      35.252  32.771  32.418  1.00  0.00     0.002 A 
ATOM     92  C   UNL A   1      34.682  33.266  30.145  1.00  0.00     0.091 A 
ATOM     93  F   UNL A   1      35.793  32.142  28.337  1.00  0.00    -0.205 F 
ATOM     94  C   UNL A   1      34.531  33.525  31.518  1.00  0.00     0.022 A 
BRANCH  92  95
ATOM     95  S   UNL A   1      33.692  34.343  29.082  1.00  0.00     0.127 S 
ATOM     96  O   UNL A   1      33.141  33.407  28.100  1.00  0.00    -0.237 OA
ATOM     97  O   UNL A   1      32.709  34.875  30.024  1.00  0.00    -0.237 OA
ATOM     98  O   UNL A   1      34.631  35.310  28.532  1.00  0.00    -0.744 OA
ENDBRANCH  92  95
ENDBRANCH  64  88
BRANCH  76  99
ATOM     99  C   UNL A   1      41.783  31.123  32.928  1.00  0.00     0.023 A 
ATOM    100  C   UNL A   1      41.548  29.731  32.998  1.00  0.00     0.012 A 
ATOM    101  C   UNL A   1      42.091  31.792  34.121  1.00  0.00     0.148 A 
ATOM    102  C   UNL A   1      41.585  29.046  34.219  1.00  0.00     0.002 A 
ATOM    103  C   UNL A   1      42.180  31.105  35.325  1.00  0.00     0.091 A 
ATOM    104  F   UNL A   1      42.276  33.120  34.064  1.00  0.00    -0.205 F 
ATOM    105  C   UNL A   1      41.920  29.731  35.383  1.00  0.00     0.022 A 
BRANCH 103 106
ATOM    106  S   UNL A   1      42.644  31.974  36.822  1.00  0.00     0.127 S 
ATOM    107  O   UNL A   1      42.552  30.914  37.825  1.00  0.00    -0.237 OA
ATOM    108  O   UNL A   1      44.003  32.430  36.541  1.00  0.00    -0.237 OA
ATOM    109  O   UNL A   1      41.666  33.049  36.959  1.00  0.00    -0.744 OA
ENDBRANCH 103 106
ENDBRANCH  76  99
ENDBRANCH  50  51
ENDBRANCH  42  45
ENDBRANCH  40  41
ENDBRANCH  39  40
ENDBRANCH   1  39
TORSDOF 22
ENDMDL
MODEL 3
REMARK VINA RESULT:     -13.0      2.236      2.839
REMARK SMILES Cc1c(CC(=O)N[C@@H](CCO)C(=O)NCCCNC(=O)c2ccc(-c3c4nc(c(-c5cccc(S(=O)(=O)[O-])c5F)c5ccc([nH]5)c(-c5cccc(S(=O)(=O)[O-])c5F)c5nc(c(-c6cccc(S(=O)(=O)[O-])c6F)c6ccc3[nH]6)C=C5)C=C4)cc2)cc(-c2ccc(S(C)(=O)=O)cc2)n1-c1ccc(F)cc1
REMARK SMILES IDX 15 1 14 2 12 3 13 4 8 6 7 7 5 8 6 9 4 11 3 12 1 13 2 14
REMARK SMILES IDX 96 15 84 16 85 17 97 18 98 19 103 20 99 21 102 22 100 23
REMARK SMILES IDX 101 24 86 25 87 26 95 27 88 28 94 29 89 30 90 31 91 32 92 33
REMARK SMILES IDX 93 34 9 35 10 36 11 37 16 39 17 40 18 41 19 42 20 44 21 45
REMARK SMILES IDX 22 46 83 47 23 48 82 49 24 50 25 51 26 52 76 53 27 54 81 55
REMARK SMILES IDX 75 56 77 57 28 58 80 59 74 60 73 61 29 63 61 64 41 65 60 66
REMARK SMILES IDX 42 67 45 68 59 69 78 70 43 71 44 72 58 74 79 75 46 76 30 77
REMARK SMILES IDX 31 78 39 79 32 80 34 81 40 82 33 83 35 84 36 85 37 86 38 87
REMARK SMILES IDX 62 88 63 89 71 90 64 91 66 92 72 93 65 94 67 95 68 96 69 97
REMARK SMILES IDX 70 98 47 99 48 100 56 101 49 102 51 103 57 104 50 105 52 106
REMARK SMILES IDX 53 107 54 108 55 109
REMARK H PARENT 14 5 7 10 11 38 18 43 77 62 45 73
REMARK Flexibility Score: inf
ROOT
ATOM      1  C   UNL A   1      36.714  21.866  25.642  1.00  0.00     0.117 C 
ENDROOT
BRANCH   1   2
ATOM      2  N   UNL A   1      35.884  20.684  25.458  1.00  0.00    -0.354 N 
ATOM      3  C   UNL A   1      34.564  20.473  25.225  1.00  0.00     0.242 C 
ATOM      4  O   UNL A   1      34.238  19.308  24.964  1.00  0.00    -0.273 OA
ATOM      5  H   UNL A   1      36.400  19.846  25.514  1.00  0.00     0.163 HD
BRANCH   3   6
ATOM      6  C   UNL A   1      33.516  21.589  25.103  1.00  0.00     0.173 C 
BRANCH   6   7
ATOM      7  N   UNL A   1      32.640  21.459  23.944  1.00  0.00    -0.344 N 
ATOM      8  C   UNL A   1      32.711  22.156  22.766  1.00  0.00     0.225 C 
ATOM      9  O   UNL A   1      31.999  21.777  21.832  1.00  0.00    -0.275 OA
ATOM     10  H   UNL A   1      31.917  20.795  24.016  1.00  0.00     0.164 HD
BRANCH   8  11
ATOM     11  C   UNL A   1      33.639  23.363  22.616  1.00  0.00     0.137 C 
BRANCH  11  12
ATOM     12  C   UNL A   1      33.032  24.637  23.141  1.00  0.00    -0.017 A 
ATOM     13  C   UNL A   1      34.430  24.978  25.296  1.00  0.00     0.065 C 
ATOM     14  C   UNL A   1      33.430  25.369  24.252  1.00  0.00     0.024 A 
ATOM     15  N   UNL A   1      32.660  26.526  24.308  1.00  0.00    -0.314 N 
ATOM     16  C   UNL A   1      31.914  25.317  22.583  1.00  0.00     0.033 A 
ATOM     17  C   UNL A   1      31.718  26.498  23.278  1.00  0.00     0.053 A 
BRANCH  15  18
ATOM     18  C   UNL A   1      32.816  27.580  25.247  1.00  0.00     0.046 A 
ATOM     19  C   UNL A   1      33.796  28.558  25.038  1.00  0.00     0.029 A 
ATOM     20  C   UNL A   1      32.042  27.581  26.417  1.00  0.00     0.029 A 
ATOM     21  C   UNL A   1      33.991  29.550  25.996  1.00  0.00     0.041 A 
ATOM     22  C   UNL A   1      32.250  28.572  27.375  1.00  0.00     0.041 A 
ATOM     23  C   UNL A   1      33.219  29.547  27.155  1.00  0.00     0.123 A 
ATOM     24  F   UNL A   1      33.421  30.493  28.080  1.00  0.00    -0.207 F 
ENDBRANCH  15  18
BRANCH  17  25
ATOM     25  C   UNL A   1      30.770  27.581  22.967  1.00  0.00    -0.001 A 
ATOM     26  C   UNL A   1      31.183  28.726  22.265  1.00  0.00     0.011 A 
ATOM     27  C   UNL A   1      29.439  27.494  23.394  1.00  0.00     0.011 A 
ATOM     28  C   UNL A   1      30.312  29.800  22.072  1.00  0.00     0.021 A 
ATOM     29  C   UNL A   1      28.557  28.562  23.199  1.00  0.00     0.021 A 
ATOM     30  C   UNL A   1      29.010  29.722  22.566  1.00  0.00     0.067 A 
BRANCH  30  31
ATOM     31  S   UNL A   1      27.927  31.119  22.389  1.00  0.00     0.175 S 
ATOM     32  C   UNL A   1      28.962  32.512  22.761  1.00  0.00     0.163 C 
ATOM     33  O   UNL A   1      27.555  31.198  20.983  1.00  0.00    -0.224 OA
ATOM     34  O   UNL A   1      26.919  31.041  23.423  1.00  0.00    -0.224 OA
ENDBRANCH  30  31
ENDBRANCH  17  25
ENDBRANCH  11  12
ENDBRANCH   8  11
ENDBRANCH   6   7
BRANCH   6  35
ATOM     35  C   UNL A   1      32.786  21.962  26.407  1.00  0.00     0.063 C 
BRANCH  35  36
ATOM     36  C   UNL A   1      31.360  22.482  26.332  1.00  0.00     0.158 C 
BRANCH  36  37
ATOM     37  O   UNL A   1      30.887  22.985  27.569  1.00  0.00    -0.396 OA
ATOM     38  H   UNL A   1      31.625  23.047  28.196  1.00  0.00     0.210 HD
ENDBRANCH  36  37
ENDBRANCH  35  36
ENDBRANCH   6  35
ENDBRANCH   3   6
ENDBRANCH   1   2
BRANCH   1  39
ATOM     39  C   UNL A   1      38.207  21.642  25.389  1.00  0.00     0.042 C 
BRANCH  39  40
ATOM     40  C   UNL A   1      39.176  22.307  26.377  1.00  0.00     0.118 C 
BRANCH  40  41
ATOM     41  N   UNL A   1      40.425  21.598  26.549  1.00  0.00    -0.352 N 
ATOM     42  C   UNL A   1      41.631  22.122  26.992  1.00  0.00     0.251 C 
ATOM     43  H   UNL A   1      40.418  20.639  26.328  1.00  0.00     0.163 HD
ATOM     44  O   UNL A   1      42.587  21.352  27.070  1.00  0.00    -0.269 OA
BRANCH  42  45
ATOM     45  C   UNL A   1      41.787  23.606  27.220  1.00  0.00     0.039 A 
ATOM     46  C   UNL A   1      41.821  24.055  28.529  1.00  0.00     0.014 A 
ATOM     47  C   UNL A   1      41.783  24.588  26.215  1.00  0.00     0.014 A 
ATOM     48  C   UNL A   1      41.904  25.448  28.817  1.00  0.00     0.010 A 
ATOM     49  C   UNL A   1      41.771  26.016  26.521  1.00  0.00     0.010 A 
ATOM     50  C   UNL A   1      41.815  26.511  27.840  1.00  0.00    -0.014 A 
BRANCH  50  51
ATOM     51  C   UNL A   1      41.173  27.901  28.387  1.00  0.00     0.031 A 
ATOM     52  C   UNL A   1      42.310  28.840  28.152  1.00  0.00     0.074 A 
ATOM     53  C   UNL A   1      40.079  28.462  29.055  1.00  0.00     0.049 A 
ATOM     54  N   UNL A   1      43.489  28.534  28.624  1.00  0.00    -0.248 NA
ATOM     55  C   UNL A   1      42.344  29.826  27.070  1.00  0.00     0.031 C 
ATOM     56  C   UNL A   1      38.937  27.765  29.673  1.00  0.00     0.029 A 
ATOM     57  N   UNL A   1      39.703  29.822  29.357  1.00  0.00    -0.354 N 
ATOM     58  C   UNL A   1      44.334  29.523  28.221  1.00  0.00     0.074 A 
ATOM     59  C   UNL A   1      43.658  30.088  27.059  1.00  0.00     0.031 C 
ATOM     60  C   UNL A   1      37.971  28.635  30.100  1.00  0.00     0.029 A 
ATOM     61  C   UNL A   1      38.363  30.027  29.877  1.00  0.00     0.049 A 
ATOM     62  H   UNL A   1      40.324  30.573  29.217  1.00  0.00     0.167 HD
ATOM     63  C   UNL A   1      44.952  30.172  29.252  1.00  0.00     0.034 A 
ATOM     64  C   UNL A   1      37.649  31.193  30.188  1.00  0.00     0.034 A 
ATOM     65  C   UNL A   1      44.353  31.452  29.510  1.00  0.00     0.049 A 
ATOM     66  C   UNL A   1      38.668  32.213  30.455  1.00  0.00     0.074 A 
ATOM     67  C   UNL A   1      43.889  32.456  28.680  1.00  0.00     0.029 A 
ATOM     68  N   UNL A   1      43.701  31.601  30.715  1.00  0.00    -0.354 N 
ATOM     69  N   UNL A   1      39.274  32.278  31.603  1.00  0.00    -0.248 NA
ATOM     70  C   UNL A   1      38.972  33.290  29.520  1.00  0.00     0.031 C 
ATOM     71  C   UNL A   1      42.629  32.801  29.210  1.00  0.00     0.029 A 
ATOM     72  C   UNL A   1      42.570  32.372  30.527  1.00  0.00     0.049 A 
ATOM     73  H   UNL A   1      43.994  31.218  31.573  1.00  0.00     0.167 HD
ATOM     74  C   UNL A   1      40.391  32.989  31.295  1.00  0.00     0.074 A 
ATOM     75  C   UNL A   1      40.025  33.809  30.154  1.00  0.00     0.031 C 
ATOM     76  C   UNL A   1      41.574  32.388  31.568  1.00  0.00     0.034 A 
BRANCH  63  77
ATOM     77  C   UNL A   1      45.530  29.246  30.305  1.00  0.00     0.023 A 
ATOM     78  C   UNL A   1      44.930  29.272  31.573  1.00  0.00     0.012 A 
ATOM     79  C   UNL A   1      46.740  28.516  30.141  1.00  0.00     0.148 A 
ATOM     80  C   UNL A   1      45.542  28.645  32.662  1.00  0.00     0.002 A 
ATOM     81  C   UNL A   1      47.401  27.997  31.250  1.00  0.00     0.091 A 
ATOM     82  F   UNL A   1      47.233  28.338  28.905  1.00  0.00    -0.205 F 
ATOM     83  C   UNL A   1      46.793  28.046  32.510  1.00  0.00     0.022 A 
BRANCH  81  84
ATOM     84  S   UNL A   1      49.121  27.453  31.178  1.00  0.00     0.127 S 
ATOM     85  O   UNL A   1      49.437  27.216  32.591  1.00  0.00    -0.237 OA
ATOM     86  O   UNL A   1      49.048  26.241  30.370  1.00  0.00    -0.237 OA
ATOM     87  O   UNL A   1      49.879  28.555  30.595  1.00  0.00    -0.744 OA
ENDBRANCH  81  84
ENDBRANCH  63  77
BRANCH  64  88
ATOM     88  C   UNL A   1      36.258  31.824  30.574  1.00  0.00     0.023 A 
ATOM     89  C   UNL A   1      35.911  31.911  31.974  1.00  0.00     0.012 A 
ATOM     90  C   UNL A   1      35.526  32.700  29.744  1.00  0.00     0.148 A 
ATOM     91  C   UNL A   1      35.027  32.861  32.521  1.00  0.00     0.002 A 
ATOM     92  C   UNL A   1      34.609  33.640  30.295  1.00  0.00     0.091 A 
ATOM     93  F   UNL A   1      35.793  32.695  28.432  1.00  0.00    -0.205 F 
ATOM     94  C   UNL A   1      34.384  33.741  31.679  1.00  0.00     0.022 A 
BRANCH  92  95
ATOM     95  S   UNL A   1      33.717  34.868  29.314  1.00  0.00     0.127 S 
ATOM     96  O   UNL A   1      33.452  35.928  30.290  1.00  0.00    -0.237 OA
ATOM     97  O   UNL A   1      34.707  35.219  28.298  1.00  0.00    -0.237 OA
ATOM     98  O   UNL A   1      32.527  34.184  28.830  1.00  0.00    -0.744 OA
ENDBRANCH  92  95
ENDBRANCH  64  88
BRANCH  76  99
ATOM     99  C   UNL A   1      41.688  31.622  32.869  1.00  0.00     0.023 A 
ATOM    100  C   UNL A   1      41.975  32.188  34.131  1.00  0.00     0.012 A 
ATOM    101  C   UNL A   1      41.516  30.231  32.802  1.00  0.00     0.148 A 
ATOM    102  C   UNL A   1      42.116  31.389  35.273  1.00  0.00     0.002 A 
ATOM    103  C   UNL A   1      41.603  29.444  33.943  1.00  0.00     0.091 A 
ATOM    104  F   UNL A   1      41.282  29.687  31.598  1.00  0.00    -0.205 F 
ATOM    105  C   UNL A   1      41.912  30.016  35.183  1.00  0.00     0.022 A 
BRANCH 103 106
ATOM    106  S   UNL A   1      41.309  27.679  33.840  1.00  0.00     0.127 S 
ATOM    107  O   UNL A   1      39.989  27.631  33.212  1.00  0.00    -0.237 OA
ATOM    108  O   UNL A   1      42.401  27.203  32.997  1.00  0.00    -0.237 OA
ATOM    109  O   UNL A   1      41.361  27.200  35.218  1.00  0.00    -0.744 OA
ENDBRANCH 103 106
ENDBRANCH  76  99
ENDBRANCH  50  51
ENDBRANCH  42  45
ENDBRANCH  40  41
ENDBRANCH  39  40
ENDBRANCH   1  39
TORSDOF 22
ENDMDL
