MODEL 1
REMARK VINA RESULT:     -10.9      0.000      0.000
REMARK SMILES O=C(NCCCNC(=O)[C@@H](CO)NS(=O)(=O)c1cc[nH]c1)c1ccc(-c2c3nc(c(-c4cccc(S(=O)(=O)[O-])c4F)c4ccc([nH]4)c(-c4cccc(S(=O)(=O)[O-])c4F)c4nc(c(-c5cccc(S(=O)(=O)[O-])c5F)c5ccc2[nH]5)C=C4)C=C3)cc1
REMARK SMILES IDX 5 1 4 2 3 3 1 4 2 5 22 7 23 8 84 9 24 10 83 11 25 12 26 13
REMARK SMILES IDX 27 14 77 15 28 16 82 17 76 18 78 19 29 20 81 21 75 22 74 23
REMARK SMILES IDX 30 25 62 26 42 27 61 28 43 29 46 30 60 31 79 32 44 33 45 34
REMARK SMILES IDX 59 36 80 37 47 38 31 39 32 40 40 41 33 42 35 43 41 44 34 45
REMARK SMILES IDX 36 46 37 47 38 48 39 49 63 50 64 51 72 52 65 53 67 54 73 55
REMARK SMILES IDX 66 56 68 57 69 58 70 59 71 60 48 61 49 62 57 63 50 64 52 65
REMARK SMILES IDX 58 66 51 67 53 68 54 69 55 70 56 71 6 72 7 73 8 74 9 76
REMARK SMILES IDX 10 77 11 78 12 79 13 81 14 83 15 84 16 85 17 86 18 87 21 88
REMARK SMILES IDX 19 89 20 90
REMARK H PARENT 3 6 78 24 46 35 7 75 12 80 13 82 20 91
REMARK Flexibility Score: inf
ROOT
ATOM      1  C   UNL A   1      34.936  33.267  28.492  1.00  0.00     0.042 C 
ENDROOT
BRANCH   1   2
ATOM      2  C   UNL A   1      35.940  32.215  28.032  1.00  0.00     0.118 C 
BRANCH   2   3
ATOM      3  N   UNL A   1      35.384  30.939  27.626  1.00  0.00    -0.352 N 
ATOM      4  O   UNL A   1      35.098  28.749  27.360  1.00  0.00    -0.269 OA
ATOM      5  C   UNL A   1      35.863  29.653  27.691  1.00  0.00     0.251 C 
ATOM      6  H   UNL A   1      34.486  31.007  27.228  1.00  0.00     0.163 HD
BRANCH   5   7
ATOM      7  C   UNL A   1      37.265  29.340  28.063  1.00  0.00     0.039 A 
ATOM      8  C   UNL A   1      37.630  28.837  29.314  1.00  0.00     0.014 A 
ATOM      9  C   UNL A   1      38.250  29.523  27.080  1.00  0.00     0.014 A 
ATOM     10  C   UNL A   1      38.967  28.582  29.606  1.00  0.00     0.010 A 
ATOM     11  C   UNL A   1      39.589  29.240  27.357  1.00  0.00     0.010 A 
ATOM     12  C   UNL A   1      39.945  28.747  28.616  1.00  0.00    -0.014 A 
BRANCH  12  13
ATOM     13  C   UNL A   1      41.242  28.052  28.836  1.00  0.00     0.031 A 
ATOM     14  C   UNL A   1      41.125  26.559  28.419  1.00  0.00     0.074 A 
ATOM     15  C   UNL A   1      42.269  28.755  29.410  1.00  0.00     0.049 A 
ATOM     16  N   UNL A   1      41.658  25.491  28.940  1.00  0.00    -0.248 NA
ATOM     17  C   UNL A   1      40.149  26.188  27.353  1.00  0.00     0.031 C 
ATOM     18  C   UNL A   1      42.240  30.205  29.703  1.00  0.00     0.029 A 
ATOM     19  N   UNL A   1      43.533  28.417  29.863  1.00  0.00    -0.354 N 
ATOM     20  C   UNL A   1      41.291  24.398  28.108  1.00  0.00     0.074 A 
ATOM     21  C   UNL A   1      40.227  24.860  27.280  1.00  0.00     0.031 C 
ATOM     22  C   UNL A   1      43.370  30.595  30.340  1.00  0.00     0.029 A 
ATOM     23  C   UNL A   1      44.259  29.458  30.503  1.00  0.00     0.049 A 
ATOM     24  H   UNL A   1      43.906  27.513  29.749  1.00  0.00     0.167 HD
ATOM     25  C   UNL A   1      42.018  23.244  28.018  1.00  0.00     0.034 A 
ATOM     26  C   UNL A   1      45.472  29.407  31.146  1.00  0.00     0.034 A 
ATOM     27  C   UNL A   1      43.139  23.337  28.891  1.00  0.00     0.049 A 
ATOM     28  C   UNL A   1      46.007  28.069  30.876  1.00  0.00     0.074 A 
ATOM     29  C   UNL A   1      43.298  23.261  30.247  1.00  0.00     0.029 A 
ATOM     30  N   UNL A   1      44.265  23.871  28.316  1.00  0.00    -0.354 N 
ATOM     31  N   UNL A   1      46.515  27.695  29.739  1.00  0.00    -0.248 NA
ATOM     32  C   UNL A   1      45.903  27.039  31.919  1.00  0.00     0.031 C 
ATOM     33  C   UNL A   1      44.372  24.136  30.498  1.00  0.00     0.029 A 
ATOM     34  C   UNL A   1      44.925  24.571  29.287  1.00  0.00     0.049 A 
ATOM     35  H   UNL A   1      44.547  23.769  27.379  1.00  0.00     0.167 HD
ATOM     36  C   UNL A   1      46.429  26.329  29.836  1.00  0.00     0.074 A 
ATOM     37  C   UNL A   1      46.420  26.016  31.246  1.00  0.00     0.031 C 
ATOM     38  C   UNL A   1      45.800  25.634  28.856  1.00  0.00     0.034 A 
BRANCH  25  39
ATOM     39  C   UNL A   1      42.073  22.102  27.016  1.00  0.00     0.023 A 
ATOM     40  C   UNL A   1      41.015  21.150  27.129  1.00  0.00     0.012 A 
ATOM     41  C   UNL A   1      43.185  21.724  26.244  1.00  0.00     0.148 A 
ATOM     42  C   UNL A   1      41.125  19.841  26.664  1.00  0.00     0.002 A 
ATOM     43  C   UNL A   1      43.262  20.427  25.721  1.00  0.00     0.091 A 
ATOM     44  F   UNL A   1      44.199  22.575  26.077  1.00  0.00    -0.205 F 
ATOM     45  C   UNL A   1      42.264  19.474  25.975  1.00  0.00     0.022 A 
BRANCH  43  46
ATOM     46  S   UNL A   1      44.628  19.868  24.696  1.00  0.00     0.127 S 
ATOM     47  O   UNL A   1      45.784  20.199  25.521  1.00  0.00    -0.237 OA
ATOM     48  O   UNL A   1      44.353  18.432  24.588  1.00  0.00    -0.237 OA
ATOM     49  O   UNL A   1      44.496  20.590  23.438  1.00  0.00    -0.744 OA
ENDBRANCH  43  46
ENDBRANCH  25  39
BRANCH  26  50
ATOM     50  C   UNL A   1      46.310  30.286  32.060  1.00  0.00     0.023 A 
ATOM     51  C   UNL A   1      45.926  30.691  33.345  1.00  0.00     0.012 A 
ATOM     52  C   UNL A   1      47.617  30.710  31.651  1.00  0.00     0.148 A 
ATOM     53  C   UNL A   1      46.823  31.379  34.196  1.00  0.00     0.002 A 
ATOM     54  C   UNL A   1      48.541  31.265  32.529  1.00  0.00     0.091 A 
ATOM     55  F   UNL A   1      47.977  30.627  30.368  1.00  0.00    -0.205 F 
ATOM     56  C   UNL A   1      48.142  31.620  33.810  1.00  0.00     0.022 A 
BRANCH  54  57
ATOM     57  S   UNL A   1      50.293  31.402  32.102  1.00  0.00     0.127 S 
ATOM     58  O   UNL A   1      50.616  30.047  31.660  1.00  0.00    -0.237 OA
ATOM     59  O   UNL A   1      50.254  32.403  31.036  1.00  0.00    -0.237 OA
ATOM     60  O   UNL A   1      50.981  31.837  33.310  1.00  0.00    -0.744 OA
ENDBRANCH  54  57
ENDBRANCH  26  50
BRANCH  38  61
ATOM     61  C   UNL A   1      45.839  26.292  27.480  1.00  0.00     0.023 A 
ATOM     62  C   UNL A   1      44.659  26.925  27.042  1.00  0.00     0.012 A 
ATOM     63  C   UNL A   1      46.916  26.222  26.562  1.00  0.00     0.148 A 
ATOM     64  C   UNL A   1      44.545  27.454  25.753  1.00  0.00     0.002 A 
ATOM     65  C   UNL A   1      46.796  26.735  25.266  1.00  0.00     0.091 A 
ATOM     66  F   UNL A   1      48.052  25.651  26.958  1.00  0.00    -0.205 F 
ATOM     67  C   UNL A   1      45.609  27.357  24.864  1.00  0.00     0.022 A 
BRANCH  65  68
ATOM     68  S   UNL A   1      48.078  26.590  24.001  1.00  0.00     0.127 S 
ATOM     69  O   UNL A   1      49.289  26.960  24.737  1.00  0.00    -0.237 OA
ATOM     70  O   UNL A   1      48.005  25.176  23.647  1.00  0.00    -0.237 OA
ATOM     71  O   UNL A   1      47.720  27.521  22.938  1.00  0.00    -0.744 OA
ENDBRANCH  65  68
ENDBRANCH  38  61
ENDBRANCH  12  13
ENDBRANCH   5   7
ENDBRANCH   2   3
ENDBRANCH   1   2
BRANCH   1  72
ATOM     72  C   UNL A   1      35.310  33.976  29.788  1.00  0.00     0.117 C 
BRANCH  72  73
ATOM     73  N   UNL A   1      34.455  33.594  30.904  1.00  0.00    -0.355 N 
ATOM     74  C   UNL A   1      34.353  34.046  32.185  1.00  0.00     0.240 C 
ATOM     75  H   UNL A   1      33.829  32.866  30.690  1.00  0.00     0.163 HD
ATOM     76  O   UNL A   1      33.573  33.427  32.922  1.00  0.00    -0.273 OA
BRANCH  74  77
ATOM     77  C   UNL A   1      35.157  35.225  32.751  1.00  0.00     0.184 C 
BRANCH  77  78
ATOM     78  C   UNL A   1      34.268  36.466  32.888  1.00  0.00     0.186 C 
BRANCH  78  79
ATOM     79  O   UNL A   1      33.722  36.605  34.190  1.00  0.00    -0.394 OA
ATOM     80  H   UNL A   1      32.766  36.749  34.127  1.00  0.00     0.210 HD
ENDBRANCH  78  79
ENDBRANCH  77  78
BRANCH  77  81
ATOM     81  N   UNL A   1      35.949  34.837  33.946  1.00  0.00    -0.196 NA
ATOM     82  H   UNL A   1      35.447  34.072  34.397  1.00  0.00     0.142 HD
BRANCH  81  83
ATOM     83  S   UNL A   1      37.540  34.333  33.775  1.00  0.00     0.242 S 
ATOM     84  O   UNL A   1      38.015  34.733  32.459  1.00  0.00    -0.207 OA
ATOM     85  O   UNL A   1      38.234  34.698  34.975  1.00  0.00    -0.207 OA
BRANCH  83  86
ATOM     86  C   UNL A   1      37.592  32.606  33.733  1.00  0.00     0.099 A 
ATOM     87  C   UNL A   1      37.257  31.794  32.619  1.00  0.00     0.041 A 
ATOM     88  C   UNL A   1      37.953  31.763  34.766  1.00  0.00     0.104 A 
ATOM     89  C   UNL A   1      37.413  30.482  33.013  1.00  0.00     0.083 A 
ATOM     90  N   UNL A   1      37.835  30.474  34.318  1.00  0.00    -0.366 N 
ATOM     91  H   UNL A   1      38.025  29.668  34.851  1.00  0.00     0.165 HD
ENDBRANCH  83  86
ENDBRANCH  81  83
ENDBRANCH  77  81
ENDBRANCH  74  77
ENDBRANCH  72  73
ENDBRANCH   1  72
TORSDOF 18
ENDMDL
MODEL 2
REMARK VINA RESULT:     -10.8      4.298     11.499
REMARK SMILES O=C(NCCCNC(=O)[C@@H](CO)NS(=O)(=O)c1cc[nH]c1)c1ccc(-c2c3nc(c(-c4cccc(S(=O)(=O)[O-])c4F)c4ccc([nH]4)c(-c4cccc(S(=O)(=O)[O-])c4F)c4nc(c(-c5cccc(S(=O)(=O)[O-])c5F)c5ccc2[nH]5)C=C4)C=C3)cc1
REMARK SMILES IDX 5 1 4 2 3 3 1 4 2 5 22 7 23 8 84 9 24 10 83 11 25 12 26 13
REMARK SMILES IDX 27 14 77 15 28 16 82 17 76 18 78 19 29 20 81 21 75 22 74 23
REMARK SMILES IDX 30 25 62 26 42 27 61 28 43 29 46 30 60 31 79 32 44 33 45 34
REMARK SMILES IDX 59 36 80 37 47 38 31 39 32 40 40 41 33 42 35 43 41 44 34 45
REMARK SMILES IDX 36 46 37 47 38 48 39 49 63 50 64 51 72 52 65 53 67 54 73 55
REMARK SMILES IDX 66 56 68 57 69 58 70 59 71 60 48 61 49 62 57 63 50 64 52 65
REMARK SMILES IDX 58 66 51 67 53 68 54 69 55 70 56 71 6 72 7 73 8 74 9 76
REMARK SMILES IDX 10 77 11 78 12 79 13 81 14 83 15 84 16 85 17 86 18 87 21 88
REMARK SMILES IDX 19 89 20 90
REMARK H PARENT 3 6 78 24 46 35 7 75 12 80 13 82 20 91
REMARK Flexibility Score: inf
ROOT
ATOM      1  C   UNL A   1      36.987  22.620  25.497  1.00  0.00     0.042 C 
ENDROOT
BRANCH   1   2
ATOM      2  C   UNL A   1      37.819  23.783  26.026  1.00  0.00     0.118 C 
BRANCH   2   3
ATOM      3  N   UNL A   1      39.229  23.515  26.236  1.00  0.00    -0.352 N 
ATOM      4  O   UNL A   1      41.304  23.623  27.030  1.00  0.00    -0.269 OA
ATOM      5  C   UNL A   1      40.203  24.166  26.952  1.00  0.00     0.251 C 
ATOM      6  H   UNL A   1      39.550  22.706  25.776  1.00  0.00     0.163 HD
BRANCH   5   7
ATOM      7  C   UNL A   1      39.992  25.507  27.552  1.00  0.00     0.039 A 
ATOM      8  C   UNL A   1      39.468  25.697  28.833  1.00  0.00     0.014 A 
ATOM      9  C   UNL A   1      40.389  26.622  26.797  1.00  0.00     0.014 A 
ATOM     10  C   UNL A   1      39.277  26.984  29.329  1.00  0.00     0.010 A 
ATOM     11  C   UNL A   1      40.229  27.913  27.301  1.00  0.00     0.010 A 
ATOM     12  C   UNL A   1      39.692  28.094  28.580  1.00  0.00    -0.014 A 
BRANCH  12  13
ATOM     13  C   UNL A   1      39.876  29.370  29.323  1.00  0.00     0.031 A 
ATOM     14  C   UNL A   1      38.649  30.298  29.101  1.00  0.00     0.074 A 
ATOM     15  C   UNL A   1      41.056  29.571  29.989  1.00  0.00     0.049 A 
ATOM     16  N   UNL A   1      38.579  31.594  28.979  1.00  0.00    -0.248 NA
ATOM     17  C   UNL A   1      37.321  29.676  28.828  1.00  0.00     0.031 C 
ATOM     18  C   UNL A   1      42.118  28.554  30.154  1.00  0.00     0.029 A 
ATOM     19  N   UNL A   1      41.612  30.647  30.663  1.00  0.00    -0.354 N 
ATOM     20  C   UNL A   1      37.199  31.926  28.886  1.00  0.00     0.074 A 
ATOM     21  C   UNL A   1      36.509  30.710  28.611  1.00  0.00     0.031 C 
ATOM     22  C   UNL A   1      43.194  29.072  30.792  1.00  0.00     0.029 A 
ATOM     23  C   UNL A   1      42.940  30.461  31.135  1.00  0.00     0.049 A 
ATOM     24  H   UNL A   1      41.119  31.487  30.805  1.00  0.00     0.167 HD
ATOM     25  C   UNL A   1      36.695  33.147  29.237  1.00  0.00     0.034 A 
ATOM     26  C   UNL A   1      43.787  31.364  31.731  1.00  0.00     0.034 A 
ATOM     27  C   UNL A   1      37.766  33.981  29.665  1.00  0.00     0.049 A 
ATOM     28  C   UNL A   1      42.977  32.559  31.984  1.00  0.00     0.074 A 
ATOM     29  C   UNL A   1      38.769  34.648  29.020  1.00  0.00     0.029 A 
ATOM     30  N   UNL A   1      38.036  33.915  31.009  1.00  0.00    -0.354 N 
ATOM     31  N   UNL A   1      42.090  32.661  32.930  1.00  0.00    -0.248 NA
ATOM     32  C   UNL A   1      43.099  33.706  31.073  1.00  0.00     0.031 C 
ATOM     33  C   UNL A   1      39.830  34.615  29.945  1.00  0.00     0.029 A 
ATOM     34  C   UNL A   1      39.382  34.088  31.164  1.00  0.00     0.049 A 
ATOM     35  H   UNL A   1      37.380  33.771  31.729  1.00  0.00     0.167 HD
ATOM     36  C   UNL A   1      41.327  33.707  32.479  1.00  0.00     0.074 A 
ATOM     37  C   UNL A   1      42.175  34.493  31.612  1.00  0.00     0.031 C 
ATOM     38  C   UNL A   1      39.986  33.543  32.355  1.00  0.00     0.034 A 
BRANCH  25  39
ATOM     39  C   UNL A   1      35.302  33.664  29.562  1.00  0.00     0.023 A 
ATOM     40  C   UNL A   1      34.469  33.902  28.427  1.00  0.00     0.012 A 
ATOM     41  C   UNL A   1      34.885  34.219  30.783  1.00  0.00     0.148 A 
ATOM     42  C   UNL A   1      33.390  34.784  28.457  1.00  0.00     0.002 A 
ATOM     43  C   UNL A   1      33.760  35.053  30.821  1.00  0.00     0.091 A 
ATOM     44  F   UNL A   1      35.605  34.015  31.887  1.00  0.00    -0.205 F 
ATOM     45  C   UNL A   1      33.049  35.378  29.655  1.00  0.00     0.022 A 
BRANCH  43  46
ATOM     46  S   UNL A   1      33.135  35.779  32.341  1.00  0.00     0.127 S 
ATOM     47  O   UNL A   1      34.322  35.784  33.188  1.00  0.00    -0.237 OA
ATOM     48  O   UNL A   1      32.709  37.105  31.887  1.00  0.00    -0.237 OA
ATOM     49  O   UNL A   1      32.036  34.920  32.763  1.00  0.00    -0.744 OA
ENDBRANCH  43  46
ENDBRANCH  25  39
BRANCH  26  50
ATOM     50  C   UNL A   1      45.258  31.466  32.102  1.00  0.00     0.023 A 
ATOM     51  C   UNL A   1      45.760  31.331  33.402  1.00  0.00     0.012 A 
ATOM     52  C   UNL A   1      46.246  31.653  31.081  1.00  0.00     0.148 A 
ATOM     53  C   UNL A   1      47.152  31.283  33.650  1.00  0.00     0.002 A 
ATOM     54  C   UNL A   1      47.607  31.474  31.304  1.00  0.00     0.091 A 
ATOM     55  F   UNL A   1      45.882  32.067  29.865  1.00  0.00    -0.205 F 
ATOM     56  C   UNL A   1      48.072  31.303  32.600  1.00  0.00     0.022 A 
BRANCH  54  57
ATOM     57  S   UNL A   1      48.778  31.304  29.937  1.00  0.00     0.127 S 
ATOM     58  O   UNL A   1      49.020  32.694  29.555  1.00  0.00    -0.237 OA
ATOM     59  O   UNL A   1      49.904  30.645  30.600  1.00  0.00    -0.237 OA
ATOM     60  O   UNL A   1      48.119  30.491  28.924  1.00  0.00    -0.744 OA
ENDBRANCH  54  57
ENDBRANCH  26  50
BRANCH  38  61
ATOM     61  C   UNL A   1      39.377  32.520  33.310  1.00  0.00     0.023 A 
ATOM     62  C   UNL A   1      38.913  31.317  32.743  1.00  0.00     0.012 A 
ATOM     63  C   UNL A   1      39.133  32.723  34.690  1.00  0.00     0.148 A 
ATOM     64  C   UNL A   1      38.231  30.363  33.503  1.00  0.00     0.002 A 
ATOM     65  C   UNL A   1      38.434  31.777  35.448  1.00  0.00     0.091 A 
ATOM     66  F   UNL A   1      39.582  33.841  35.257  1.00  0.00    -0.205 F 
ATOM     67  C   UNL A   1      37.988  30.592  34.853  1.00  0.00     0.022 A 
BRANCH  65  68
ATOM     68  S   UNL A   1      37.987  32.005  37.183  1.00  0.00     0.127 S 
ATOM     69  O   UNL A   1      36.982  33.068  37.112  1.00  0.00    -0.237 OA
ATOM     70  O   UNL A   1      37.446  30.696  37.538  1.00  0.00    -0.237 OA
ATOM     71  O   UNL A   1      39.209  32.386  37.880  1.00  0.00    -0.744 OA
ENDBRANCH  65  68
ENDBRANCH  38  61
ENDBRANCH  12  13
ENDBRANCH   5   7
ENDBRANCH   2   3
ENDBRANCH   1   2
BRANCH   1  72
ATOM     72  C   UNL A   1      36.368  22.855  24.124  1.00  0.00     0.117 C 
BRANCH  72  73
ATOM     73  N   UNL A   1      35.143  22.094  23.924  1.00  0.00    -0.355 N 
ATOM     74  C   UNL A   1      33.825  22.426  24.016  1.00  0.00     0.240 C 
ATOM     75  H   UNL A   1      35.298  21.155  23.674  1.00  0.00     0.163 HD
ATOM     76  O   UNL A   1      33.016  21.498  23.874  1.00  0.00    -0.273 OA
BRANCH  74  77
ATOM     77  C   UNL A   1      33.310  23.841  24.311  1.00  0.00     0.184 C 
BRANCH  77  78
ATOM     78  C   UNL A   1      33.443  24.162  25.804  1.00  0.00     0.186 C 
BRANCH  78  79
ATOM     79  O   UNL A   1      33.285  25.545  26.080  1.00  0.00    -0.394 OA
ATOM     80  H   UNL A   1      32.415  25.698  26.479  1.00  0.00     0.210 HD
ENDBRANCH  78  79
ENDBRANCH  77  78
BRANCH  77  81
ATOM     81  N   UNL A   1      33.859  24.844  23.362  1.00  0.00    -0.196 NA
ATOM     82  H   UNL A   1      34.491  24.342  22.737  1.00  0.00     0.142 HD
BRANCH  81  83
ATOM     83  S   UNL A   1      32.826  25.735  22.387  1.00  0.00     0.242 S 
ATOM     84  O   UNL A   1      33.481  25.973  21.109  1.00  0.00    -0.207 OA
ATOM     85  O   UNL A   1      31.530  25.128  22.472  1.00  0.00    -0.207 OA
BRANCH  83  86
ATOM     86  C   UNL A   1      32.627  27.315  23.057  1.00  0.00     0.099 A 
ATOM     87  C   UNL A   1      33.630  28.066  23.721  1.00  0.00     0.041 A 
ATOM     88  C   UNL A   1      31.472  28.075  23.059  1.00  0.00     0.104 A 
ATOM     89  C   UNL A   1      33.053  29.255  24.116  1.00  0.00     0.083 A 
ATOM     90  N   UNL A   1      31.742  29.249  23.711  1.00  0.00    -0.366 N 
ATOM     91  H   UNL A   1      31.096  29.976  23.862  1.00  0.00     0.165 HD
ENDBRANCH  83  86
ENDBRANCH  81  83
ENDBRANCH  77  81
ENDBRANCH  74  77
ENDBRANCH  72  73
ENDBRANCH   1  72
TORSDOF 18
ENDMDL
MODEL 3
REMARK VINA RESULT:     -10.6      3.439      8.810
REMARK SMILES O=C(NCCCNC(=O)[C@@H](CO)NS(=O)(=O)c1cc[nH]c1)c1ccc(-c2c3nc(c(-c4cccc(S(=O)(=O)[O-])c4F)c4ccc([nH]4)c(-c4cccc(S(=O)(=O)[O-])c4F)c4nc(c(-c5cccc(S(=O)(=O)[O-])c5F)c5ccc2[nH]5)C=C4)C=C3)cc1
REMARK SMILES IDX 5 1 4 2 3 3 1 4 2 5 22 7 23 8 84 9 24 10 83 11 25 12 26 13
REMARK SMILES IDX 27 14 77 15 28 16 82 17 76 18 78 19 29 20 81 21 75 22 74 23
REMARK SMILES IDX 30 25 62 26 42 27 61 28 43 29 46 30 60 31 79 32 44 33 45 34
REMARK SMILES IDX 59 36 80 37 47 38 31 39 32 40 40 41 33 42 35 43 41 44 34 45
REMARK SMILES IDX 36 46 37 47 38 48 39 49 63 50 64 51 72 52 65 53 67 54 73 55
REMARK SMILES IDX 66 56 68 57 69 58 70 59 71 60 48 61 49 62 57 63 50 64 52 65
REMARK SMILES IDX 58 66 51 67 53 68 54 69 55 70 56 71 6 72 7 73 8 74 9 76
REMARK SMILES IDX 10 77 11 78 12 79 13 81 14 83 15 84 16 85 17 86 18 87 21 88
REMARK SMILES IDX 19 89 20 90
REMARK H PARENT 3 6 78 24 46 35 7 75 12 80 13 82 20 91
REMARK Flexibility Score: inf
ROOT
ATOM      1  C   UNL A   1      33.681  33.496  28.103  1.00  0.00     0.042 C 
ENDROOT
BRANCH   1   2
ATOM      2  C   UNL A   1      34.184  32.217  28.763  1.00  0.00     0.118 C 
BRANCH   2   3
ATOM      3  N   UNL A   1      33.977  30.991  28.017  1.00  0.00    -0.352 N 
ATOM      4  O   UNL A   1      34.232  28.921  27.241  1.00  0.00    -0.269 OA
ATOM      5  C   UNL A   1      34.735  29.856  27.863  1.00  0.00     0.251 C 
ATOM      6  H   UNL A   1      33.124  30.967  27.525  1.00  0.00     0.163 HD
BRANCH   5   7
ATOM      7  C   UNL A   1      36.135  29.759  28.345  1.00  0.00     0.039 A 
ATOM      8  C   UNL A   1      36.468  29.450  29.666  1.00  0.00     0.014 A 
ATOM      9  C   UNL A   1      37.157  29.944  27.401  1.00  0.00     0.014 A 
ATOM     10  C   UNL A   1      37.803  29.393  30.058  1.00  0.00     0.010 A 
ATOM     11  C   UNL A   1      38.498  29.858  27.782  1.00  0.00     0.010 A 
ATOM     12  C   UNL A   1      38.821  29.560  29.110  1.00  0.00    -0.014 A 
BRANCH  12  13
ATOM     13  C   UNL A   1      40.171  29.055  29.482  1.00  0.00     0.031 A 
ATOM     14  C   UNL A   1      41.025  30.208  30.079  1.00  0.00     0.074 A 
ATOM     15  C   UNL A   1      40.481  27.752  29.194  1.00  0.00     0.049 A 
ATOM     16  N   UNL A   1      42.298  30.462  29.969  1.00  0.00    -0.248 NA
ATOM     17  C   UNL A   1      40.329  31.326  30.780  1.00  0.00     0.031 C 
ATOM     18  C   UNL A   1      39.526  26.752  28.667  1.00  0.00     0.029 A 
ATOM     19  N   UNL A   1      41.638  26.995  29.278  1.00  0.00    -0.354 N 
ATOM     20  C   UNL A   1      42.567  31.590  30.792  1.00  0.00     0.074 A 
ATOM     21  C   UNL A   1      41.305  32.174  31.102  1.00  0.00     0.031 C 
ATOM     22  C   UNL A   1      40.144  25.576  28.411  1.00  0.00     0.029 A 
ATOM     23  C   UNL A   1      41.550  25.672  28.767  1.00  0.00     0.049 A 
ATOM     24  H   UNL A   1      42.469  27.351  29.669  1.00  0.00     0.167 HD
ATOM     25  C   UNL A   1      43.797  31.853  31.328  1.00  0.00     0.034 A 
ATOM     26  C   UNL A   1      42.538  24.731  28.610  1.00  0.00     0.034 A 
ATOM     27  C   UNL A   1      44.710  30.847  30.901  1.00  0.00     0.049 A 
ATOM     28  C   UNL A   1      43.722  25.285  29.275  1.00  0.00     0.074 A 
ATOM     29  C   UNL A   1      45.347  30.578  29.722  1.00  0.00     0.029 A 
ATOM     30  N   UNL A   1      44.787  29.759  31.735  1.00  0.00    -0.354 N 
ATOM     31  N   UNL A   1      43.883  25.342  30.564  1.00  0.00    -0.248 NA
ATOM     32  C   UNL A   1      44.776  25.896  28.454  1.00  0.00     0.031 C 
ATOM     33  C   UNL A   1      45.445  29.173  29.719  1.00  0.00     0.029 A 
ATOM     34  C   UNL A   1      45.025  28.663  30.954  1.00  0.00     0.049 A 
ATOM     35  H   UNL A   1      44.691  29.767  32.715  1.00  0.00     0.167 HD
ATOM     36  C   UNL A   1      44.850  26.308  30.677  1.00  0.00     0.074 A 
ATOM     37  C   UNL A   1      45.577  26.311  29.429  1.00  0.00     0.031 C 
ATOM     38  C   UNL A   1      44.624  27.380  31.477  1.00  0.00     0.034 A 
BRANCH  25  39
ATOM     39  C   UNL A   1      44.291  32.734  32.464  1.00  0.00     0.023 A 
ATOM     40  C   UNL A   1      45.388  33.586  32.132  1.00  0.00     0.012 A 
ATOM     41  C   UNL A   1      44.011  32.566  33.831  1.00  0.00     0.148 A 
ATOM     42  C   UNL A   1      46.265  34.092  33.089  1.00  0.00     0.002 A 
ATOM     43  C   UNL A   1      44.858  33.133  34.791  1.00  0.00     0.091 A 
ATOM     44  F   UNL A   1      42.984  31.802  34.210  1.00  0.00    -0.205 F 
ATOM     45  C   UNL A   1      46.009  33.846  34.423  1.00  0.00     0.022 A 
BRANCH  43  46
ATOM     46  S   UNL A   1      44.558  32.998  36.557  1.00  0.00     0.127 S 
ATOM     47  O   UNL A   1      45.586  33.873  37.110  1.00  0.00    -0.237 OA
ATOM     48  O   UNL A   1      43.194  33.520  36.671  1.00  0.00    -0.237 OA
ATOM     49  O   UNL A   1      44.673  31.579  36.868  1.00  0.00    -0.744 OA
ENDBRANCH  43  46
ENDBRANCH  25  39
BRANCH  26  50
ATOM     50  C   UNL A   1      42.732  23.394  27.913  1.00  0.00     0.023 A 
ATOM     51  C   UNL A   1      41.900  22.280  28.085  1.00  0.00     0.012 A 
ATOM     52  C   UNL A   1      43.789  23.226  26.959  1.00  0.00     0.148 A 
ATOM     53  C   UNL A   1      42.050  21.122  27.288  1.00  0.00     0.002 A 
ATOM     54  C   UNL A   1      43.854  22.145  26.086  1.00  0.00     0.091 A 
ATOM     55  F   UNL A   1      44.796  24.100  26.915  1.00  0.00    -0.205 F 
ATOM     56  C   UNL A   1      42.990  21.073  26.257  1.00  0.00     0.022 A 
BRANCH  54  57
ATOM     57  S   UNL A   1      44.934  22.161  24.637  1.00  0.00     0.127 S 
ATOM     58  O   UNL A   1      46.266  22.106  25.236  1.00  0.00    -0.237 OA
ATOM     59  O   UNL A   1      44.518  20.937  23.952  1.00  0.00    -0.237 OA
ATOM     60  O   UNL A   1      44.635  23.387  23.909  1.00  0.00    -0.744 OA
ENDBRANCH  54  57
ENDBRANCH  26  50
BRANCH  38  61
ATOM     61  C   UNL A   1      43.679  27.117  32.645  1.00  0.00     0.023 A 
ATOM     62  C   UNL A   1      42.458  27.822  32.648  1.00  0.00     0.012 A 
ATOM     63  C   UNL A   1      43.970  26.320  33.779  1.00  0.00     0.148 A 
ATOM     64  C   UNL A   1      41.572  27.749  33.727  1.00  0.00     0.002 A 
ATOM     65  C   UNL A   1      43.092  26.262  34.867  1.00  0.00     0.091 A 
ATOM     66  F   UNL A   1      45.105  25.625  33.792  1.00  0.00    -0.205 F 
ATOM     67  C   UNL A   1      41.888  26.973  34.836  1.00  0.00     0.022 A 
BRANCH  65  68
ATOM     68  S   UNL A   1      43.436  25.359  36.393  1.00  0.00     0.127 S 
ATOM     69  O   UNL A   1      44.612  26.059  36.915  1.00  0.00    -0.237 OA
ATOM     70  O   UNL A   1      42.218  25.584  37.167  1.00  0.00    -0.237 OA
ATOM     71  O   UNL A   1      43.687  23.975  36.010  1.00  0.00    -0.744 OA
ENDBRANCH  65  68
ENDBRANCH  38  61
ENDBRANCH  12  13
ENDBRANCH   5   7
ENDBRANCH   2   3
ENDBRANCH   1   2
BRANCH   1  72
ATOM     72  C   UNL A   1      34.330  34.774  28.620  1.00  0.00     0.117 C 
BRANCH  72  73
ATOM     73  N   UNL A   1      33.376  35.669  29.260  1.00  0.00    -0.355 N 
ATOM     74  C   UNL A   1      33.178  36.032  30.559  1.00  0.00     0.240 C 
ATOM     75  H   UNL A   1      32.750  36.094  28.631  1.00  0.00     0.163 HD
ATOM     76  O   UNL A   1      32.196  36.754  30.781  1.00  0.00    -0.273 OA
BRANCH  74  77
ATOM     77  C   UNL A   1      34.063  35.576  31.727  1.00  0.00     0.184 C 
BRANCH  77  78
ATOM     78  C   UNL A   1      34.106  36.648  32.821  1.00  0.00     0.186 C 
BRANCH  78  79
ATOM     79  O   UNL A   1      34.449  37.929  32.316  1.00  0.00    -0.394 OA
ATOM     80  H   UNL A   1      34.594  38.540  33.054  1.00  0.00     0.210 HD
ENDBRANCH  78  79
ENDBRANCH  77  78
BRANCH  77  81
ATOM     81  N   UNL A   1      33.743  34.191  32.162  1.00  0.00    -0.196 NA
ATOM     82  H   UNL A   1      33.383  33.702  31.342  1.00  0.00     0.142 HD
BRANCH  81  83
ATOM     83  S   UNL A   1      34.940  33.217  32.818  1.00  0.00     0.242 S 
ATOM     84  O   UNL A   1      34.944  33.394  34.262  1.00  0.00    -0.207 OA
ATOM     85  O   UNL A   1      34.815  31.923  32.214  1.00  0.00    -0.207 OA
BRANCH  83  86
ATOM     86  C   UNL A   1      36.489  33.797  32.319  1.00  0.00     0.099 A 
ATOM     87  C   UNL A   1      37.492  34.321  33.174  1.00  0.00     0.041 A 
ATOM     88  C   UNL A   1      36.977  33.851  31.028  1.00  0.00     0.104 A 
ATOM     89  C   UNL A   1      38.555  34.687  32.376  1.00  0.00     0.083 A 
ATOM     90  N   UNL A   1      38.232  34.398  31.074  1.00  0.00    -0.366 N 
ATOM     91  H   UNL A   1      38.811  34.558  30.295  1.00  0.00     0.165 HD
ENDBRANCH  83  86
ENDBRANCH  81  83
ENDBRANCH  77  81
ENDBRANCH  74  77
ENDBRANCH  72  73
ENDBRANCH   1  72
TORSDOF 18
ENDMDL
