MODEL 1
REMARK VINA RESULT:     -12.0      0.000      0.000
REMARK SMILES CC[C@](C)(NC(=O)N[C@@H]1C=CS(=O)(=O)C1)C(=O)NCCCNC(=O)c1ccc(-c2c3nc(c(-c4cccc(S(=O)(=O)[O-])c4F)c4ccc([nH]4)c(-c4cccc(S(=O)(=O)[O-])c4F)c4nc(c(-c5cccc(S(=O)(=O)[O-])c5F)c5ccc2[nH]5)C=C4)C=C3)cc1
REMARK SMILES IDX 20 1 19 2 18 3 16 4 17 5 3 7 4 8 2 9 1 10 5 11 6 12 7 14
REMARK SMILES IDX 8 15 9 17 10 18 15 19 11 20 12 21 13 22 14 23 21 24 22 25
REMARK SMILES IDX 23 26 24 28 25 29 26 30 87 31 27 32 86 33 28 34 29 35 30 36
REMARK SMILES IDX 80 37 31 38 85 39 79 40 81 41 32 42 84 43 78 44 77 45 33 47
REMARK SMILES IDX 65 48 45 49 64 50 46 51 49 52 63 53 82 54 47 55 48 56 62 58
REMARK SMILES IDX 83 59 50 60 34 61 35 62 43 63 36 64 38 65 44 66 37 67 39 68
REMARK SMILES IDX 40 69 41 70 42 71 66 72 67 73 75 74 68 75 70 76 76 77 69 78
REMARK SMILES IDX 71 79 72 80 73 81 74 82 51 83 52 84 60 85 53 86 55 87 61 88
REMARK SMILES IDX 54 89 56 90 57 91 58 92 59 93
REMARK H PARENT 18 6 5 13 8 16 22 27 81 46 49 57
REMARK Flexibility Score: inf
ROOT
ATOM      1  C   UNL A   1      34.510  21.852  27.278  1.00  0.00     0.042 C 
ENDROOT
BRANCH   1   2
ATOM      2  C   UNL A   1      33.166  22.575  27.123  1.00  0.00     0.117 C 
BRANCH   2   3
ATOM      3  N   UNL A   1      32.267  21.888  26.207  1.00  0.00    -0.354 N 
ATOM      4  C   UNL A   1      32.048  22.120  24.863  1.00  0.00     0.245 C 
ATOM      5  O   UNL A   1      32.153  21.220  24.032  1.00  0.00    -0.272 OA
ATOM      6  H   UNL A   1      31.741  21.155  26.601  1.00  0.00     0.163 HD
BRANCH   4   7
ATOM      7  C   UNL A   1      31.614  23.546  24.483  1.00  0.00     0.117 C 
ATOM      8  C   UNL A   1      30.893  23.698  23.126  1.00  0.00     0.045 C 
BRANCH   7   9
ATOM      9  C   UNL A   1      32.936  24.422  24.470  1.00  0.00     0.035 C 
ATOM     10  C   UNL A   1      34.015  24.096  23.416  1.00  0.00     0.007 C 
ENDBRANCH   7   9
BRANCH   7  11
ATOM     11  N   UNL A   1      30.642  23.967  25.526  1.00  0.00    -0.324 N 
ATOM     12  C   UNL A   1      30.042  25.125  25.856  1.00  0.00     0.316 C 
ATOM     13  H   UNL A   1      30.375  23.224  26.115  1.00  0.00     0.166 HD
ATOM     14  O   UNL A   1      29.350  25.115  26.876  1.00  0.00    -0.249 OA
ATOM     15  N   UNL A   1      29.983  26.242  25.100  1.00  0.00    -0.331 N 
ATOM     16  H   UNL A   1      29.127  26.707  25.237  1.00  0.00     0.166 HD
BRANCH  15  17
ATOM     17  C   UNL A   1      30.823  26.979  24.124  1.00  0.00     0.123 C 
ATOM     18  C   UNL A   1      31.132  28.309  24.778  1.00  0.00     0.011 C 
ATOM     19  C   UNL A   1      30.207  27.340  22.752  1.00  0.00     0.170 C 
ATOM     20  C   UNL A   1      30.654  29.419  24.197  1.00  0.00     0.104 C 
ATOM     21  S   UNL A   1      29.775  29.059  22.764  1.00  0.00     0.173 S 
ATOM     22  O   UNL A   1      30.403  29.703  21.626  1.00  0.00    -0.224 OA
ATOM     23  O   UNL A   1      28.357  29.170  23.028  1.00  0.00    -0.224 OA
ENDBRANCH  15  17
ENDBRANCH   7  11
ENDBRANCH   4   7
ENDBRANCH   2   3
ENDBRANCH   1   2
BRANCH   1  24
ATOM     24  C   UNL A   1      35.671  22.384  26.441  1.00  0.00     0.118 C 
BRANCH  24  25
ATOM     25  N   UNL A   1      36.528  21.333  25.932  1.00  0.00    -0.352 N 
ATOM     26  C   UNL A   1      37.882  21.360  25.709  1.00  0.00     0.251 C 
ATOM     27  H   UNL A   1      36.078  20.484  25.718  1.00  0.00     0.163 HD
ATOM     28  O   UNL A   1      38.423  20.428  25.120  1.00  0.00    -0.269 OA
BRANCH  26  29
ATOM     29  C   UNL A   1      38.675  22.533  26.137  1.00  0.00     0.039 A 
ATOM     30  C   UNL A   1      38.260  23.800  25.721  1.00  0.00     0.014 A 
ATOM     31  C   UNL A   1      39.817  22.392  26.932  1.00  0.00     0.014 A 
ATOM     32  C   UNL A   1      38.972  24.929  26.131  1.00  0.00     0.010 A 
ATOM     33  C   UNL A   1      40.480  23.528  27.401  1.00  0.00     0.010 A 
ATOM     34  C   UNL A   1      40.077  24.808  26.991  1.00  0.00    -0.014 A 
BRANCH  34  35
ATOM     35  C   UNL A   1      40.812  26.022  27.438  1.00  0.00     0.031 A 
ATOM     36  C   UNL A   1      42.243  26.252  27.023  1.00  0.00     0.074 A 
ATOM     37  C   UNL A   1      40.198  26.920  28.235  1.00  0.00     0.049 A 
ATOM     38  N   UNL A   1      43.014  27.281  27.264  1.00  0.00    -0.248 NA
ATOM     39  C   UNL A   1      42.900  25.181  26.258  1.00  0.00     0.031 C 
ATOM     40  C   UNL A   1      38.843  26.781  28.777  1.00  0.00     0.029 A 
ATOM     41  N   UNL A   1      40.631  28.122  28.735  1.00  0.00    -0.354 N 
ATOM     42  C   UNL A   1      44.249  26.972  26.705  1.00  0.00     0.074 A 
ATOM     43  C   UNL A   1      44.137  25.642  26.149  1.00  0.00     0.031 C 
ATOM     44  C   UNL A   1      38.551  27.865  29.515  1.00  0.00     0.029 A 
ATOM     45  C   UNL A   1      39.701  28.764  29.520  1.00  0.00     0.049 A 
ATOM     46  H   UNL A   1      41.526  28.491  28.550  1.00  0.00     0.167 HD
ATOM     47  C   UNL A   1      45.366  27.736  26.629  1.00  0.00     0.034 A 
ATOM     48  C   UNL A   1      39.762  29.946  30.165  1.00  0.00     0.034 A 
ATOM     49  C   UNL A   1      45.470  29.071  27.155  1.00  0.00     0.049 A 
ATOM     50  C   UNL A   1      40.996  30.795  30.023  1.00  0.00     0.074 A 
ATOM     51  C   UNL A   1      46.533  29.953  27.064  1.00  0.00     0.029 A 
ATOM     52  N   UNL A   1      44.478  29.716  27.878  1.00  0.00    -0.354 N 
ATOM     53  N   UNL A   1      42.097  30.551  29.355  1.00  0.00    -0.248 NA
ATOM     54  C   UNL A   1      40.977  32.108  30.685  1.00  0.00     0.031 C 
ATOM     55  C   UNL A   1      46.196  31.119  27.759  1.00  0.00     0.029 A 
ATOM     56  C   UNL A   1      44.906  30.982  28.244  1.00  0.00     0.049 A 
ATOM     57  H   UNL A   1      43.600  29.331  28.099  1.00  0.00     0.167 HD
ATOM     58  C   UNL A   1      42.880  31.694  29.477  1.00  0.00     0.074 A 
ATOM     59  C   UNL A   1      42.117  32.638  30.266  1.00  0.00     0.031 C 
ATOM     60  C   UNL A   1      44.121  31.936  28.986  1.00  0.00     0.034 A 
BRANCH  47  61
ATOM     61  C   UNL A   1      46.562  27.158  25.912  1.00  0.00     0.023 A 
ATOM     62  C   UNL A   1      47.299  26.116  26.513  1.00  0.00     0.012 A 
ATOM     63  C   UNL A   1      46.923  27.604  24.626  1.00  0.00     0.148 A 
ATOM     64  C   UNL A   1      48.400  25.557  25.864  1.00  0.00     0.002 A 
ATOM     65  C   UNL A   1      47.991  27.009  23.965  1.00  0.00     0.091 A 
ATOM     66  F   UNL A   1      46.223  28.607  24.078  1.00  0.00    -0.205 F 
ATOM     67  C   UNL A   1      48.739  25.995  24.587  1.00  0.00     0.022 A 
BRANCH  65  68
ATOM     68  S   UNL A   1      48.455  27.442  22.285  1.00  0.00     0.127 S 
ATOM     69  O   UNL A   1      49.685  28.203  22.504  1.00  0.00    -0.237 OA
ATOM     70  O   UNL A   1      48.653  26.127  21.672  1.00  0.00    -0.237 OA
ATOM     71  O   UNL A   1      47.340  28.203  21.742  1.00  0.00    -0.744 OA
ENDBRANCH  65  68
ENDBRANCH  47  61
BRANCH  48  72
ATOM     72  C   UNL A   1      38.588  30.433  30.944  1.00  0.00     0.023 A 
ATOM     73  C   UNL A   1      38.510  30.168  32.326  1.00  0.00     0.012 A 
ATOM     74  C   UNL A   1      37.556  31.164  30.326  1.00  0.00     0.148 A 
ATOM     75  C   UNL A   1      37.405  30.584  33.069  1.00  0.00     0.002 A 
ATOM     76  C   UNL A   1      36.486  31.627  31.084  1.00  0.00     0.091 A 
ATOM     77  F   UNL A   1      37.645  31.399  29.010  1.00  0.00    -0.205 F 
ATOM     78  C   UNL A   1      36.399  31.321  32.451  1.00  0.00     0.022 A 
BRANCH  76  79
ATOM     79  S   UNL A   1      35.211  32.691  30.402  1.00  0.00     0.127 S 
ATOM     80  O   UNL A   1      34.332  32.881  31.553  1.00  0.00    -0.237 OA
ATOM     81  O   UNL A   1      35.981  33.872  30.012  1.00  0.00    -0.237 OA
ATOM     82  O   UNL A   1      34.637  31.953  29.284  1.00  0.00    -0.744 OA
ENDBRANCH  76  79
ENDBRANCH  48  72
BRANCH  60  83
ATOM     83  C   UNL A   1      44.715  33.299  29.232  1.00  0.00     0.023 A 
ATOM     84  C   UNL A   1      45.494  33.540  30.382  1.00  0.00     0.012 A 
ATOM     85  C   UNL A   1      44.532  34.336  28.296  1.00  0.00     0.148 A 
ATOM     86  C   UNL A   1      46.037  34.802  30.620  1.00  0.00     0.002 A 
ATOM     87  C   UNL A   1      45.123  35.576  28.511  1.00  0.00     0.091 A 
ATOM     88  F   UNL A   1      43.773  34.099  27.216  1.00  0.00    -0.205 F 
ATOM     89  C   UNL A   1      45.860  35.816  29.682  1.00  0.00     0.022 A 
BRANCH  87  90
ATOM     90  S   UNL A   1      45.032  36.903  27.305  1.00  0.00     0.127 S 
ATOM     91  O   UNL A   1      45.496  38.048  28.086  1.00  0.00    -0.237 OA
ATOM     92  O   UNL A   1      45.965  36.451  26.273  1.00  0.00    -0.237 OA
ATOM     93  O   UNL A   1      43.641  36.957  26.876  1.00  0.00    -0.744 OA
ENDBRANCH  87  90
ENDBRANCH  60  83
ENDBRANCH  34  35
ENDBRANCH  26  29
ENDBRANCH  24  25
ENDBRANCH   1  24
TORSDOF 16
ENDMDL
MODEL 2
REMARK VINA RESULT:     -12.0      1.393      1.895
REMARK SMILES CC[C@](C)(NC(=O)N[C@@H]1C=CS(=O)(=O)C1)C(=O)NCCCNC(=O)c1ccc(-c2c3nc(c(-c4cccc(S(=O)(=O)[O-])c4F)c4ccc([nH]4)c(-c4cccc(S(=O)(=O)[O-])c4F)c4nc(c(-c5cccc(S(=O)(=O)[O-])c5F)c5ccc2[nH]5)C=C4)C=C3)cc1
REMARK SMILES IDX 20 1 19 2 18 3 16 4 17 5 3 7 4 8 2 9 1 10 5 11 6 12 7 14
REMARK SMILES IDX 8 15 9 17 10 18 15 19 11 20 12 21 13 22 14 23 21 24 22 25
REMARK SMILES IDX 23 26 24 28 25 29 26 30 87 31 27 32 86 33 28 34 29 35 30 36
REMARK SMILES IDX 80 37 31 38 85 39 79 40 81 41 32 42 84 43 78 44 77 45 33 47
REMARK SMILES IDX 65 48 45 49 64 50 46 51 49 52 63 53 82 54 47 55 48 56 62 58
REMARK SMILES IDX 83 59 50 60 34 61 35 62 43 63 36 64 38 65 44 66 37 67 39 68
REMARK SMILES IDX 40 69 41 70 42 71 66 72 67 73 75 74 68 75 70 76 76 77 69 78
REMARK SMILES IDX 71 79 72 80 73 81 74 82 51 83 52 84 60 85 53 86 55 87 61 88
REMARK SMILES IDX 54 89 56 90 57 91 58 92 59 93
REMARK H PARENT 18 6 5 13 8 16 22 27 81 46 49 57
REMARK Flexibility Score: inf
ROOT
ATOM      1  C   UNL A   1      36.305  21.849  24.322  1.00  0.00     0.042 C 
ENDROOT
BRANCH   1   2
ATOM      2  C   UNL A   1      35.342  22.897  23.750  1.00  0.00     0.117 C 
BRANCH   2   3
ATOM      3  N   UNL A   1      34.560  23.560  24.783  1.00  0.00    -0.354 N 
ATOM      4  C   UNL A   1      33.844  23.004  25.825  1.00  0.00     0.245 C 
ATOM      5  O   UNL A   1      34.033  23.349  26.989  1.00  0.00    -0.272 OA
ATOM      6  H   UNL A   1      34.540  24.543  24.733  1.00  0.00     0.163 HD
BRANCH   4   7
ATOM      7  C   UNL A   1      32.766  21.978  25.434  1.00  0.00     0.117 C 
ATOM      8  C   UNL A   1      33.152  20.491  25.596  1.00  0.00     0.045 C 
BRANCH   7   9
ATOM      9  C   UNL A   1      32.416  22.261  23.913  1.00  0.00     0.035 C 
ATOM     10  C   UNL A   1      32.134  21.055  22.993  1.00  0.00     0.007 C 
ENDBRANCH   7   9
BRANCH   7  11
ATOM     11  N   UNL A   1      31.623  22.219  26.354  1.00  0.00    -0.324 N 
ATOM     12  C   UNL A   1      30.717  23.201  26.508  1.00  0.00     0.316 C 
ATOM     13  H   UNL A   1      31.500  21.488  27.002  1.00  0.00     0.166 HD
ATOM     14  O   UNL A   1      29.956  23.100  27.473  1.00  0.00    -0.249 OA
ATOM     15  N   UNL A   1      30.446  24.189  25.629  1.00  0.00    -0.331 N 
ATOM     16  H   UNL A   1      29.490  24.421  25.654  1.00  0.00     0.166 HD
BRANCH  15  17
ATOM     17  C   UNL A   1      31.158  25.031  24.637  1.00  0.00     0.123 C 
ATOM     18  C   UNL A   1      31.349  26.375  25.308  1.00  0.00     0.011 C 
ATOM     19  C   UNL A   1      30.448  25.347  23.300  1.00  0.00     0.170 C 
ATOM     20  C   UNL A   1      30.728  27.436  24.772  1.00  0.00     0.104 C 
ATOM     21  S   UNL A   1      29.833  27.008  23.368  1.00  0.00     0.173 S 
ATOM     22  O   UNL A   1      30.338  27.737  22.220  1.00  0.00    -0.224 OA
ATOM     23  O   UNL A   1      28.423  26.959  23.692  1.00  0.00    -0.224 OA
ENDBRANCH  15  17
ENDBRANCH   7  11
ENDBRANCH   4   7
ENDBRANCH   2   3
ENDBRANCH   1   2
BRANCH   1  24
ATOM     24  C   UNL A   1      37.343  22.352  25.322  1.00  0.00     0.118 C 
BRANCH  24  25
ATOM     25  N   UNL A   1      38.268  21.320  25.742  1.00  0.00    -0.352 N 
ATOM     26  C   UNL A   1      39.498  21.456  26.336  1.00  0.00     0.251 C 
ATOM     27  H   UNL A   1      37.975  20.394  25.579  1.00  0.00     0.163 HD
ATOM     28  O   UNL A   1      40.221  20.474  26.478  1.00  0.00    -0.269 OA
BRANCH  26  29
ATOM     29  C   UNL A   1      39.966  22.794  26.759  1.00  0.00     0.039 A 
ATOM     30  C   UNL A   1      40.849  22.877  27.837  1.00  0.00     0.014 A 
ATOM     31  C   UNL A   1      39.539  23.957  26.108  1.00  0.00     0.014 A 
ATOM     32  C   UNL A   1      41.330  24.123  28.243  1.00  0.00     0.010 A 
ATOM     33  C   UNL A   1      40.082  25.192  26.468  1.00  0.00     0.010 A 
ATOM     34  C   UNL A   1      40.968  25.292  27.551  1.00  0.00    -0.014 A 
BRANCH  34  35
ATOM     35  C   UNL A   1      41.508  26.612  27.980  1.00  0.00     0.031 A 
ATOM     36  C   UNL A   1      42.938  26.988  27.692  1.00  0.00     0.074 A 
ATOM     37  C   UNL A   1      40.712  27.475  28.644  1.00  0.00     0.049 A 
ATOM     38  N   UNL A   1      43.556  28.116  27.932  1.00  0.00    -0.248 NA
ATOM     39  C   UNL A   1      43.792  25.960  27.075  1.00  0.00     0.031 C 
ATOM     40  C   UNL A   1      39.333  27.205  29.058  1.00  0.00     0.029 A 
ATOM     41  N   UNL A   1      40.950  28.749  29.096  1.00  0.00    -0.354 N 
ATOM     42  C   UNL A   1      44.871  27.926  27.522  1.00  0.00     0.074 A 
ATOM     43  C   UNL A   1      44.972  26.561  27.056  1.00  0.00     0.031 C 
ATOM     44  C   UNL A   1      38.842  28.288  29.683  1.00  0.00     0.029 A 
ATOM     45  C   UNL A   1      39.874  29.319  29.736  1.00  0.00     0.049 A 
ATOM     46  H   UNL A   1      41.811  29.212  28.973  1.00  0.00     0.167 HD
ATOM     47  C   UNL A   1      45.895  28.814  27.502  1.00  0.00     0.034 A 
ATOM     48  C   UNL A   1      39.729  30.536  30.296  1.00  0.00     0.034 A 
ATOM     49  C   UNL A   1      45.789  30.181  27.937  1.00  0.00     0.049 A 
ATOM     50  C   UNL A   1      40.866  31.519  30.216  1.00  0.00     0.074 A 
ATOM     51  C   UNL A   1      46.747  31.178  27.888  1.00  0.00     0.029 A 
ATOM     52  N   UNL A   1      44.658  30.744  28.509  1.00  0.00    -0.354 N 
ATOM     53  N   UNL A   1      42.053  31.370  29.680  1.00  0.00    -0.248 NA
ATOM     54  C   UNL A   1      40.626  32.857  30.775  1.00  0.00     0.031 C 
ATOM     55  C   UNL A   1      46.206  32.335  28.460  1.00  0.00     0.029 A 
ATOM     56  C   UNL A   1      44.897  32.071  28.823  1.00  0.00     0.049 A 
ATOM     57  H   UNL A   1      43.811  30.269  28.670  1.00  0.00     0.167 HD
ATOM     58  C   UNL A   1      42.682  32.605  29.794  1.00  0.00     0.074 A 
ATOM     59  C   UNL A   1      41.736  33.496  30.433  1.00  0.00     0.031 C 
ATOM     60  C   UNL A   1      43.932  32.966  29.412  1.00  0.00     0.034 A 
BRANCH  47  61
ATOM     61  C   UNL A   1      47.219  28.343  26.950  1.00  0.00     0.023 A 
ATOM     62  C   UNL A   1      48.297  28.109  27.829  1.00  0.00     0.012 A 
ATOM     63  C   UNL A   1      47.381  28.080  25.576  1.00  0.00     0.148 A 
ATOM     64  C   UNL A   1      49.526  27.661  27.345  1.00  0.00     0.002 A 
ATOM     65  C   UNL A   1      48.594  27.587  25.108  1.00  0.00     0.091 A 
ATOM     66  F   UNL A   1      46.352  28.325  24.753  1.00  0.00    -0.205 F 
ATOM     67  C   UNL A   1      49.671  27.390  25.987  1.00  0.00     0.022 A 
BRANCH  65  68
ATOM     68  S   UNL A   1      48.854  27.125  23.392  1.00  0.00     0.127 S 
ATOM     69  O   UNL A   1      48.337  28.298  22.688  1.00  0.00    -0.237 OA
ATOM     70  O   UNL A   1      50.309  26.971  23.332  1.00  0.00    -0.237 OA
ATOM     71  O   UNL A   1      48.104  25.895  23.187  1.00  0.00    -0.744 OA
ENDBRANCH  65  68
ENDBRANCH  47  61
BRANCH  48  72
ATOM     72  C   UNL A   1      38.431  30.924  30.918  1.00  0.00     0.023 A 
ATOM     73  C   UNL A   1      38.195  30.634  32.277  1.00  0.00     0.012 A 
ATOM     74  C   UNL A   1      37.435  31.584  30.174  1.00  0.00     0.148 A 
ATOM     75  C   UNL A   1      36.975  30.956  32.872  1.00  0.00     0.002 A 
ATOM     76  C   UNL A   1      36.244  31.955  30.788  1.00  0.00     0.091 A 
ATOM     77  F   UNL A   1      37.676  31.844  28.882  1.00  0.00    -0.205 F 
ATOM     78  C   UNL A   1      36.004  31.624  32.131  1.00  0.00     0.022 A 
BRANCH  76  79
ATOM     79  S   UNL A   1      34.991  32.931  29.951  1.00  0.00     0.127 S 
ATOM     80  O   UNL A   1      34.459  31.971  28.987  1.00  0.00    -0.237 OA
ATOM     81  O   UNL A   1      34.087  33.267  31.051  1.00  0.00    -0.237 OA
ATOM     82  O   UNL A   1      35.694  34.073  29.382  1.00  0.00    -0.744 OA
ENDBRANCH  76  79
ENDBRANCH  48  72
BRANCH  60  83
ATOM     83  C   UNL A   1      44.337  34.404  29.616  1.00  0.00     0.023 A 
ATOM     84  C   UNL A   1      44.849  34.831  30.858  1.00  0.00     0.012 A 
ATOM     85  C   UNL A   1      44.245  35.328  28.556  1.00  0.00     0.148 A 
ATOM     86  C   UNL A   1      45.214  36.162  31.056  1.00  0.00     0.002 A 
ATOM     87  C   UNL A   1      44.664  36.640  28.742  1.00  0.00     0.091 A 
ATOM     88  F   UNL A   1      43.738  34.912  27.385  1.00  0.00    -0.205 F 
ATOM     89  C   UNL A   1      45.131  37.064  29.997  1.00  0.00     0.022 A 
BRANCH  87  90
ATOM     90  S   UNL A   1      44.687  37.837  27.404  1.00  0.00     0.127 S 
ATOM     91  O   UNL A   1      45.037  39.067  28.111  1.00  0.00    -0.237 OA
ATOM     92  O   UNL A   1      45.742  37.313  26.536  1.00  0.00    -0.237 OA
ATOM     93  O   UNL A   1      43.354  37.806  26.818  1.00  0.00    -0.744 OA
ENDBRANCH  87  90
ENDBRANCH  60  83
ENDBRANCH  34  35
ENDBRANCH  26  29
ENDBRANCH  24  25
ENDBRANCH   1  24
TORSDOF 16
ENDMDL
MODEL 3
REMARK VINA RESULT:     -11.9      5.443      9.873
REMARK SMILES CC[C@](C)(NC(=O)N[C@@H]1C=CS(=O)(=O)C1)C(=O)NCCCNC(=O)c1ccc(-c2c3nc(c(-c4cccc(S(=O)(=O)[O-])c4F)c4ccc([nH]4)c(-c4cccc(S(=O)(=O)[O-])c4F)c4nc(c(-c5cccc(S(=O)(=O)[O-])c5F)c5ccc2[nH]5)C=C4)C=C3)cc1
REMARK SMILES IDX 20 1 19 2 18 3 16 4 17 5 3 7 4 8 2 9 1 10 5 11 6 12 7 14
REMARK SMILES IDX 8 15 9 17 10 18 15 19 11 20 12 21 13 22 14 23 21 24 22 25
REMARK SMILES IDX 23 26 24 28 25 29 26 30 87 31 27 32 86 33 28 34 29 35 30 36
REMARK SMILES IDX 80 37 31 38 85 39 79 40 81 41 32 42 84 43 78 44 77 45 33 47
REMARK SMILES IDX 65 48 45 49 64 50 46 51 49 52 63 53 82 54 47 55 48 56 62 58
REMARK SMILES IDX 83 59 50 60 34 61 35 62 43 63 36 64 38 65 44 66 37 67 39 68
REMARK SMILES IDX 40 69 41 70 42 71 66 72 67 73 75 74 68 75 70 76 76 77 69 78
REMARK SMILES IDX 71 79 72 80 73 81 74 82 51 83 52 84 60 85 53 86 55 87 61 88
REMARK SMILES IDX 54 89 56 90 57 91 58 92 59 93
REMARK H PARENT 18 6 5 13 8 16 22 27 81 46 49 57
REMARK Flexibility Score: inf
ROOT
ATOM      1  C   UNL A   1      32.107  28.122  27.434  1.00  0.00     0.042 C 
ENDROOT
BRANCH   1   2
ATOM      2  C   UNL A   1      31.466  27.766  26.087  1.00  0.00     0.117 C 
BRANCH   2   3
ATOM      3  N   UNL A   1      32.374  27.042  25.211  1.00  0.00    -0.354 N 
ATOM      4  C   UNL A   1      32.738  27.323  23.909  1.00  0.00     0.245 C 
ATOM      5  O   UNL A   1      33.918  27.427  23.581  1.00  0.00    -0.272 OA
ATOM      6  H   UNL A   1      32.789  26.239  25.602  1.00  0.00     0.163 HD
BRANCH   4   7
ATOM      7  C   UNL A   1      31.587  27.438  22.894  1.00  0.00     0.117 C 
ATOM      8  C   UNL A   1      31.095  28.869  22.586  1.00  0.00     0.045 C 
BRANCH   7   9
ATOM      9  C   UNL A   1      30.385  26.593  23.491  1.00  0.00     0.035 C 
ATOM     10  C   UNL A   1      28.972  27.211  23.456  1.00  0.00     0.007 C 
ENDBRANCH   7   9
BRANCH   7  11
ATOM     11  N   UNL A   1      32.114  26.889  21.617  1.00  0.00    -0.324 N 
ATOM     12  C   UNL A   1      32.594  25.697  21.221  1.00  0.00     0.316 C 
ATOM     13  H   UNL A   1      32.111  27.554  20.891  1.00  0.00     0.166 HD
ATOM     14  O   UNL A   1      33.045  25.639  20.075  1.00  0.00    -0.249 OA
ATOM     15  N   UNL A   1      32.480  24.525  21.881  1.00  0.00    -0.331 N 
ATOM     16  H   UNL A   1      32.388  23.779  21.247  1.00  0.00     0.166 HD
BRANCH  15  17
ATOM     17  C   UNL A   1      32.453  24.026  23.278  1.00  0.00     0.123 C 
ATOM     18  C   UNL A   1      33.793  23.354  23.495  1.00  0.00     0.011 C 
ATOM     19  C   UNL A   1      31.402  22.956  23.653  1.00  0.00     0.170 C 
ATOM     20  C   UNL A   1      33.800  22.034  23.727  1.00  0.00     0.104 C 
ATOM     21  S   UNL A   1      32.210  21.380  23.745  1.00  0.00     0.173 S 
ATOM     22  O   UNL A   1      31.934  20.793  25.042  1.00  0.00    -0.224 OA
ATOM     23  O   UNL A   1      31.966  20.671  22.508  1.00  0.00    -0.224 OA
ENDBRANCH  15  17
ENDBRANCH   7  11
ENDBRANCH   4   7
ENDBRANCH   2   3
ENDBRANCH   1   2
BRANCH   1  24
ATOM     24  C   UNL A   1      33.502  28.741  27.382  1.00  0.00     0.118 C 
BRANCH  24  25
ATOM     25  N   UNL A   1      33.483  30.185  27.488  1.00  0.00    -0.352 N 
ATOM     26  C   UNL A   1      34.432  31.021  28.021  1.00  0.00     0.251 C 
ATOM     27  H   UNL A   1      32.681  30.627  27.127  1.00  0.00     0.163 HD
ATOM     28  O   UNL A   1      34.180  32.213  28.176  1.00  0.00    -0.269 OA
BRANCH  26  29
ATOM     29  C   UNL A   1      35.736  30.473  28.453  1.00  0.00     0.039 A 
ATOM     30  C   UNL A   1      36.844  30.673  27.628  1.00  0.00     0.014 A 
ATOM     31  C   UNL A   1      35.870  29.765  29.652  1.00  0.00     0.014 A 
ATOM     32  C   UNL A   1      38.094  30.192  28.021  1.00  0.00     0.010 A 
ATOM     33  C   UNL A   1      37.135  29.353  30.077  1.00  0.00     0.010 A 
ATOM     34  C   UNL A   1      38.258  29.544  29.258  1.00  0.00    -0.014 A 
BRANCH  34  35
ATOM     35  C   UNL A   1      39.601  29.057  29.675  1.00  0.00     0.031 A 
ATOM     36  C   UNL A   1      40.348  29.728  30.799  1.00  0.00     0.074 A 
ATOM     37  C   UNL A   1      40.163  28.013  29.031  1.00  0.00     0.049 A 
ATOM     38  N   UNL A   1      41.494  29.398  31.338  1.00  0.00    -0.248 NA
ATOM     39  C   UNL A   1      39.742  30.936  31.381  1.00  0.00     0.031 C 
ATOM     40  C   UNL A   1      39.585  27.324  27.875  1.00  0.00     0.029 A 
ATOM     41  N   UNL A   1      41.347  27.354  29.252  1.00  0.00    -0.354 N 
ATOM     42  C   UNL A   1      41.758  30.367  32.299  1.00  0.00     0.074 A 
ATOM     43  C   UNL A   1      40.673  31.322  32.241  1.00  0.00     0.031 C 
ATOM     44  C   UNL A   1      40.405  26.328  27.502  1.00  0.00     0.029 A 
ATOM     45  C   UNL A   1      41.576  26.320  28.374  1.00  0.00     0.049 A 
ATOM     46  H   UNL A   1      41.974  27.600  29.971  1.00  0.00     0.167 HD
ATOM     47  C   UNL A   1      42.790  30.443  33.174  1.00  0.00     0.034 A 
ATOM     48  C   UNL A   1      42.607  25.456  28.285  1.00  0.00     0.034 A 
ATOM     49  C   UNL A   1      43.854  29.478  33.253  1.00  0.00     0.049 A 
ATOM     50  C   UNL A   1      43.715  25.531  29.300  1.00  0.00     0.074 A 
ATOM     51  C   UNL A   1      44.906  29.426  34.152  1.00  0.00     0.029 A 
ATOM     52  N   UNL A   1      44.011  28.400  32.395  1.00  0.00    -0.354 N 
ATOM     53  N   UNL A   1      43.865  26.363  30.303  1.00  0.00    -0.248 NA
ATOM     54  C   UNL A   1      44.775  24.517  29.202  1.00  0.00     0.031 C 
ATOM     55  C   UNL A   1      45.714  28.335  33.819  1.00  0.00     0.029 A 
ATOM     56  C   UNL A   1      45.143  27.680  32.740  1.00  0.00     0.049 A 
ATOM     57  H   UNL A   1      43.407  28.179  31.650  1.00  0.00     0.167 HD
ATOM     58  C   UNL A   1      45.005  25.944  30.980  1.00  0.00     0.074 A 
ATOM     59  C   UNL A   1      45.495  24.772  30.284  1.00  0.00     0.031 C 
ATOM     60  C   UNL A   1      45.596  26.485  32.074  1.00  0.00     0.034 A 
BRANCH  47  61
ATOM     61  C   UNL A   1      42.797  31.593  34.151  1.00  0.00     0.023 A 
ATOM     62  C   UNL A   1      43.399  32.815  33.786  1.00  0.00     0.012 A 
ATOM     63  C   UNL A   1      42.163  31.485  35.404  1.00  0.00     0.148 A 
ATOM     64  C   UNL A   1      43.407  33.896  34.667  1.00  0.00     0.002 A 
ATOM     65  C   UNL A   1      42.131  32.582  36.257  1.00  0.00     0.091 A 
ATOM     66  F   UNL A   1      41.611  30.311  35.742  1.00  0.00    -0.205 F 
ATOM     67  C   UNL A   1      42.764  33.783  35.897  1.00  0.00     0.022 A 
BRANCH  65  68
ATOM     68  S   UNL A   1      41.255  32.566  37.825  1.00  0.00     0.127 S 
ATOM     69  O   UNL A   1      39.936  32.078  37.422  1.00  0.00    -0.237 OA
ATOM     70  O   UNL A   1      42.043  31.613  38.608  1.00  0.00    -0.237 OA
ATOM     71  O   UNL A   1      41.289  33.934  38.320  1.00  0.00    -0.744 OA
ENDBRANCH  65  68
ENDBRANCH  47  61
BRANCH  48  72
ATOM     72  C   UNL A   1      42.604  24.394  27.239  1.00  0.00     0.023 A 
ATOM     73  C   UNL A   1      43.266  24.620  26.015  1.00  0.00     0.012 A 
ATOM     74  C   UNL A   1      41.959  23.162  27.453  1.00  0.00     0.148 A 
ATOM     75  C   UNL A   1      43.248  23.655  25.008  1.00  0.00     0.002 A 
ATOM     76  C   UNL A   1      41.995  22.181  26.468  1.00  0.00     0.091 A 
ATOM     77  F   UNL A   1      41.329  22.970  28.620  1.00  0.00    -0.205 F 
ATOM     78  C   UNL A   1      42.621  22.433  25.237  1.00  0.00     0.022 A 
BRANCH  76  79
ATOM     79  S   UNL A   1      41.328  20.534  26.723  1.00  0.00     0.127 S 
ATOM     80  O   UNL A   1      42.012  20.119  27.944  1.00  0.00    -0.237 OA
ATOM     81  O   UNL A   1      39.899  20.809  26.879  1.00  0.00    -0.237 OA
ATOM     82  O   UNL A   1      41.666  19.780  25.522  1.00  0.00    -0.744 OA
ENDBRANCH  76  79
ENDBRANCH  48  72
BRANCH  60  83
ATOM     83  C   UNL A   1      46.809  25.783  32.631  1.00  0.00     0.023 A 
ATOM     84  C   UNL A   1      48.102  26.147  32.204  1.00  0.00     0.012 A 
ATOM     85  C   UNL A   1      46.665  24.785  33.615  1.00  0.00     0.148 A 
ATOM     86  C   UNL A   1      49.226  25.494  32.708  1.00  0.00     0.002 A 
ATOM     87  C   UNL A   1      47.793  24.177  34.154  1.00  0.00     0.091 A 
ATOM     88  F   UNL A   1      45.428  24.435  33.999  1.00  0.00    -0.205 F 
ATOM     89  C   UNL A   1      49.073  24.517  33.689  1.00  0.00     0.022 A 
BRANCH  87  90
ATOM     90  S   UNL A   1      47.690  22.985  35.493  1.00  0.00     0.127 S 
ATOM     91  O   UNL A   1      49.095  22.837  35.869  1.00  0.00    -0.237 OA
ATOM     92  O   UNL A   1      46.868  23.691  36.477  1.00  0.00    -0.237 OA
ATOM     93  O   UNL A   1      47.062  21.800  34.925  1.00  0.00    -0.744 OA
ENDBRANCH  87  90
ENDBRANCH  60  83
ENDBRANCH  34  35
ENDBRANCH  26  29
ENDBRANCH  24  25
ENDBRANCH   1  24
TORSDOF 16
ENDMDL
