MODEL 1
REMARK VINA RESULT:     -12.5      0.000      0.000
REMARK SMILES C[C@H](C(=O)NCCCNC(=O)c1ccc(-c2c3nc(c(-c4cccc(S(=O)(=O)[O-])c4F)c4ccc([nH]4)c(-c4cccc(S(=O)(=O)[O-])c4F)c4nc(c(-c5cccc(S(=O)(=O)[O-])c5F)c5ccc2[nH]5)C=C4)C=C3)cc1)c1cccc(C(=O)c2ccccc2)c1
REMARK SMILES IDX 7 1 6 2 5 3 3 4 4 5 2 7 1 8 75 9 76 10 88 11 77 12 79 13
REMARK SMILES IDX 78 14 80 15 81 16 82 17 83 18 87 19 84 20 86 21 85 22 8 23
REMARK SMILES IDX 9 24 10 25 11 27 12 28 13 29 74 30 14 31 73 32 15 33 16 34
REMARK SMILES IDX 17 35 67 36 18 37 72 38 66 39 68 40 19 41 71 42 65 43 64 44
REMARK SMILES IDX 20 46 52 47 32 48 51 49 33 50 36 51 50 52 69 53 34 54 35 55
REMARK SMILES IDX 49 57 70 58 37 59 21 60 22 61 30 62 23 63 25 64 31 65 24 66
REMARK SMILES IDX 26 67 27 68 28 69 29 70 53 71 54 72 62 73 55 74 57 75 63 76
REMARK SMILES IDX 56 77 58 78 59 79 60 80 61 81 38 82 39 83 47 84 40 85 42 86
REMARK SMILES IDX 48 87 41 88 43 89 44 90 45 91 46 92
REMARK H PARENT 5 6 9 26 68 45 36 56
REMARK Flexibility Score: inf
ROOT
ATOM      1  C   UNL A   1      31.508  31.974  26.883  1.00  0.00     0.042 C 
ENDROOT
BRANCH   1   2
ATOM      2  C   UNL A   1      31.866  30.704  26.136  1.00  0.00     0.117 C 
BRANCH   2   3
ATOM      3  N   UNL A   1      33.027  30.022  26.687  1.00  0.00    -0.356 N 
ATOM      4  C   UNL A   1      33.739  28.964  26.208  1.00  0.00     0.227 C 
ATOM      5  O   UNL A   1      34.801  28.696  26.779  1.00  0.00    -0.274 OA
ATOM      6  H   UNL A   1      33.349  30.383  27.544  1.00  0.00     0.163 HD
BRANCH   4   7
ATOM      7  C   UNL A   1      33.246  28.109  25.043  1.00  0.00     0.105 C 
ATOM      8  C   UNL A   1      33.931  28.534  23.735  1.00  0.00     0.023 C 
BRANCH   7   9
ATOM      9  C   UNL A   1      33.228  26.596  25.250  1.00  0.00    -0.035 A 
ATOM     10  C   UNL A   1      32.305  25.933  26.069  1.00  0.00     0.004 A 
ATOM     11  C   UNL A   1      34.194  25.814  24.588  1.00  0.00     0.016 A 
ATOM     12  C   UNL A   1      32.427  24.570  26.339  1.00  0.00     0.001 A 
ATOM     13  C   UNL A   1      34.300  24.434  24.817  1.00  0.00     0.023 A 
ATOM     14  C   UNL A   1      33.432  23.827  25.729  1.00  0.00     0.012 A 
BRANCH  13  15
ATOM     15  C   UNL A   1      35.260  23.558  24.083  1.00  0.00     0.193 C 
ATOM     16  O   UNL A   1      35.130  23.357  22.878  1.00  0.00    -0.289 OA
BRANCH  15  17
ATOM     17  C   UNL A   1      36.455  23.005  24.747  1.00  0.00     0.022 A 
ATOM     18  C   UNL A   1      36.790  21.673  24.488  1.00  0.00     0.012 A 
ATOM     19  C   UNL A   1      37.228  23.777  25.619  1.00  0.00     0.012 A 
ATOM     20  C   UNL A   1      37.929  21.122  25.070  1.00  0.00     0.001 A 
ATOM     21  C   UNL A   1      38.372  23.221  26.192  1.00  0.00     0.001 A 
ATOM     22  C   UNL A   1      38.724  21.899  25.915  1.00  0.00     0.000 A 
ENDBRANCH  15  17
ENDBRANCH  13  15
ENDBRANCH   7   9
ENDBRANCH   4   7
ENDBRANCH   2   3
ENDBRANCH   1   2
BRANCH   1  23
ATOM     23  C   UNL A   1      32.710  32.724  27.439  1.00  0.00     0.118 C 
BRANCH  23  24
ATOM     24  N   UNL A   1      32.441  34.132  27.712  1.00  0.00    -0.352 N 
ATOM     25  C   UNL A   1      33.028  34.988  28.615  1.00  0.00     0.251 C 
ATOM     26  H   UNL A   1      31.728  34.531  27.164  1.00  0.00     0.163 HD
ATOM     27  O   UNL A   1      32.551  36.107  28.789  1.00  0.00    -0.269 OA
BRANCH  25  28
ATOM     28  C   UNL A   1      34.207  34.553  29.390  1.00  0.00     0.039 A 
ATOM     29  C   UNL A   1      34.036  34.132  30.712  1.00  0.00     0.014 A 
ATOM     30  C   UNL A   1      35.475  34.535  28.808  1.00  0.00     0.014 A 
ATOM     31  C   UNL A   1      35.125  33.610  31.416  1.00  0.00     0.010 A 
ATOM     32  C   UNL A   1      36.528  33.915  29.469  1.00  0.00     0.010 A 
ATOM     33  C   UNL A   1      36.369  33.452  30.783  1.00  0.00    -0.014 A 
BRANCH  33  34
ATOM     34  C   UNL A   1      37.517  32.802  31.465  1.00  0.00     0.031 A 
ATOM     35  C   UNL A   1      38.234  31.653  30.804  1.00  0.00     0.074 A 
ATOM     36  C   UNL A   1      37.841  33.164  32.722  1.00  0.00     0.049 A 
ATOM     37  N   UNL A   1      39.190  30.897  31.275  1.00  0.00    -0.248 NA
ATOM     38  C   UNL A   1      37.791  31.281  29.448  1.00  0.00     0.031 C 
ATOM     39  C   UNL A   1      37.162  34.197  33.510  1.00  0.00     0.029 A 
ATOM     40  N   UNL A   1      38.806  32.685  33.572  1.00  0.00    -0.354 N 
ATOM     41  C   UNL A   1      39.428  29.935  30.301  1.00  0.00     0.074 A 
ATOM     42  C   UNL A   1      38.489  30.178  29.228  1.00  0.00     0.031 C 
ATOM     43  C   UNL A   1      37.736  34.278  34.720  1.00  0.00     0.029 A 
ATOM     44  C   UNL A   1      38.802  33.286  34.810  1.00  0.00     0.049 A 
ATOM     45  H   UNL A   1      39.441  31.976  33.320  1.00  0.00     0.167 HD
ATOM     46  C   UNL A   1      40.367  28.960  30.280  1.00  0.00     0.034 A 
ATOM     47  C   UNL A   1      39.567  33.060  35.895  1.00  0.00     0.034 A 
ATOM     48  C   UNL A   1      41.341  28.764  31.318  1.00  0.00     0.049 A 
ATOM     49  C   UNL A   1      40.648  32.016  35.823  1.00  0.00     0.074 A 
ATOM     50  C   UNL A   1      42.402  27.877  31.345  1.00  0.00     0.029 A 
ATOM     51  N   UNL A   1      41.374  29.465  32.512  1.00  0.00    -0.354 N 
ATOM     52  N   UNL A   1      40.967  31.229  34.824  1.00  0.00    -0.248 NA
ATOM     53  C   UNL A   1      41.497  31.853  37.012  1.00  0.00     0.031 C 
ATOM     54  C   UNL A   1      43.069  28.032  32.566  1.00  0.00     0.029 A 
ATOM     55  C   UNL A   1      42.433  29.028  33.289  1.00  0.00     0.049 A 
ATOM     56  H   UNL A   1      40.738  30.171  32.771  1.00  0.00     0.167 HD
ATOM     57  C   UNL A   1      42.073  30.502  35.249  1.00  0.00     0.074 A 
ATOM     58  C   UNL A   1      42.381  30.959  36.589  1.00  0.00     0.031 C 
ATOM     59  C   UNL A   1      42.761  29.533  34.598  1.00  0.00     0.034 A 
BRANCH  46  60
ATOM     60  C   UNL A   1      40.426  28.072  29.064  1.00  0.00     0.023 A 
ATOM     61  C   UNL A   1      39.485  27.031  28.918  1.00  0.00     0.012 A 
ATOM     62  C   UNL A   1      41.376  28.291  28.048  1.00  0.00     0.148 A 
ATOM     63  C   UNL A   1      39.512  26.199  27.801  1.00  0.00     0.002 A 
ATOM     64  C   UNL A   1      41.368  27.486  26.915  1.00  0.00     0.091 A 
ATOM     65  F   UNL A   1      42.278  29.269  28.214  1.00  0.00    -0.205 F 
ATOM     66  C   UNL A   1      40.446  26.432  26.795  1.00  0.00     0.022 A 
BRANCH  64  67
ATOM     67  S   UNL A   1      42.478  27.754  25.529  1.00  0.00     0.127 S 
ATOM     68  O   UNL A   1      41.955  28.999  24.969  1.00  0.00    -0.237 OA
ATOM     69  O   UNL A   1      43.776  27.881  26.192  1.00  0.00    -0.237 OA
ATOM     70  O   UNL A   1      42.346  26.580  24.677  1.00  0.00    -0.744 OA
ENDBRANCH  64  67
ENDBRANCH  46  60
BRANCH  47  71
ATOM     71  C   UNL A   1      39.390  33.897  37.117  1.00  0.00     0.023 A 
ATOM     72  C   UNL A   1      39.828  35.235  37.103  1.00  0.00     0.012 A 
ATOM     73  C   UNL A   1      38.759  33.394  38.271  1.00  0.00     0.148 A 
ATOM     74  C   UNL A   1      39.672  36.048  38.226  1.00  0.00     0.002 A 
ATOM     75  C   UNL A   1      38.557  34.224  39.367  1.00  0.00     0.091 A 
ATOM     76  F   UNL A   1      38.358  32.114  38.269  1.00  0.00    -0.205 F 
ATOM     77  C   UNL A   1      39.027  35.547  39.353  1.00  0.00     0.022 A 
BRANCH  75  78
ATOM     78  S   UNL A   1      37.620  33.704  40.809  1.00  0.00     0.127 S 
ATOM     79  O   UNL A   1      38.501  32.695  41.391  1.00  0.00    -0.237 OA
ATOM     80  O   UNL A   1      37.520  34.949  41.571  1.00  0.00    -0.237 OA
ATOM     81  O   UNL A   1      36.348  33.214  40.294  1.00  0.00    -0.744 OA
ENDBRANCH  75  78
ENDBRANCH  47  71
BRANCH  59  82
ATOM     82  C   UNL A   1      43.936  28.913  35.306  1.00  0.00     0.023 A 
ATOM     83  C   UNL A   1      45.222  29.462  35.139  1.00  0.00     0.012 A 
ATOM     84  C   UNL A   1      43.753  27.837  36.198  1.00  0.00     0.148 A 
ATOM     85  C   UNL A   1      46.313  28.934  35.827  1.00  0.00     0.002 A 
ATOM     86  C   UNL A   1      44.836  27.346  36.917  1.00  0.00     0.091 A 
ATOM     87  F   UNL A   1      42.524  27.316  36.328  1.00  0.00    -0.205 F 
ATOM     88  C   UNL A   1      46.119  27.885  36.724  1.00  0.00     0.022 A 
BRANCH  86  89
ATOM     89  S   UNL A   1      44.662  26.064  38.162  1.00  0.00     0.127 S 
ATOM     90  O   UNL A   1      43.836  26.732  39.165  1.00  0.00    -0.237 OA
ATOM     91  O   UNL A   1      43.981  25.000  37.421  1.00  0.00    -0.237 OA
ATOM     92  O   UNL A   1      46.016  25.731  38.584  1.00  0.00    -0.744 OA
ENDBRANCH  86  89
ENDBRANCH  59  82
ENDBRANCH  33  34
ENDBRANCH  25  28
ENDBRANCH  23  24
ENDBRANCH   1  23
TORSDOF 16
ENDMDL
MODEL 2
REMARK VINA RESULT:     -12.2      1.889      2.326
REMARK SMILES C[C@H](C(=O)NCCCNC(=O)c1ccc(-c2c3nc(c(-c4cccc(S(=O)(=O)[O-])c4F)c4ccc([nH]4)c(-c4cccc(S(=O)(=O)[O-])c4F)c4nc(c(-c5cccc(S(=O)(=O)[O-])c5F)c5ccc2[nH]5)C=C4)C=C3)cc1)c1cccc(C(=O)c2ccccc2)c1
REMARK SMILES IDX 7 1 6 2 5 3 3 4 4 5 2 7 1 8 75 9 76 10 88 11 77 12 79 13
REMARK SMILES IDX 78 14 80 15 81 16 82 17 83 18 87 19 84 20 86 21 85 22 8 23
REMARK SMILES IDX 9 24 10 25 11 27 12 28 13 29 74 30 14 31 73 32 15 33 16 34
REMARK SMILES IDX 17 35 67 36 18 37 72 38 66 39 68 40 19 41 71 42 65 43 64 44
REMARK SMILES IDX 20 46 52 47 32 48 51 49 33 50 36 51 50 52 69 53 34 54 35 55
REMARK SMILES IDX 49 57 70 58 37 59 21 60 22 61 30 62 23 63 25 64 31 65 24 66
REMARK SMILES IDX 26 67 27 68 28 69 29 70 53 71 54 72 62 73 55 74 57 75 63 76
REMARK SMILES IDX 56 77 58 78 59 79 60 80 61 81 38 82 39 83 47 84 40 85 42 86
REMARK SMILES IDX 48 87 41 88 43 89 44 90 45 91 46 92
REMARK H PARENT 5 6 9 26 68 45 36 56
REMARK Flexibility Score: inf
ROOT
ATOM      1  C   UNL A   1      31.216  31.608  26.470  1.00  0.00     0.042 C 
ENDROOT
BRANCH   1   2
ATOM      2  C   UNL A   1      31.399  30.176  26.008  1.00  0.00     0.117 C 
BRANCH   2   3
ATOM      3  N   UNL A   1      31.332  30.027  24.563  1.00  0.00    -0.356 N 
ATOM      4  C   UNL A   1      30.949  28.963  23.802  1.00  0.00     0.227 C 
ATOM      5  O   UNL A   1      30.803  29.160  22.592  1.00  0.00    -0.274 OA
ATOM      6  H   UNL A   1      31.608  30.822  24.053  1.00  0.00     0.163 HD
BRANCH   4   7
ATOM      7  C   UNL A   1      30.740  27.571  24.393  1.00  0.00     0.105 C 
ATOM      8  C   UNL A   1      29.743  26.768  23.543  1.00  0.00     0.023 C 
BRANCH   7   9
ATOM      9  C   UNL A   1      31.992  26.778  24.764  1.00  0.00    -0.035 A 
ATOM     10  C   UNL A   1      32.758  27.022  25.912  1.00  0.00     0.004 A 
ATOM     11  C   UNL A   1      32.413  25.744  23.906  1.00  0.00     0.016 A 
ATOM     12  C   UNL A   1      33.972  26.370  26.123  1.00  0.00     0.001 A 
ATOM     13  C   UNL A   1      33.611  25.049  24.131  1.00  0.00     0.023 A 
ATOM     14  C   UNL A   1      34.406  25.399  25.226  1.00  0.00     0.012 A 
BRANCH  13  15
ATOM     15  C   UNL A   1      34.056  23.900  23.289  1.00  0.00     0.193 C 
ATOM     16  O   UNL A   1      33.869  23.904  22.075  1.00  0.00    -0.289 OA
BRANCH  15  17
ATOM     17  C   UNL A   1      34.836  22.787  23.862  1.00  0.00     0.022 A 
ATOM     18  C   UNL A   1      36.224  22.806  23.694  1.00  0.00     0.012 A 
ATOM     19  C   UNL A   1      34.215  21.736  24.542  1.00  0.00     0.012 A 
ATOM     20  C   UNL A   1      37.000  21.790  24.247  1.00  0.00     0.001 A 
ATOM     21  C   UNL A   1      34.999  20.725  25.101  1.00  0.00     0.001 A 
ATOM     22  C   UNL A   1      36.388  20.756  24.957  1.00  0.00     0.000 A 
ENDBRANCH  15  17
ENDBRANCH  13  15
ENDBRANCH   7   9
ENDBRANCH   4   7
ENDBRANCH   2   3
ENDBRANCH   1   2
BRANCH   1  23
ATOM     23  C   UNL A   1      32.507  32.415  26.510  1.00  0.00     0.118 C 
BRANCH  23  24
ATOM     24  N   UNL A   1      32.369  33.699  27.189  1.00  0.00    -0.352 N 
ATOM     25  C   UNL A   1      33.101  34.241  28.219  1.00  0.00     0.251 C 
ATOM     26  H   UNL A   1      31.636  34.267  26.858  1.00  0.00     0.163 HD
ATOM     27  O   UNL A   1      32.727  35.284  28.748  1.00  0.00    -0.269 OA
BRANCH  25  28
ATOM     28  C   UNL A   1      34.316  33.554  28.705  1.00  0.00     0.039 A 
ATOM     29  C   UNL A   1      35.524  34.255  28.749  1.00  0.00     0.014 A 
ATOM     30  C   UNL A   1      34.259  32.230  29.142  1.00  0.00     0.014 A 
ATOM     31  C   UNL A   1      36.652  33.653  29.314  1.00  0.00     0.010 A 
ATOM     32  C   UNL A   1      35.347  31.675  29.802  1.00  0.00     0.010 A 
ATOM     33  C   UNL A   1      36.559  32.375  29.889  1.00  0.00    -0.014 A 
BRANCH  33  34
ATOM     34  C   UNL A   1      37.707  31.749  30.595  1.00  0.00     0.031 A 
ATOM     35  C   UNL A   1      38.521  30.683  29.910  1.00  0.00     0.074 A 
ATOM     36  C   UNL A   1      37.945  32.054  31.886  1.00  0.00     0.049 A 
ATOM     37  N   UNL A   1      39.494  29.953  30.390  1.00  0.00    -0.248 NA
ATOM     38  C   UNL A   1      38.171  30.368  28.514  1.00  0.00     0.031 C 
ATOM     39  C   UNL A   1      37.168  33.000  32.692  1.00  0.00     0.029 A 
ATOM     40  N   UNL A   1      38.891  31.579  32.759  1.00  0.00    -0.354 N 
ATOM     41  C   UNL A   1      39.837  29.065  29.378  1.00  0.00     0.074 A 
ATOM     42  C   UNL A   1      38.942  29.319  28.270  1.00  0.00     0.031 C 
ATOM     43  C   UNL A   1      37.674  33.041  33.934  1.00  0.00     0.029 A 
ATOM     44  C   UNL A   1      38.789  32.105  34.026  1.00  0.00     0.049 A 
ATOM     45  H   UNL A   1      39.578  30.922  32.502  1.00  0.00     0.167 HD
ATOM     46  C   UNL A   1      40.830  28.146  29.354  1.00  0.00     0.034 A 
ATOM     47  C   UNL A   1      39.510  31.858  35.137  1.00  0.00     0.034 A 
ATOM     48  C   UNL A   1      41.760  27.942  30.430  1.00  0.00     0.049 A 
ATOM     49  C   UNL A   1      40.651  30.881  35.065  1.00  0.00     0.074 A 
ATOM     50  C   UNL A   1      42.868  27.115  30.465  1.00  0.00     0.029 A 
ATOM     51  N   UNL A   1      41.692  28.573  31.662  1.00  0.00    -0.354 N 
ATOM     52  N   UNL A   1      41.066  30.173  34.043  1.00  0.00    -0.248 NA
ATOM     53  C   UNL A   1      41.446  30.694  36.288  1.00  0.00     0.031 C 
ATOM     54  C   UNL A   1      43.461  27.234  31.727  1.00  0.00     0.029 A 
ATOM     55  C   UNL A   1      42.733  28.149  32.469  1.00  0.00     0.049 A 
ATOM     56  H   UNL A   1      41.003  29.226  31.925  1.00  0.00     0.167 HD
ATOM     57  C   UNL A   1      42.189  29.484  34.486  1.00  0.00     0.074 A 
ATOM     58  C   UNL A   1      42.401  29.877  35.865  1.00  0.00     0.031 C 
ATOM     59  C   UNL A   1      42.964  28.593  33.820  1.00  0.00     0.034 A 
BRANCH  46  60
ATOM     60  C   UNL A   1      41.003  27.336  28.094  1.00  0.00     0.023 A 
ATOM     61  C   UNL A   1      41.592  27.934  26.961  1.00  0.00     0.012 A 
ATOM     62  C   UNL A   1      40.629  25.980  28.043  1.00  0.00     0.148 A 
ATOM     63  C   UNL A   1      41.770  27.207  25.785  1.00  0.00     0.002 A 
ATOM     64  C   UNL A   1      40.852  25.249  26.882  1.00  0.00     0.091 A 
ATOM     65  F   UNL A   1      40.049  25.434  29.122  1.00  0.00    -0.205 F 
ATOM     66  C   UNL A   1      41.410  25.863  25.748  1.00  0.00     0.022 A 
BRANCH  64  67
ATOM     67  S   UNL A   1      40.495  23.493  26.761  1.00  0.00     0.127 S 
ATOM     68  O   UNL A   1      39.067  23.502  26.450  1.00  0.00    -0.237 OA
ATOM     69  O   UNL A   1      41.358  23.078  25.653  1.00  0.00    -0.237 OA
ATOM     70  O   UNL A   1      40.853  22.921  28.052  1.00  0.00    -0.744 OA
ENDBRANCH  64  67
ENDBRANCH  46  60
BRANCH  47  71
ATOM     71  C   UNL A   1      39.222  32.610  36.392  1.00  0.00     0.023 A 
ATOM     72  C   UNL A   1      39.809  33.876  36.585  1.00  0.00     0.012 A 
ATOM     73  C   UNL A   1      38.347  32.103  37.373  1.00  0.00     0.148 A 
ATOM     74  C   UNL A   1      39.555  34.610  37.744  1.00  0.00     0.002 A 
ATOM     75  C   UNL A   1      38.056  32.862  38.500  1.00  0.00     0.091 A 
ATOM     76  F   UNL A   1      37.807  30.892  37.176  1.00  0.00    -0.205 F 
ATOM     77  C   UNL A   1      38.672  34.109  38.696  1.00  0.00     0.022 A 
BRANCH  75  78
ATOM     78  S   UNL A   1      36.830  32.356  39.712  1.00  0.00     0.127 S 
ATOM     79  O   UNL A   1      37.394  31.101  40.202  1.00  0.00    -0.237 OA
ATOM     80  O   UNL A   1      36.871  33.465  40.666  1.00  0.00    -0.237 OA
ATOM     81  O   UNL A   1      35.577  32.245  38.977  1.00  0.00    -0.744 OA
ENDBRANCH  75  78
ENDBRANCH  47  71
BRANCH  59  82
ATOM     82  C   UNL A   1      44.135  27.998  34.555  1.00  0.00     0.023 A 
ATOM     83  C   UNL A   1      45.368  28.678  34.574  1.00  0.00     0.012 A 
ATOM     84  C   UNL A   1      43.991  26.806  35.293  1.00  0.00     0.148 A 
ATOM     85  C   UNL A   1      46.448  28.168  35.292  1.00  0.00     0.002 A 
ATOM     86  C   UNL A   1      45.057  26.328  36.045  1.00  0.00     0.091 A 
ATOM     87  F   UNL A   1      42.815  26.163  35.247  1.00  0.00    -0.205 F 
ATOM     88  C   UNL A   1      46.290  27.001  36.036  1.00  0.00     0.022 A 
BRANCH  86  89
ATOM     89  S   UNL A   1      44.915  24.888  37.108  1.00  0.00     0.127 S 
ATOM     90  O   UNL A   1      46.256  24.806  37.682  1.00  0.00    -0.237 OA
ATOM     91  O   UNL A   1      43.872  25.298  38.051  1.00  0.00    -0.237 OA
ATOM     92  O   UNL A   1      44.537  23.784  36.237  1.00  0.00    -0.744 OA
ENDBRANCH  86  89
ENDBRANCH  59  82
ENDBRANCH  33  34
ENDBRANCH  25  28
ENDBRANCH  23  24
ENDBRANCH   1  23
TORSDOF 16
ENDMDL
MODEL 3
REMARK VINA RESULT:     -12.2      3.116      8.992
REMARK SMILES C[C@H](C(=O)NCCCNC(=O)c1ccc(-c2c3nc(c(-c4cccc(S(=O)(=O)[O-])c4F)c4ccc([nH]4)c(-c4cccc(S(=O)(=O)[O-])c4F)c4nc(c(-c5cccc(S(=O)(=O)[O-])c5F)c5ccc2[nH]5)C=C4)C=C3)cc1)c1cccc(C(=O)c2ccccc2)c1
REMARK SMILES IDX 7 1 6 2 5 3 3 4 4 5 2 7 1 8 75 9 76 10 88 11 77 12 79 13
REMARK SMILES IDX 78 14 80 15 81 16 82 17 83 18 87 19 84 20 86 21 85 22 8 23
REMARK SMILES IDX 9 24 10 25 11 27 12 28 13 29 74 30 14 31 73 32 15 33 16 34
REMARK SMILES IDX 17 35 67 36 18 37 72 38 66 39 68 40 19 41 71 42 65 43 64 44
REMARK SMILES IDX 20 46 52 47 32 48 51 49 33 50 36 51 50 52 69 53 34 54 35 55
REMARK SMILES IDX 49 57 70 58 37 59 21 60 22 61 30 62 23 63 25 64 31 65 24 66
REMARK SMILES IDX 26 67 27 68 28 69 29 70 53 71 54 72 62 73 55 74 57 75 63 76
REMARK SMILES IDX 56 77 58 78 59 79 60 80 61 81 38 82 39 83 47 84 40 85 42 86
REMARK SMILES IDX 48 87 41 88 43 89 44 90 45 91 46 92
REMARK H PARENT 5 6 9 26 68 45 36 56
REMARK Flexibility Score: inf
ROOT
ATOM      1  C   UNL A   1      31.776  28.637  26.837  1.00  0.00     0.042 C 
ENDROOT
BRANCH   1   2
ATOM      2  C   UNL A   1      32.309  27.219  26.884  1.00  0.00     0.117 C 
BRANCH   2   3
ATOM      3  N   UNL A   1      31.264  26.219  27.039  1.00  0.00    -0.356 N 
ATOM      4  C   UNL A   1      30.904  25.185  26.227  1.00  0.00     0.227 C 
ATOM      5  O   UNL A   1      30.101  24.365  26.682  1.00  0.00    -0.274 OA
ATOM      6  H   UNL A   1      30.731  26.303  27.862  1.00  0.00     0.163 HD
BRANCH   4   7
ATOM      7  C   UNL A   1      31.429  25.048  24.800  1.00  0.00     0.105 C 
ATOM      8  C   UNL A   1      30.863  23.784  24.135  1.00  0.00     0.023 C 
BRANCH   7   9
ATOM      9  C   UNL A   1      31.348  26.286  23.907  1.00  0.00    -0.035 A 
ATOM     10  C   UNL A   1      32.442  26.816  23.211  1.00  0.00     0.004 A 
ATOM     11  C   UNL A   1      30.109  26.941  23.776  1.00  0.00     0.016 A 
ATOM     12  C   UNL A   1      32.346  28.032  22.533  1.00  0.00     0.001 A 
ATOM     13  C   UNL A   1      29.990  28.142  23.060  1.00  0.00     0.023 A 
ATOM     14  C   UNL A   1      31.128  28.701  22.472  1.00  0.00     0.012 A 
BRANCH  13  15
ATOM     15  C   UNL A   1      28.684  28.830  22.836  1.00  0.00     0.193 C 
ATOM     16  O   UNL A   1      27.627  28.210  22.918  1.00  0.00    -0.289 OA
BRANCH  15  17
ATOM     17  C   UNL A   1      28.612  30.288  22.629  1.00  0.00     0.022 A 
ATOM     18  C   UNL A   1      28.214  30.751  21.371  1.00  0.00     0.012 A 
ATOM     19  C   UNL A   1      28.938  31.188  23.648  1.00  0.00     0.012 A 
ATOM     20  C   UNL A   1      28.102  32.121  21.143  1.00  0.00     0.001 A 
ATOM     21  C   UNL A   1      28.816  32.558  23.416  1.00  0.00     0.001 A 
ATOM     22  C   UNL A   1      28.394  33.022  22.169  1.00  0.00     0.000 A 
ENDBRANCH  15  17
ENDBRANCH  13  15
ENDBRANCH   7   9
ENDBRANCH   4   7
ENDBRANCH   2   3
ENDBRANCH   1   2
BRANCH   1  23
ATOM     23  C   UNL A   1      32.649  29.599  26.043  1.00  0.00     0.118 C 
BRANCH  23  24
ATOM     24  N   UNL A   1      32.470  30.996  26.424  1.00  0.00    -0.352 N 
ATOM     25  C   UNL A   1      33.234  31.798  27.240  1.00  0.00     0.251 C 
ATOM     26  H   UNL A   1      31.678  31.434  26.036  1.00  0.00     0.163 HD
ATOM     27  O   UNL A   1      32.826  32.914  27.550  1.00  0.00    -0.269 OA
BRANCH  25  28
ATOM     28  C   UNL A   1      34.525  31.306  27.764  1.00  0.00     0.039 A 
ATOM     29  C   UNL A   1      35.556  32.219  28.004  1.00  0.00     0.014 A 
ATOM     30  C   UNL A   1      34.710  29.951  28.042  1.00  0.00     0.014 A 
ATOM     31  C   UNL A   1      36.738  31.781  28.607  1.00  0.00     0.010 A 
ATOM     32  C   UNL A   1      35.838  29.539  28.740  1.00  0.00     0.010 A 
ATOM     33  C   UNL A   1      36.869  30.446  29.024  1.00  0.00    -0.014 A 
BRANCH  33  34
ATOM     34  C   UNL A   1      38.066  29.972  29.765  1.00  0.00     0.031 A 
ATOM     35  C   UNL A   1      38.330  30.462  31.164  1.00  0.00     0.074 A 
ATOM     36  C   UNL A   1      38.974  29.194  29.141  1.00  0.00     0.049 A 
ATOM     37  N   UNL A   1      39.362  30.241  31.935  1.00  0.00    -0.248 NA
ATOM     38  C   UNL A   1      37.317  31.349  31.763  1.00  0.00     0.031 C 
ATOM     39  C   UNL A   1      38.883  28.730  27.754  1.00  0.00     0.029 A 
ATOM     40  N   UNL A   1      40.168  28.681  29.582  1.00  0.00    -0.354 N 
ATOM     41  C   UNL A   1      39.148  30.996  33.082  1.00  0.00     0.074 A 
ATOM     42  C   UNL A   1      37.907  31.713  32.891  1.00  0.00     0.031 C 
ATOM     43  C   UNL A   1      39.968  27.995  27.463  1.00  0.00     0.029 A 
ATOM     44  C   UNL A   1      40.847  27.960  28.627  1.00  0.00     0.049 A 
ATOM     45  H   UNL A   1      40.507  28.817  30.496  1.00  0.00     0.167 HD
ATOM     46  C   UNL A   1      39.895  31.060  34.209  1.00  0.00     0.034 A 
ATOM     47  C   UNL A   1      42.043  27.344  28.682  1.00  0.00     0.034 A 
ATOM     48  C   UNL A   1      41.093  30.296  34.421  1.00  0.00     0.049 A 
ATOM     49  C   UNL A   1      42.822  27.374  29.969  1.00  0.00     0.074 A 
ATOM     50  C   UNL A   1      41.864  30.205  35.566  1.00  0.00     0.029 A 
ATOM     51  N   UNL A   1      41.694  29.489  33.468  1.00  0.00    -0.354 N 
ATOM     52  N   UNL A   1      42.517  27.958  31.102  1.00  0.00    -0.248 NA
ATOM     53  C   UNL A   1      44.092  26.633  29.996  1.00  0.00     0.031 C 
ATOM     54  C   UNL A   1      42.942  29.354  35.299  1.00  0.00     0.029 A 
ATOM     55  C   UNL A   1      42.831  28.901  33.994  1.00  0.00     0.049 A 
ATOM     56  H   UNL A   1      41.362  29.355  32.551  1.00  0.00     0.167 HD
ATOM     57  C   UNL A   1      43.537  27.627  31.988  1.00  0.00     0.074 A 
ATOM     58  C   UNL A   1      44.457  26.774  31.263  1.00  0.00     0.031 C 
ATOM     59  C   UNL A   1      43.706  28.009  33.277  1.00  0.00     0.034 A 
BRANCH  46  60
ATOM     60  C   UNL A   1      39.400  31.941  35.327  1.00  0.00     0.023 A 
ATOM     61  C   UNL A   1      38.472  31.426  36.256  1.00  0.00     0.012 A 
ATOM     62  C   UNL A   1      39.880  33.254  35.487  1.00  0.00     0.148 A 
ATOM     63  C   UNL A   1      38.001  32.215  37.304  1.00  0.00     0.002 A 
ATOM     64  C   UNL A   1      39.441  34.021  36.561  1.00  0.00     0.091 A 
ATOM     65  F   UNL A   1      40.743  33.737  34.581  1.00  0.00    -0.205 F 
ATOM     66  C   UNL A   1      38.493  33.508  37.463  1.00  0.00     0.022 A 
BRANCH  64  67
ATOM     67  S   UNL A   1      40.073  35.668  36.897  1.00  0.00     0.127 S 
ATOM     68  O   UNL A   1      41.508  35.415  37.014  1.00  0.00    -0.237 OA
ATOM     69  O   UNL A   1      39.678  36.402  35.694  1.00  0.00    -0.237 OA
ATOM     70  O   UNL A   1      39.412  36.108  38.119  1.00  0.00    -0.744 OA
ENDBRANCH  64  67
ENDBRANCH  46  60
BRANCH  47  71
ATOM     71  C   UNL A   1      42.539  26.577  27.503  1.00  0.00     0.023 A 
ATOM     72  C   UNL A   1      43.380  27.216  26.571  1.00  0.00     0.012 A 
ATOM     73  C   UNL A   1      42.220  25.218  27.319  1.00  0.00     0.148 A 
ATOM     74  C   UNL A   1      43.868  26.526  25.460  1.00  0.00     0.002 A 
ATOM     75  C   UNL A   1      42.752  24.521  26.240  1.00  0.00     0.091 A 
ATOM     76  F   UNL A   1      41.410  24.629  28.211  1.00  0.00    -0.205 F 
ATOM     77  C   UNL A   1      43.563  25.178  25.301  1.00  0.00     0.022 A 
BRANCH  75  78
ATOM     78  S   UNL A   1      42.522  22.752  26.029  1.00  0.00     0.127 S 
ATOM     79  O   UNL A   1      43.169  22.518  24.741  1.00  0.00    -0.237 OA
ATOM     80  O   UNL A   1      43.238  22.213  27.186  1.00  0.00    -0.237 OA
ATOM     81  O   UNL A   1      41.081  22.538  26.064  1.00  0.00    -0.744 OA
ENDBRANCH  75  78
ENDBRANCH  47  71
BRANCH  59  82
ATOM     82  C   UNL A   1      44.915  27.488  34.008  1.00  0.00     0.023 A 
ATOM     83  C   UNL A   1      46.096  28.256  34.041  1.00  0.00     0.012 A 
ATOM     84  C   UNL A   1      44.856  26.277  34.726  1.00  0.00     0.148 A 
ATOM     85  C   UNL A   1      47.208  27.814  34.755  1.00  0.00     0.002 A 
ATOM     86  C   UNL A   1      45.952  25.866  35.474  1.00  0.00     0.091 A 
ATOM     87  F   UNL A   1      43.730  25.552  34.665  1.00  0.00    -0.205 F 
ATOM     88  C   UNL A   1      47.133  26.627  35.481  1.00  0.00     0.022 A 
BRANCH  86  89
ATOM     89  S   UNL A   1      45.912  24.403  36.514  1.00  0.00     0.127 S 
ATOM     90  O   UNL A   1      45.665  24.981  37.834  1.00  0.00    -0.237 OA
ATOM     91  O   UNL A   1      44.785  23.654  35.955  1.00  0.00    -0.237 OA
ATOM     92  O   UNL A   1      47.206  23.757  36.345  1.00  0.00    -0.744 OA
ENDBRANCH  86  89
ENDBRANCH  59  82
ENDBRANCH  33  34
ENDBRANCH  25  28
ENDBRANCH  23  24
ENDBRANCH   1  23
TORSDOF 16
ENDMDL
