MODEL 1
REMARK VINA RESULT:     -13.8      0.000      0.000
REMARK SMILES CS(=O)(=O)Nc1ccc(-c2cc(Cl)cc3c2O[C@H](C(F)(F)F)C(C(=O)NCCCNC(=O)c2ccc(-c4c5nc(c(-c6cccc(S(=O)(=O)[O-])c6F)c6ccc([nH]6)c(-c6cccc(S(=O)(=O)[O-])c6F)c6nc(c(-c7cccc(S(=O)(=O)[O-])c7F)c7ccc4[nH]7)C=C6)C=C5)cc2)=C3)cc1
REMARK SMILES IDX 28 1 27 2 26 3 24 4 25 5 23 7 10 8 11 9 16 10 12 11 15 12
REMARK SMILES IDX 17 13 13 14 14 15 96 16 18 17 9 18 6 19 7 20 98 21 8 22
REMARK SMILES IDX 97 23 5 24 2 26 1 27 3 28 4 29 19 30 20 31 21 32 22 33 29 34
REMARK SMILES IDX 30 35 31 36 32 38 33 39 34 40 95 41 35 42 94 43 36 44 37 45
REMARK SMILES IDX 38 46 88 47 39 48 93 49 87 50 89 51 40 52 92 53 86 54 85 55
REMARK SMILES IDX 41 57 73 58 53 59 72 60 54 61 57 62 71 63 90 64 55 65 56 66
REMARK SMILES IDX 70 68 91 69 58 70 42 71 43 72 51 73 44 74 46 75 52 76 45 77
REMARK SMILES IDX 47 78 48 79 49 80 50 81 74 82 75 83 83 84 76 85 78 86 84 87
REMARK SMILES IDX 77 88 79 89 80 90 81 91 82 92 59 93 60 94 68 95 61 96 63 97
REMARK SMILES IDX 69 98 62 99 64 100 65 101 66 102 67 103
REMARK H PARENT 26 6 5 25 30 37 89 56 57 67
REMARK Flexibility Score: inf
ROOT
ATOM      1  C   UNL A   1      35.893  21.304  25.148  1.00  0.00     0.042 C 
ENDROOT
BRANCH   1   2
ATOM      2  C   UNL A   1      34.893  21.544  26.281  1.00  0.00     0.118 C 
BRANCH   2   3
ATOM      3  N   UNL A   1      34.670  22.966  26.461  1.00  0.00    -0.352 N 
ATOM      4  C   UNL A   1      34.064  23.827  25.607  1.00  0.00     0.251 C 
ATOM      5  O   UNL A   1      34.482  24.976  25.516  1.00  0.00    -0.270 OA
ATOM      6  H   UNL A   1      35.000  23.353  27.304  1.00  0.00     0.163 HD
BRANCH   4   7
ATOM      7  C   UNL A   1      32.807  23.373  24.942  1.00  0.00     0.067 C 
ATOM      8  C   UNL A   1      31.098  26.990  24.170  1.00  0.00     0.026 A 
ATOM      9  C   UNL A   1      31.254  27.773  25.347  1.00  0.00     0.033 A 
ATOM     10  C   UNL A   1      31.358  25.617  24.304  1.00  0.00     0.135 A 
ATOM     11  C   UNL A   1      31.472  27.211  26.602  1.00  0.00     0.042 A 
ATOM     12  C   UNL A   1      31.453  25.053  25.603  1.00  0.00     0.019 A 
ATOM     13  O   UNL A   1      31.586  24.776  23.225  1.00  0.00    -0.475 OA
ATOM     14  Cl  UNL A   1      31.669  28.232  27.971  1.00  0.00    -0.084 Cl
ATOM     15  C   UNL A   1      31.496  25.840  26.749  1.00  0.00     0.032 A 
ATOM     16  C   UNL A   1      31.720  23.601  25.706  1.00  0.00     0.025 C 
ATOM     17  C   UNL A   1      32.667  23.768  23.475  1.00  0.00     0.314 C 
BRANCH   8  18
ATOM     18  C   UNL A   1      30.452  27.707  23.033  1.00  0.00    -0.014 A 
ATOM     19  C   UNL A   1      29.401  30.068  21.841  1.00  0.00     0.048 A 
ATOM     20  C   UNL A   1      30.720  29.674  21.604  1.00  0.00     0.027 A 
ATOM     21  C   UNL A   1      28.561  29.185  22.515  1.00  0.00     0.027 A 
ATOM     22  C   UNL A   1      31.232  28.494  22.165  1.00  0.00     0.011 A 
ATOM     23  C   UNL A   1      29.081  28.012  23.101  1.00  0.00     0.011 A 
BRANCH  19  24
ATOM     24  N   UNL A   1      29.077  31.419  21.522  1.00  0.00    -0.284 N 
ATOM     25  H   UNL A   1      29.405  31.750  20.655  1.00  0.00     0.180 HD
BRANCH  24  26
ATOM     26  S   UNL A   1      28.212  32.502  22.436  1.00  0.00     0.229 S 
ATOM     27  C   UNL A   1      29.454  33.391  23.360  1.00  0.00     0.183 C 
ATOM     28  O   UNL A   1      27.358  31.791  23.363  1.00  0.00    -0.207 OA
ATOM     29  O   UNL A   1      27.653  33.436  21.481  1.00  0.00    -0.207 OA
ENDBRANCH  24  26
ENDBRANCH  19  24
ENDBRANCH   8  18
BRANCH  17  30
ATOM     30  C   UNL A   1      32.441  22.481  22.651  1.00  0.00     0.429 C 
ATOM     31  F   UNL A   1      31.129  22.175  22.514  1.00  0.00    -0.167 F 
ATOM     32  F   UNL A   1      32.967  22.588  21.408  1.00  0.00    -0.167 F 
ATOM     33  F   UNL A   1      33.025  21.390  23.218  1.00  0.00    -0.167 F 
ENDBRANCH  17  30
ENDBRANCH   4   7
ENDBRANCH   2   3
ENDBRANCH   1   2
BRANCH   1  34
ATOM     34  C   UNL A   1      37.283  21.904  25.372  1.00  0.00     0.118 C 
BRANCH  34  35
ATOM     35  N   UNL A   1      38.314  20.902  25.596  1.00  0.00    -0.352 N 
ATOM     36  C   UNL A   1      39.559  21.049  26.161  1.00  0.00     0.251 C 
ATOM     37  H   UNL A   1      38.089  19.990  25.302  1.00  0.00     0.163 HD
ATOM     38  O   UNL A   1      40.355  20.115  26.144  1.00  0.00    -0.269 OA
BRANCH  36  39
ATOM     39  C   UNL A   1      39.946  22.346  26.756  1.00  0.00     0.039 A 
ATOM     40  C   UNL A   1      40.823  22.356  27.842  1.00  0.00     0.014 A 
ATOM     41  C   UNL A   1      39.476  23.548  26.220  1.00  0.00     0.014 A 
ATOM     42  C   UNL A   1      41.303  23.574  28.333  1.00  0.00     0.010 A 
ATOM     43  C   UNL A   1      40.010  24.755  26.661  1.00  0.00     0.010 A 
ATOM     44  C   UNL A   1      40.941  24.782  27.711  1.00  0.00    -0.014 A 
BRANCH  44  45
ATOM     45  C   UNL A   1      41.563  26.074  28.104  1.00  0.00     0.031 A 
ATOM     46  C   UNL A   1      40.742  27.143  28.773  1.00  0.00     0.074 A 
ATOM     47  C   UNL A   1      42.843  26.325  27.758  1.00  0.00     0.049 A 
ATOM     48  N   UNL A   1      41.082  28.366  29.088  1.00  0.00    -0.248 NA
ATOM     49  C   UNL A   1      39.351  26.801  29.111  1.00  0.00     0.031 C 
ATOM     50  C   UNL A   1      43.726  25.398  27.045  1.00  0.00     0.029 A 
ATOM     51  N   UNL A   1      43.616  27.448  27.928  1.00  0.00    -0.354 N 
ATOM     52  C   UNL A   1      39.943  28.950  29.630  1.00  0.00     0.074 A 
ATOM     53  C   UNL A   1      38.893  27.957  29.573  1.00  0.00     0.031 C 
ATOM     54  C   UNL A   1      44.912  25.989  26.836  1.00  0.00     0.029 A 
ATOM     55  C   UNL A   1      44.866  27.349  27.361  1.00  0.00     0.049 A 
ATOM     56  H   UNL A   1      43.305  28.248  28.410  1.00  0.00     0.167 HD
ATOM     57  C   UNL A   1      39.792  30.192  30.150  1.00  0.00     0.034 A 
ATOM     58  C   UNL A   1      45.857  28.257  27.254  1.00  0.00     0.034 A 
ATOM     59  C   UNL A   1      40.847  31.166  30.236  1.00  0.00     0.049 A 
ATOM     60  C   UNL A   1      45.660  29.626  27.847  1.00  0.00     0.074 A 
ATOM     61  C   UNL A   1      40.811  32.421  30.819  1.00  0.00     0.029 A 
ATOM     62  N   UNL A   1      42.121  31.003  29.717  1.00  0.00    -0.354 N 
ATOM     63  N   UNL A   1      44.625  30.106  28.493  1.00  0.00    -0.248 NA
ATOM     64  C   UNL A   1      46.780  30.571  27.723  1.00  0.00     0.031 C 
ATOM     65  C   UNL A   1      42.056  33.027  30.628  1.00  0.00     0.029 A 
ATOM     66  C   UNL A   1      42.876  32.139  29.952  1.00  0.00     0.049 A 
ATOM     67  H   UNL A   1      42.443  30.198  29.250  1.00  0.00     0.167 HD
ATOM     68  C   UNL A   1      44.979  31.394  28.878  1.00  0.00     0.074 A 
ATOM     69  C   UNL A   1      46.336  31.609  28.419  1.00  0.00     0.031 C 
ATOM     70  C   UNL A   1      44.242  32.323  29.534  1.00  0.00     0.034 A 
BRANCH  57  71
ATOM     71  C   UNL A   1      38.445  30.556  30.720  1.00  0.00     0.023 A 
ATOM     72  C   UNL A   1      38.156  30.250  32.066  1.00  0.00     0.012 A 
ATOM     73  C   UNL A   1      37.500  31.267  29.955  1.00  0.00     0.148 A 
ATOM     74  C   UNL A   1      36.938  30.621  32.633  1.00  0.00     0.002 A 
ATOM     75  C   UNL A   1      36.306  31.673  30.540  1.00  0.00     0.091 A 
ATOM     76  F   UNL A   1      37.787  31.534  28.673  1.00  0.00    -0.205 F 
ATOM     77  C   UNL A   1      36.019  31.342  31.875  1.00  0.00     0.022 A 
BRANCH  75  78
ATOM     78  S   UNL A   1      35.089  32.672  29.676  1.00  0.00     0.127 S 
ATOM     79  O   UNL A   1      34.133  32.961  30.745  1.00  0.00    -0.237 OA
ATOM     80  O   UNL A   1      35.886  33.820  29.245  1.00  0.00    -0.237 OA
ATOM     81  O   UNL A   1      34.579  31.842  28.595  1.00  0.00    -0.744 OA
ENDBRANCH  75  78
ENDBRANCH  57  71
BRANCH  58  82
ATOM     82  C   UNL A   1      47.141  27.895  26.587  1.00  0.00     0.023 A 
ATOM     83  C   UNL A   1      48.272  27.602  27.376  1.00  0.00     0.012 A 
ATOM     84  C   UNL A   1      47.251  27.839  25.185  1.00  0.00     0.148 A 
ATOM     85  C   UNL A   1      49.497  27.300  26.780  1.00  0.00     0.002 A 
ATOM     86  C   UNL A   1      48.459  27.479  24.599  1.00  0.00     0.091 A 
ATOM     87  F   UNL A   1      46.170  28.135  24.450  1.00  0.00    -0.205 F 
ATOM     88  C   UNL A   1      49.589  27.230  25.394  1.00  0.00     0.022 A 
BRANCH  86  89
ATOM     89  S   UNL A   1      48.631  27.233  22.827  1.00  0.00     0.127 S 
ATOM     90  O   UNL A   1      47.671  28.198  22.296  1.00  0.00    -0.237 OA
ATOM     91  O   UNL A   1      50.036  27.576  22.609  1.00  0.00    -0.237 OA
ATOM     92  O   UNL A   1      48.316  25.830  22.595  1.00  0.00    -0.744 OA
ENDBRANCH  86  89
ENDBRANCH  58  82
BRANCH  70  93
ATOM     93  C   UNL A   1      44.891  33.652  29.824  1.00  0.00     0.023 A 
ATOM     94  C   UNL A   1      45.652  33.816  30.999  1.00  0.00     0.012 A 
ATOM     95  C   UNL A   1      44.805  34.713  28.902  1.00  0.00     0.148 A 
ATOM     96  C   UNL A   1      46.289  35.027  31.267  1.00  0.00     0.002 A 
ATOM     97  C   UNL A   1      45.485  35.899  29.151  1.00  0.00     0.091 A 
ATOM     98  F   UNL A   1      44.063  34.542  27.797  1.00  0.00    -0.205 F 
ATOM     99  C   UNL A   1      46.215  36.064  30.339  1.00  0.00     0.022 A 
BRANCH  97 100
ATOM    100  S   UNL A   1      45.527  37.254  27.973  1.00  0.00     0.127 S 
ATOM    101  O   UNL A   1      46.229  38.287  28.732  1.00  0.00    -0.237 OA
ATOM    102  O   UNL A   1      46.296  36.680  26.869  1.00  0.00    -0.237 OA
ATOM    103  O   UNL A   1      44.137  37.555  27.653  1.00  0.00    -0.744 OA
ENDBRANCH  97 100
ENDBRANCH  70  93
ENDBRANCH  44  45
ENDBRANCH  36  39
ENDBRANCH  34  35
ENDBRANCH   1  34
TORSDOF 17
ENDMDL
MODEL 2
REMARK VINA RESULT:     -13.3      2.731      3.793
REMARK SMILES CS(=O)(=O)Nc1ccc(-c2cc(Cl)cc3c2O[C@H](C(F)(F)F)C(C(=O)NCCCNC(=O)c2ccc(-c4c5nc(c(-c6cccc(S(=O)(=O)[O-])c6F)c6ccc([nH]6)c(-c6cccc(S(=O)(=O)[O-])c6F)c6nc(c(-c7cccc(S(=O)(=O)[O-])c7F)c7ccc4[nH]7)C=C6)C=C5)cc2)=C3)cc1
REMARK SMILES IDX 28 1 27 2 26 3 24 4 25 5 23 7 10 8 11 9 16 10 12 11 15 12
REMARK SMILES IDX 17 13 13 14 14 15 96 16 18 17 9 18 6 19 7 20 98 21 8 22
REMARK SMILES IDX 97 23 5 24 2 26 1 27 3 28 4 29 19 30 20 31 21 32 22 33 29 34
REMARK SMILES IDX 30 35 31 36 32 38 33 39 34 40 95 41 35 42 94 43 36 44 37 45
REMARK SMILES IDX 38 46 88 47 39 48 93 49 87 50 89 51 40 52 92 53 86 54 85 55
REMARK SMILES IDX 41 57 73 58 53 59 72 60 54 61 57 62 71 63 90 64 55 65 56 66
REMARK SMILES IDX 70 68 91 69 58 70 42 71 43 72 51 73 44 74 46 75 52 76 45 77
REMARK SMILES IDX 47 78 48 79 49 80 50 81 74 82 75 83 83 84 76 85 78 86 84 87
REMARK SMILES IDX 77 88 79 89 80 90 81 91 82 92 59 93 60 94 68 95 61 96 63 97
REMARK SMILES IDX 69 98 62 99 64 100 65 101 66 102 67 103
REMARK H PARENT 26 6 5 25 30 37 89 56 57 67
REMARK Flexibility Score: inf
ROOT
ATOM      1  C   UNL A   1      38.853  20.323  25.304  1.00  0.00     0.042 C 
ENDROOT
BRANCH   1   2
ATOM      2  C   UNL A   1      37.727  19.533  24.633  1.00  0.00     0.118 C 
BRANCH   2   3
ATOM      3  N   UNL A   1      36.437  20.062  25.033  1.00  0.00    -0.352 N 
ATOM      4  C   UNL A   1      36.177  21.237  25.656  1.00  0.00     0.251 C 
ATOM      5  O   UNL A   1      35.273  21.292  26.483  1.00  0.00    -0.270 OA
ATOM      6  H   UNL A   1      35.655  19.499  24.827  1.00  0.00     0.163 HD
BRANCH   4   7
ATOM      7  C   UNL A   1      36.903  22.451  25.176  1.00  0.00     0.067 C 
ATOM      8  C   UNL A   1      33.741  24.960  24.614  1.00  0.00     0.026 A 
ATOM      9  C   UNL A   1      32.733  24.202  23.957  1.00  0.00     0.033 A 
ATOM     10  C   UNL A   1      35.020  24.381  24.653  1.00  0.00     0.135 A 
ATOM     11  C   UNL A   1      33.012  23.046  23.233  1.00  0.00     0.042 A 
ATOM     12  C   UNL A   1      35.307  23.277  23.810  1.00  0.00     0.019 A 
ATOM     13  O   UNL A   1      36.018  24.797  25.523  1.00  0.00    -0.475 OA
ATOM     14  Cl  UNL A   1      31.730  22.180  22.483  1.00  0.00    -0.084 Cl
ATOM     15  C   UNL A   1      34.315  22.618  23.091  1.00  0.00     0.032 A 
ATOM     16  C   UNL A   1      36.668  22.698  23.871  1.00  0.00     0.025 C 
ATOM     17  C   UNL A   1      36.817  23.666  26.095  1.00  0.00     0.314 C 
BRANCH   8  18
ATOM     18  C   UNL A   1      33.342  26.356  24.954  1.00  0.00    -0.014 A 
ATOM     19  C   UNL A   1      31.792  28.696  24.484  1.00  0.00     0.048 A 
ATOM     20  C   UNL A   1      31.372  27.732  25.405  1.00  0.00     0.027 A 
ATOM     21  C   UNL A   1      33.070  28.578  23.946  1.00  0.00     0.027 A 
ATOM     22  C   UNL A   1      32.150  26.593  25.662  1.00  0.00     0.011 A 
ATOM     23  C   UNL A   1      33.842  27.421  24.182  1.00  0.00     0.011 A 
BRANCH  19  24
ATOM     24  N   UNL A   1      30.804  29.623  24.043  1.00  0.00    -0.284 N 
ATOM     25  H   UNL A   1      30.831  30.516  24.459  1.00  0.00     0.180 HD
BRANCH  24  26
ATOM     26  S   UNL A   1      29.612  29.382  22.914  1.00  0.00     0.229 S 
ATOM     27  C   UNL A   1      28.424  30.674  23.242  1.00  0.00     0.183 C 
ATOM     28  O   UNL A   1      28.980  28.098  23.132  1.00  0.00    -0.207 OA
ATOM     29  O   UNL A   1      30.231  29.696  21.643  1.00  0.00    -0.207 OA
ENDBRANCH  24  26
ENDBRANCH  19  24
ENDBRANCH   8  18
BRANCH  17  30
ATOM     30  C   UNL A   1      38.258  24.109  26.439  1.00  0.00     0.429 C 
ATOM     31  F   UNL A   1      38.288  25.181  27.265  1.00  0.00    -0.167 F 
ATOM     32  F   UNL A   1      38.954  23.113  27.036  1.00  0.00    -0.167 F 
ATOM     33  F   UNL A   1      38.971  24.463  25.336  1.00  0.00    -0.167 F 
ENDBRANCH  17  30
ENDBRANCH   4   7
ENDBRANCH   2   3
ENDBRANCH   1   2
BRANCH   1  34
ATOM     34  C   UNL A   1      39.543  19.608  26.467  1.00  0.00     0.118 C 
BRANCH  34  35
ATOM     35  N   UNL A   1      40.783  18.947  26.084  1.00  0.00    -0.352 N 
ATOM     36  C   UNL A   1      42.044  19.478  25.949  1.00  0.00     0.251 C 
ATOM     37  H   UNL A   1      40.707  17.984  25.894  1.00  0.00     0.163 HD
ATOM     38  O   UNL A   1      42.950  18.795  25.481  1.00  0.00    -0.269 OA
BRANCH  36  39
ATOM     39  C   UNL A   1      42.293  20.882  26.338  1.00  0.00     0.039 A 
ATOM     40  C   UNL A   1      42.576  21.172  27.675  1.00  0.00     0.014 A 
ATOM     41  C   UNL A   1      42.287  21.901  25.383  1.00  0.00     0.014 A 
ATOM     42  C   UNL A   1      42.945  22.471  28.038  1.00  0.00     0.010 A 
ATOM     43  C   UNL A   1      42.725  23.176  25.732  1.00  0.00     0.010 A 
ATOM     44  C   UNL A   1      43.074  23.472  27.059  1.00  0.00    -0.014 A 
BRANCH  44  45
ATOM     45  C   UNL A   1      43.622  24.814  27.389  1.00  0.00     0.031 A 
ATOM     46  C   UNL A   1      42.715  25.906  27.892  1.00  0.00     0.074 A 
ATOM     47  C   UNL A   1      44.919  25.081  27.131  1.00  0.00     0.049 A 
ATOM     48  N   UNL A   1      42.991  27.161  28.127  1.00  0.00    -0.248 NA
ATOM     49  C   UNL A   1      41.310  25.543  28.141  1.00  0.00     0.031 C 
ATOM     50  C   UNL A   1      45.886  24.130  26.577  1.00  0.00     0.029 A 
ATOM     51  N   UNL A   1      45.641  26.241  27.267  1.00  0.00    -0.354 N 
ATOM     52  C   UNL A   1      41.794  27.748  28.519  1.00  0.00     0.074 A 
ATOM     53  C   UNL A   1      40.782  26.716  28.460  1.00  0.00     0.031 C 
ATOM     54  C   UNL A   1      47.069  24.744  26.417  1.00  0.00     0.029 A 
ATOM     55  C   UNL A   1      46.938  26.141  26.816  1.00  0.00     0.049 A 
ATOM     56  H   UNL A   1      45.267  27.068  27.650  1.00  0.00     0.167 HD
ATOM     57  C   UNL A   1      41.562  29.022  28.914  1.00  0.00     0.034 A 
ATOM     58  C   UNL A   1      47.908  27.072  26.715  1.00  0.00     0.034 A 
ATOM     59  C   UNL A   1      42.577  30.038  29.004  1.00  0.00     0.049 A 
ATOM     60  C   UNL A   1      47.621  28.478  27.168  1.00  0.00     0.074 A 
ATOM     61  C   UNL A   1      42.455  31.335  29.471  1.00  0.00     0.029 A 
ATOM     62  N   UNL A   1      43.895  29.878  28.609  1.00  0.00    -0.354 N 
ATOM     63  N   UNL A   1      46.520  28.973  27.681  1.00  0.00    -0.248 NA
ATOM     64  C   UNL A   1      48.719  29.449  27.056  1.00  0.00     0.031 C 
ATOM     65  C   UNL A   1      43.694  31.968  29.332  1.00  0.00     0.029 A 
ATOM     66  C   UNL A   1      44.594  31.056  28.807  1.00  0.00     0.049 A 
ATOM     67  H   UNL A   1      44.279  29.049  28.242  1.00  0.00     0.167 HD
ATOM     68  C   UNL A   1      46.803  30.300  27.981  1.00  0.00     0.074 A 
ATOM     69  C   UNL A   1      48.187  30.525  27.620  1.00  0.00     0.031 C 
ATOM     70  C   UNL A   1      45.985  31.254  28.489  1.00  0.00     0.034 A 
BRANCH  57  71
ATOM     71  C   UNL A   1      40.161  29.384  29.336  1.00  0.00     0.023 A 
ATOM     72  C   UNL A   1      39.214  29.747  28.357  1.00  0.00     0.012 A 
ATOM     73  C   UNL A   1      39.760  29.288  30.683  1.00  0.00     0.148 A 
ATOM     74  C   UNL A   1      37.898  30.037  28.713  1.00  0.00     0.002 A 
ATOM     75  C   UNL A   1      38.435  29.535  31.026  1.00  0.00     0.091 A 
ATOM     76  F   UNL A   1      40.679  28.957  31.601  1.00  0.00    -0.205 F 
ATOM     77  C   UNL A   1      37.507  29.920  30.044  1.00  0.00     0.022 A 
BRANCH  75  78
ATOM     78  S   UNL A   1      37.809  29.337  32.697  1.00  0.00     0.127 S 
ATOM     79  O   UNL A   1      36.464  29.898  32.576  1.00  0.00    -0.237 OA
ATOM     80  O   UNL A   1      37.850  27.885  32.869  1.00  0.00    -0.237 OA
ATOM     81  O   UNL A   1      38.716  30.080  33.559  1.00  0.00    -0.744 OA
ENDBRANCH  75  78
ENDBRANCH  57  71
BRANCH  58  82
ATOM     82  C   UNL A   1      49.255  26.702  26.191  1.00  0.00     0.023 A 
ATOM     83  C   UNL A   1      50.112  25.912  26.983  1.00  0.00     0.012 A 
ATOM     84  C   UNL A   1      49.692  27.125  24.922  1.00  0.00     0.148 A 
ATOM     85  C   UNL A   1      51.393  25.584  26.537  1.00  0.00     0.002 A 
ATOM     86  C   UNL A   1      50.946  26.745  24.459  1.00  0.00     0.091 A 
ATOM     87  F   UNL A   1      48.869  27.889  24.188  1.00  0.00    -0.205 F 
ATOM     88  C   UNL A   1      51.806  25.992  25.273  1.00  0.00     0.022 A 
BRANCH  86  89
ATOM     89  S   UNL A   1      51.506  27.112  22.791  1.00  0.00     0.127 S 
ATOM     90  O   UNL A   1      51.764  28.548  22.871  1.00  0.00    -0.237 OA
ATOM     91  O   UNL A   1      52.701  26.274  22.682  1.00  0.00    -0.237 OA
ATOM     92  O   UNL A   1      50.414  26.711  21.915  1.00  0.00    -0.744 OA
ENDBRANCH  86  89
ENDBRANCH  58  82
BRANCH  70  93
ATOM     93  C   UNL A   1      46.568  32.625  28.717  1.00  0.00     0.023 A 
ATOM     94  C   UNL A   1      47.183  32.928  29.948  1.00  0.00     0.012 A 
ATOM     95  C   UNL A   1      46.568  33.588  27.688  1.00  0.00     0.148 A 
ATOM     96  C   UNL A   1      47.759  34.179  30.163  1.00  0.00     0.002 A 
ATOM     97  C   UNL A   1      47.189  34.814  27.893  1.00  0.00     0.091 A 
ATOM     98  F   UNL A   1      45.964  33.285  26.530  1.00  0.00    -0.205 F 
ATOM     99  C   UNL A   1      47.772  35.117  29.134  1.00  0.00     0.022 A 
BRANCH  97 100
ATOM    100  S   UNL A   1      47.340  36.048  26.597  1.00  0.00     0.127 S 
ATOM    101  O   UNL A   1      48.002  35.288  25.537  1.00  0.00    -0.237 OA
ATOM    102  O   UNL A   1      45.943  36.383  26.324  1.00  0.00    -0.237 OA
ATOM    103  O   UNL A   1      48.126  37.136  27.164  1.00  0.00    -0.744 OA
ENDBRANCH  97 100
ENDBRANCH  70  93
ENDBRANCH  44  45
ENDBRANCH  36  39
ENDBRANCH  34  35
ENDBRANCH   1  34
TORSDOF 17
ENDMDL
MODEL 3
REMARK VINA RESULT:     -13.2      2.243      2.941
REMARK SMILES CS(=O)(=O)Nc1ccc(-c2cc(Cl)cc3c2O[C@H](C(F)(F)F)C(C(=O)NCCCNC(=O)c2ccc(-c4c5nc(c(-c6cccc(S(=O)(=O)[O-])c6F)c6ccc([nH]6)c(-c6cccc(S(=O)(=O)[O-])c6F)c6nc(c(-c7cccc(S(=O)(=O)[O-])c7F)c7ccc4[nH]7)C=C6)C=C5)cc2)=C3)cc1
REMARK SMILES IDX 28 1 27 2 26 3 24 4 25 5 23 7 10 8 11 9 16 10 12 11 15 12
REMARK SMILES IDX 17 13 13 14 14 15 96 16 18 17 9 18 6 19 7 20 98 21 8 22
REMARK SMILES IDX 97 23 5 24 2 26 1 27 3 28 4 29 19 30 20 31 21 32 22 33 29 34
REMARK SMILES IDX 30 35 31 36 32 38 33 39 34 40 95 41 35 42 94 43 36 44 37 45
REMARK SMILES IDX 38 46 88 47 39 48 93 49 87 50 89 51 40 52 92 53 86 54 85 55
REMARK SMILES IDX 41 57 73 58 53 59 72 60 54 61 57 62 71 63 90 64 55 65 56 66
REMARK SMILES IDX 70 68 91 69 58 70 42 71 43 72 51 73 44 74 46 75 52 76 45 77
REMARK SMILES IDX 47 78 48 79 49 80 50 81 74 82 75 83 83 84 76 85 78 86 84 87
REMARK SMILES IDX 77 88 79 89 80 90 81 91 82 92 59 93 60 94 68 95 61 96 63 97
REMARK SMILES IDX 69 98 62 99 64 100 65 101 66 102 67 103
REMARK H PARENT 26 6 5 25 30 37 89 56 57 67
REMARK Flexibility Score: inf
ROOT
ATOM      1  C   UNL A   1      38.332  21.328  25.231  1.00  0.00     0.042 C 
ENDROOT
BRANCH   1   2
ATOM      2  C   UNL A   1      36.889  21.738  25.541  1.00  0.00     0.118 C 
BRANCH   2   3
ATOM      3  N   UNL A   1      36.575  22.996  24.890  1.00  0.00    -0.352 N 
ATOM      4  C   UNL A   1      35.508  23.281  24.105  1.00  0.00     0.251 C 
ATOM      5  O   UNL A   1      35.650  24.035  23.148  1.00  0.00    -0.270 OA
ATOM      6  H   UNL A   1      37.215  23.730  25.036  1.00  0.00     0.163 HD
BRANCH   4   7
ATOM      7  C   UNL A   1      34.169  22.792  24.550  1.00  0.00     0.067 C 
ATOM      8  C   UNL A   1      31.968  26.165  23.937  1.00  0.00     0.026 A 
ATOM      9  C   UNL A   1      32.737  27.250  24.441  1.00  0.00     0.033 A 
ATOM     10  C   UNL A   1      32.404  24.880  24.298  1.00  0.00     0.135 A 
ATOM     11  C   UNL A   1      33.750  27.082  25.382  1.00  0.00     0.042 A 
ATOM     12  C   UNL A   1      33.349  24.738  25.346  1.00  0.00     0.019 A 
ATOM     13  O   UNL A   1      32.000  23.727  23.640  1.00  0.00    -0.475 OA
ATOM     14  Cl  UNL A   1      34.643  28.445  25.927  1.00  0.00    -0.084 Cl
ATOM     15  C   UNL A   1      34.010  25.829  25.899  1.00  0.00     0.032 A 
ATOM     16  C   UNL A   1      33.778  23.368  25.705  1.00  0.00     0.025 C 
ATOM     17  C   UNL A   1      33.104  22.729  23.460  1.00  0.00     0.314 C 
BRANCH   8  18
ATOM     18  C   UNL A   1      30.682  26.566  23.298  1.00  0.00    -0.014 A 
ATOM     19  C   UNL A   1      28.454  28.320  23.050  1.00  0.00     0.048 A 
ATOM     20  C   UNL A   1      29.578  28.471  22.233  1.00  0.00     0.027 A 
ATOM     21  C   UNL A   1      28.370  27.184  23.850  1.00  0.00     0.027 A 
ATOM     22  C   UNL A   1      30.664  27.588  22.331  1.00  0.00     0.011 A 
ATOM     23  C   UNL A   1      29.472  26.311  23.970  1.00  0.00     0.011 A 
BRANCH  19  24
ATOM     24  N   UNL A   1      27.569  29.434  23.120  1.00  0.00    -0.284 N 
ATOM     25  H   UNL A   1      26.607  29.227  23.077  1.00  0.00     0.180 HD
BRANCH  24  26
ATOM     26  S   UNL A   1      27.962  31.040  23.267  1.00  0.00     0.229 S 
ATOM     27  C   UNL A   1      28.074  31.624  21.583  1.00  0.00     0.183 C 
ATOM     28  O   UNL A   1      29.260  31.173  23.895  1.00  0.00    -0.207 OA
ATOM     29  O   UNL A   1      26.791  31.662  23.849  1.00  0.00    -0.207 OA
ENDBRANCH  24  26
ENDBRANCH  19  24
ENDBRANCH   8  18
BRANCH  17  30
ATOM     30  C   UNL A   1      32.556  21.284  23.409  1.00  0.00     0.429 C 
ATOM     31  F   UNL A   1      31.667  21.031  24.398  1.00  0.00    -0.167 F 
ATOM     32  F   UNL A   1      31.941  21.029  22.230  1.00  0.00    -0.167 F 
ATOM     33  F   UNL A   1      33.538  20.351  23.536  1.00  0.00    -0.167 F 
ENDBRANCH  17  30
ENDBRANCH   4   7
ENDBRANCH   2   3
ENDBRANCH   1   2
BRANCH   1  34
ATOM     34  C   UNL A   1      39.152  20.880  26.442  1.00  0.00     0.118 C 
BRANCH  34  35
ATOM     35  N   UNL A   1      40.021  19.746  26.163  1.00  0.00    -0.352 N 
ATOM     36  C   UNL A   1      41.391  19.706  26.058  1.00  0.00     0.251 C 
ATOM     37  H   UNL A   1      39.562  18.885  26.029  1.00  0.00     0.163 HD
ATOM     38  O   UNL A   1      41.949  18.681  25.678  1.00  0.00    -0.269 OA
BRANCH  36  39
ATOM     39  C   UNL A   1      42.185  20.914  26.371  1.00  0.00     0.039 A 
ATOM     40  C   UNL A   1      42.551  21.770  25.329  1.00  0.00     0.014 A 
ATOM     41  C   UNL A   1      42.533  21.219  27.689  1.00  0.00     0.014 A 
ATOM     42  C   UNL A   1      43.185  22.981  25.621  1.00  0.00     0.010 A 
ATOM     43  C   UNL A   1      43.098  22.457  27.983  1.00  0.00     0.010 A 
ATOM     44  C   UNL A   1      43.416  23.359  26.955  1.00  0.00    -0.014 A 
BRANCH  44  45
ATOM     45  C   UNL A   1      43.936  24.708  27.301  1.00  0.00     0.031 A 
ATOM     46  C   UNL A   1      43.006  25.776  27.813  1.00  0.00     0.074 A 
ATOM     47  C   UNL A   1      45.228  25.004  27.051  1.00  0.00     0.049 A 
ATOM     48  N   UNL A   1      43.256  27.034  28.062  1.00  0.00    -0.248 NA
ATOM     49  C   UNL A   1      41.608  25.382  28.053  1.00  0.00     0.031 C 
ATOM     50  C   UNL A   1      46.216  24.079  26.489  1.00  0.00     0.029 A 
ATOM     51  N   UNL A   1      45.926  26.177  27.201  1.00  0.00    -0.354 N 
ATOM     52  C   UNL A   1      42.045  27.592  28.456  1.00  0.00     0.074 A 
ATOM     53  C   UNL A   1      41.055  26.541  28.383  1.00  0.00     0.031 C 
ATOM     54  C   UNL A   1      47.387  24.719  26.340  1.00  0.00     0.029 A 
ATOM     55  C   UNL A   1      47.227  26.108  26.754  1.00  0.00     0.049 A 
ATOM     56  H   UNL A   1      45.534  26.992  27.592  1.00  0.00     0.167 HD
ATOM     57  C   UNL A   1      41.786  28.857  28.865  1.00  0.00     0.034 A 
ATOM     58  C   UNL A   1      48.178  27.059  26.666  1.00  0.00     0.034 A 
ATOM     59  C   UNL A   1      42.781  29.892  28.969  1.00  0.00     0.049 A 
ATOM     60  C   UNL A   1      47.861  28.455  27.134  1.00  0.00     0.074 A 
ATOM     61  C   UNL A   1      42.631  31.182  29.449  1.00  0.00     0.029 A 
ATOM     62  N   UNL A   1      44.103  29.763  28.577  1.00  0.00    -0.354 N 
ATOM     63  N   UNL A   1      46.749  28.921  27.648  1.00  0.00    -0.248 NA
ATOM     64  C   UNL A   1      48.940  29.449  27.036  1.00  0.00     0.031 C 
ATOM     65  C   UNL A   1      43.857  31.841  29.322  1.00  0.00     0.029 A 
ATOM     66  C   UNL A   1      44.778  30.953  28.789  1.00  0.00     0.049 A 
ATOM     67  H   UNL A   1      44.505  28.946  28.202  1.00  0.00     0.167 HD
ATOM     68  C   UNL A   1      47.004  30.251  27.963  1.00  0.00     0.074 A 
ATOM     69  C   UNL A   1      48.385  30.508  27.610  1.00  0.00     0.031 C 
ATOM     70  C   UNL A   1      46.166  31.182  28.479  1.00  0.00     0.034 A 
BRANCH  57  71
ATOM     71  C   UNL A   1      40.378  29.186  29.285  1.00  0.00     0.023 A 
ATOM     72  C   UNL A   1      39.441  29.594  28.314  1.00  0.00     0.012 A 
ATOM     73  C   UNL A   1      39.958  29.016  30.620  1.00  0.00     0.148 A 
ATOM     74  C   UNL A   1      38.118  29.856  28.667  1.00  0.00     0.002 A 
ATOM     75  C   UNL A   1      38.627  29.234  30.956  1.00  0.00     0.091 A 
ATOM     76  F   UNL A   1      40.868  28.642  31.531  1.00  0.00    -0.205 F 
ATOM     77  C   UNL A   1      37.710  29.664  29.984  1.00  0.00     0.022 A 
BRANCH  75  78
ATOM     78  S   UNL A   1      37.980  28.943  32.606  1.00  0.00     0.127 S 
ATOM     79  O   UNL A   1      38.856  29.786  33.419  1.00  0.00    -0.237 OA
ATOM     80  O   UNL A   1      36.606  29.429  32.485  1.00  0.00    -0.237 OA
ATOM     81  O   UNL A   1      38.104  27.512  32.841  1.00  0.00    -0.744 OA
ENDBRANCH  75  78
ENDBRANCH  57  71
BRANCH  58  82
ATOM     82  C   UNL A   1      49.533  26.723  26.143  1.00  0.00     0.023 A 
ATOM     83  C   UNL A   1      50.414  25.965  26.941  1.00  0.00     0.012 A 
ATOM     84  C   UNL A   1      49.956  27.144  24.868  1.00  0.00     0.148 A 
ATOM     85  C   UNL A   1      51.703  25.669  26.496  1.00  0.00     0.002 A 
ATOM     86  C   UNL A   1      51.219  26.795  24.406  1.00  0.00     0.091 A 
ATOM     87  F   UNL A   1      49.110  27.876  24.128  1.00  0.00    -0.205 F 
ATOM     88  C   UNL A   1      52.102  26.076  25.226  1.00  0.00     0.022 A 
BRANCH  86  89
ATOM     89  S   UNL A   1      51.765  27.160  22.733  1.00  0.00     0.127 S 
ATOM     90  O   UNL A   1      51.972  28.605  22.795  1.00  0.00    -0.237 OA
ATOM     91  O   UNL A   1      52.989  26.365  22.634  1.00  0.00    -0.237 OA
ATOM     92  O   UNL A   1      50.688  26.709  21.864  1.00  0.00    -0.744 OA
ENDBRANCH  86  89
ENDBRANCH  58  82
BRANCH  70  93
ATOM     93  C   UNL A   1      46.720  32.562  28.724  1.00  0.00     0.023 A 
ATOM     94  C   UNL A   1      47.274  32.881  29.980  1.00  0.00     0.012 A 
ATOM     95  C   UNL A   1      46.754  33.518  27.689  1.00  0.00     0.148 A 
ATOM     96  C   UNL A   1      47.823  34.141  30.212  1.00  0.00     0.002 A 
ATOM     97  C   UNL A   1      47.350  34.754  27.913  1.00  0.00     0.091 A 
ATOM     98  F   UNL A   1      46.208  33.201  26.507  1.00  0.00    -0.205 F 
ATOM     99  C   UNL A   1      47.872  35.072  29.178  1.00  0.00     0.022 A 
BRANCH  97 100
ATOM    100  S   UNL A   1      47.544  35.982  26.617  1.00  0.00     0.127 S 
ATOM    101  O   UNL A   1      46.197  36.031  26.050  1.00  0.00    -0.237 OA
ATOM    102  O   UNL A   1      47.931  37.172  27.374  1.00  0.00    -0.237 OA
ATOM    103  O   UNL A   1      48.576  35.468  25.725  1.00  0.00    -0.744 OA
ENDBRANCH  97 100
ENDBRANCH  70  93
ENDBRANCH  44  45
ENDBRANCH  36  39
ENDBRANCH  34  35
ENDBRANCH   1  34
TORSDOF 17
ENDMDL
