MODEL 1
REMARK VINA RESULT:     -12.0      0.000      0.000
REMARK SMILES C[C@@H](Nc1cccc(C(=O)NCCCNC(=O)c2ccc(-c3c4nc(c(-c5cccc(S(=O)(=O)[O-])c5F)c5ccc([nH]5)c(-c5cccc(S(=O)(=O)[O-])c5F)c5nc(c(-c6cccc(S(=O)(=O)[O-])c6F)c6ccc3[nH]6)C=C5)C=C4)cc2)c1)C1CC[NH+](C)CC1
REMARK SMILES IDX 13 1 12 2 11 3 9 4 10 5 8 7 4 8 5 9 81 10 6 11 7 12 3 13
REMARK SMILES IDX 2 15 1 16 82 17 83 18 88 19 84 20 87 21 85 22 86 23 14 25
REMARK SMILES IDX 15 26 16 27 17 29 18 30 19 31 80 32 20 33 79 34 21 35 22 36
REMARK SMILES IDX 23 37 73 38 24 39 78 40 72 41 74 42 25 43 77 44 71 45 70 46
REMARK SMILES IDX 26 48 58 49 38 50 57 51 39 52 42 53 56 54 75 55 40 56 41 57
REMARK SMILES IDX 55 59 76 60 43 61 27 62 28 63 36 64 29 65 31 66 37 67 30 68
REMARK SMILES IDX 32 69 33 70 34 71 35 72 59 73 60 74 68 75 61 76 63 77 69 78
REMARK SMILES IDX 62 79 64 80 65 81 66 82 67 83 44 84 45 85 53 86 46 87 48 88
REMARK SMILES IDX 54 89 47 90 49 91 50 92 51 93 52 94
REMARK H PARENT 11 6 3 14 85 24 15 28 74 47 42 58
REMARK Flexibility Score: inf
ROOT
ATOM      1  C   UNL A   1      36.265  22.993  24.434  1.00  0.00     0.042 C 
ENDROOT
BRANCH   1   2
ATOM      2  C   UNL A   1      34.823  23.449  24.226  1.00  0.00     0.118 C 
BRANCH   2   3
ATOM      3  N   UNL A   1      34.411  23.242  22.856  1.00  0.00    -0.352 N 
ATOM      4  C   UNL A   1      33.355  23.724  22.128  1.00  0.00     0.251 C 
ATOM      5  O   UNL A   1      33.310  23.394  20.940  1.00  0.00    -0.269 OA
ATOM      6  H   UNL A   1      35.002  22.639  22.349  1.00  0.00     0.163 HD
BRANCH   4   7
ATOM      7  C   UNL A   1      32.319  24.665  22.657  1.00  0.00     0.041 A 
ATOM      8  C   UNL A   1      31.122  26.797  22.784  1.00  0.00     0.035 A 
ATOM      9  C   UNL A   1      30.204  26.198  23.655  1.00  0.00     0.026 A 
ATOM     10  C   UNL A   1      32.220  26.033  22.363  1.00  0.00     0.039 A 
ATOM     11  C   UNL A   1      30.323  24.864  24.029  1.00  0.00     0.003 A 
ATOM     12  C   UNL A   1      31.359  24.096  23.508  1.00  0.00     0.014 A 
BRANCH   8  13
ATOM     13  N   UNL A   1      30.805  28.049  22.295  1.00  0.00    -0.382 N 
ATOM     14  H   UNL A   1      30.569  28.077  21.339  1.00  0.00     0.160 HD
BRANCH  13  15
ATOM     15  C   UNL A   1      30.765  29.346  22.987  1.00  0.00     0.079 C 
ATOM     16  C   UNL A   1      31.738  29.228  24.168  1.00  0.00     0.031 C 
BRANCH  15  17
ATOM     17  C   UNL A   1      29.316  29.784  23.395  1.00  0.00     0.022 C 
ATOM     18  C   UNL A   1      28.297  29.393  22.314  1.00  0.00     0.067 C 
ATOM     19  C   UNL A   1      29.073  31.244  23.807  1.00  0.00     0.067 C 
ATOM     20  C   UNL A   1      28.223  30.381  21.164  1.00  0.00     0.262 C 
ATOM     21  C   UNL A   1      28.845  32.215  22.642  1.00  0.00     0.262 C 
ATOM     22  N   UNL A   1      27.880  31.715  21.657  1.00  0.00    -0.337 N 
ATOM     23  C   UNL A   1      27.765  32.641  20.530  1.00  0.00     0.332 C 
ATOM     24  H   UNL A   1      26.983  31.649  22.138  1.00  0.00     0.347 HD
ENDBRANCH  15  17
ENDBRANCH  13  15
ENDBRANCH   8  13
ENDBRANCH   4   7
ENDBRANCH   2   3
ENDBRANCH   1   2
BRANCH   1  25
ATOM     25  C   UNL A   1      36.551  22.586  25.871  1.00  0.00     0.118 C 
BRANCH  25  26
ATOM     26  N   UNL A   1      37.589  21.564  25.947  1.00  0.00    -0.352 N 
ATOM     27  C   UNL A   1      38.935  21.679  26.191  1.00  0.00     0.251 C 
ATOM     28  H   UNL A   1      37.273  20.644  25.801  1.00  0.00     0.163 HD
ATOM     29  O   UNL A   1      39.655  20.699  26.023  1.00  0.00    -0.269 OA
BRANCH  27  30
ATOM     30  C   UNL A   1      39.520  22.962  26.634  1.00  0.00     0.039 A 
ATOM     31  C   UNL A   1      39.269  24.110  25.876  1.00  0.00     0.014 A 
ATOM     32  C   UNL A   1      40.344  23.040  27.759  1.00  0.00     0.014 A 
ATOM     33  C   UNL A   1      39.816  25.334  26.264  1.00  0.00     0.010 A 
ATOM     34  C   UNL A   1      40.806  24.275  28.201  1.00  0.00     0.010 A 
ATOM     35  C   UNL A   1      40.573  25.430  27.443  1.00  0.00    -0.014 A 
BRANCH  35  36
ATOM     36  C   UNL A   1      41.157  26.723  27.878  1.00  0.00     0.031 A 
ATOM     37  C   UNL A   1      42.616  27.012  27.636  1.00  0.00     0.074 A 
ATOM     38  C   UNL A   1      40.391  27.608  28.546  1.00  0.00     0.049 A 
ATOM     39  N   UNL A   1      43.311  28.070  27.962  1.00  0.00    -0.248 NA
ATOM     40  C   UNL A   1      43.404  25.965  26.966  1.00  0.00     0.031 C 
ATOM     41  C   UNL A   1      38.988  27.404  28.915  1.00  0.00     0.029 A 
ATOM     42  N   UNL A   1      40.690  28.847  29.052  1.00  0.00    -0.354 N 
ATOM     43  C   UNL A   1      44.619  27.800  27.575  1.00  0.00     0.074 A 
ATOM     44  C   UNL A   1      44.630  26.462  27.031  1.00  0.00     0.031 C 
ATOM     45  C   UNL A   1      38.545  28.487  29.572  1.00  0.00     0.029 A 
ATOM     46  C   UNL A   1      39.635  29.448  29.697  1.00  0.00     0.049 A 
ATOM     47  H   UNL A   1      41.576  29.267  28.961  1.00  0.00     0.167 HD
ATOM     48  C   UNL A   1      45.707  28.605  27.634  1.00  0.00     0.034 A 
ATOM     49  C   UNL A   1      39.557  30.641  30.318  1.00  0.00     0.034 A 
ATOM     50  C   UNL A   1      45.678  29.951  28.135  1.00  0.00     0.049 A 
ATOM     51  C   UNL A   1      40.765  31.538  30.321  1.00  0.00     0.074 A 
ATOM     52  C   UNL A   1      46.701  30.882  28.164  1.00  0.00     0.029 A 
ATOM     53  N   UNL A   1      44.568  30.561  28.700  1.00  0.00    -0.354 N 
ATOM     54  N   UNL A   1      41.954  31.324  29.811  1.00  0.00    -0.248 NA
ATOM     55  C   UNL A   1      40.608  32.858  30.946  1.00  0.00     0.031 C 
ATOM     56  C   UNL A   1      46.215  32.046  28.771  1.00  0.00     0.029 A 
ATOM     57  C   UNL A   1      44.880  31.852  29.085  1.00  0.00     0.049 A 
ATOM     58  H   UNL A   1      43.687  30.135  28.811  1.00  0.00     0.167 HD
ATOM     59  C   UNL A   1      42.673  32.496  30.015  1.00  0.00     0.074 A 
ATOM     60  C   UNL A   1      41.777  33.423  30.677  1.00  0.00     0.031 C 
ATOM     61  C   UNL A   1      43.960  32.778  29.695  1.00  0.00     0.034 A 
BRANCH  48  62
ATOM     62  C   UNL A   1      47.006  28.065  27.093  1.00  0.00     0.023 A 
ATOM     63  C   UNL A   1      48.017  27.651  27.987  1.00  0.00     0.012 A 
ATOM     64  C   UNL A   1      47.215  27.927  25.707  1.00  0.00     0.148 A 
ATOM     65  C   UNL A   1      49.228  27.148  27.511  1.00  0.00     0.002 A 
ATOM     66  C   UNL A   1      48.404  27.377  25.241  1.00  0.00     0.091 A 
ATOM     67  F   UNL A   1      46.254  28.344  24.870  1.00  0.00    -0.205 F 
ATOM     68  C   UNL A   1      49.417  27.003  26.140  1.00  0.00     0.022 A 
BRANCH  66  69
ATOM     69  S   UNL A   1      48.714  27.068  23.498  1.00  0.00     0.127 S 
ATOM     70  O   UNL A   1      50.168  26.917  23.480  1.00  0.00    -0.237 OA
ATOM     71  O   UNL A   1      47.969  25.831  23.269  1.00  0.00    -0.237 OA
ATOM     72  O   UNL A   1      48.198  28.230  22.787  1.00  0.00    -0.744 OA
ENDBRANCH  66  69
ENDBRANCH  48  62
BRANCH  49  73
ATOM     73  C   UNL A   1      38.267  31.088  30.916  1.00  0.00     0.023 A 
ATOM     74  C   UNL A   1      38.028  30.870  32.287  1.00  0.00     0.012 A 
ATOM     75  C   UNL A   1      37.291  31.748  30.145  1.00  0.00     0.148 A 
ATOM     76  C   UNL A   1      36.823  31.265  32.871  1.00  0.00     0.002 A 
ATOM     77  C   UNL A   1      36.118  32.189  30.745  1.00  0.00     0.091 A 
ATOM     78  F   UNL A   1      37.535  31.940  28.841  1.00  0.00    -0.205 F 
ATOM     79  C   UNL A   1      35.874  31.933  32.103  1.00  0.00     0.022 A 
BRANCH  77  80
ATOM     80  S   UNL A   1      34.897  33.173  29.869  1.00  0.00     0.127 S 
ATOM     81  O   UNL A   1      34.302  32.184  28.975  1.00  0.00    -0.237 OA
ATOM     82  O   UNL A   1      34.030  33.620  30.960  1.00  0.00    -0.237 OA
ATOM     83  O   UNL A   1      35.645  34.243  29.221  1.00  0.00    -0.744 OA
ENDBRANCH  77  80
ENDBRANCH  49  73
BRANCH  61  84
ATOM     84  C   UNL A   1      44.467  34.162  30.007  1.00  0.00     0.023 A 
ATOM     85  C   UNL A   1      45.120  34.418  31.229  1.00  0.00     0.012 A 
ATOM     86  C   UNL A   1      44.345  35.197  29.059  1.00  0.00     0.148 A 
ATOM     87  C   UNL A   1      45.604  35.693  31.520  1.00  0.00     0.002 A 
ATOM     88  C   UNL A   1      44.879  36.451  29.333  1.00  0.00     0.091 A 
ATOM     89  F   UNL A   1      43.704  34.940  27.909  1.00  0.00    -0.205 F 
ATOM     90  C   UNL A   1      45.494  36.704  30.569  1.00  0.00     0.022 A 
BRANCH  88  91
ATOM     91  S   UNL A   1      44.872  37.780  28.126  1.00  0.00     0.127 S 
ATOM     92  O   UNL A   1      45.530  37.149  26.984  1.00  0.00    -0.237 OA
ATOM     93  O   UNL A   1      43.441  38.028  27.946  1.00  0.00    -0.237 OA
ATOM     94  O   UNL A   1      45.601  38.883  28.739  1.00  0.00    -0.744 OA
ENDBRANCH  88  91
ENDBRANCH  61  84
ENDBRANCH  35  36
ENDBRANCH  27  30
ENDBRANCH  25  26
ENDBRANCH   1  25
TORSDOF 16
ENDMDL
MODEL 2
REMARK VINA RESULT:     -12.0      5.027     10.357
REMARK SMILES C[C@@H](Nc1cccc(C(=O)NCCCNC(=O)c2ccc(-c3c4nc(c(-c5cccc(S(=O)(=O)[O-])c5F)c5ccc([nH]5)c(-c5cccc(S(=O)(=O)[O-])c5F)c5nc(c(-c6cccc(S(=O)(=O)[O-])c6F)c6ccc3[nH]6)C=C5)C=C4)cc2)c1)C1CC[NH+](C)CC1
REMARK SMILES IDX 13 1 12 2 11 3 9 4 10 5 8 7 4 8 5 9 81 10 6 11 7 12 3 13
REMARK SMILES IDX 2 15 1 16 82 17 83 18 88 19 84 20 87 21 85 22 86 23 14 25
REMARK SMILES IDX 15 26 16 27 17 29 18 30 19 31 80 32 20 33 79 34 21 35 22 36
REMARK SMILES IDX 23 37 73 38 24 39 78 40 72 41 74 42 25 43 77 44 71 45 70 46
REMARK SMILES IDX 26 48 58 49 38 50 57 51 39 52 42 53 56 54 75 55 40 56 41 57
REMARK SMILES IDX 55 59 76 60 43 61 27 62 28 63 36 64 29 65 31 66 37 67 30 68
REMARK SMILES IDX 32 69 33 70 34 71 35 72 59 73 60 74 68 75 61 76 63 77 69 78
REMARK SMILES IDX 62 79 64 80 65 81 66 82 67 83 44 84 45 85 53 86 46 87 48 88
REMARK SMILES IDX 54 89 47 90 49 91 50 92 51 93 52 94
REMARK H PARENT 11 6 3 14 85 24 15 28 74 47 42 58
REMARK Flexibility Score: inf
ROOT
ATOM      1  C   UNL A   1      31.667  28.854  25.189  1.00  0.00     0.042 C 
ENDROOT
BRANCH   1   2
ATOM      2  C   UNL A   1      31.409  28.918  23.686  1.00  0.00     0.118 C 
BRANCH   2   3
ATOM      3  N   UNL A   1      32.652  29.009  22.954  1.00  0.00    -0.352 N 
ATOM      4  C   UNL A   1      33.537  28.058  22.519  1.00  0.00     0.251 C 
ATOM      5  O   UNL A   1      34.498  28.463  21.860  1.00  0.00    -0.269 OA
ATOM      6  H   UNL A   1      32.912  29.931  22.724  1.00  0.00     0.163 HD
BRANCH   4   7
ATOM      7  C   UNL A   1      33.372  26.586  22.729  1.00  0.00     0.041 A 
ATOM      8  C   UNL A   1      33.221  24.543  24.070  1.00  0.00     0.035 A 
ATOM      9  C   UNL A   1      32.865  23.842  22.911  1.00  0.00     0.026 A 
ATOM     10  C   UNL A   1      33.551  25.900  23.940  1.00  0.00     0.039 A 
ATOM     11  C   UNL A   1      32.758  24.481  21.681  1.00  0.00     0.003 A 
ATOM     12  C   UNL A   1      32.983  25.851  21.599  1.00  0.00     0.014 A 
BRANCH   8  13
ATOM     13  N   UNL A   1      33.085  23.882  25.275  1.00  0.00    -0.382 N 
ATOM     14  H   UNL A   1      33.732  24.143  25.970  1.00  0.00     0.160 HD
BRANCH  13  15
ATOM     15  C   UNL A   1      32.120  22.848  25.676  1.00  0.00     0.079 C 
ATOM     16  C   UNL A   1      31.214  23.498  26.730  1.00  0.00     0.031 C 
BRANCH  15  17
ATOM     17  C   UNL A   1      32.802  21.519  26.153  1.00  0.00     0.022 C 
ATOM     18  C   UNL A   1      33.729  21.774  27.351  1.00  0.00     0.067 C 
ATOM     19  C   UNL A   1      33.544  20.657  25.121  1.00  0.00     0.067 C 
ATOM     20  C   UNL A   1      35.103  22.285  26.956  1.00  0.00     0.262 C 
ATOM     21  C   UNL A   1      34.989  21.085  24.838  1.00  0.00     0.262 C 
ATOM     22  N   UNL A   1      35.763  21.335  26.059  1.00  0.00    -0.337 N 
ATOM     23  C   UNL A   1      37.104  21.821  25.730  1.00  0.00     0.332 C 
ATOM     24  H   UNL A   1      35.833  20.442  26.546  1.00  0.00     0.347 HD
ENDBRANCH  15  17
ENDBRANCH  13  15
ENDBRANCH   8  13
ENDBRANCH   4   7
ENDBRANCH   2   3
ENDBRANCH   1   2
BRANCH   1  25
ATOM     25  C   UNL A   1      32.918  29.611  25.604  1.00  0.00     0.118 C 
BRANCH  25  26
ATOM     26  N   UNL A   1      32.610  30.967  26.044  1.00  0.00    -0.352 N 
ATOM     27  C   UNL A   1      33.155  31.721  27.052  1.00  0.00     0.251 C 
ATOM     28  H   UNL A   1      31.896  31.413  25.535  1.00  0.00     0.163 HD
ATOM     29  O   UNL A   1      32.611  32.775  27.367  1.00  0.00    -0.269 OA
BRANCH  27  30
ATOM     30  C   UNL A   1      34.371  31.272  27.764  1.00  0.00     0.039 A 
ATOM     31  C   UNL A   1      35.447  32.158  27.876  1.00  0.00     0.014 A 
ATOM     32  C   UNL A   1      34.479  29.980  28.283  1.00  0.00     0.014 A 
ATOM     33  C   UNL A   1      36.611  31.759  28.534  1.00  0.00     0.010 A 
ATOM     34  C   UNL A   1      35.598  29.618  29.024  1.00  0.00     0.010 A 
ATOM     35  C   UNL A   1      36.688  30.491  29.132  1.00  0.00    -0.014 A 
BRANCH  35  36
ATOM     36  C   UNL A   1      37.914  30.051  29.843  1.00  0.00     0.031 A 
ATOM     37  C   UNL A   1      38.193  30.538  31.241  1.00  0.00     0.074 A 
ATOM     38  C   UNL A   1      38.806  29.265  29.207  1.00  0.00     0.049 A 
ATOM     39  N   UNL A   1      39.217  30.285  32.013  1.00  0.00    -0.248 NA
ATOM     40  C   UNL A   1      37.208  31.454  31.841  1.00  0.00     0.031 C 
ATOM     41  C   UNL A   1      38.687  28.798  27.824  1.00  0.00     0.029 A 
ATOM     42  N   UNL A   1      39.997  28.736  29.635  1.00  0.00    -0.354 N 
ATOM     43  C   UNL A   1      39.020  31.036  33.166  1.00  0.00     0.074 A 
ATOM     44  C   UNL A   1      37.802  31.790  32.975  1.00  0.00     0.031 C 
ATOM     45  C   UNL A   1      39.754  28.040  27.523  1.00  0.00     0.029 A 
ATOM     46  C   UNL A   1      40.643  27.989  28.678  1.00  0.00     0.049 A 
ATOM     47  H   UNL A   1      40.355  28.878  30.541  1.00  0.00     0.167 HD
ATOM     48  C   UNL A   1      39.765  31.070  34.297  1.00  0.00     0.034 A 
ATOM     49  C   UNL A   1      41.820  27.337  28.729  1.00  0.00     0.034 A 
ATOM     50  C   UNL A   1      40.950  30.283  34.497  1.00  0.00     0.049 A 
ATOM     51  C   UNL A   1      42.600  27.346  30.016  1.00  0.00     0.074 A 
ATOM     52  C   UNL A   1      41.733  30.178  35.633  1.00  0.00     0.029 A 
ATOM     53  N   UNL A   1      41.528  29.466  33.536  1.00  0.00    -0.354 N 
ATOM     54  N   UNL A   1      42.317  27.941  31.149  1.00  0.00    -0.248 NA
ATOM     55  C   UNL A   1      43.841  26.558  30.044  1.00  0.00     0.031 C 
ATOM     56  C   UNL A   1      42.799  29.316  35.349  1.00  0.00     0.029 A 
ATOM     57  C   UNL A   1      42.658  28.857  34.049  1.00  0.00     0.049 A 
ATOM     58  H   UNL A   1      41.183  29.339  32.623  1.00  0.00     0.167 HD
ATOM     59  C   UNL A   1      43.319  27.567  32.038  1.00  0.00     0.074 A 
ATOM     60  C   UNL A   1      44.203  26.676  31.313  1.00  0.00     0.031 C 
ATOM     61  C   UNL A   1      43.498  27.933  33.331  1.00  0.00     0.034 A 
BRANCH  48  62
ATOM     62  C   UNL A   1      39.286  31.950  35.424  1.00  0.00     0.023 A 
ATOM     63  C   UNL A   1      38.373  31.439  36.370  1.00  0.00     0.012 A 
ATOM     64  C   UNL A   1      39.767  33.266  35.573  1.00  0.00     0.148 A 
ATOM     65  C   UNL A   1      37.915  32.233  37.421  1.00  0.00     0.002 A 
ATOM     66  C   UNL A   1      39.346  34.035  36.652  1.00  0.00     0.091 A 
ATOM     67  F   UNL A   1      40.618  33.744  34.654  1.00  0.00    -0.205 F 
ATOM     68  C   UNL A   1      38.409  33.526  37.567  1.00  0.00     0.022 A 
BRANCH  66  69
ATOM     69  S   UNL A   1      39.985  35.682  36.979  1.00  0.00     0.127 S 
ATOM     70  O   UNL A   1      39.269  36.038  38.203  1.00  0.00    -0.237 OA
ATOM     71  O   UNL A   1      41.413  35.426  37.160  1.00  0.00    -0.237 OA
ATOM     72  O   UNL A   1      39.653  36.481  35.807  1.00  0.00    -0.744 OA
ENDBRANCH  66  69
ENDBRANCH  48  62
BRANCH  49  73
ATOM     73  C   UNL A   1      42.290  26.553  27.552  1.00  0.00     0.023 A 
ATOM     74  C   UNL A   1      43.088  27.182  26.576  1.00  0.00     0.012 A 
ATOM     75  C   UNL A   1      41.975  25.189  27.405  1.00  0.00     0.148 A 
ATOM     76  C   UNL A   1      43.532  26.477  25.456  1.00  0.00     0.002 A 
ATOM     77  C   UNL A   1      42.467  24.478  26.316  1.00  0.00     0.091 A 
ATOM     78  F   UNL A   1      41.209  24.610  28.340  1.00  0.00    -0.205 F 
ATOM     79  C   UNL A   1      43.230  25.125  25.331  1.00  0.00     0.022 A 
BRANCH  77  80
ATOM     80  S   UNL A   1      42.241  22.706  26.140  1.00  0.00     0.127 S 
ATOM     81  O   UNL A   1      42.903  22.199  27.339  1.00  0.00    -0.237 OA
ATOM     82  O   UNL A   1      40.783  22.585  26.141  1.00  0.00    -0.237 OA
ATOM     83  O   UNL A   1      42.870  22.353  24.873  1.00  0.00    -0.744 OA
ENDBRANCH  77  80
ENDBRANCH  49  73
BRANCH  61  84
ATOM     84  C   UNL A   1      44.667  27.333  34.068  1.00  0.00     0.023 A 
ATOM     85  C   UNL A   1      45.909  27.996  34.083  1.00  0.00     0.012 A 
ATOM     86  C   UNL A   1      44.513  26.135  34.795  1.00  0.00     0.148 A 
ATOM     87  C   UNL A   1      46.993  27.454  34.775  1.00  0.00     0.002 A 
ATOM     88  C   UNL A   1      45.581  25.631  35.526  1.00  0.00     0.091 A 
ATOM     89  F   UNL A   1      43.328  25.508  34.753  1.00  0.00    -0.205 F 
ATOM     90  C   UNL A   1      46.826  26.280  35.504  1.00  0.00     0.022 A 
BRANCH  88  91
ATOM     91  S   UNL A   1      45.425  24.181  36.574  1.00  0.00     0.127 S 
ATOM     92  O   UNL A   1      46.796  24.006  37.049  1.00  0.00    -0.237 OA
ATOM     93  O   UNL A   1      44.479  24.636  37.595  1.00  0.00    -0.237 OA
ATOM     94  O   UNL A   1      44.918  23.119  35.716  1.00  0.00    -0.744 OA
ENDBRANCH  88  91
ENDBRANCH  61  84
ENDBRANCH  35  36
ENDBRANCH  27  30
ENDBRANCH  25  26
ENDBRANCH   1  25
TORSDOF 16
ENDMDL
MODEL 3
REMARK VINA RESULT:     -11.9      1.807      2.449
REMARK SMILES C[C@@H](Nc1cccc(C(=O)NCCCNC(=O)c2ccc(-c3c4nc(c(-c5cccc(S(=O)(=O)[O-])c5F)c5ccc([nH]5)c(-c5cccc(S(=O)(=O)[O-])c5F)c5nc(c(-c6cccc(S(=O)(=O)[O-])c6F)c6ccc3[nH]6)C=C5)C=C4)cc2)c1)C1CC[NH+](C)CC1
REMARK SMILES IDX 13 1 12 2 11 3 9 4 10 5 8 7 4 8 5 9 81 10 6 11 7 12 3 13
REMARK SMILES IDX 2 15 1 16 82 17 83 18 88 19 84 20 87 21 85 22 86 23 14 25
REMARK SMILES IDX 15 26 16 27 17 29 18 30 19 31 80 32 20 33 79 34 21 35 22 36
REMARK SMILES IDX 23 37 73 38 24 39 78 40 72 41 74 42 25 43 77 44 71 45 70 46
REMARK SMILES IDX 26 48 58 49 38 50 57 51 39 52 42 53 56 54 75 55 40 56 41 57
REMARK SMILES IDX 55 59 76 60 43 61 27 62 28 63 36 64 29 65 31 66 37 67 30 68
REMARK SMILES IDX 32 69 33 70 34 71 35 72 59 73 60 74 68 75 61 76 63 77 69 78
REMARK SMILES IDX 62 79 64 80 65 81 66 82 67 83 44 84 45 85 53 86 46 87 48 88
REMARK SMILES IDX 54 89 47 90 49 91 50 92 51 93 52 94
REMARK H PARENT 11 6 3 14 85 24 15 28 74 47 42 58
REMARK Flexibility Score: inf
ROOT
ATOM      1  C   UNL A   1      35.622  21.874  25.236  1.00  0.00     0.042 C 
ENDROOT
BRANCH   1   2
ATOM      2  C   UNL A   1      34.803  21.432  26.446  1.00  0.00     0.118 C 
BRANCH   2   3
ATOM      3  N   UNL A   1      33.905  20.356  26.095  1.00  0.00    -0.352 N 
ATOM      4  C   UNL A   1      32.714  20.334  25.417  1.00  0.00     0.251 C 
ATOM      5  O   UNL A   1      32.209  19.224  25.230  1.00  0.00    -0.269 OA
ATOM      6  H   UNL A   1      34.205  19.470  26.401  1.00  0.00     0.163 HD
BRANCH   4   7
ATOM      7  C   UNL A   1      32.045  21.540  24.837  1.00  0.00     0.041 A 
ATOM      8  C   UNL A   1      30.715  23.594  24.931  1.00  0.00     0.035 A 
ATOM      9  C   UNL A   1      31.024  23.822  23.584  1.00  0.00     0.026 A 
ATOM     10  C   UNL A   1      31.169  22.403  25.514  1.00  0.00     0.039 A 
ATOM     11  C   UNL A   1      31.825  22.942  22.864  1.00  0.00     0.003 A 
ATOM     12  C   UNL A   1      32.355  21.823  23.498  1.00  0.00     0.014 A 
BRANCH   8  13
ATOM     13  N   UNL A   1      30.107  24.622  25.622  1.00  0.00    -0.382 N 
ATOM     14  H   UNL A   1      29.547  24.342  26.382  1.00  0.00     0.160 HD
BRANCH  13  15
ATOM     15  C   UNL A   1      30.169  26.074  25.395  1.00  0.00     0.079 C 
ATOM     16  C   UNL A   1      29.253  26.357  24.197  1.00  0.00     0.031 C 
BRANCH  15  17
ATOM     17  C   UNL A   1      31.633  26.609  25.218  1.00  0.00     0.022 C 
ATOM     18  C   UNL A   1      32.261  26.955  26.578  1.00  0.00     0.067 C 
ATOM     19  C   UNL A   1      31.884  27.768  24.242  1.00  0.00     0.067 C 
ATOM     20  C   UNL A   1      31.869  28.327  27.095  1.00  0.00     0.262 C 
ATOM     21  C   UNL A   1      31.634  29.166  24.820  1.00  0.00     0.262 C 
ATOM     22  N   UNL A   1      32.252  29.364  26.136  1.00  0.00    -0.337 N 
ATOM     23  C   UNL A   1      31.912  30.681  26.674  1.00  0.00     0.332 C 
ATOM     24  H   UNL A   1      33.260  29.302  25.995  1.00  0.00     0.347 HD
ENDBRANCH  15  17
ENDBRANCH  13  15
ENDBRANCH   8  13
ENDBRANCH   4   7
ENDBRANCH   2   3
ENDBRANCH   1   2
BRANCH   1  25
ATOM     25  C   UNL A   1      36.951  22.504  25.622  1.00  0.00     0.118 C 
BRANCH  25  26
ATOM     26  N   UNL A   1      37.955  21.496  25.943  1.00  0.00    -0.352 N 
ATOM     27  C   UNL A   1      39.258  21.635  26.351  1.00  0.00     0.251 C 
ATOM     28  H   UNL A   1      37.648  20.565  25.853  1.00  0.00     0.163 HD
ATOM     29  O   UNL A   1      39.979  20.642  26.384  1.00  0.00    -0.269 OA
BRANCH  27  30
ATOM     30  C   UNL A   1      39.797  22.958  26.732  1.00  0.00     0.039 A 
ATOM     31  C   UNL A   1      40.723  23.027  27.778  1.00  0.00     0.014 A 
ATOM     32  C   UNL A   1      39.371  24.130  26.104  1.00  0.00     0.014 A 
ATOM     33  C   UNL A   1      41.241  24.263  28.167  1.00  0.00     0.010 A 
ATOM     34  C   UNL A   1      39.962  25.347  26.424  1.00  0.00     0.010 A 
ATOM     35  C   UNL A   1      40.881  25.432  27.478  1.00  0.00    -0.014 A 
BRANCH  35  36
ATOM     36  C   UNL A   1      41.427  26.755  27.871  1.00  0.00     0.031 A 
ATOM     37  C   UNL A   1      42.859  27.104  27.557  1.00  0.00     0.074 A 
ATOM     38  C   UNL A   1      40.655  27.614  28.565  1.00  0.00     0.049 A 
ATOM     39  N   UNL A   1      43.521  28.195  27.839  1.00  0.00    -0.248 NA
ATOM     40  C   UNL A   1      43.661  26.083  26.862  1.00  0.00     0.031 C 
ATOM     41  C   UNL A   1      39.281  27.355  29.001  1.00  0.00     0.029 A 
ATOM     42  N   UNL A   1      40.922  28.872  29.041  1.00  0.00    -0.354 N 
ATOM     43  C   UNL A   1      44.820  27.977  27.393  1.00  0.00     0.074 A 
ATOM     44  C   UNL A   1      44.865  26.633  26.864  1.00  0.00     0.031 C 
ATOM     45  C   UNL A   1      38.821  28.426  29.666  1.00  0.00     0.029 A 
ATOM     46  C   UNL A   1      39.873  29.435  29.729  1.00  0.00     0.049 A 
ATOM     47  H   UNL A   1      41.784  29.328  28.904  1.00  0.00     0.167 HD
ATOM     48  C   UNL A   1      45.873  28.829  27.392  1.00  0.00     0.034 A 
ATOM     49  C   UNL A   1      39.771  30.631  30.340  1.00  0.00     0.034 A 
ATOM     50  C   UNL A   1      45.809  30.180  27.879  1.00  0.00     0.049 A 
ATOM     51  C   UNL A   1      40.938  31.580  30.276  1.00  0.00     0.074 A 
ATOM     52  C   UNL A   1      46.790  31.154  27.849  1.00  0.00     0.029 A 
ATOM     53  N   UNL A   1      44.700  30.748  28.489  1.00  0.00    -0.354 N 
ATOM     54  N   UNL A   1      42.110  31.411  29.713  1.00  0.00    -0.248 NA
ATOM     55  C   UNL A   1      40.751  32.900  30.893  1.00  0.00     0.031 C 
ATOM     56  C   UNL A   1      46.282  32.304  28.465  1.00  0.00     0.029 A 
ATOM     57  C   UNL A   1      44.972  32.056  28.844  1.00  0.00     0.049 A 
ATOM     58  H   UNL A   1      43.845  30.286  28.646  1.00  0.00     0.167 HD
ATOM     59  C   UNL A   1      42.785  32.616  29.870  1.00  0.00     0.074 A 
ATOM     60  C   UNL A   1      41.880  33.511  30.562  1.00  0.00     0.031 C 
ATOM     61  C   UNL A   1      44.043  32.949  29.486  1.00  0.00     0.034 A 
BRANCH  48  62
ATOM     62  C   UNL A   1      47.169  28.339  26.797  1.00  0.00     0.023 A 
ATOM     63  C   UNL A   1      48.256  28.037  27.643  1.00  0.00     0.012 A 
ATOM     64  C   UNL A   1      47.300  28.137  25.409  1.00  0.00     0.148 A 
ATOM     65  C   UNL A   1      49.465  27.583  27.116  1.00  0.00     0.002 A 
ATOM     66  C   UNL A   1      48.491  27.635  24.896  1.00  0.00     0.091 A 
ATOM     67  F   UNL A   1      46.265  28.447  24.616  1.00  0.00    -0.205 F 
ATOM     68  C   UNL A   1      49.578  27.372  25.745  1.00  0.00     0.022 A 
BRANCH  66  69
ATOM     69  S   UNL A   1      48.711  27.248  23.155  1.00  0.00     0.127 S 
ATOM     70  O   UNL A   1      47.944  28.315  22.516  1.00  0.00    -0.237 OA
ATOM     71  O   UNL A   1      50.161  27.361  22.998  1.00  0.00    -0.237 OA
ATOM     72  O   UNL A   1      48.182  25.903  22.972  1.00  0.00    -0.744 OA
ENDBRANCH  66  69
ENDBRANCH  48  62
BRANCH  49  73
ATOM     73  C   UNL A   1      38.492  31.029  30.993  1.00  0.00     0.023 A 
ATOM     74  C   UNL A   1      38.324  30.813  32.374  1.00  0.00     0.012 A 
ATOM     75  C   UNL A   1      37.456  31.642  30.262  1.00  0.00     0.148 A 
ATOM     76  C   UNL A   1      37.132  31.163  33.010  1.00  0.00     0.002 A 
ATOM     77  C   UNL A   1      36.293  32.040  30.912  1.00  0.00     0.091 A 
ATOM     78  F   UNL A   1      37.633  31.833  28.948  1.00  0.00    -0.205 F 
ATOM     79  C   UNL A   1      36.122  31.785  32.282  1.00  0.00     0.022 A 
BRANCH  77  80
ATOM     80  S   UNL A   1      34.995  32.965  30.087  1.00  0.00     0.127 S 
ATOM     81  O   UNL A   1      34.562  32.021  29.060  1.00  0.00    -0.237 OA
ATOM     82  O   UNL A   1      34.038  33.178  31.173  1.00  0.00    -0.237 OA
ATOM     83  O   UNL A   1      35.628  34.184  29.599  1.00  0.00    -0.744 OA
ENDBRANCH  77  80
ENDBRANCH  49  73
BRANCH  61  84
ATOM     84  C   UNL A   1      44.501  34.358  29.759  1.00  0.00     0.023 A 
ATOM     85  C   UNL A   1      45.001  34.706  31.029  1.00  0.00     0.012 A 
ATOM     86  C   UNL A   1      44.490  35.323  28.732  1.00  0.00     0.148 A 
ATOM     87  C   UNL A   1      45.441  36.005  31.286  1.00  0.00     0.002 A 
ATOM     88  C   UNL A   1      44.982  36.599  28.980  1.00  0.00     0.091 A 
ATOM     89  F   UNL A   1      43.995  34.979  27.534  1.00  0.00    -0.205 F 
ATOM     90  C   UNL A   1      45.442  36.946  30.260  1.00  0.00     0.022 A 
BRANCH  88  91
ATOM     91  S   UNL A   1      45.115  37.842  27.690  1.00  0.00     0.127 S 
ATOM     92  O   UNL A   1      46.122  37.252  26.811  1.00  0.00    -0.237 OA
ATOM     93  O   UNL A   1      43.760  37.862  27.138  1.00  0.00    -0.237 OA
ATOM     94  O   UNL A   1      45.511  39.074  28.359  1.00  0.00    -0.744 OA
ENDBRANCH  88  91
ENDBRANCH  61  84
ENDBRANCH  35  36
ENDBRANCH  27  30
ENDBRANCH  25  26
ENDBRANCH   1  25
TORSDOF 16
ENDMDL
