MODEL 1
REMARK VINA RESULT:     -13.0      0.000      0.000
REMARK SMILES Cc1cnn(C2(C(=O)NCCCNC(=O)c3ccc(-c4c5nc(c(-c6cccc(S(=O)(=O)[O-])c6F)c6ccc([nH]6)c(-c6cccc(S(=O)(=O)[O-])c6F)c6nc(c(-c7cccc(S(=O)(=O)[O-])c7F)c7ccc4[nH]7)C=C6)C=C5)cc3)CCN(C(=O)c3cscn3)CC2)c1
REMARK SMILES IDX 12 1 11 2 10 3 9 4 7 5 8 6 6 8 79 9 90 10 80 11 89 12 81 13
REMARK SMILES IDX 82 14 83 15 5 16 1 17 2 18 3 19 91 20 4 21 84 22 85 23 88 24
REMARK SMILES IDX 86 25 87 26 13 27 14 28 15 30 16 31 17 32 78 33 18 34 77 35
REMARK SMILES IDX 19 36 20 37 21 38 71 39 22 40 76 41 70 42 72 43 23 44 75 45
REMARK SMILES IDX 69 46 68 47 24 49 56 50 36 51 55 52 37 53 40 54 54 55 73 56
REMARK SMILES IDX 38 57 39 58 53 60 74 61 41 62 25 63 26 64 34 65 27 66 29 67
REMARK SMILES IDX 35 68 28 69 30 70 31 71 32 72 33 73 57 74 58 75 66 76 59 77
REMARK SMILES IDX 61 78 67 79 60 80 62 81 63 82 64 83 65 84 42 85 43 86 51 87
REMARK SMILES IDX 44 88 46 89 52 90 45 91 47 92 48 93 49 94 50 95
REMARK H PARENT 9 7 13 29 72 48 40 59
REMARK Flexibility Score: inf
ROOT
ATOM      1  C   UNL A   1      38.783  20.394  25.624  1.00  0.00     0.118 C 
ENDROOT
BRANCH   1   2
ATOM      2  C   UNL A   1      37.513  19.973  24.902  1.00  0.00     0.042 C 
BRANCH   2   3
ATOM      3  C   UNL A   1      36.333  20.916  25.147  1.00  0.00     0.117 C 
BRANCH   3   4
ATOM      4  N   UNL A   1      36.156  21.926  24.107  1.00  0.00    -0.354 N 
ATOM      5  C   UNL A   1      35.076  22.668  23.677  1.00  0.00     0.248 C 
ATOM      6  O   UNL A   1      35.376  23.523  22.845  1.00  0.00    -0.272 OA
ATOM      7  H   UNL A   1      36.983  22.117  23.607  1.00  0.00     0.163 HD
BRANCH   5   8
ATOM      8  C   UNL A   1      33.640  22.429  24.254  1.00  0.00     0.144 C 
ATOM      9  C   UNL A   1      33.679  22.898  25.732  1.00  0.00     0.062 C 
ATOM     10  C   UNL A   1      32.668  23.193  23.320  1.00  0.00     0.062 C 
ATOM     11  C   UNL A   1      32.389  23.492  26.268  1.00  0.00     0.123 C 
ATOM     12  C   UNL A   1      31.438  23.770  23.997  1.00  0.00     0.123 C 
ATOM     13  N   UNL A   1      31.720  24.353  25.303  1.00  0.00    -0.337 N 
ATOM     14  C   UNL A   1      31.272  25.608  25.743  1.00  0.00     0.273 C 
ATOM     15  O   UNL A   1      31.525  26.037  26.867  1.00  0.00    -0.267 OA
BRANCH   8  16
ATOM     16  N   UNL A   1      33.179  20.999  24.263  1.00  0.00    -0.257 N 
ATOM     17  C   UNL A   1      32.607  17.670  25.697  1.00  0.00     0.048 C 
ATOM     18  C   UNL A   1      32.730  18.921  24.917  1.00  0.00    -0.013 A 
ATOM     19  C   UNL A   1      32.385  19.153  23.574  1.00  0.00     0.138 A 
ATOM     20  C   UNL A   1      33.208  20.139  25.342  1.00  0.00     0.113 A 
ATOM     21  N   UNL A   1      32.597  20.414  23.206  1.00  0.00    -0.180 NA
ENDBRANCH   8  16
BRANCH  14  22
ATOM     22  C   UNL A   1      30.469  26.413  24.816  1.00  0.00     0.139 A 
ATOM     23  C   UNL A   1      30.966  27.450  24.044  1.00  0.00     0.100 A 
ATOM     24  N   UNL A   1      29.120  26.135  24.608  1.00  0.00    -0.240 NA
ATOM     25  S   UNL A   1      29.721  28.112  23.069  1.00  0.00    -0.130 S 
ATOM     26  C   UNL A   1      28.631  26.954  23.706  1.00  0.00     0.176 A 
ENDBRANCH  14  22
ENDBRANCH   5   8
ENDBRANCH   3   4
ENDBRANCH   2   3
ENDBRANCH   1   2
BRANCH   1  27
ATOM     27  N   UNL A   1      39.789  19.336  25.656  1.00  0.00    -0.352 N 
ATOM     28  C   UNL A   1      41.139  19.457  25.928  1.00  0.00     0.251 C 
ATOM     29  H   UNL A   1      39.468  18.427  25.461  1.00  0.00     0.163 HD
ATOM     30  O   UNL A   1      41.913  18.567  25.624  1.00  0.00    -0.269 OA
BRANCH  28  31
ATOM     31  C   UNL A   1      41.628  20.696  26.566  1.00  0.00     0.039 A 
ATOM     32  C   UNL A   1      42.024  21.776  25.774  1.00  0.00     0.014 A 
ATOM     33  C   UNL A   1      41.648  20.786  27.958  1.00  0.00     0.014 A 
ATOM     34  C   UNL A   1      42.349  22.981  26.389  1.00  0.00     0.010 A 
ATOM     35  C   UNL A   1      41.866  22.007  28.560  1.00  0.00     0.010 A 
ATOM     36  C   UNL A   1      42.237  23.104  27.784  1.00  0.00    -0.014 A 
BRANCH  36  37
ATOM     37  C   UNL A   1      42.335  24.426  28.403  1.00  0.00     0.031 A 
ATOM     38  C   UNL A   1      41.147  25.298  28.175  1.00  0.00     0.074 A 
ATOM     39  C   UNL A   1      43.290  24.771  29.293  1.00  0.00     0.049 A 
ATOM     40  N   UNL A   1      41.091  26.398  27.498  1.00  0.00    -0.248 NA
ATOM     41  C   UNL A   1      39.835  24.813  28.630  1.00  0.00     0.031 C 
ATOM     42  C   UNL A   1      44.322  23.896  29.862  1.00  0.00     0.029 A 
ATOM     43  N   UNL A   1      43.449  25.931  29.998  1.00  0.00    -0.354 N 
ATOM     44  C   UNL A   1      39.785  26.868  27.654  1.00  0.00     0.074 A 
ATOM     45  C   UNL A   1      39.023  25.760  28.156  1.00  0.00     0.031 C 
ATOM     46  C   UNL A   1      44.814  24.459  30.987  1.00  0.00     0.029 A 
ATOM     47  C   UNL A   1      44.265  25.795  31.117  1.00  0.00     0.049 A 
ATOM     48  H   UNL A   1      43.027  26.781  29.738  1.00  0.00     0.167 HD
ATOM     49  C   UNL A   1      39.516  28.204  27.626  1.00  0.00     0.034 A 
ATOM     50  C   UNL A   1      44.458  26.696  32.107  1.00  0.00     0.034 A 
ATOM     51  C   UNL A   1      40.652  28.939  27.124  1.00  0.00     0.049 A 
ATOM     52  C   UNL A   1      44.088  28.023  31.575  1.00  0.00     0.074 A 
ATOM     53  C   UNL A   1      41.323  29.059  25.928  1.00  0.00     0.029 A 
ATOM     54  N   UNL A   1      41.467  29.442  28.104  1.00  0.00    -0.354 N 
ATOM     55  N   UNL A   1      44.759  28.637  30.641  1.00  0.00    -0.248 NA
ATOM     56  C   UNL A   1      42.771  28.573  31.862  1.00  0.00     0.031 C 
ATOM     57  C   UNL A   1      42.666  29.389  26.274  1.00  0.00     0.029 A 
ATOM     58  C   UNL A   1      42.758  29.493  27.664  1.00  0.00     0.049 A 
ATOM     59  H   UNL A   1      41.166  29.724  28.998  1.00  0.00     0.167 HD
ATOM     60  C   UNL A   1      43.789  29.315  29.925  1.00  0.00     0.074 A 
ATOM     61  C   UNL A   1      42.649  29.406  30.826  1.00  0.00     0.031 C 
ATOM     62  C   UNL A   1      43.889  29.439  28.569  1.00  0.00     0.034 A 
BRANCH  49  63
ATOM     63  C   UNL A   1      38.465  28.929  28.461  1.00  0.00     0.023 A 
ATOM     64  C   UNL A   1      37.694  29.914  27.790  1.00  0.00     0.012 A 
ATOM     65  C   UNL A   1      38.395  28.936  29.872  1.00  0.00     0.148 A 
ATOM     66  C   UNL A   1      36.984  30.903  28.480  1.00  0.00     0.002 A 
ATOM     67  C   UNL A   1      37.632  29.882  30.555  1.00  0.00     0.091 A 
ATOM     68  F   UNL A   1      39.153  28.109  30.590  1.00  0.00    -0.205 F 
ATOM     69  C   UNL A   1      36.955  30.890  29.865  1.00  0.00     0.022 A 
BRANCH  67  70
ATOM     70  S   UNL A   1      37.522  29.892  32.351  1.00  0.00     0.127 S 
ATOM     71  O   UNL A   1      38.864  30.331  32.723  1.00  0.00    -0.237 OA
ATOM     72  O   UNL A   1      36.462  30.874  32.578  1.00  0.00    -0.237 OA
ATOM     73  O   UNL A   1      37.166  28.531  32.733  1.00  0.00    -0.744 OA
ENDBRANCH  67  70
ENDBRANCH  49  63
BRANCH  50  74
ATOM     74  C   UNL A   1      44.834  26.506  33.525  1.00  0.00     0.023 A 
ATOM     75  C   UNL A   1      46.161  26.745  33.933  1.00  0.00     0.012 A 
ATOM     76  C   UNL A   1      43.845  26.358  34.522  1.00  0.00     0.148 A 
ATOM     77  C   UNL A   1      46.487  26.878  35.287  1.00  0.00     0.002 A 
ATOM     78  C   UNL A   1      44.175  26.486  35.868  1.00  0.00     0.091 A 
ATOM     79  F   UNL A   1      42.571  26.183  34.143  1.00  0.00    -0.205 F 
ATOM     80  C   UNL A   1      45.493  26.760  36.254  1.00  0.00     0.022 A 
BRANCH  78  81
ATOM     81  S   UNL A   1      42.944  26.377  37.174  1.00  0.00     0.127 S 
ATOM     82  O   UNL A   1      42.391  25.040  36.958  1.00  0.00    -0.237 OA
ATOM     83  O   UNL A   1      43.767  26.512  38.373  1.00  0.00    -0.237 OA
ATOM     84  O   UNL A   1      42.006  27.463  36.923  1.00  0.00    -0.744 OA
ENDBRANCH  78  81
ENDBRANCH  50  74
BRANCH  62  85
ATOM     85  C   UNL A   1      45.248  29.274  27.947  1.00  0.00     0.023 A 
ATOM     86  C   UNL A   1      46.213  30.300  27.933  1.00  0.00     0.012 A 
ATOM     87  C   UNL A   1      45.604  27.996  27.483  1.00  0.00     0.148 A 
ATOM     88  C   UNL A   1      47.500  30.060  27.445  1.00  0.00     0.002 A 
ATOM     89  C   UNL A   1      46.899  27.746  27.053  1.00  0.00     0.091 A 
ATOM     90  F   UNL A   1      44.669  27.033  27.494  1.00  0.00    -0.205 F 
ATOM     91  C   UNL A   1      47.848  28.780  27.021  1.00  0.00     0.022 A 
BRANCH  89  92
ATOM     92  S   UNL A   1      47.434  26.087  26.630  1.00  0.00     0.127 S 
ATOM     93  O   UNL A   1      47.111  25.343  27.845  1.00  0.00    -0.237 OA
ATOM     94  O   UNL A   1      46.594  25.769  25.474  1.00  0.00    -0.237 OA
ATOM     95  O   UNL A   1      48.853  26.197  26.317  1.00  0.00    -0.744 OA
ENDBRANCH  89  92
ENDBRANCH  62  85
ENDBRANCH  36  37
ENDBRANCH  28  31
ENDBRANCH   1  27
TORSDOF 15
ENDMDL
MODEL 2
REMARK VINA RESULT:     -12.8      4.122      9.273
REMARK SMILES Cc1cnn(C2(C(=O)NCCCNC(=O)c3ccc(-c4c5nc(c(-c6cccc(S(=O)(=O)[O-])c6F)c6ccc([nH]6)c(-c6cccc(S(=O)(=O)[O-])c6F)c6nc(c(-c7cccc(S(=O)(=O)[O-])c7F)c7ccc4[nH]7)C=C6)C=C5)cc3)CCN(C(=O)c3cscn3)CC2)c1
REMARK SMILES IDX 12 1 11 2 10 3 9 4 7 5 8 6 6 8 79 9 90 10 80 11 89 12 81 13
REMARK SMILES IDX 82 14 83 15 5 16 1 17 2 18 3 19 91 20 4 21 84 22 85 23 88 24
REMARK SMILES IDX 86 25 87 26 13 27 14 28 15 30 16 31 17 32 78 33 18 34 77 35
REMARK SMILES IDX 19 36 20 37 21 38 71 39 22 40 76 41 70 42 72 43 23 44 75 45
REMARK SMILES IDX 69 46 68 47 24 49 56 50 36 51 55 52 37 53 40 54 54 55 73 56
REMARK SMILES IDX 38 57 39 58 53 60 74 61 41 62 25 63 26 64 34 65 27 66 29 67
REMARK SMILES IDX 35 68 28 69 30 70 31 71 32 72 33 73 57 74 58 75 66 76 59 77
REMARK SMILES IDX 61 78 67 79 60 80 62 81 63 82 64 83 65 84 42 85 43 86 51 87
REMARK SMILES IDX 44 88 46 89 52 90 45 91 47 92 48 93 49 94 50 95
REMARK H PARENT 9 7 13 29 72 48 40 59
REMARK Flexibility Score: inf
ROOT
ATOM      1  C   UNL A   1      32.612  32.264  27.063  1.00  0.00     0.118 C 
ENDROOT
BRANCH   1   2
ATOM      2  C   UNL A   1      31.376  31.466  26.683  1.00  0.00     0.042 C 
BRANCH   2   3
ATOM      3  C   UNL A   1      31.645  30.390  25.630  1.00  0.00     0.117 C 
BRANCH   3   4
ATOM      4  N   UNL A   1      32.144  29.133  26.182  1.00  0.00    -0.354 N 
ATOM      5  C   UNL A   1      32.208  27.842  25.701  1.00  0.00     0.248 C 
ATOM      6  O   UNL A   1      32.833  27.081  26.437  1.00  0.00    -0.272 OA
ATOM      7  H   UNL A   1      32.513  29.228  27.090  1.00  0.00     0.163 HD
BRANCH   5   8
ATOM      8  C   UNL A   1      31.564  27.451  24.327  1.00  0.00     0.144 C 
ATOM      9  C   UNL A   1      30.145  26.912  24.648  1.00  0.00     0.062 C 
ATOM     10  C   UNL A   1      31.628  28.722  23.445  1.00  0.00     0.062 C 
ATOM     11  C   UNL A   1      29.084  27.185  23.596  1.00  0.00     0.123 C 
ATOM     12  C   UNL A   1      30.482  28.889  22.464  1.00  0.00     0.123 C 
ATOM     13  N   UNL A   1      29.187  28.520  23.024  1.00  0.00    -0.337 N 
ATOM     14  C   UNL A   1      28.014  29.283  22.923  1.00  0.00     0.273 C 
ATOM     15  O   UNL A   1      26.945  28.906  23.399  1.00  0.00    -0.267 OA
BRANCH   8  16
ATOM     16  N   UNL A   1      32.277  26.371  23.565  1.00  0.00    -0.257 N 
ATOM     17  C   UNL A   1      33.130  22.925  22.638  1.00  0.00     0.048 C 
ATOM     18  C   UNL A   1      32.945  24.379  22.835  1.00  0.00    -0.013 A 
ATOM     19  C   UNL A   1      33.619  25.440  22.205  1.00  0.00     0.138 A 
ATOM     20  C   UNL A   1      32.064  25.013  23.682  1.00  0.00     0.113 A 
ATOM     21  N   UNL A   1      33.172  26.630  22.600  1.00  0.00    -0.180 NA
ENDBRANCH   8  16
BRANCH  14  22
ATOM     22  C   UNL A   1      28.088  30.564  22.214  1.00  0.00     0.139 A 
ATOM     23  C   UNL A   1      27.899  30.719  20.850  1.00  0.00     0.100 A 
ATOM     24  N   UNL A   1      28.308  31.754  22.904  1.00  0.00    -0.240 NA
ATOM     25  S   UNL A   1      28.032  32.372  20.417  1.00  0.00    -0.130 S 
ATOM     26  C   UNL A   1      28.286  32.764  22.066  1.00  0.00     0.176 A 
ENDBRANCH  14  22
ENDBRANCH   5   8
ENDBRANCH   3   4
ENDBRANCH   2   3
ENDBRANCH   1   2
BRANCH   1  27
ATOM     27  N   UNL A   1      32.296  33.624  27.490  1.00  0.00    -0.352 N 
ATOM     28  C   UNL A   1      32.953  34.392  28.434  1.00  0.00     0.251 C 
ATOM     29  H   UNL A   1      31.522  34.046  27.053  1.00  0.00     0.163 HD
ATOM     30  O   UNL A   1      32.415  35.374  28.915  1.00  0.00    -0.269 OA
BRANCH  28  31
ATOM     31  C   UNL A   1      34.303  33.983  28.869  1.00  0.00     0.039 A 
ATOM     32  C   UNL A   1      34.452  33.135  29.969  1.00  0.00     0.014 A 
ATOM     33  C   UNL A   1      35.415  34.417  28.148  1.00  0.00     0.014 A 
ATOM     34  C   UNL A   1      35.718  32.648  30.280  1.00  0.00     0.010 A 
ATOM     35  C   UNL A   1      36.649  33.852  28.389  1.00  0.00     0.010 A 
ATOM     36  C   UNL A   1      36.813  32.983  29.466  1.00  0.00    -0.014 A 
BRANCH  36  37
ATOM     37  C   UNL A   1      38.085  32.281  29.640  1.00  0.00     0.031 A 
ATOM     38  C   UNL A   1      38.088  30.883  29.121  1.00  0.00     0.074 A 
ATOM     39  C   UNL A   1      39.232  32.884  30.019  1.00  0.00     0.049 A 
ATOM     40  N   UNL A   1      38.199  29.787  29.798  1.00  0.00    -0.248 NA
ATOM     41  C   UNL A   1      37.783  30.672  27.698  1.00  0.00     0.031 C 
ATOM     42  C   UNL A   1      39.443  34.321  30.234  1.00  0.00     0.029 A 
ATOM     43  N   UNL A   1      40.490  32.368  30.142  1.00  0.00    -0.354 N 
ATOM     44  C   UNL A   1      38.227  28.762  28.851  1.00  0.00     0.074 A 
ATOM     45  C   UNL A   1      37.748  29.341  27.627  1.00  0.00     0.031 C 
ATOM     46  C   UNL A   1      40.765  34.589  30.197  1.00  0.00     0.029 A 
ATOM     47  C   UNL A   1      41.492  33.335  30.133  1.00  0.00     0.049 A 
ATOM     48  H   UNL A   1      40.672  31.405  30.230  1.00  0.00     0.167 HD
ATOM     49  C   UNL A   1      38.911  27.608  29.090  1.00  0.00     0.034 A 
ATOM     50  C   UNL A   1      42.827  33.134  30.046  1.00  0.00     0.034 A 
ATOM     51  C   UNL A   1      39.277  27.516  30.483  1.00  0.00     0.049 A 
ATOM     52  C   UNL A   1      43.093  31.746  30.474  1.00  0.00     0.074 A 
ATOM     53  C   UNL A   1      38.625  27.368  31.686  1.00  0.00     0.029 A 
ATOM     54  N   UNL A   1      40.546  27.957  30.757  1.00  0.00    -0.354 N 
ATOM     55  N   UNL A   1      42.929  31.327  31.698  1.00  0.00    -0.248 NA
ATOM     56  C   UNL A   1      43.265  30.703  29.474  1.00  0.00     0.031 C 
ATOM     57  C   UNL A   1      39.458  28.003  32.654  1.00  0.00     0.029 A 
ATOM     58  C   UNL A   1      40.602  28.483  32.015  1.00  0.00     0.049 A 
ATOM     59  H   UNL A   1      41.307  27.903  30.134  1.00  0.00     0.167 HD
ATOM     60  C   UNL A   1      42.509  30.017  31.547  1.00  0.00     0.074 A 
ATOM     61  C   UNL A   1      42.928  29.638  30.206  1.00  0.00     0.031 C 
ATOM     62  C   UNL A   1      41.577  29.487  32.392  1.00  0.00     0.034 A 
BRANCH  49  63
ATOM     63  C   UNL A   1      39.677  26.783  28.060  1.00  0.00     0.023 A 
ATOM     64  C   UNL A   1      39.516  25.375  28.132  1.00  0.00     0.012 A 
ATOM     65  C   UNL A   1      40.743  27.249  27.259  1.00  0.00     0.148 A 
ATOM     66  C   UNL A   1      40.417  24.489  27.531  1.00  0.00     0.002 A 
ATOM     67  C   UNL A   1      41.599  26.364  26.606  1.00  0.00     0.091 A 
ATOM     68  F   UNL A   1      41.028  28.550  27.204  1.00  0.00    -0.205 F 
ATOM     69  C   UNL A   1      41.464  24.984  26.769  1.00  0.00     0.022 A 
BRANCH  67  70
ATOM     70  S   UNL A   1      42.952  26.946  25.571  1.00  0.00     0.127 S 
ATOM     71  O   UNL A   1      43.871  27.487  26.568  1.00  0.00    -0.237 OA
ATOM     72  O   UNL A   1      43.390  25.705  24.932  1.00  0.00    -0.237 OA
ATOM     73  O   UNL A   1      42.362  27.913  24.655  1.00  0.00    -0.744 OA
ENDBRANCH  67  70
ENDBRANCH  49  63
BRANCH  50  74
ATOM     74  C   UNL A   1      43.901  34.002  29.516  1.00  0.00     0.023 A 
ATOM     75  C   UNL A   1      44.731  34.709  30.409  1.00  0.00     0.012 A 
ATOM     76  C   UNL A   1      44.288  33.929  28.160  1.00  0.00     0.148 A 
ATOM     77  C   UNL A   1      45.931  35.285  29.977  1.00  0.00     0.002 A 
ATOM     78  C   UNL A   1      45.480  34.508  27.734  1.00  0.00     0.091 A 
ATOM     79  F   UNL A   1      43.533  33.215  27.313  1.00  0.00    -0.205 F 
ATOM     80  C   UNL A   1      46.311  35.175  28.643  1.00  0.00     0.022 A 
BRANCH  78  81
ATOM     81  S   UNL A   1      46.055  34.384  26.035  1.00  0.00     0.127 S 
ATOM     82  O   UNL A   1      46.548  33.007  25.983  1.00  0.00    -0.237 OA
ATOM     83  O   UNL A   1      44.825  34.622  25.284  1.00  0.00    -0.237 OA
ATOM     84  O   UNL A   1      47.091  35.399  25.896  1.00  0.00    -0.744 OA
ENDBRANCH  78  81
ENDBRANCH  50  74
BRANCH  62  85
ATOM     85  C   UNL A   1      41.387  30.146  33.730  1.00  0.00     0.023 A 
ATOM     86  C   UNL A   1      42.243  29.915  34.825  1.00  0.00     0.012 A 
ATOM     87  C   UNL A   1      40.391  31.132  33.839  1.00  0.00     0.148 A 
ATOM     88  C   UNL A   1      42.093  30.638  36.011  1.00  0.00     0.002 A 
ATOM     89  C   UNL A   1      40.281  31.887  34.997  1.00  0.00     0.091 A 
ATOM     90  F   UNL A   1      39.579  31.331  32.790  1.00  0.00    -0.205 F 
ATOM     91  C   UNL A   1      41.123  31.635  36.092  1.00  0.00     0.022 A 
BRANCH  89  92
ATOM     92  S   UNL A   1      39.147  33.272  35.099  1.00  0.00     0.127 S 
ATOM     93  O   UNL A   1      37.877  32.608  35.381  1.00  0.00    -0.237 OA
ATOM     94  O   UNL A   1      39.694  34.048  36.215  1.00  0.00    -0.237 OA
ATOM     95  O   UNL A   1      39.232  33.950  33.811  1.00  0.00    -0.744 OA
ENDBRANCH  89  92
ENDBRANCH  62  85
ENDBRANCH  36  37
ENDBRANCH  28  31
ENDBRANCH   1  27
TORSDOF 15
ENDMDL
MODEL 3
REMARK VINA RESULT:     -12.7      3.949      9.469
REMARK SMILES Cc1cnn(C2(C(=O)NCCCNC(=O)c3ccc(-c4c5nc(c(-c6cccc(S(=O)(=O)[O-])c6F)c6ccc([nH]6)c(-c6cccc(S(=O)(=O)[O-])c6F)c6nc(c(-c7cccc(S(=O)(=O)[O-])c7F)c7ccc4[nH]7)C=C6)C=C5)cc3)CCN(C(=O)c3cscn3)CC2)c1
REMARK SMILES IDX 12 1 11 2 10 3 9 4 7 5 8 6 6 8 79 9 90 10 80 11 89 12 81 13
REMARK SMILES IDX 82 14 83 15 5 16 1 17 2 18 3 19 91 20 4 21 84 22 85 23 88 24
REMARK SMILES IDX 86 25 87 26 13 27 14 28 15 30 16 31 17 32 78 33 18 34 77 35
REMARK SMILES IDX 19 36 20 37 21 38 71 39 22 40 76 41 70 42 72 43 23 44 75 45
REMARK SMILES IDX 69 46 68 47 24 49 56 50 36 51 55 52 37 53 40 54 54 55 73 56
REMARK SMILES IDX 38 57 39 58 53 60 74 61 41 62 25 63 26 64 34 65 27 66 29 67
REMARK SMILES IDX 35 68 28 69 30 70 31 71 32 72 33 73 57 74 58 75 66 76 59 77
REMARK SMILES IDX 61 78 67 79 60 80 62 81 63 82 64 83 65 84 42 85 43 86 51 87
REMARK SMILES IDX 44 88 46 89 52 90 45 91 47 92 48 93 49 94 50 95
REMARK H PARENT 9 7 13 29 72 48 40 59
REMARK Flexibility Score: inf
ROOT
ATOM      1  C   UNL A   1      32.608  32.041  26.976  1.00  0.00     0.118 C 
ENDROOT
BRANCH   1   2
ATOM      2  C   UNL A   1      31.513  31.378  26.155  1.00  0.00     0.042 C 
BRANCH   2   3
ATOM      3  C   UNL A   1      31.813  29.920  25.806  1.00  0.00     0.117 C 
BRANCH   3   4
ATOM      4  N   UNL A   1      32.962  29.747  24.920  1.00  0.00    -0.354 N 
ATOM      5  C   UNL A   1      33.190  28.979  23.797  1.00  0.00     0.248 C 
ATOM      6  O   UNL A   1      34.267  29.222  23.255  1.00  0.00    -0.272 OA
ATOM      7  H   UNL A   1      33.737  30.295  25.180  1.00  0.00     0.163 HD
BRANCH   5   8
ATOM      8  C   UNL A   1      32.131  27.944  23.288  1.00  0.00     0.144 C 
ATOM      9  C   UNL A   1      32.670  27.394  21.941  1.00  0.00     0.062 C 
ATOM     10  C   UNL A   1      31.958  26.909  24.428  1.00  0.00     0.062 C 
ATOM     11  C   UNL A   1      32.322  25.948  21.635  1.00  0.00     0.123 C 
ATOM     12  C   UNL A   1      31.653  25.492  23.977  1.00  0.00     0.123 C 
ATOM     13  N   UNL A   1      32.418  25.085  22.804  1.00  0.00    -0.337 N 
ATOM     14  C   UNL A   1      33.107  23.870  22.669  1.00  0.00     0.273 C 
ATOM     15  O   UNL A   1      33.717  23.574  21.644  1.00  0.00    -0.267 OA
BRANCH   8  16
ATOM     16  N   UNL A   1      30.763  28.502  23.014  1.00  0.00    -0.257 N 
ATOM     17  C   UNL A   1      27.100  28.623  23.165  1.00  0.00     0.048 C 
ATOM     18  C   UNL A   1      28.557  28.785  22.977  1.00  0.00    -0.013 A 
ATOM     19  C   UNL A   1      29.242  29.768  22.243  1.00  0.00     0.138 A 
ATOM     20  C   UNL A   1      29.568  28.003  23.490  1.00  0.00     0.113 A 
ATOM     21  N   UNL A   1      30.563  29.631  22.319  1.00  0.00    -0.180 NA
ENDBRANCH   8  16
BRANCH  14  22
ATOM     22  C   UNL A   1      33.076  22.936  23.798  1.00  0.00     0.139 A 
ATOM     23  C   UNL A   1      32.241  21.833  23.883  1.00  0.00     0.100 A 
ATOM     24  N   UNL A   1      33.956  23.075  24.869  1.00  0.00    -0.240 NA
ATOM     25  S   UNL A   1      32.536  20.976  25.338  1.00  0.00    -0.130 S 
ATOM     26  C   UNL A   1      33.770  22.099  25.727  1.00  0.00     0.176 A 
ENDBRANCH  14  22
ENDBRANCH   5   8
ENDBRANCH   3   4
ENDBRANCH   2   3
ENDBRANCH   1   2
BRANCH   1  27
ATOM     27  N   UNL A   1      32.279  33.414  27.349  1.00  0.00    -0.352 N 
ATOM     28  C   UNL A   1      32.925  34.222  28.266  1.00  0.00     0.251 C 
ATOM     29  H   UNL A   1      31.504  33.813  26.893  1.00  0.00     0.163 HD
ATOM     30  O   UNL A   1      32.377  35.216  28.708  1.00  0.00    -0.269 OA
BRANCH  28  31
ATOM     31  C   UNL A   1      34.276  33.840  28.723  1.00  0.00     0.039 A 
ATOM     32  C   UNL A   1      34.425  33.023  29.847  1.00  0.00     0.014 A 
ATOM     33  C   UNL A   1      35.389  34.267  27.999  1.00  0.00     0.014 A 
ATOM     34  C   UNL A   1      35.694  32.559  30.181  1.00  0.00     0.010 A 
ATOM     35  C   UNL A   1      36.627  33.723  28.266  1.00  0.00     0.010 A 
ATOM     36  C   UNL A   1      36.791  32.885  29.367  1.00  0.00    -0.014 A 
BRANCH  36  37
ATOM     37  C   UNL A   1      38.070  32.202  29.571  1.00  0.00     0.031 A 
ATOM     38  C   UNL A   1      38.100  30.798  29.070  1.00  0.00     0.074 A 
ATOM     39  C   UNL A   1      39.202  32.826  29.959  1.00  0.00     0.049 A 
ATOM     40  N   UNL A   1      38.215  29.713  29.763  1.00  0.00    -0.248 NA
ATOM     41  C   UNL A   1      37.820  30.565  27.645  1.00  0.00     0.031 C 
ATOM     42  C   UNL A   1      39.391  34.268  30.158  1.00  0.00     0.029 A 
ATOM     43  N   UNL A   1      40.465  32.328  30.109  1.00  0.00    -0.354 N 
ATOM     44  C   UNL A   1      38.271  28.676  28.830  1.00  0.00     0.074 A 
ATOM     45  C   UNL A   1      37.804  29.232  27.591  1.00  0.00     0.031 C 
ATOM     46  C   UNL A   1      40.711  34.553  30.138  1.00  0.00     0.029 A 
ATOM     47  C   UNL A   1      41.454  33.308  30.103  1.00  0.00     0.049 A 
ATOM     48  H   UNL A   1      40.658  31.369  30.212  1.00  0.00     0.167 HD
ATOM     49  C   UNL A   1      38.967  27.534  29.095  1.00  0.00     0.034 A 
ATOM     50  C   UNL A   1      42.793  33.124  30.039  1.00  0.00     0.034 A 
ATOM     51  C   UNL A   1      39.312  27.465  30.495  1.00  0.00     0.049 A 
ATOM     52  C   UNL A   1      43.071  31.745  30.490  1.00  0.00     0.074 A 
ATOM     53  C   UNL A   1      38.642  27.324  31.689  1.00  0.00     0.029 A 
ATOM     54  N   UNL A   1      40.569  27.926  30.782  1.00  0.00    -0.354 N 
ATOM     55  N   UNL A   1      42.893  31.340  31.717  1.00  0.00    -0.248 NA
ATOM     56  C   UNL A   1      43.272  30.692  29.506  1.00  0.00     0.031 C 
ATOM     57  C   UNL A   1      39.451  27.982  32.661  1.00  0.00     0.029 A 
ATOM     58  C   UNL A   1      40.599  28.469  32.034  1.00  0.00     0.049 A 
ATOM     59  H   UNL A   1      41.341  27.875  30.173  1.00  0.00     0.167 HD
ATOM     60  C   UNL A   1      42.492  30.023  31.576  1.00  0.00     0.074 A 
ATOM     61  C   UNL A   1      42.938  29.631  30.246  1.00  0.00     0.031 C 
ATOM     62  C   UNL A   1      41.555  29.491  32.414  1.00  0.00     0.034 A 
BRANCH  49  63
ATOM     63  C   UNL A   1      39.759  26.706  28.088  1.00  0.00     0.023 A 
ATOM     64  C   UNL A   1      39.652  25.296  28.206  1.00  0.00     0.012 A 
ATOM     65  C   UNL A   1      40.804  27.187  27.267  1.00  0.00     0.148 A 
ATOM     66  C   UNL A   1      40.585  24.426  27.629  1.00  0.00     0.002 A 
ATOM     67  C   UNL A   1      41.691  26.314  26.639  1.00  0.00     0.091 A 
ATOM     68  F   UNL A   1      41.038  28.495  27.169  1.00  0.00    -0.205 F 
ATOM     69  C   UNL A   1      41.609  24.936  26.847  1.00  0.00     0.022 A 
BRANCH  67  70
ATOM     70  S   UNL A   1      43.016  26.913  25.579  1.00  0.00     0.127 S 
ATOM     71  O   UNL A   1      43.914  27.528  26.552  1.00  0.00    -0.237 OA
ATOM     72  O   UNL A   1      43.504  25.669  24.983  1.00  0.00    -0.237 OA
ATOM     73  O   UNL A   1      42.384  27.821  24.630  1.00  0.00    -0.744 OA
ENDBRANCH  67  70
ENDBRANCH  49  63
BRANCH  50  74
ATOM     74  C   UNL A   1      43.864  34.000  29.515  1.00  0.00     0.023 A 
ATOM     75  C   UNL A   1      44.624  34.782  30.406  1.00  0.00     0.012 A 
ATOM     76  C   UNL A   1      44.321  33.867  28.186  1.00  0.00     0.148 A 
ATOM     77  C   UNL A   1      45.825  35.375  30.002  1.00  0.00     0.002 A 
ATOM     78  C   UNL A   1      45.513  34.464  27.787  1.00  0.00     0.091 A 
ATOM     79  F   UNL A   1      43.633  33.082  27.344  1.00  0.00    -0.205 F 
ATOM     80  C   UNL A   1      46.275  35.207  28.697  1.00  0.00     0.022 A 
BRANCH  78  81
ATOM     81  S   UNL A   1      46.178  34.269  26.128  1.00  0.00     0.127 S 
ATOM     82  O   UNL A   1      47.318  35.185  26.149  1.00  0.00    -0.237 OA
ATOM     83  O   UNL A   1      46.532  32.851  26.111  1.00  0.00    -0.237 OA
ATOM     84  O   UNL A   1      45.105  34.665  25.225  1.00  0.00    -0.744 OA
ENDBRANCH  78  81
ENDBRANCH  50  74
BRANCH  62  85
ATOM     85  C   UNL A   1      41.335  30.165  33.740  1.00  0.00     0.023 A 
ATOM     86  C   UNL A   1      42.180  29.964  34.849  1.00  0.00     0.012 A 
ATOM     87  C   UNL A   1      40.321  31.134  33.821  1.00  0.00     0.148 A 
ATOM     88  C   UNL A   1      42.000  30.700  36.023  1.00  0.00     0.002 A 
ATOM     89  C   UNL A   1      40.181  31.903  34.968  1.00  0.00     0.091 A 
ATOM     90  F   UNL A   1      39.519  31.305  32.759  1.00  0.00    -0.205 F 
ATOM     91  C   UNL A   1      41.013  31.681  36.077  1.00  0.00     0.022 A 
BRANCH  89  92
ATOM     92  S   UNL A   1      39.021  33.269  35.035  1.00  0.00     0.127 S 
ATOM     93  O   UNL A   1      37.735  32.582  34.965  1.00  0.00    -0.237 OA
ATOM     94  O   UNL A   1      39.323  33.876  36.334  1.00  0.00    -0.237 OA
ATOM     95  O   UNL A   1      39.345  34.120  33.896  1.00  0.00    -0.744 OA
ENDBRANCH  89  92
ENDBRANCH  62  85
ENDBRANCH  36  37
ENDBRANCH  28  31
ENDBRANCH   1  27
TORSDOF 15
ENDMDL
