MODEL 1
REMARK VINA RESULT:     -13.6      0.000      0.000
REMARK SMILES Cc1ccnc(C(=O)c2[nH]c3cc(Cl)c(F)cc3c2CC(=O)NCCCNC(=O)c2ccc(-c3c4nc(c(-c5cccc(S(=O)(=O)[O-])c5F)c5ccc([nH]5)c(-c5cccc(S(=O)(=O)[O-])c5F)c5nc(c(-c6cccc(S(=O)(=O)[O-])c6F)c6ccc3[nH]6)C=C5)C=C4)cc2)c1
REMARK SMILES IDX 25 1 24 2 23 3 21 4 22 5 20 7 19 8 9 9 10 10 11 11 18 13
REMARK SMILES IDX 12 14 17 15 13 16 15 17 14 18 16 19 7 20 8 21 6 22 1 23 2 24
REMARK SMILES IDX 3 25 93 26 4 27 5 28 26 29 27 30 28 31 29 33 30 34 31 35
REMARK SMILES IDX 92 36 32 37 91 38 33 39 34 40 35 41 85 42 36 43 90 44 84 45
REMARK SMILES IDX 86 46 37 47 89 48 83 49 82 50 38 52 70 53 50 54 69 55 51 56
REMARK SMILES IDX 54 57 68 58 87 59 52 60 53 61 67 63 88 64 55 65 39 66 40 67
REMARK SMILES IDX 48 68 41 69 43 70 49 71 42 72 44 73 45 74 46 75 47 76 71 77
REMARK SMILES IDX 72 78 80 79 73 80 75 81 81 82 74 83 76 84 77 85 78 86 79 87
REMARK SMILES IDX 56 88 57 89 65 90 58 91 60 92 66 93 59 94 61 95 62 96 63 97
REMARK SMILES IDX 64 98
REMARK H PARENT 23 6 10 12 27 32 86 51 54 62
REMARK Flexibility Score: inf
ROOT
ATOM      1  C   UNL A   1      32.603  28.758  27.159  1.00  0.00     0.042 C 
ENDROOT
BRANCH   1   2
ATOM      2  C   UNL A   1      32.463  27.618  26.154  1.00  0.00     0.117 C 
BRANCH   2   3
ATOM      3  N   UNL A   1      31.678  26.478  26.595  1.00  0.00    -0.356 N 
ATOM      4  C   UNL A   1      31.903  25.136  26.541  1.00  0.00     0.224 C 
ATOM      5  O   UNL A   1      31.130  24.416  27.182  1.00  0.00    -0.275 OA
ATOM      6  H   UNL A   1      30.820  26.722  27.013  1.00  0.00     0.163 HD
BRANCH   4   7
ATOM      7  C   UNL A   1      33.065  24.517  25.792  1.00  0.00     0.138 C 
BRANCH   7   8
ATOM      8  C   UNL A   1      32.747  23.806  24.508  1.00  0.00    -0.002 A 
ATOM      9  C   UNL A   1      32.415  24.327  23.253  1.00  0.00     0.093 A 
ATOM     10  N   UNL A   1      32.079  23.246  22.457  1.00  0.00    -0.351 N 
ATOM     11  C   UNL A   1      32.269  22.055  23.109  1.00  0.00     0.048 A 
ATOM     12  H   UNL A   1      31.744  23.322  21.533  1.00  0.00     0.167 HD
ATOM     13  C   UNL A   1      32.620  22.370  24.417  1.00  0.00     0.007 A 
ATOM     14  C   UNL A   1      32.137  20.736  22.649  1.00  0.00     0.050 A 
ATOM     15  C   UNL A   1      32.794  21.309  25.332  1.00  0.00     0.051 A 
ATOM     16  C   UNL A   1      32.374  19.704  23.564  1.00  0.00     0.078 A 
ATOM     17  C   UNL A   1      32.687  19.991  24.887  1.00  0.00     0.142 A 
ATOM     18  Cl  UNL A   1      32.268  18.071  23.031  1.00  0.00    -0.081 Cl
ATOM     19  F   UNL A   1      32.907  19.006  25.773  1.00  0.00    -0.205 F 
BRANCH   9  20
ATOM     20  C   UNL A   1      32.249  25.677  22.707  1.00  0.00     0.227 C 
ATOM     21  O   UNL A   1      33.190  26.206  22.115  1.00  0.00    -0.285 OA
BRANCH  20  22
ATOM     22  C   UNL A   1      31.014  26.505  22.958  1.00  0.00     0.113 A 
ATOM     23  C   UNL A   1      29.529  29.942  22.273  1.00  0.00     0.044 C 
ATOM     24  C   UNL A   1      29.705  28.518  22.708  1.00  0.00    -0.047 A 
ATOM     25  C   UNL A   1      28.682  27.892  23.411  1.00  0.00     0.023 A 
ATOM     26  C   UNL A   1      30.866  27.782  22.434  1.00  0.00     0.036 A 
ATOM     27  C   UNL A   1      28.880  26.595  23.847  1.00  0.00     0.112 A 
ATOM     28  N   UNL A   1      30.016  25.892  23.648  1.00  0.00    -0.253 NA
ENDBRANCH  20  22
ENDBRANCH   9  20
ENDBRANCH   7   8
ENDBRANCH   4   7
ENDBRANCH   2   3
ENDBRANCH   1   2
BRANCH   1  29
ATOM     29  C   UNL A   1      33.922  29.519  27.188  1.00  0.00     0.118 C 
BRANCH  29  30
ATOM     30  N   UNL A   1      34.080  30.517  28.224  1.00  0.00    -0.352 N 
ATOM     31  C   UNL A   1      35.146  31.208  28.731  1.00  0.00     0.251 C 
ATOM     32  H   UNL A   1      33.230  30.750  28.662  1.00  0.00     0.163 HD
ATOM     33  O   UNL A   1      34.897  32.133  29.504  1.00  0.00    -0.269 OA
BRANCH  31  34
ATOM     34  C   UNL A   1      36.544  30.792  28.506  1.00  0.00     0.039 A 
ATOM     35  C   UNL A   1      36.913  29.611  27.867  1.00  0.00     0.014 A 
ATOM     36  C   UNL A   1      37.529  31.612  29.069  1.00  0.00     0.014 A 
ATOM     37  C   UNL A   1      38.182  29.100  28.059  1.00  0.00     0.010 A 
ATOM     38  C   UNL A   1      38.832  31.155  29.162  1.00  0.00     0.010 A 
ATOM     39  C   UNL A   1      39.120  29.848  28.769  1.00  0.00    -0.014 A 
BRANCH  39  40
ATOM     40  C   UNL A   1      40.415  29.234  29.035  1.00  0.00     0.031 A 
ATOM     41  C   UNL A   1      40.700  28.932  30.470  1.00  0.00     0.074 A 
ATOM     42  C   UNL A   1      41.236  28.864  28.030  1.00  0.00     0.049 A 
ATOM     43  N   UNL A   1      41.722  29.281  31.185  1.00  0.00    -0.248 NA
ATOM     44  C   UNL A   1      39.645  28.242  31.231  1.00  0.00     0.031 C 
ATOM     45  C   UNL A   1      40.948  28.858  26.590  1.00  0.00     0.029 A 
ATOM     46  N   UNL A   1      42.440  28.236  28.102  1.00  0.00    -0.354 N 
ATOM     47  C   UNL A   1      41.527  28.693  32.437  1.00  0.00     0.074 A 
ATOM     48  C   UNL A   1      40.179  28.189  32.451  1.00  0.00     0.031 C 
ATOM     49  C   UNL A   1      41.777  27.982  25.983  1.00  0.00     0.029 A 
ATOM     50  C   UNL A   1      42.733  27.498  26.960  1.00  0.00     0.049 A 
ATOM     51  H   UNL A   1      43.041  28.297  28.880  1.00  0.00     0.167 HD
ATOM     52  C   UNL A   1      42.538  28.485  33.324  1.00  0.00     0.034 A 
ATOM     53  C   UNL A   1      43.606  26.465  26.877  1.00  0.00     0.034 A 
ATOM     54  C   UNL A   1      43.703  29.264  33.027  1.00  0.00     0.049 A 
ATOM     55  C   UNL A   1      44.518  26.556  28.040  1.00  0.00     0.074 A 
ATOM     56  C   UNL A   1      43.991  30.612  32.974  1.00  0.00     0.029 A 
ATOM     57  N   UNL A   1      44.743  28.633  32.390  1.00  0.00    -0.354 N 
ATOM     58  N   UNL A   1      45.372  27.525  28.216  1.00  0.00    -0.248 NA
ATOM     59  C   UNL A   1      44.180  25.790  29.229  1.00  0.00     0.031 C 
ATOM     60  C   UNL A   1      44.909  30.747  31.893  1.00  0.00     0.029 A 
ATOM     61  C   UNL A   1      45.150  29.469  31.383  1.00  0.00     0.049 A 
ATOM     62  H   UNL A   1      45.122  27.753  32.612  1.00  0.00     0.167 HD
ATOM     63  C   UNL A   1      45.343  27.769  29.583  1.00  0.00     0.074 A 
ATOM     64  C   UNL A   1      44.671  26.607  30.163  1.00  0.00     0.031 C 
ATOM     65  C   UNL A   1      45.601  29.011  30.089  1.00  0.00     0.034 A 
BRANCH  52  66
ATOM     66  C   UNL A   1      42.577  27.350  34.315  1.00  0.00     0.023 A 
ATOM     67  C   UNL A   1      42.146  27.597  35.636  1.00  0.00     0.012 A 
ATOM     68  C   UNL A   1      43.251  26.131  34.072  1.00  0.00     0.148 A 
ATOM     69  C   UNL A   1      42.389  26.683  36.668  1.00  0.00     0.002 A 
ATOM     70  C   UNL A   1      43.419  25.192  35.083  1.00  0.00     0.091 A 
ATOM     71  F   UNL A   1      43.849  25.929  32.894  1.00  0.00    -0.205 F 
ATOM     72  C   UNL A   1      43.014  25.473  36.388  1.00  0.00     0.022 A 
BRANCH  70  73
ATOM     73  S   UNL A   1      44.162  23.590  34.756  1.00  0.00     0.127 S 
ATOM     74  O   UNL A   1      44.298  23.049  36.104  1.00  0.00    -0.237 OA
ATOM     75  O   UNL A   1      43.141  22.946  33.929  1.00  0.00    -0.237 OA
ATOM     76  O   UNL A   1      45.402  23.881  34.047  1.00  0.00    -0.744 OA
ENDBRANCH  70  73
ENDBRANCH  52  66
BRANCH  53  77
ATOM     77  C   UNL A   1      43.463  25.219  26.089  1.00  0.00     0.023 A 
ATOM     78  C   UNL A   1      44.413  24.915  25.096  1.00  0.00     0.012 A 
ATOM     79  C   UNL A   1      42.568  24.202  26.493  1.00  0.00     0.148 A 
ATOM     80  C   UNL A   1      44.487  23.632  24.541  1.00  0.00     0.002 A 
ATOM     81  C   UNL A   1      42.640  22.931  25.932  1.00  0.00     0.091 A 
ATOM     82  F   UNL A   1      41.712  24.452  27.492  1.00  0.00    -0.205 F 
ATOM     83  C   UNL A   1      43.607  22.639  24.964  1.00  0.00     0.022 A 
BRANCH  81  84
ATOM     84  S   UNL A   1      41.555  21.592  26.451  1.00  0.00     0.127 S 
ATOM     85  O   UNL A   1      42.049  20.475  25.643  1.00  0.00    -0.237 OA
ATOM     86  O   UNL A   1      41.854  21.497  27.876  1.00  0.00    -0.237 OA
ATOM     87  O   UNL A   1      40.204  22.022  26.114  1.00  0.00    -0.744 OA
ENDBRANCH  81  84
ENDBRANCH  53  77
BRANCH  65  88
ATOM     88  C   UNL A   1      46.116  30.077  29.151  1.00  0.00     0.023 A 
ATOM     89  C   UNL A   1      47.486  30.186  28.828  1.00  0.00     0.012 A 
ATOM     90  C   UNL A   1      45.186  30.840  28.425  1.00  0.00     0.148 A 
ATOM     91  C   UNL A   1      47.919  31.047  27.817  1.00  0.00     0.002 A 
ATOM     92  C   UNL A   1      45.617  31.661  27.388  1.00  0.00     0.091 A 
ATOM     93  F   UNL A   1      43.887  30.722  28.738  1.00  0.00    -0.205 F 
ATOM     94  C   UNL A   1      46.983  31.774  27.086  1.00  0.00     0.022 A 
BRANCH  92  95
ATOM     95  S   UNL A   1      44.445  32.510  26.326  1.00  0.00     0.127 S 
ATOM     96  O   UNL A   1      43.578  31.414  25.891  1.00  0.00    -0.237 OA
ATOM     97  O   UNL A   1      43.811  33.459  27.247  1.00  0.00    -0.237 OA
ATOM     98  O   UNL A   1      45.236  33.139  25.282  1.00  0.00    -0.744 OA
ENDBRANCH  92  95
ENDBRANCH  65  88
ENDBRANCH  39  40
ENDBRANCH  31  34
ENDBRANCH  29  30
ENDBRANCH   1  29
TORSDOF 16
ENDMDL
MODEL 2
REMARK VINA RESULT:     -13.6      3.556      7.457
REMARK SMILES Cc1ccnc(C(=O)c2[nH]c3cc(Cl)c(F)cc3c2CC(=O)NCCCNC(=O)c2ccc(-c3c4nc(c(-c5cccc(S(=O)(=O)[O-])c5F)c5ccc([nH]5)c(-c5cccc(S(=O)(=O)[O-])c5F)c5nc(c(-c6cccc(S(=O)(=O)[O-])c6F)c6ccc3[nH]6)C=C5)C=C4)cc2)c1
REMARK SMILES IDX 25 1 24 2 23 3 21 4 22 5 20 7 19 8 9 9 10 10 11 11 18 13
REMARK SMILES IDX 12 14 17 15 13 16 15 17 14 18 16 19 7 20 8 21 6 22 1 23 2 24
REMARK SMILES IDX 3 25 93 26 4 27 5 28 26 29 27 30 28 31 29 33 30 34 31 35
REMARK SMILES IDX 92 36 32 37 91 38 33 39 34 40 35 41 85 42 36 43 90 44 84 45
REMARK SMILES IDX 86 46 37 47 89 48 83 49 82 50 38 52 70 53 50 54 69 55 51 56
REMARK SMILES IDX 54 57 68 58 87 59 52 60 53 61 67 63 88 64 55 65 39 66 40 67
REMARK SMILES IDX 48 68 41 69 43 70 49 71 42 72 44 73 45 74 46 75 47 76 71 77
REMARK SMILES IDX 72 78 80 79 73 80 75 81 81 82 74 83 76 84 77 85 78 86 79 87
REMARK SMILES IDX 56 88 57 89 65 90 58 91 60 92 66 93 59 94 61 95 62 96 63 97
REMARK SMILES IDX 64 98
REMARK H PARENT 23 6 10 12 27 32 86 51 54 62
REMARK Flexibility Score: inf
ROOT
ATOM      1  C   UNL A   1      36.665  22.532  24.275  1.00  0.00     0.042 C 
ENDROOT
BRANCH   1   2
ATOM      2  C   UNL A   1      35.534  23.525  24.533  1.00  0.00     0.117 C 
BRANCH   2   3
ATOM      3  N   UNL A   1      34.814  23.984  23.358  1.00  0.00    -0.356 N 
ATOM      4  C   UNL A   1      33.968  25.031  23.155  1.00  0.00     0.224 C 
ATOM      5  O   UNL A   1      33.663  25.281  21.983  1.00  0.00    -0.275 OA
ATOM      6  H   UNL A   1      34.968  23.433  22.556  1.00  0.00     0.163 HD
BRANCH   4   7
ATOM      7  C   UNL A   1      33.446  25.909  24.273  1.00  0.00     0.138 C 
BRANCH   7   8
ATOM      8  C   UNL A   1      31.963  25.912  24.503  1.00  0.00    -0.002 A 
ATOM      9  C   UNL A   1      31.171  25.046  25.265  1.00  0.00     0.093 A 
ATOM     10  N   UNL A   1      29.856  25.404  25.024  1.00  0.00    -0.351 N 
ATOM     11  C   UNL A   1      29.769  26.512  24.223  1.00  0.00     0.048 A 
ATOM     12  H   UNL A   1      29.077  24.921  25.386  1.00  0.00     0.167 HD
ATOM     13  C   UNL A   1      31.065  26.816  23.821  1.00  0.00     0.007 A 
ATOM     14  C   UNL A   1      28.648  27.249  23.810  1.00  0.00     0.050 A 
ATOM     15  C   UNL A   1      31.247  27.879  22.911  1.00  0.00     0.051 A 
ATOM     16  C   UNL A   1      28.866  28.335  22.955  1.00  0.00     0.078 A 
ATOM     17  C   UNL A   1      30.146  28.636  22.507  1.00  0.00     0.142 A 
ATOM     18  Cl  UNL A   1      27.525  29.295  22.461  1.00  0.00    -0.081 Cl
ATOM     19  F   UNL A   1      30.362  29.671  21.680  1.00  0.00    -0.205 F 
BRANCH   9  20
ATOM     20  C   UNL A   1      31.436  23.865  26.092  1.00  0.00     0.227 C 
ATOM     21  O   UNL A   1      31.280  23.938  27.311  1.00  0.00    -0.285 OA
BRANCH  20  22
ATOM     22  C   UNL A   1      32.025  22.597  25.526  1.00  0.00     0.113 A 
ATOM     23  C   UNL A   1      32.119  20.503  22.349  1.00  0.00     0.044 C 
ATOM     24  C   UNL A   1      32.385  21.026  23.728  1.00  0.00    -0.047 A 
ATOM     25  C   UNL A   1      33.216  20.306  24.578  1.00  0.00     0.023 A 
ATOM     26  C   UNL A   1      31.829  22.223  24.204  1.00  0.00     0.036 A 
ATOM     27  C   UNL A   1      33.412  20.777  25.864  1.00  0.00     0.112 A 
ATOM     28  N   UNL A   1      32.834  21.892  26.360  1.00  0.00    -0.253 NA
ENDBRANCH  20  22
ENDBRANCH   9  20
ENDBRANCH   7   8
ENDBRANCH   4   7
ENDBRANCH   2   3
ENDBRANCH   1   2
BRANCH   1  29
ATOM     29  C   UNL A   1      37.274  21.825  25.478  1.00  0.00     0.118 C 
BRANCH  29  30
ATOM     30  N   UNL A   1      38.065  20.643  25.211  1.00  0.00    -0.352 N 
ATOM     31  C   UNL A   1      39.274  20.181  25.656  1.00  0.00     0.251 C 
ATOM     32  H   UNL A   1      37.639  20.036  24.565  1.00  0.00     0.163 HD
ATOM     33  O   UNL A   1      39.578  19.027  25.354  1.00  0.00    -0.269 OA
BRANCH  31  34
ATOM     34  C   UNL A   1      40.257  21.049  26.332  1.00  0.00     0.039 A 
ATOM     35  C   UNL A   1      40.682  20.872  27.646  1.00  0.00     0.014 A 
ATOM     36  C   UNL A   1      40.692  22.167  25.609  1.00  0.00     0.014 A 
ATOM     37  C   UNL A   1      41.260  21.927  28.325  1.00  0.00     0.010 A 
ATOM     38  C   UNL A   1      41.376  23.180  26.256  1.00  0.00     0.010 A 
ATOM     39  C   UNL A   1      41.542  23.108  27.639  1.00  0.00    -0.014 A 
BRANCH  39  40
ATOM     40  C   UNL A   1      42.060  24.232  28.410  1.00  0.00     0.031 A 
ATOM     41  C   UNL A   1      41.210  25.461  28.405  1.00  0.00     0.074 A 
ATOM     42  C   UNL A   1      43.172  24.112  29.165  1.00  0.00     0.049 A 
ATOM     43  N   UNL A   1      41.541  26.674  28.098  1.00  0.00    -0.248 NA
ATOM     44  C   UNL A   1      39.773  25.281  28.671  1.00  0.00     0.031 C 
ATOM     45  C   UNL A   1      43.928  22.889  29.464  1.00  0.00     0.029 A 
ATOM     46  N   UNL A   1      43.752  25.034  29.978  1.00  0.00    -0.354 N 
ATOM     47  C   UNL A   1      40.397  27.445  28.316  1.00  0.00     0.074 A 
ATOM     48  C   UNL A   1      39.312  26.523  28.528  1.00  0.00     0.031 C 
ATOM     49  C   UNL A   1      44.625  23.075  30.605  1.00  0.00     0.029 A 
ATOM     50  C   UNL A   1      44.481  24.459  31.013  1.00  0.00     0.049 A 
ATOM     51  H   UNL A   1      43.665  26.007  29.848  1.00  0.00     0.167 HD
ATOM     52  C   UNL A   1      40.434  28.794  28.494  1.00  0.00     0.034 A 
ATOM     53  C   UNL A   1      44.813  25.053  32.185  1.00  0.00     0.034 A 
ATOM     54  C   UNL A   1      41.666  29.376  28.052  1.00  0.00     0.049 A 
ATOM     55  C   UNL A   1      44.692  26.516  31.994  1.00  0.00     0.074 A 
ATOM     56  C   UNL A   1      42.313  29.492  26.840  1.00  0.00     0.029 A 
ATOM     57  N   UNL A   1      42.603  29.681  29.008  1.00  0.00    -0.354 N 
ATOM     58  N   UNL A   1      45.457  27.208  31.196  1.00  0.00    -0.248 NA
ATOM     59  C   UNL A   1      43.437  27.149  32.368  1.00  0.00     0.031 C 
ATOM     60  C   UNL A   1      43.698  29.368  27.152  1.00  0.00     0.029 A 
ATOM     61  C   UNL A   1      43.806  29.224  28.537  1.00  0.00     0.049 A 
ATOM     62  H   UNL A   1      42.443  30.138  29.865  1.00  0.00     0.167 HD
ATOM     63  C   UNL A   1      44.606  28.147  30.627  1.00  0.00     0.074 A 
ATOM     64  C   UNL A   1      43.405  28.127  31.460  1.00  0.00     0.031 C 
ATOM     65  C   UNL A   1      44.830  28.643  29.374  1.00  0.00     0.034 A 
BRANCH  52  66
ATOM     66  C   UNL A   1      39.453  29.565  29.340  1.00  0.00     0.023 A 
ATOM     67  C   UNL A   1      38.892  30.746  28.810  1.00  0.00     0.012 A 
ATOM     68  C   UNL A   1      39.256  29.318  30.719  1.00  0.00     0.148 A 
ATOM     69  C   UNL A   1      38.183  31.645  29.615  1.00  0.00     0.002 A 
ATOM     70  C   UNL A   1      38.484  30.173  31.496  1.00  0.00     0.091 A 
ATOM     71  F   UNL A   1      39.922  28.324  31.315  1.00  0.00    -0.205 F 
ATOM     72  C   UNL A   1      37.967  31.351  30.957  1.00  0.00     0.022 A 
BRANCH  70  73
ATOM     73  S   UNL A   1      38.124  29.803  33.217  1.00  0.00     0.127 S 
ATOM     74  O   UNL A   1      37.359  30.979  33.616  1.00  0.00    -0.237 OA
ATOM     75  O   UNL A   1      37.349  28.567  33.104  1.00  0.00    -0.237 OA
ATOM     76  O   UNL A   1      39.426  29.630  33.851  1.00  0.00    -0.744 OA
ENDBRANCH  70  73
ENDBRANCH  52  66
BRANCH  53  77
ATOM     77  C   UNL A   1      44.853  24.440  33.532  1.00  0.00     0.023 A 
ATOM     78  C   UNL A   1      43.680  23.882  34.074  1.00  0.00     0.012 A 
ATOM     79  C   UNL A   1      46.085  24.151  34.163  1.00  0.00     0.148 A 
ATOM     80  C   UNL A   1      43.734  23.043  35.194  1.00  0.00     0.002 A 
ATOM     81  C   UNL A   1      46.133  23.325  35.281  1.00  0.00     0.091 A 
ATOM     82  F   UNL A   1      47.217  24.609  33.613  1.00  0.00    -0.205 F 
ATOM     83  C   UNL A   1      44.959  22.758  35.792  1.00  0.00     0.022 A 
BRANCH  81  84
ATOM     84  S   UNL A   1      47.682  22.890  36.086  1.00  0.00     0.127 S 
ATOM     85  O   UNL A   1      47.217  22.088  37.219  1.00  0.00    -0.237 OA
ATOM     86  O   UNL A   1      48.363  22.135  35.040  1.00  0.00    -0.237 OA
ATOM     87  O   UNL A   1      48.302  24.154  36.463  1.00  0.00    -0.744 OA
ENDBRANCH  81  84
ENDBRANCH  53  77
BRANCH  65  88
ATOM     88  C   UNL A   1      46.132  28.302  28.688  1.00  0.00     0.023 A 
ATOM     89  C   UNL A   1      47.302  29.065  28.891  1.00  0.00     0.012 A 
ATOM     90  C   UNL A   1      46.231  27.080  28.002  1.00  0.00     0.148 A 
ATOM     91  C   UNL A   1      48.538  28.628  28.406  1.00  0.00     0.002 A 
ATOM     92  C   UNL A   1      47.470  26.627  27.561  1.00  0.00     0.091 A 
ATOM     93  F   UNL A   1      45.113  26.361  27.822  1.00  0.00    -0.205 F 
ATOM     94  C   UNL A   1      48.624  27.401  27.754  1.00  0.00     0.022 A 
BRANCH  92  95
ATOM     95  S   UNL A   1      47.661  24.994  26.841  1.00  0.00     0.127 S 
ATOM     96  O   UNL A   1      47.176  25.205  25.475  1.00  0.00    -0.237 OA
ATOM     97  O   UNL A   1      49.105  24.767  26.945  1.00  0.00    -0.237 OA
ATOM     98  O   UNL A   1      46.861  24.100  27.661  1.00  0.00    -0.744 OA
ENDBRANCH  92  95
ENDBRANCH  65  88
ENDBRANCH  39  40
ENDBRANCH  31  34
ENDBRANCH  29  30
ENDBRANCH   1  29
TORSDOF 16
ENDMDL
MODEL 3
REMARK VINA RESULT:     -13.6      2.280      3.802
REMARK SMILES Cc1ccnc(C(=O)c2[nH]c3cc(Cl)c(F)cc3c2CC(=O)NCCCNC(=O)c2ccc(-c3c4nc(c(-c5cccc(S(=O)(=O)[O-])c5F)c5ccc([nH]5)c(-c5cccc(S(=O)(=O)[O-])c5F)c5nc(c(-c6cccc(S(=O)(=O)[O-])c6F)c6ccc3[nH]6)C=C5)C=C4)cc2)c1
REMARK SMILES IDX 25 1 24 2 23 3 21 4 22 5 20 7 19 8 9 9 10 10 11 11 18 13
REMARK SMILES IDX 12 14 17 15 13 16 15 17 14 18 16 19 7 20 8 21 6 22 1 23 2 24
REMARK SMILES IDX 3 25 93 26 4 27 5 28 26 29 27 30 28 31 29 33 30 34 31 35
REMARK SMILES IDX 92 36 32 37 91 38 33 39 34 40 35 41 85 42 36 43 90 44 84 45
REMARK SMILES IDX 86 46 37 47 89 48 83 49 82 50 38 52 70 53 50 54 69 55 51 56
REMARK SMILES IDX 54 57 68 58 87 59 52 60 53 61 67 63 88 64 55 65 39 66 40 67
REMARK SMILES IDX 48 68 41 69 43 70 49 71 42 72 44 73 45 74 46 75 47 76 71 77
REMARK SMILES IDX 72 78 80 79 73 80 75 81 81 82 74 83 76 84 77 85 78 86 79 87
REMARK SMILES IDX 56 88 57 89 65 90 58 91 60 92 66 93 59 94 61 95 62 96 63 97
REMARK SMILES IDX 64 98
REMARK H PARENT 23 6 10 12 27 32 86 51 54 62
REMARK Flexibility Score: inf
ROOT
ATOM      1  C   UNL A   1      33.717  30.995  27.380  1.00  0.00     0.042 C 
ENDROOT
BRANCH   1   2
ATOM      2  C   UNL A   1      34.517  29.733  27.064  1.00  0.00     0.117 C 
BRANCH   2   3
ATOM      3  N   UNL A   1      33.764  28.490  27.062  1.00  0.00    -0.356 N 
ATOM      4  C   UNL A   1      33.454  27.611  26.070  1.00  0.00     0.224 C 
ATOM      5  O   UNL A   1      32.960  26.532  26.418  1.00  0.00    -0.275 OA
ATOM      6  H   UNL A   1      33.411  28.237  27.946  1.00  0.00     0.163 HD
BRANCH   4   7
ATOM      7  C   UNL A   1      33.735  27.874  24.606  1.00  0.00     0.138 C 
BRANCH   7   8
ATOM      8  C   UNL A   1      32.576  27.761  23.658  1.00  0.00    -0.002 A 
ATOM      9  C   UNL A   1      32.354  26.853  22.617  1.00  0.00     0.093 A 
ATOM     10  N   UNL A   1      31.207  27.276  21.967  1.00  0.00    -0.351 N 
ATOM     11  C   UNL A   1      30.633  28.351  22.595  1.00  0.00     0.048 A 
ATOM     12  H   UNL A   1      30.846  26.855  21.153  1.00  0.00     0.167 HD
ATOM     13  C   UNL A   1      31.501  28.725  23.615  1.00  0.00     0.007 A 
ATOM     14  C   UNL A   1      29.434  29.028  22.324  1.00  0.00     0.050 A 
ATOM     15  C   UNL A   1      31.181  29.873  24.372  1.00  0.00     0.051 A 
ATOM     16  C   UNL A   1      29.114  30.126  23.130  1.00  0.00     0.078 A 
ATOM     17  C   UNL A   1      29.982  30.545  24.130  1.00  0.00     0.142 A 
ATOM     18  Cl  UNL A   1      27.630  30.957  22.863  1.00  0.00    -0.081 Cl
ATOM     19  F   UNL A   1      29.686  31.604  24.901  1.00  0.00    -0.205 F 
BRANCH   9  20
ATOM     20  C   UNL A   1      33.098  25.721  22.058  1.00  0.00     0.227 C 
ATOM     21  O   UNL A   1      33.315  25.683  20.847  1.00  0.00    -0.285 OA
BRANCH  20  22
ATOM     22  C   UNL A   1      33.495  24.526  22.888  1.00  0.00     0.113 A 
ATOM     23  C   UNL A   1      35.953  23.444  25.585  1.00  0.00     0.044 C 
ATOM     24  C   UNL A   1      34.823  23.461  24.599  1.00  0.00    -0.047 A 
ATOM     25  C   UNL A   1      34.081  22.304  24.399  1.00  0.00     0.023 A 
ATOM     26  C   UNL A   1      34.479  24.604  23.864  1.00  0.00     0.036 A 
ATOM     27  C   UNL A   1      33.074  22.322  23.451  1.00  0.00     0.112 A 
ATOM     28  N   UNL A   1      32.770  23.395  22.688  1.00  0.00    -0.253 NA
ENDBRANCH  20  22
ENDBRANCH   9  20
ENDBRANCH   7   8
ENDBRANCH   4   7
ENDBRANCH   2   3
ENDBRANCH   1   2
BRANCH   1  29
ATOM     29  C   UNL A   1      34.438  32.128  28.097  1.00  0.00     0.118 C 
BRANCH  29  30
ATOM     30  N   UNL A   1      34.576  32.012  29.532  1.00  0.00    -0.352 N 
ATOM     31  C   UNL A   1      35.609  31.693  30.371  1.00  0.00     0.251 C 
ATOM     32  H   UNL A   1      33.739  32.204  30.014  1.00  0.00     0.163 HD
ATOM     33  O   UNL A   1      35.425  31.865  31.576  1.00  0.00    -0.269 OA
BRANCH  31  34
ATOM     34  C   UNL A   1      36.838  31.026  29.900  1.00  0.00     0.039 A 
ATOM     35  C   UNL A   1      36.933  29.663  29.630  1.00  0.00     0.014 A 
ATOM     36  C   UNL A   1      37.984  31.827  29.828  1.00  0.00     0.014 A 
ATOM     37  C   UNL A   1      38.173  29.057  29.601  1.00  0.00     0.010 A 
ATOM     38  C   UNL A   1      39.227  31.236  29.682  1.00  0.00     0.010 A 
ATOM     39  C   UNL A   1      39.320  29.844  29.698  1.00  0.00    -0.014 A 
BRANCH  39  40
ATOM     40  C   UNL A   1      40.607  29.162  29.763  1.00  0.00     0.031 A 
ATOM     41  C   UNL A   1      41.092  28.836  31.138  1.00  0.00     0.074 A 
ATOM     42  C   UNL A   1      41.242  28.755  28.645  1.00  0.00     0.049 A 
ATOM     43  N   UNL A   1      42.229  29.127  31.687  1.00  0.00    -0.248 NA
ATOM     44  C   UNL A   1      40.132  28.198  32.054  1.00  0.00     0.031 C 
ATOM     45  C   UNL A   1      40.738  28.773  27.266  1.00  0.00     0.029 A 
ATOM     46  N   UNL A   1      42.408  28.065  28.533  1.00  0.00    -0.354 N 
ATOM     47  C   UNL A   1      42.198  28.543  32.955  1.00  0.00     0.074 A 
ATOM     48  C   UNL A   1      40.843  28.111  33.177  1.00  0.00     0.031 C 
ATOM     49  C   UNL A   1      41.415  27.858  26.541  1.00  0.00     0.029 A 
ATOM     50  C   UNL A   1      42.484  27.319  27.361  1.00  0.00     0.049 A 
ATOM     51  H   UNL A   1      43.124  28.089  29.209  1.00  0.00     0.167 HD
ATOM     52  C   UNL A   1      43.320  28.277  33.677  1.00  0.00     0.034 A 
ATOM     53  C   UNL A   1      43.278  26.242  27.147  1.00  0.00     0.034 A 
ATOM     54  C   UNL A   1      44.465  28.995  33.203  1.00  0.00     0.049 A 
ATOM     55  C   UNL A   1      44.361  26.278  28.155  1.00  0.00     0.074 A 
ATOM     56  C   UNL A   1      44.812  30.326  33.104  1.00  0.00     0.029 A 
ATOM     57  N   UNL A   1      45.360  28.314  32.415  1.00  0.00    -0.354 N 
ATOM     58  N   UNL A   1      45.282  27.199  28.197  1.00  0.00    -0.248 NA
ATOM     59  C   UNL A   1      44.169  25.524  29.384  1.00  0.00     0.031 C 
ATOM     60  C   UNL A   1      45.559  30.420  31.894  1.00  0.00     0.029 A 
ATOM     61  C   UNL A   1      45.652  29.134  31.356  1.00  0.00     0.049 A 
ATOM     62  H   UNL A   1      45.722  27.414  32.578  1.00  0.00     0.167 HD
ATOM     63  C   UNL A   1      45.476  27.436  29.551  1.00  0.00     0.074 A 
ATOM     64  C   UNL A   1      44.841  26.309  30.229  1.00  0.00     0.031 C 
ATOM     65  C   UNL A   1      45.874  28.660  30.009  1.00  0.00     0.034 A 
BRANCH  52  66
ATOM     66  C   UNL A   1      43.450  27.136  34.653  1.00  0.00     0.023 A 
ATOM     67  C   UNL A   1      43.452  27.429  36.033  1.00  0.00     0.012 A 
ATOM     68  C   UNL A   1      43.824  25.827  34.270  1.00  0.00     0.148 A 
ATOM     69  C   UNL A   1      43.822  26.471  36.984  1.00  0.00     0.002 A 
ATOM     70  C   UNL A   1      44.114  24.857  35.222  1.00  0.00     0.091 A 
ATOM     71  F   UNL A   1      44.029  25.547  32.978  1.00  0.00    -0.205 F 
ATOM     72  C   UNL A   1      44.140  25.180  36.579  1.00  0.00     0.022 A 
BRANCH  70  73
ATOM     73  S   UNL A   1      44.467  23.160  34.751  1.00  0.00     0.127 S 
ATOM     74  O   UNL A   1      45.622  23.333  33.876  1.00  0.00    -0.237 OA
ATOM     75  O   UNL A   1      44.757  22.542  36.046  1.00  0.00    -0.237 OA
ATOM     76  O   UNL A   1      43.244  22.675  34.123  1.00  0.00    -0.744 OA
ENDBRANCH  70  73
ENDBRANCH  52  66
BRANCH  53  77
ATOM     77  C   UNL A   1      42.950  25.010  26.393  1.00  0.00     0.023 A 
ATOM     78  C   UNL A   1      43.807  24.580  25.362  1.00  0.00     0.012 A 
ATOM     79  C   UNL A   1      41.962  24.112  26.860  1.00  0.00     0.148 A 
ATOM     80  C   UNL A   1      43.701  23.289  24.831  1.00  0.00     0.002 A 
ATOM     81  C   UNL A   1      41.856  22.834  26.324  1.00  0.00     0.091 A 
ATOM     82  F   UNL A   1      41.192  24.478  27.894  1.00  0.00    -0.205 F 
ATOM     83  C   UNL A   1      42.732  22.414  25.316  1.00  0.00     0.022 A 
BRANCH  81  84
ATOM     84  S   UNL A   1      40.648  21.641  26.921  1.00  0.00     0.127 S 
ATOM     85  O   UNL A   1      39.384  22.311  26.608  1.00  0.00    -0.237 OA
ATOM     86  O   UNL A   1      40.944  20.474  26.096  1.00  0.00    -0.237 OA
ATOM     87  O   UNL A   1      40.908  21.492  28.347  1.00  0.00    -0.744 OA
ENDBRANCH  81  84
ENDBRANCH  53  77
BRANCH  65  88
ATOM     88  C   UNL A   1      46.294  29.703  29.001  1.00  0.00     0.023 A 
ATOM     89  C   UNL A   1      47.617  29.777  28.514  1.00  0.00     0.012 A 
ATOM     90  C   UNL A   1      45.300  30.479  28.382  1.00  0.00     0.148 A 
ATOM     91  C   UNL A   1      47.943  30.617  27.445  1.00  0.00     0.002 A 
ATOM     92  C   UNL A   1      45.620  31.278  27.288  1.00  0.00     0.091 A 
ATOM     93  F   UNL A   1      44.046  30.395  28.850  1.00  0.00    -0.205 F 
ATOM     94  C   UNL A   1      46.941  31.356  26.822  1.00  0.00     0.022 A 
BRANCH  92  95
ATOM     95  S   UNL A   1      44.346  32.142  26.364  1.00  0.00     0.127 S 
ATOM     96  O   UNL A   1      45.084  32.598  25.184  1.00  0.00    -0.237 OA
ATOM     97  O   UNL A   1      43.371  31.080  26.099  1.00  0.00    -0.237 OA
ATOM     98  O   UNL A   1      43.856  33.189  27.243  1.00  0.00    -0.744 OA
ENDBRANCH  92  95
ENDBRANCH  65  88
ENDBRANCH  39  40
ENDBRANCH  31  34
ENDBRANCH  29  30
ENDBRANCH   1  29
TORSDOF 16
ENDMDL
