MODEL 1
REMARK VINA RESULT:     -12.8      0.000      0.000
REMARK SMILES CCc1c(Cl)ccc2c1C=C(C(=O)NCCCNC(=O)c1ccc(-c3c4nc(c(-c5cccc(S(=O)(=O)[O-])c5F)c5ccc([nH]5)c(-c5cccc(S(=O)(=O)[O-])c5F)c5nc(c(-c6cccc(S(=O)(=O)[O-])c6F)c6ccc3[nH]6)C=C5)C=C4)cc1)[C@@H](C(F)(F)F)O2
REMARK SMILES IDX 17 1 16 2 15 3 14 4 12 5 13 6 11 8 3 9 4 10 9 11 5 12 6 13
REMARK SMILES IDX 8 14 10 15 7 16 89 17 84 18 2 19 1 20 85 21 86 22 87 23
REMARK SMILES IDX 88 24 18 25 19 26 20 28 21 29 22 30 83 31 23 32 82 33 24 34
REMARK SMILES IDX 25 35 26 36 76 37 27 38 81 39 75 40 77 41 28 42 80 43 74 44
REMARK SMILES IDX 73 45 29 47 61 48 41 49 60 50 42 51 45 52 59 53 78 54 43 55
REMARK SMILES IDX 44 56 58 58 79 59 46 60 30 61 31 62 39 63 32 64 34 65 40 66
REMARK SMILES IDX 33 67 35 68 36 69 37 70 38 71 62 72 63 73 71 74 64 75 66 76
REMARK SMILES IDX 72 77 65 78 67 79 68 80 69 81 70 82 47 83 48 84 56 85 49 86
REMARK SMILES IDX 51 87 57 88 50 89 52 90 53 91 54 92 55 93
REMARK H PARENT 14 7 18 27 77 46 45 57
REMARK Flexibility Score: inf
ROOT
ATOM      1  C   UNL A   1      32.178  30.558  26.944  1.00  0.00     0.118 C 
ENDROOT
BRANCH   1   2
ATOM      2  C   UNL A   1      32.325  29.991  25.537  1.00  0.00     0.042 C 
BRANCH   2   3
ATOM      3  C   UNL A   1      33.671  29.317  25.319  1.00  0.00     0.118 C 
BRANCH   3   4
ATOM      4  N   UNL A   1      33.816  28.817  23.960  1.00  0.00    -0.352 N 
ATOM      5  C   UNL A   1      33.602  27.658  23.297  1.00  0.00     0.251 C 
ATOM      6  O   UNL A   1      33.880  27.685  22.093  1.00  0.00    -0.270 OA
ATOM      7  H   UNL A   1      34.166  29.513  23.358  1.00  0.00     0.163 HD
BRANCH   5   8
ATOM      8  C   UNL A   1      33.061  26.403  23.898  1.00  0.00     0.067 C 
ATOM      9  C   UNL A   1      34.154  22.818  24.184  1.00  0.00    -0.019 A 
ATOM     10  C   UNL A   1      33.608  21.645  24.753  1.00  0.00     0.045 A 
ATOM     11  C   UNL A   1      33.437  24.038  24.398  1.00  0.00     0.022 A 
ATOM     12  Cl  UNL A   1      34.295  20.065  24.622  1.00  0.00    -0.084 Cl
ATOM     13  C   UNL A   1      32.421  21.686  25.503  1.00  0.00     0.024 A 
ATOM     14  C   UNL A   1      32.248  24.045  25.145  1.00  0.00     0.128 A 
ATOM     15  C   UNL A   1      33.893  25.343  23.892  1.00  0.00     0.026 C 
ATOM     16  C   UNL A   1      31.747  22.880  25.706  1.00  0.00     0.048 A 
ATOM     17  O   UNL A   1      31.530  25.178  25.407  1.00  0.00    -0.475 OA
ATOM     18  C   UNL A   1      31.677  26.260  24.453  1.00  0.00     0.314 C 
BRANCH   9  19
ATOM     19  C   UNL A   1      35.442  22.901  23.375  1.00  0.00     0.034 C 
ATOM     20  C   UNL A   1      36.816  22.613  23.963  1.00  0.00     0.009 C 
ENDBRANCH   9  19
BRANCH  18  21
ATOM     21  C   UNL A   1      30.602  26.133  23.357  1.00  0.00     0.429 C 
ATOM     22  F   UNL A   1      30.825  27.030  22.365  1.00  0.00    -0.167 F 
ATOM     23  F   UNL A   1      30.593  24.910  22.775  1.00  0.00    -0.167 F 
ATOM     24  F   UNL A   1      29.352  26.348  23.824  1.00  0.00    -0.167 F 
ENDBRANCH  18  21
ENDBRANCH   5   8
ENDBRANCH   3   4
ENDBRANCH   2   3
ENDBRANCH   1   2
BRANCH   1  25
ATOM     25  N   UNL A   1      32.270  32.015  26.965  1.00  0.00    -0.352 N 
ATOM     26  C   UNL A   1      33.217  32.841  27.525  1.00  0.00     0.251 C 
ATOM     27  H   UNL A   1      31.535  32.482  26.506  1.00  0.00     0.163 HD
ATOM     28  O   UNL A   1      32.983  34.043  27.631  1.00  0.00    -0.269 OA
BRANCH  26  29
ATOM     29  C   UNL A   1      34.494  32.281  28.015  1.00  0.00     0.039 A 
ATOM     30  C   UNL A   1      34.559  30.957  28.446  1.00  0.00     0.014 A 
ATOM     31  C   UNL A   1      35.636  33.086  28.050  1.00  0.00     0.014 A 
ATOM     32  C   UNL A   1      35.698  30.502  29.096  1.00  0.00     0.010 A 
ATOM     33  C   UNL A   1      36.818  32.588  28.608  1.00  0.00     0.010 A 
ATOM     34  C   UNL A   1      36.843  31.310  29.187  1.00  0.00    -0.014 A 
BRANCH  34  35
ATOM     35  C   UNL A   1      38.042  30.784  29.889  1.00  0.00     0.031 A 
ATOM     36  C   UNL A   1      38.313  31.128  31.329  1.00  0.00     0.074 A 
ATOM     37  C   UNL A   1      38.857  29.931  29.235  1.00  0.00     0.049 A 
ATOM     38  N   UNL A   1      39.289  30.718  32.099  1.00  0.00    -0.248 NA
ATOM     39  C   UNL A   1      37.377  32.050  31.996  1.00  0.00     0.031 C 
ATOM     40  C   UNL A   1      38.708  29.534  27.833  1.00  0.00     0.029 A 
ATOM     41  N   UNL A   1      39.950  29.222  29.664  1.00  0.00    -0.354 N 
ATOM     42  C   UNL A   1      39.115  31.365  33.317  1.00  0.00     0.074 A 
ATOM     43  C   UNL A   1      37.938  32.196  33.190  1.00  0.00     0.031 C 
ATOM     44  C   UNL A   1      39.631  28.607  27.536  1.00  0.00     0.029 A 
ATOM     45  C   UNL A   1      40.475  28.389  28.705  1.00  0.00     0.049 A 
ATOM     46  H   UNL A   1      40.323  29.303  30.572  1.00  0.00     0.167 HD
ATOM     47  C   UNL A   1      39.857  31.262  34.443  1.00  0.00     0.034 A 
ATOM     48  C   UNL A   1      41.524  27.546  28.751  1.00  0.00     0.034 A 
ATOM     49  C   UNL A   1      40.986  30.384  34.590  1.00  0.00     0.049 A 
ATOM     50  C   UNL A   1      42.311  27.429  30.023  1.00  0.00     0.074 A 
ATOM     51  C   UNL A   1      41.771  30.180  35.711  1.00  0.00     0.029 A 
ATOM     52  N   UNL A   1      41.481  29.556  33.595  1.00  0.00    -0.354 N 
ATOM     53  N   UNL A   1      42.091  28.006  31.177  1.00  0.00    -0.248 NA
ATOM     54  C   UNL A   1      43.484  26.544  30.002  1.00  0.00     0.031 C 
ATOM     55  C   UNL A   1      42.743  29.227  35.394  1.00  0.00     0.029 A 
ATOM     56  C   UNL A   1      42.561  28.839  34.077  1.00  0.00     0.049 A 
ATOM     57  H   UNL A   1      41.119  29.490  32.682  1.00  0.00     0.167 HD
ATOM     58  C   UNL A   1      43.094  27.555  32.024  1.00  0.00     0.074 A 
ATOM     59  C   UNL A   1      43.909  26.634  31.257  1.00  0.00     0.031 C 
ATOM     60  C   UNL A   1      43.332  27.893  33.314  1.00  0.00     0.034 A 
BRANCH  47  61
ATOM     61  C   UNL A   1      39.451  32.075  35.640  1.00  0.00     0.023 A 
ATOM     62  C   UNL A   1      39.823  33.431  35.709  1.00  0.00     0.012 A 
ATOM     63  C   UNL A   1      38.614  31.530  36.634  1.00  0.00     0.148 A 
ATOM     64  C   UNL A   1      39.372  34.236  36.754  1.00  0.00     0.002 A 
ATOM     65  C   UNL A   1      38.146  32.346  37.658  1.00  0.00     0.091 A 
ATOM     66  F   UNL A   1      38.284  30.234  36.552  1.00  0.00    -0.205 F 
ATOM     67  C   UNL A   1      38.527  33.698  37.721  1.00  0.00     0.022 A 
BRANCH  65  68
ATOM     68  S   UNL A   1      37.011  31.768  38.925  1.00  0.00     0.127 S 
ATOM     69  O   UNL A   1      37.807  31.950  40.138  1.00  0.00    -0.237 OA
ATOM     70  O   UNL A   1      35.894  32.702  38.784  1.00  0.00    -0.237 OA
ATOM     71  O   UNL A   1      36.701  30.386  38.590  1.00  0.00    -0.744 OA
ENDBRANCH  65  68
ENDBRANCH  47  61
BRANCH  48  72
ATOM     72  C   UNL A   1      41.845  26.718  27.558  1.00  0.00     0.023 A 
ATOM     73  C   UNL A   1      42.540  27.300  26.482  1.00  0.00     0.012 A 
ATOM     74  C   UNL A   1      41.548  25.341  27.527  1.00  0.00     0.148 A 
ATOM     75  C   UNL A   1      42.936  26.523  25.393  1.00  0.00     0.002 A 
ATOM     76  C   UNL A   1      41.986  24.564  26.462  1.00  0.00     0.091 A 
ATOM     77  F   UNL A   1      40.875  24.816  28.560  1.00  0.00    -0.205 F 
ATOM     78  C   UNL A   1      42.672  25.155  25.389  1.00  0.00     0.022 A 
BRANCH  76  79
ATOM     79  S   UNL A   1      41.805  22.778  26.433  1.00  0.00     0.127 S 
ATOM     80  O   UNL A   1      42.460  22.392  27.680  1.00  0.00    -0.237 OA
ATOM     81  O   UNL A   1      40.350  22.625  26.426  1.00  0.00    -0.237 OA
ATOM     82  O   UNL A   1      42.463  22.333  25.212  1.00  0.00    -0.744 OA
ENDBRANCH  76  79
ENDBRANCH  48  72
BRANCH  60  83
ATOM     83  C   UNL A   1      44.518  27.275  33.993  1.00  0.00     0.023 A 
ATOM     84  C   UNL A   1      45.763  27.931  33.929  1.00  0.00     0.012 A 
ATOM     85  C   UNL A   1      44.375  26.124  34.791  1.00  0.00     0.148 A 
ATOM     86  C   UNL A   1      46.853  27.446  34.649  1.00  0.00     0.002 A 
ATOM     87  C   UNL A   1      45.457  25.664  35.531  1.00  0.00     0.091 A 
ATOM     88  F   UNL A   1      43.180  25.516  34.824  1.00  0.00    -0.205 F 
ATOM     89  C   UNL A   1      46.697  26.321  35.458  1.00  0.00     0.022 A 
BRANCH  87  90
ATOM     90  S   UNL A   1      45.338  24.270  36.656  1.00  0.00     0.127 S 
ATOM     91  O   UNL A   1      46.710  24.173  37.155  1.00  0.00    -0.237 OA
ATOM     92  O   UNL A   1      44.364  24.748  37.637  1.00  0.00    -0.237 OA
ATOM     93  O   UNL A   1      44.890  23.140  35.855  1.00  0.00    -0.744 OA
ENDBRANCH  87  90
ENDBRANCH  60  83
ENDBRANCH  34  35
ENDBRANCH  26  29
ENDBRANCH   1  25
TORSDOF 15
ENDMDL
MODEL 2
REMARK VINA RESULT:     -12.8      5.317     10.252
REMARK SMILES CCc1c(Cl)ccc2c1C=C(C(=O)NCCCNC(=O)c1ccc(-c3c4nc(c(-c5cccc(S(=O)(=O)[O-])c5F)c5ccc([nH]5)c(-c5cccc(S(=O)(=O)[O-])c5F)c5nc(c(-c6cccc(S(=O)(=O)[O-])c6F)c6ccc3[nH]6)C=C5)C=C4)cc1)[C@@H](C(F)(F)F)O2
REMARK SMILES IDX 17 1 16 2 15 3 14 4 12 5 13 6 11 8 3 9 4 10 9 11 5 12 6 13
REMARK SMILES IDX 8 14 10 15 7 16 89 17 84 18 2 19 1 20 85 21 86 22 87 23
REMARK SMILES IDX 88 24 18 25 19 26 20 28 21 29 22 30 83 31 23 32 82 33 24 34
REMARK SMILES IDX 25 35 26 36 76 37 27 38 81 39 75 40 77 41 28 42 80 43 74 44
REMARK SMILES IDX 73 45 29 47 61 48 41 49 60 50 42 51 45 52 59 53 78 54 43 55
REMARK SMILES IDX 44 56 58 58 79 59 46 60 30 61 31 62 39 63 32 64 34 65 40 66
REMARK SMILES IDX 33 67 35 68 36 69 37 70 38 71 62 72 63 73 71 74 64 75 66 76
REMARK SMILES IDX 72 77 65 78 67 79 68 80 69 81 70 82 47 83 48 84 56 85 49 86
REMARK SMILES IDX 51 87 57 88 50 89 52 90 53 91 54 92 55 93
REMARK H PARENT 14 7 18 27 77 46 45 57
REMARK Flexibility Score: inf
ROOT
ATOM      1  C   UNL A   1      37.218  21.320  24.696  1.00  0.00     0.118 C 
ENDROOT
BRANCH   1   2
ATOM      2  C   UNL A   1      35.893  21.341  25.447  1.00  0.00     0.042 C 
BRANCH   2   3
ATOM      3  C   UNL A   1      35.869  22.380  26.558  1.00  0.00     0.118 C 
BRANCH   3   4
ATOM      4  N   UNL A   1      34.577  22.435  27.226  1.00  0.00    -0.352 N 
ATOM      5  C   UNL A   1      33.370  23.007  27.014  1.00  0.00     0.251 C 
ATOM      6  O   UNL A   1      32.523  22.777  27.884  1.00  0.00    -0.270 OA
ATOM      7  H   UNL A   1      34.583  21.913  28.061  1.00  0.00     0.163 HD
BRANCH   5   8
ATOM      8  C   UNL A   1      33.006  23.851  25.837  1.00  0.00     0.067 C 
ATOM      9  C   UNL A   1      31.665  27.316  25.272  1.00  0.00    -0.019 A 
ATOM     10  C   UNL A   1      31.317  28.085  24.137  1.00  0.00     0.045 A 
ATOM     11  C   UNL A   1      32.258  26.036  25.032  1.00  0.00     0.022 A 
ATOM     12  Cl  UNL A   1      30.588  29.651  24.185  1.00  0.00    -0.084 Cl
ATOM     13  C   UNL A   1      31.557  27.611  22.838  1.00  0.00     0.024 A 
ATOM     14  C   UNL A   1      32.477  25.587  23.719  1.00  0.00     0.128 A 
ATOM     15  C   UNL A   1      32.698  25.134  26.109  1.00  0.00     0.026 C 
ATOM     16  C   UNL A   1      32.142  26.372  22.627  1.00  0.00     0.048 A 
ATOM     17  O   UNL A   1      33.061  24.388  23.423  1.00  0.00    -0.475 OA
ATOM     18  C   UNL A   1      32.933  23.350  24.428  1.00  0.00     0.314 C 
BRANCH   9  19
ATOM     19  C   UNL A   1      31.476  27.734  26.725  1.00  0.00     0.034 C 
ATOM     20  C   UNL A   1      32.205  28.911  27.356  1.00  0.00     0.009 C 
ENDBRANCH   9  19
BRANCH  18  21
ATOM     21  C   UNL A   1      31.667  22.517  24.152  1.00  0.00     0.429 C 
ATOM     22  F   UNL A   1      30.615  23.004  24.855  1.00  0.00    -0.167 F 
ATOM     23  F   UNL A   1      31.301  22.540  22.848  1.00  0.00    -0.167 F 
ATOM     24  F   UNL A   1      31.812  21.217  24.490  1.00  0.00    -0.167 F 
ENDBRANCH  18  21
ENDBRANCH   5   8
ENDBRANCH   3   4
ENDBRANCH   2   3
ENDBRANCH   1   2
BRANCH   1  25
ATOM     25  N   UNL A   1      38.102  20.255  25.165  1.00  0.00    -0.352 N 
ATOM     26  C   UNL A   1      39.310  20.323  25.819  1.00  0.00     0.251 C 
ATOM     27  H   UNL A   1      37.782  19.343  24.982  1.00  0.00     0.163 HD
ATOM     28  O   UNL A   1      40.002  19.311  25.915  1.00  0.00    -0.269 OA
BRANCH  26  29
ATOM     29  C   UNL A   1      39.780  21.606  26.380  1.00  0.00     0.039 A 
ATOM     30  C   UNL A   1      39.289  22.812  25.880  1.00  0.00     0.014 A 
ATOM     31  C   UNL A   1      40.723  21.609  27.412  1.00  0.00     0.014 A 
ATOM     32  C   UNL A   1      39.884  24.006  26.262  1.00  0.00     0.010 A 
ATOM     33  C   UNL A   1      41.243  22.823  27.873  1.00  0.00     0.010 A 
ATOM     34  C   UNL A   1      40.869  24.030  27.262  1.00  0.00    -0.014 A 
BRANCH  34  35
ATOM     35  C   UNL A   1      41.478  25.330  27.643  1.00  0.00     0.031 A 
ATOM     36  C   UNL A   1      42.862  25.704  27.184  1.00  0.00     0.074 A 
ATOM     37  C   UNL A   1      40.743  26.210  28.355  1.00  0.00     0.049 A 
ATOM     38  N   UNL A   1      43.521  26.815  27.393  1.00  0.00    -0.248 NA
ATOM     39  C   UNL A   1      43.609  24.710  26.394  1.00  0.00     0.031 C 
ATOM     40  C   UNL A   1      39.395  25.956  28.870  1.00  0.00     0.029 A 
ATOM     41  N   UNL A   1      41.008  27.499  28.742  1.00  0.00    -0.354 N 
ATOM     42  C   UNL A   1      44.769  26.637  26.808  1.00  0.00     0.074 A 
ATOM     43  C   UNL A   1      44.781  25.312  26.231  1.00  0.00     0.031 C 
ATOM     44  C   UNL A   1      38.927  27.072  29.448  1.00  0.00     0.029 A 
ATOM     45  C   UNL A   1      39.962  28.100  29.400  1.00  0.00     0.049 A 
ATOM     46  H   UNL A   1      41.865  27.950  28.567  1.00  0.00     0.167 HD
ATOM     47  C   UNL A   1      45.803  27.507  26.740  1.00  0.00     0.034 A 
ATOM     48  C   UNL A   1      39.842  29.337  29.917  1.00  0.00     0.034 A 
ATOM     49  C   UNL A   1      45.767  28.849  27.254  1.00  0.00     0.049 A 
ATOM     50  C   UNL A   1      40.994  30.291  29.802  1.00  0.00     0.074 A 
ATOM     51  C   UNL A   1      46.753  29.817  27.190  1.00  0.00     0.029 A 
ATOM     52  N   UNL A   1      44.687  29.417  27.910  1.00  0.00    -0.354 N 
ATOM     53  N   UNL A   1      42.140  30.119  29.192  1.00  0.00    -0.248 NA
ATOM     54  C   UNL A   1      40.838  31.606  30.438  1.00  0.00     0.031 C 
ATOM     55  C   UNL A   1      46.270  30.973  27.809  1.00  0.00     0.029 A 
ATOM     56  C   UNL A   1      44.983  30.723  28.256  1.00  0.00     0.049 A 
ATOM     57  H   UNL A   1      43.837  28.959  28.102  1.00  0.00     0.167 HD
ATOM     58  C   UNL A   1      42.843  31.303  29.367  1.00  0.00     0.074 A 
ATOM     59  C   UNL A   1      41.984  32.196  30.117  1.00  0.00     0.031 C 
ATOM     60  C   UNL A   1      44.098  31.612  28.962  1.00  0.00     0.034 A 
BRANCH  47  61
ATOM     61  C   UNL A   1      47.058  27.067  26.039  1.00  0.00     0.023 A 
ATOM     62  C   UNL A   1      47.226  27.371  24.674  1.00  0.00     0.012 A 
ATOM     63  C   UNL A   1      48.110  26.457  26.751  1.00  0.00     0.148 A 
ATOM     64  C   UNL A   1      48.421  27.070  24.025  1.00  0.00     0.002 A 
ATOM     65  C   UNL A   1      49.309  26.185  26.103  1.00  0.00     0.091 A 
ATOM     66  F   UNL A   1      47.920  26.168  28.047  1.00  0.00    -0.205 F 
ATOM     67  C   UNL A   1      49.465  26.487  24.739  1.00  0.00     0.022 A 
BRANCH  65  68
ATOM     68  S   UNL A   1      50.735  25.485  26.942  1.00  0.00     0.127 S 
ATOM     69  O   UNL A   1      51.632  25.213  25.820  1.00  0.00    -0.237 OA
ATOM     70  O   UNL A   1      51.155  26.590  27.805  1.00  0.00    -0.237 OA
ATOM     71  O   UNL A   1      50.251  24.306  27.647  1.00  0.00    -0.744 OA
ENDBRANCH  65  68
ENDBRANCH  47  61
BRANCH  48  72
ATOM     72  C   UNL A   1      38.555  29.742  30.545  1.00  0.00     0.023 A 
ATOM     73  C   UNL A   1      38.310  29.408  31.889  1.00  0.00     0.012 A 
ATOM     74  C   UNL A   1      37.623  30.534  29.847  1.00  0.00     0.148 A 
ATOM     75  C   UNL A   1      37.155  29.857  32.529  1.00  0.00     0.002 A 
ATOM     76  C   UNL A   1      36.499  31.017  30.504  1.00  0.00     0.091 A 
ATOM     77  F   UNL A   1      37.878  30.828  28.564  1.00  0.00    -0.205 F 
ATOM     78  C   UNL A   1      36.258  30.671  31.842  1.00  0.00     0.022 A 
BRANCH  76  79
ATOM     79  S   UNL A   1      35.358  32.174  29.739  1.00  0.00     0.127 S 
ATOM     80  O   UNL A   1      34.791  31.366  28.663  1.00  0.00    -0.237 OA
ATOM     81  O   UNL A   1      34.442  32.465  30.843  1.00  0.00    -0.237 OA
ATOM     82  O   UNL A   1      36.169  33.308  29.316  1.00  0.00    -0.744 OA
ENDBRANCH  76  79
ENDBRANCH  48  72
BRANCH  60  83
ATOM     83  C   UNL A   1      44.635  32.968  29.316  1.00  0.00     0.023 A 
ATOM     84  C   UNL A   1      45.348  33.130  30.519  1.00  0.00     0.012 A 
ATOM     85  C   UNL A   1      44.543  34.040  28.408  1.00  0.00     0.148 A 
ATOM     86  C   UNL A   1      45.961  34.345  30.817  1.00  0.00     0.002 A 
ATOM     87  C   UNL A   1      45.183  35.239  28.697  1.00  0.00     0.091 A 
ATOM     88  F   UNL A   1      43.849  33.859  27.275  1.00  0.00    -0.205 F 
ATOM     89  C   UNL A   1      45.888  35.395  29.903  1.00  0.00     0.022 A 
BRANCH  87  90
ATOM     90  S   UNL A   1      45.210  36.622  27.553  1.00  0.00     0.127 S 
ATOM     91  O   UNL A   1      43.786  36.935  27.431  1.00  0.00    -0.237 OA
ATOM     92  O   UNL A   1      45.994  37.615  28.286  1.00  0.00    -0.237 OA
ATOM     93  O   UNL A   1      45.840  36.128  26.336  1.00  0.00    -0.744 OA
ENDBRANCH  87  90
ENDBRANCH  60  83
ENDBRANCH  34  35
ENDBRANCH  26  29
ENDBRANCH   1  25
TORSDOF 15
ENDMDL
MODEL 3
REMARK VINA RESULT:     -12.8      5.352     10.468
REMARK SMILES CCc1c(Cl)ccc2c1C=C(C(=O)NCCCNC(=O)c1ccc(-c3c4nc(c(-c5cccc(S(=O)(=O)[O-])c5F)c5ccc([nH]5)c(-c5cccc(S(=O)(=O)[O-])c5F)c5nc(c(-c6cccc(S(=O)(=O)[O-])c6F)c6ccc3[nH]6)C=C5)C=C4)cc1)[C@@H](C(F)(F)F)O2
REMARK SMILES IDX 17 1 16 2 15 3 14 4 12 5 13 6 11 8 3 9 4 10 9 11 5 12 6 13
REMARK SMILES IDX 8 14 10 15 7 16 89 17 84 18 2 19 1 20 85 21 86 22 87 23
REMARK SMILES IDX 88 24 18 25 19 26 20 28 21 29 22 30 83 31 23 32 82 33 24 34
REMARK SMILES IDX 25 35 26 36 76 37 27 38 81 39 75 40 77 41 28 42 80 43 74 44
REMARK SMILES IDX 73 45 29 47 61 48 41 49 60 50 42 51 45 52 59 53 78 54 43 55
REMARK SMILES IDX 44 56 58 58 79 59 46 60 30 61 31 62 39 63 32 64 34 65 40 66
REMARK SMILES IDX 33 67 35 68 36 69 37 70 38 71 62 72 63 73 71 74 64 75 66 76
REMARK SMILES IDX 72 77 65 78 67 79 68 80 69 81 70 82 47 83 48 84 56 85 49 86
REMARK SMILES IDX 51 87 57 88 50 89 52 90 53 91 54 92 55 93
REMARK H PARENT 14 7 18 27 77 46 45 57
REMARK Flexibility Score: inf
ROOT
ATOM      1  C   UNL A   1      37.447  21.455  24.799  1.00  0.00     0.118 C 
ENDROOT
BRANCH   1   2
ATOM      2  C   UNL A   1      35.978  21.169  25.085  1.00  0.00     0.042 C 
BRANCH   2   3
ATOM      3  C   UNL A   1      35.500  21.812  26.378  1.00  0.00     0.118 C 
BRANCH   3   4
ATOM      4  N   UNL A   1      34.049  21.804  26.487  1.00  0.00    -0.352 N 
ATOM      5  C   UNL A   1      33.012  22.541  26.028  1.00  0.00     0.251 C 
ATOM      6  O   UNL A   1      31.895  22.155  26.391  1.00  0.00    -0.270 OA
ATOM      7  H   UNL A   1      33.736  21.058  27.048  1.00  0.00     0.163 HD
BRANCH   5   8
ATOM      8  C   UNL A   1      33.124  23.735  25.138  1.00  0.00     0.067 C 
ATOM      9  C   UNL A   1      31.906  27.290  25.168  1.00  0.00    -0.019 A 
ATOM     10  C   UNL A   1      32.020  28.398  24.296  1.00  0.00     0.045 A 
ATOM     11  C   UNL A   1      32.635  26.109  24.817  1.00  0.00     0.022 A 
ATOM     12  Cl  UNL A   1      31.229  29.918  24.515  1.00  0.00    -0.084 Cl
ATOM     13  C   UNL A   1      32.824  28.337  23.147  1.00  0.00     0.024 A 
ATOM     14  C   UNL A   1      33.424  26.078  23.656  1.00  0.00     0.128 A 
ATOM     15  C   UNL A   1      32.638  24.887  25.638  1.00  0.00     0.026 C 
ATOM     16  C   UNL A   1      33.530  27.186  22.830  1.00  0.00     0.048 A 
ATOM     17  O   UNL A   1      34.163  24.993  23.279  1.00  0.00    -0.475 OA
ATOM     18  C   UNL A   1      33.694  23.705  23.754  1.00  0.00     0.314 C 
BRANCH   9  19
ATOM     19  C   UNL A   1      31.086  27.245  26.452  1.00  0.00     0.034 C 
ATOM     20  C   UNL A   1      31.473  28.001  27.714  1.00  0.00     0.009 C 
ENDBRANCH   9  19
BRANCH  18  21
ATOM     21  C   UNL A   1      32.730  23.093  22.720  1.00  0.00     0.429 C 
ATOM     22  F   UNL A   1      33.108  23.425  21.461  1.00  0.00    -0.167 F 
ATOM     23  F   UNL A   1      32.703  21.740  22.769  1.00  0.00    -0.167 F 
ATOM     24  F   UNL A   1      31.455  23.513  22.883  1.00  0.00    -0.167 F 
ENDBRANCH  18  21
ENDBRANCH   5   8
ENDBRANCH   3   4
ENDBRANCH   2   3
ENDBRANCH   1   2
BRANCH   1  25
ATOM     25  N   UNL A   1      38.324  20.407  25.316  1.00  0.00    -0.352 N 
ATOM     26  C   UNL A   1      39.514  20.498  26.001  1.00  0.00     0.251 C 
ATOM     27  H   UNL A   1      38.014  19.489  25.147  1.00  0.00     0.163 HD
ATOM     28  O   UNL A   1      40.208  19.494  26.139  1.00  0.00    -0.269 OA
BRANCH  26  29
ATOM     29  C   UNL A   1      39.960  21.797  26.545  1.00  0.00     0.039 A 
ATOM     30  C   UNL A   1      39.416  22.985  26.059  1.00  0.00     0.014 A 
ATOM     31  C   UNL A   1      40.936  21.833  27.546  1.00  0.00     0.014 A 
ATOM     32  C   UNL A   1      39.985  24.199  26.419  1.00  0.00     0.010 A 
ATOM     33  C   UNL A   1      41.431  23.064  27.988  1.00  0.00     0.010 A 
ATOM     34  C   UNL A   1      41.000  24.256  27.388  1.00  0.00    -0.014 A 
BRANCH  34  35
ATOM     35  C   UNL A   1      41.580  25.576  27.747  1.00  0.00     0.031 A 
ATOM     36  C   UNL A   1      42.943  25.986  27.256  1.00  0.00     0.074 A 
ATOM     37  C   UNL A   1      40.835  26.439  28.468  1.00  0.00     0.049 A 
ATOM     38  N   UNL A   1      43.574  27.116  27.443  1.00  0.00    -0.248 NA
ATOM     39  C   UNL A   1      43.701  25.007  26.457  1.00  0.00     0.031 C 
ATOM     40  C   UNL A   1      39.507  26.151  29.014  1.00  0.00     0.029 A 
ATOM     41  N   UNL A   1      41.071  27.738  28.841  1.00  0.00    -0.354 N 
ATOM     42  C   UNL A   1      44.814  26.970  26.832  1.00  0.00     0.074 A 
ATOM     43  C   UNL A   1      44.851  25.641  26.264  1.00  0.00     0.031 C 
ATOM     44  C   UNL A   1      39.019  27.257  29.594  1.00  0.00     0.029 A 
ATOM     45  C   UNL A   1      40.022  28.314  29.518  1.00  0.00     0.049 A 
ATOM     46  H   UNL A   1      41.911  28.212  28.644  1.00  0.00     0.167 HD
ATOM     47  C   UNL A   1      45.821  27.868  26.737  1.00  0.00     0.034 A 
ATOM     48  C   UNL A   1      39.878  29.551  30.029  1.00  0.00     0.034 A 
ATOM     49  C   UNL A   1      45.757  29.213  27.242  1.00  0.00     0.049 A 
ATOM     50  C   UNL A   1      41.000  30.536  29.882  1.00  0.00     0.074 A 
ATOM     51  C   UNL A   1      46.714  30.207  27.151  1.00  0.00     0.029 A 
ATOM     52  N   UNL A   1      44.675  29.754  27.918  1.00  0.00    -0.354 N 
ATOM     53  N   UNL A   1      42.138  30.393  29.250  1.00  0.00    -0.248 NA
ATOM     54  C   UNL A   1      40.819  31.851  30.513  1.00  0.00     0.031 C 
ATOM     55  C   UNL A   1      46.211  31.353  27.772  1.00  0.00     0.029 A 
ATOM     56  C   UNL A   1      44.941  31.071  28.248  1.00  0.00     0.049 A 
ATOM     57  H   UNL A   1      43.843  29.274  28.131  1.00  0.00     0.167 HD
ATOM     58  C   UNL A   1      42.810  31.598  29.401  1.00  0.00     0.074 A 
ATOM     59  C   UNL A   1      41.941  32.471  30.164  1.00  0.00     0.031 C 
ATOM     60  C   UNL A   1      44.047  31.939  28.968  1.00  0.00     0.034 A 
BRANCH  47  61
ATOM     61  C   UNL A   1      47.072  27.459  26.012  1.00  0.00     0.023 A 
ATOM     62  C   UNL A   1      48.032  26.675  26.683  1.00  0.00     0.012 A 
ATOM     63  C   UNL A   1      47.246  27.754  24.645  1.00  0.00     0.148 A 
ATOM     64  C   UNL A   1      49.150  26.193  26.005  1.00  0.00     0.002 A 
ATOM     65  C   UNL A   1      48.350  27.247  23.970  1.00  0.00     0.091 A 
ATOM     66  F   UNL A   1      46.325  28.512  24.034  1.00  0.00    -0.205 F 
ATOM     67  C   UNL A   1      49.304  26.470  24.649  1.00  0.00     0.022 A 
BRANCH  65  68
ATOM     68  S   UNL A   1      48.618  27.498  22.212  1.00  0.00     0.127 S 
ATOM     69  O   UNL A   1      48.833  26.127  21.748  1.00  0.00    -0.237 OA
ATOM     70  O   UNL A   1      47.349  28.091  21.790  1.00  0.00    -0.237 OA
ATOM     71  O   UNL A   1      49.773  28.377  22.100  1.00  0.00    -0.744 OA
ENDBRANCH  65  68
ENDBRANCH  47  61
BRANCH  48  72
ATOM     72  C   UNL A   1      38.594  29.924  30.682  1.00  0.00     0.023 A 
ATOM     73  C   UNL A   1      38.379  29.575  32.027  1.00  0.00     0.012 A 
ATOM     74  C   UNL A   1      37.634  30.701  30.006  1.00  0.00     0.148 A 
ATOM     75  C   UNL A   1      37.225  29.994  32.690  1.00  0.00     0.002 A 
ATOM     76  C   UNL A   1      36.511  31.155  30.685  1.00  0.00     0.091 A 
ATOM     77  F   UNL A   1      37.861  31.011  28.721  1.00  0.00    -0.205 F 
ATOM     78  C   UNL A   1      36.300  30.794  32.025  1.00  0.00     0.022 A 
BRANCH  76  79
ATOM     79  S   UNL A   1      35.334  32.294  29.949  1.00  0.00     0.127 S 
ATOM     80  O   UNL A   1      34.825  31.511  28.825  1.00  0.00    -0.237 OA
ATOM     81  O   UNL A   1      34.383  32.491  31.045  1.00  0.00    -0.237 OA
ATOM     82  O   UNL A   1      36.099  33.481  29.595  1.00  0.00    -0.744 OA
ENDBRANCH  76  79
ENDBRANCH  48  72
BRANCH  60  83
ATOM     83  C   UNL A   1      44.552  33.313  29.301  1.00  0.00     0.023 A 
ATOM     84  C   UNL A   1      45.207  33.522  30.529  1.00  0.00     0.012 A 
ATOM     85  C   UNL A   1      44.490  34.353  28.355  1.00  0.00     0.148 A 
ATOM     86  C   UNL A   1      45.792  34.753  30.815  1.00  0.00     0.002 A 
ATOM     87  C   UNL A   1      45.102  35.569  28.634  1.00  0.00     0.091 A 
ATOM     88  F   UNL A   1      43.850  34.127  27.198  1.00  0.00    -0.205 F 
ATOM     89  C   UNL A   1      45.750  35.772  29.864  1.00  0.00     0.022 A 
BRANCH  87  90
ATOM     90  S   UNL A   1      45.166  36.915  27.447  1.00  0.00     0.127 S 
ATOM     91  O   UNL A   1      45.936  37.920  28.179  1.00  0.00    -0.237 OA
ATOM     92  O   UNL A   1      45.874  36.302  26.323  1.00  0.00    -0.237 OA
ATOM     93  O   UNL A   1      43.783  37.276  27.170  1.00  0.00    -0.744 OA
ENDBRANCH  87  90
ENDBRANCH  60  83
ENDBRANCH  34  35
ENDBRANCH  26  29
ENDBRANCH   1  25
TORSDOF 15
ENDMDL
