MODEL 1
REMARK VINA RESULT:     -12.2      0.000      0.000
REMARK SMILES O=C(Cc1ccn(-c2ccccc2F)c1)NCCCNC(=O)c1ccc(-c2c3nc(c(-c4cccc(S(=O)(=O)[O-])c4F)c4ccc([nH]4)c(-c4cccc(S(=O)(=O)[O-])c4F)c4nc(c(-c5cccc(S(=O)(=O)[O-])c5F)c5ccc2[nH]5)C=C4)C=C3)cc1
REMARK SMILES IDX 18 1 17 2 16 3 1 4 2 5 3 7 4 8 5 9 15 10 6 11 7 12 8 13 9 14
REMARK SMILES IDX 13 15 10 16 12 17 14 18 11 19 19 20 20 21 21 22 22 24 23 25
REMARK SMILES IDX 24 26 85 27 25 28 84 29 26 30 27 31 28 32 78 33 29 34 83 35
REMARK SMILES IDX 77 36 79 37 30 38 82 39 76 40 75 41 31 43 63 44 43 45 62 46
REMARK SMILES IDX 44 47 47 48 61 49 80 50 45 51 46 52 60 54 81 55 48 56 32 57
REMARK SMILES IDX 33 58 41 59 34 60 36 61 42 62 35 63 37 64 38 65 39 66 40 67
REMARK SMILES IDX 64 68 65 69 73 70 66 71 68 72 74 73 67 74 69 75 70 76 71 77
REMARK SMILES IDX 72 78 49 79 50 80 58 81 51 82 53 83 59 84 52 85 54 86 55 87
REMARK SMILES IDX 56 88 57 89
REMARK H PARENT 16 6 20 23 79 42 47 53
REMARK Flexibility Score: inf
ROOT
ATOM      1  C   UNL A   1      33.864  29.151  25.489  1.00  0.00     0.042 C 
ENDROOT
BRANCH   1   2
ATOM      2  C   UNL A   1      32.361  28.890  25.537  1.00  0.00     0.117 C 
BRANCH   2   3
ATOM      3  N   UNL A   1      32.044  27.487  25.380  1.00  0.00    -0.356 N 
ATOM      4  O   UNL A   1      31.025  27.197  27.424  1.00  0.00    -0.275 OA
ATOM      5  C   UNL A   1      31.348  26.756  26.325  1.00  0.00     0.224 C 
ATOM      6  H   UNL A   1      32.339  27.029  24.560  1.00  0.00     0.163 HD
BRANCH   5   7
ATOM      7  C   UNL A   1      30.979  25.352  25.857  1.00  0.00     0.137 C 
BRANCH   7   8
ATOM      8  C   UNL A   1      32.035  24.333  26.183  1.00  0.00    -0.021 A 
ATOM      9  C   UNL A   1      31.933  23.295  27.149  1.00  0.00     0.024 A 
ATOM     10  C   UNL A   1      33.296  24.206  25.631  1.00  0.00     0.095 A 
ATOM     11  C   UNL A   1      33.090  22.544  27.089  1.00  0.00     0.091 A 
ATOM     12  N   UNL A   1      33.941  23.117  26.170  1.00  0.00    -0.321 N 
BRANCH  12  13
ATOM     13  C   UNL A   1      35.213  22.644  25.774  1.00  0.00     0.081 A 
ATOM     14  C   UNL A   1      36.322  23.497  25.829  1.00  0.00     0.030 A 
ATOM     15  C   UNL A   1      35.384  21.312  25.387  1.00  0.00     0.147 A 
ATOM     16  C   UNL A   1      37.593  22.996  25.537  1.00  0.00     0.002 A 
ATOM     17  C   UNL A   1      36.645  20.826  25.057  1.00  0.00     0.041 A 
ATOM     18  F   UNL A   1      34.340  20.478  25.268  1.00  0.00    -0.205 F 
ATOM     19  C   UNL A   1      37.755  21.665  25.147  1.00  0.00     0.003 A 
ENDBRANCH  12  13
ENDBRANCH   7   8
ENDBRANCH   5   7
ENDBRANCH   2   3
ENDBRANCH   1   2
BRANCH   1  20
ATOM     20  C   UNL A   1      34.540  29.093  26.862  1.00  0.00     0.118 C 
BRANCH  20  21
ATOM     21  N   UNL A   1      34.857  30.423  27.367  1.00  0.00    -0.352 N 
ATOM     22  C   UNL A   1      35.937  30.830  28.111  1.00  0.00     0.251 C 
ATOM     23  H   UNL A   1      34.205  31.126  27.146  1.00  0.00     0.163 HD
ATOM     24  O   UNL A   1      35.899  31.926  28.669  1.00  0.00    -0.269 OA
BRANCH  22  25
ATOM     25  C   UNL A   1      37.119  29.958  28.287  1.00  0.00     0.039 A 
ATOM     26  C   UNL A   1      38.064  29.916  27.252  1.00  0.00     0.014 A 
ATOM     27  C   UNL A   1      37.281  29.154  29.419  1.00  0.00     0.014 A 
ATOM     28  C   UNL A   1      39.214  29.141  27.392  1.00  0.00     0.010 A 
ATOM     29  C   UNL A   1      38.434  28.380  29.560  1.00  0.00     0.010 A 
ATOM     30  C   UNL A   1      39.420  28.401  28.564  1.00  0.00    -0.014 A 
BRANCH  30  31
ATOM     31  C   UNL A   1      40.762  27.808  28.813  1.00  0.00     0.031 A 
ATOM     32  C   UNL A   1      40.849  26.343  28.343  1.00  0.00     0.074 A 
ATOM     33  C   UNL A   1      41.706  28.585  29.424  1.00  0.00     0.049 A 
ATOM     34  N   UNL A   1      41.505  25.338  28.849  1.00  0.00    -0.248 NA
ATOM     35  C   UNL A   1      39.975  25.901  27.225  1.00  0.00     0.031 C 
ATOM     36  C   UNL A   1      41.494  29.990  29.822  1.00  0.00     0.029 A 
ATOM     37  N   UNL A   1      43.015  28.378  29.826  1.00  0.00    -0.354 N 
ATOM     38  C   UNL A   1      41.287  24.226  27.997  1.00  0.00     0.074 A 
ATOM     39  C   UNL A   1      40.222  24.594  27.117  1.00  0.00     0.031 C 
ATOM     40  C   UNL A   1      42.583  30.478  30.452  1.00  0.00     0.029 A 
ATOM     41  C   UNL A   1      43.622  29.464  30.502  1.00  0.00     0.049 A 
ATOM     42  H   UNL A   1      43.490  27.533  29.655  1.00  0.00     0.167 HD
ATOM     43  C   UNL A   1      42.098  23.127  27.965  1.00  0.00     0.034 A 
ATOM     44  C   UNL A   1      44.855  29.545  31.097  1.00  0.00     0.034 A 
ATOM     45  C   UNL A   1      43.202  23.321  28.847  1.00  0.00     0.049 A 
ATOM     46  C   UNL A   1      45.562  28.290  30.790  1.00  0.00     0.074 A 
ATOM     47  C   UNL A   1      43.375  23.270  30.203  1.00  0.00     0.029 A 
ATOM     48  N   UNL A   1      44.305  23.899  28.269  1.00  0.00    -0.354 N 
ATOM     49  N   UNL A   1      46.054  27.969  29.628  1.00  0.00    -0.248 NA
ATOM     50  C   UNL A   1      45.667  27.267  31.841  1.00  0.00     0.031 C 
ATOM     51  C   UNL A   1      44.443  24.161  30.449  1.00  0.00     0.029 A 
ATOM     52  C   UNL A   1      44.926  24.650  29.230  1.00  0.00     0.049 A 
ATOM     53  H   UNL A   1      44.596  23.794  27.334  1.00  0.00     0.167 HD
ATOM     54  C   UNL A   1      46.195  26.607  29.740  1.00  0.00     0.074 A 
ATOM     55  C   UNL A   1      46.276  26.311  31.150  1.00  0.00     0.031 C 
ATOM     56  C   UNL A   1      45.677  25.799  28.781  1.00  0.00     0.034 A 
BRANCH  43  57
ATOM     57  C   UNL A   1      42.213  21.931  27.038  1.00  0.00     0.023 A 
ATOM     58  C   UNL A   1      41.238  20.909  27.243  1.00  0.00     0.012 A 
ATOM     59  C   UNL A   1      43.307  21.607  26.216  1.00  0.00     0.148 A 
ATOM     60  C   UNL A   1      41.391  19.609  26.764  1.00  0.00     0.002 A 
ATOM     61  C   UNL A   1      43.427  20.313  25.689  1.00  0.00     0.091 A 
ATOM     62  F   UNL A   1      44.272  22.507  26.016  1.00  0.00    -0.205 F 
ATOM     63  C   UNL A   1      42.495  19.309  25.993  1.00  0.00     0.022 A 
BRANCH  61  64
ATOM     64  S   UNL A   1      44.764  19.841  24.583  1.00  0.00     0.127 S 
ATOM     65  O   UNL A   1      44.468  18.427  24.337  1.00  0.00    -0.237 OA
ATOM     66  O   UNL A   1      44.521  20.711  23.424  1.00  0.00    -0.237 OA
ATOM     67  O   UNL A   1      45.987  20.139  25.297  1.00  0.00    -0.744 OA
ENDBRANCH  61  64
ENDBRANCH  43  57
BRANCH  44  68
ATOM     68  C   UNL A   1      45.535  30.512  32.049  1.00  0.00     0.023 A 
ATOM     69  C   UNL A   1      45.012  30.889  33.294  1.00  0.00     0.012 A 
ATOM     70  C   UNL A   1      46.832  31.033  31.750  1.00  0.00     0.148 A 
ATOM     71  C   UNL A   1      45.775  31.618  34.228  1.00  0.00     0.002 A 
ATOM     72  C   UNL A   1      47.631  31.640  32.713  1.00  0.00     0.091 A 
ATOM     73  F   UNL A   1      47.296  30.984  30.497  1.00  0.00    -0.205 F 
ATOM     74  C   UNL A   1      47.101  31.947  33.961  1.00  0.00     0.022 A 
BRANCH  72  75
ATOM     75  S   UNL A   1      49.398  31.900  32.455  1.00  0.00     0.127 S 
ATOM     76  O   UNL A   1      49.837  32.382  33.764  1.00  0.00    -0.237 OA
ATOM     77  O   UNL A   1      49.844  30.547  32.118  1.00  0.00    -0.237 OA
ATOM     78  O   UNL A   1      49.519  32.862  31.368  1.00  0.00    -0.744 OA
ENDBRANCH  72  75
ENDBRANCH  44  68
BRANCH  56  79
ATOM     79  C   UNL A   1      45.629  26.404  27.389  1.00  0.00     0.023 A 
ATOM     80  C   UNL A   1      44.374  26.808  26.901  1.00  0.00     0.012 A 
ATOM     81  C   UNL A   1      46.742  26.524  26.523  1.00  0.00     0.148 A 
ATOM     82  C   UNL A   1      44.230  27.324  25.610  1.00  0.00     0.002 A 
ATOM     83  C   UNL A   1      46.601  27.037  25.233  1.00  0.00     0.091 A 
ATOM     84  F   UNL A   1      47.933  26.131  26.968  1.00  0.00    -0.205 F 
ATOM     85  C   UNL A   1      45.341  27.444  24.778  1.00  0.00     0.022 A 
BRANCH  83  86
ATOM     86  S   UNL A   1      47.964  27.166  24.056  1.00  0.00     0.127 S 
ATOM     87  O   UNL A   1      47.366  27.935  22.961  1.00  0.00    -0.237 OA
ATOM     88  O   UNL A   1      48.967  27.899  24.821  1.00  0.00    -0.237 OA
ATOM     89  O   UNL A   1      48.332  25.804  23.688  1.00  0.00    -0.744 OA
ENDBRANCH  83  86
ENDBRANCH  56  79
ENDBRANCH  30  31
ENDBRANCH  22  25
ENDBRANCH  20  21
ENDBRANCH   1  20
TORSDOF 15
ENDMDL
MODEL 2
REMARK VINA RESULT:     -12.1      4.668     10.056
REMARK SMILES O=C(Cc1ccn(-c2ccccc2F)c1)NCCCNC(=O)c1ccc(-c2c3nc(c(-c4cccc(S(=O)(=O)[O-])c4F)c4ccc([nH]4)c(-c4cccc(S(=O)(=O)[O-])c4F)c4nc(c(-c5cccc(S(=O)(=O)[O-])c5F)c5ccc2[nH]5)C=C4)C=C3)cc1
REMARK SMILES IDX 18 1 17 2 16 3 1 4 2 5 3 7 4 8 5 9 15 10 6 11 7 12 8 13 9 14
REMARK SMILES IDX 13 15 10 16 12 17 14 18 11 19 19 20 20 21 21 22 22 24 23 25
REMARK SMILES IDX 24 26 85 27 25 28 84 29 26 30 27 31 28 32 78 33 29 34 83 35
REMARK SMILES IDX 77 36 79 37 30 38 82 39 76 40 75 41 31 43 63 44 43 45 62 46
REMARK SMILES IDX 44 47 47 48 61 49 80 50 45 51 46 52 60 54 81 55 48 56 32 57
REMARK SMILES IDX 33 58 41 59 34 60 36 61 42 62 35 63 37 64 38 65 39 66 40 67
REMARK SMILES IDX 64 68 65 69 73 70 66 71 68 72 74 73 67 74 69 75 70 76 71 77
REMARK SMILES IDX 72 78 49 79 50 80 58 81 51 82 53 83 59 84 52 85 54 86 55 87
REMARK SMILES IDX 56 88 57 89
REMARK H PARENT 16 6 20 23 79 42 47 53
REMARK Flexibility Score: inf
ROOT
ATOM      1  C   UNL A   1      36.603  22.983  25.748  1.00  0.00     0.042 C 
ENDROOT
BRANCH   1   2
ATOM      2  C   UNL A   1      36.528  22.154  24.468  1.00  0.00     0.117 C 
BRANCH   2   3
ATOM      3  N   UNL A   1      35.674  22.762  23.471  1.00  0.00    -0.356 N 
ATOM      4  O   UNL A   1      33.676  21.952  24.280  1.00  0.00    -0.275 OA
ATOM      5  C   UNL A   1      34.296  22.654  23.485  1.00  0.00     0.224 C 
ATOM      6  H   UNL A   1      36.094  23.276  22.746  1.00  0.00     0.163 HD
BRANCH   5   7
ATOM      7  C   UNL A   1      33.607  23.525  22.440  1.00  0.00     0.137 C 
BRANCH   7   8
ATOM      8  C   UNL A   1      33.462  24.956  22.878  1.00  0.00    -0.021 A 
ATOM      9  C   UNL A   1      33.354  26.090  22.028  1.00  0.00     0.024 A 
ATOM     10  C   UNL A   1      33.418  25.452  24.169  1.00  0.00     0.095 A 
ATOM     11  C   UNL A   1      33.172  27.203  22.825  1.00  0.00     0.091 A 
ATOM     12  N   UNL A   1      33.234  26.815  24.145  1.00  0.00    -0.321 N 
BRANCH  12  13
ATOM     13  C   UNL A   1      33.059  27.633  25.285  1.00  0.00     0.081 A 
ATOM     14  C   UNL A   1      33.944  28.691  25.525  1.00  0.00     0.030 A 
ATOM     15  C   UNL A   1      31.972  27.432  26.140  1.00  0.00     0.147 A 
ATOM     16  C   UNL A   1      33.705  29.560  26.594  1.00  0.00     0.002 A 
ATOM     17  C   UNL A   1      31.761  28.274  27.227  1.00  0.00     0.041 A 
ATOM     18  F   UNL A   1      31.134  26.397  25.976  1.00  0.00    -0.205 F 
ATOM     19  C   UNL A   1      32.619  29.350  27.446  1.00  0.00     0.003 A 
ENDBRANCH  12  13
ENDBRANCH   7   8
ENDBRANCH   5   7
ENDBRANCH   2   3
ENDBRANCH   1   2
BRANCH   1  20
ATOM     20  C   UNL A   1      37.771  23.972  25.769  1.00  0.00     0.118 C 
BRANCH  20  21
ATOM     21  N   UNL A   1      38.995  23.357  26.268  1.00  0.00    -0.352 N 
ATOM     22  C   UNL A   1      40.059  23.945  26.907  1.00  0.00     0.251 C 
ATOM     23  H   UNL A   1      39.069  22.386  26.127  1.00  0.00     0.163 HD
ATOM     24  O   UNL A   1      41.113  23.318  27.014  1.00  0.00    -0.269 OA
BRANCH  22  25
ATOM     25  C   UNL A   1      39.973  25.328  27.425  1.00  0.00     0.039 A 
ATOM     26  C   UNL A   1      39.403  25.522  28.690  1.00  0.00     0.014 A 
ATOM     27  C   UNL A   1      40.394  26.427  26.669  1.00  0.00     0.014 A 
ATOM     28  C   UNL A   1      39.341  26.802  29.236  1.00  0.00     0.010 A 
ATOM     29  C   UNL A   1      40.334  27.710  27.217  1.00  0.00     0.010 A 
ATOM     30  C   UNL A   1      39.841  27.895  28.516  1.00  0.00    -0.014 A 
BRANCH  30  31
ATOM     31  C   UNL A   1      40.019  29.197  29.215  1.00  0.00     0.031 A 
ATOM     32  C   UNL A   1      38.790  30.114  29.061  1.00  0.00     0.074 A 
ATOM     33  C   UNL A   1      41.203  29.426  29.858  1.00  0.00     0.049 A 
ATOM     34  N   UNL A   1      38.720  31.411  28.958  1.00  0.00    -0.248 NA
ATOM     35  C   UNL A   1      37.456  29.489  28.862  1.00  0.00     0.031 C 
ATOM     36  C   UNL A   1      42.308  28.452  29.935  1.00  0.00     0.029 A 
ATOM     37  N   UNL A   1      41.724  30.492  30.573  1.00  0.00    -0.354 N 
ATOM     38  C   UNL A   1      37.345  31.750  28.896  1.00  0.00     0.074 A 
ATOM     39  C   UNL A   1      36.635  30.527  28.684  1.00  0.00     0.031 C 
ATOM     40  C   UNL A   1      43.367  28.979  30.584  1.00  0.00     0.029 A 
ATOM     41  C   UNL A   1      43.056  30.329  31.022  1.00  0.00     0.049 A 
ATOM     42  H   UNL A   1      41.203  31.307  30.756  1.00  0.00     0.167 HD
ATOM     43  C   UNL A   1      36.860  32.996  29.177  1.00  0.00     0.034 A 
ATOM     44  C   UNL A   1      43.877  31.218  31.668  1.00  0.00     0.034 A 
ATOM     45  C   UNL A   1      37.928  33.841  29.602  1.00  0.00     0.049 A 
ATOM     46  C   UNL A   1      43.064  32.410  31.969  1.00  0.00     0.074 A 
ATOM     47  C   UNL A   1      38.946  34.502  28.971  1.00  0.00     0.029 A 
ATOM     48  N   UNL A   1      38.153  33.846  30.956  1.00  0.00    -0.354 N 
ATOM     49  N   UNL A   1      42.138  32.476  32.881  1.00  0.00    -0.248 NA
ATOM     50  C   UNL A   1      43.239  33.608  31.135  1.00  0.00     0.031 C 
ATOM     51  C   UNL A   1      39.964  34.581  29.947  1.00  0.00     0.029 A 
ATOM     52  C   UNL A   1      39.494  34.041  31.149  1.00  0.00     0.049 A 
ATOM     53  H   UNL A   1      37.474  33.730  31.661  1.00  0.00     0.167 HD
ATOM     54  C   UNL A   1      41.419  33.576  32.483  1.00  0.00     0.074 A 
ATOM     55  C   UNL A   1      42.301  34.380  31.671  1.00  0.00     0.031 C 
ATOM     56  C   UNL A   1      40.072  33.482  32.349  1.00  0.00     0.034 A 
BRANCH  43  57
ATOM     57  C   UNL A   1      35.467  33.561  29.384  1.00  0.00     0.023 A 
ATOM     58  C   UNL A   1      34.707  33.756  28.192  1.00  0.00     0.012 A 
ATOM     59  C   UNL A   1      34.966  34.152  30.558  1.00  0.00     0.148 A 
ATOM     60  C   UNL A   1      33.586  34.583  28.134  1.00  0.00     0.002 A 
ATOM     61  C   UNL A   1      33.804  34.936  30.506  1.00  0.00     0.091 A 
ATOM     62  F   UNL A   1      35.650  34.037  31.699  1.00  0.00    -0.205 F 
ATOM     63  C   UNL A   1      33.141  35.182  29.295  1.00  0.00     0.022 A 
BRANCH  61  64
ATOM     64  S   UNL A   1      33.071  35.674  31.972  1.00  0.00     0.127 S 
ATOM     65  O   UNL A   1      34.220  36.352  32.577  1.00  0.00    -0.237 OA
ATOM     66  O   UNL A   1      32.078  36.586  31.389  1.00  0.00    -0.237 OA
ATOM     67  O   UNL A   1      32.494  34.575  32.718  1.00  0.00    -0.744 OA
ENDBRANCH  61  64
ENDBRANCH  43  57
BRANCH  44  68
ATOM     68  C   UNL A   1      45.361  31.290  31.982  1.00  0.00     0.023 A 
ATOM     69  C   UNL A   1      45.900  31.151  33.269  1.00  0.00     0.012 A 
ATOM     70  C   UNL A   1      46.319  31.418  30.930  1.00  0.00     0.148 A 
ATOM     71  C   UNL A   1      47.287  31.013  33.479  1.00  0.00     0.002 A 
ATOM     72  C   UNL A   1      47.672  31.157  31.119  1.00  0.00     0.091 A 
ATOM     73  F   UNL A   1      45.931  31.844  29.723  1.00  0.00    -0.205 F 
ATOM     74  C   UNL A   1      48.167  30.962  32.403  1.00  0.00     0.022 A 
BRANCH  72  75
ATOM     75  S   UNL A   1      48.793  30.896  29.729  1.00  0.00     0.127 S 
ATOM     76  O   UNL A   1      48.095  29.873  28.952  1.00  0.00    -0.237 OA
ATOM     77  O   UNL A   1      48.811  32.225  29.117  1.00  0.00    -0.237 OA
ATOM     78  O   UNL A   1      50.066  30.479  30.300  1.00  0.00    -0.744 OA
ENDBRANCH  72  75
ENDBRANCH  44  68
BRANCH  56  79
ATOM     79  C   UNL A   1      39.403  32.484  33.277  1.00  0.00     0.023 A 
ATOM     80  C   UNL A   1      38.986  31.262  32.721  1.00  0.00     0.012 A 
ATOM     81  C   UNL A   1      39.105  32.723  34.640  1.00  0.00     0.148 A 
ATOM     82  C   UNL A   1      38.313  30.308  33.491  1.00  0.00     0.002 A 
ATOM     83  C   UNL A   1      38.432  31.774  35.410  1.00  0.00     0.091 A 
ATOM     84  F   UNL A   1      39.480  33.883  35.173  1.00  0.00    -0.205 F 
ATOM     85  C   UNL A   1      38.040  30.560  34.833  1.00  0.00     0.022 A 
BRANCH  83  86
ATOM     86  S   UNL A   1      37.969  32.034  37.135  1.00  0.00     0.127 S 
ATOM     87  O   UNL A   1      36.961  33.094  37.037  1.00  0.00    -0.237 OA
ATOM     88  O   UNL A   1      37.431  30.731  37.512  1.00  0.00    -0.237 OA
ATOM     89  O   UNL A   1      39.181  32.436  37.839  1.00  0.00    -0.744 OA
ENDBRANCH  83  86
ENDBRANCH  56  79
ENDBRANCH  30  31
ENDBRANCH  22  25
ENDBRANCH  20  21
ENDBRANCH   1  20
TORSDOF 15
ENDMDL
MODEL 3
REMARK VINA RESULT:     -12.1      3.380      5.744
REMARK SMILES O=C(Cc1ccn(-c2ccccc2F)c1)NCCCNC(=O)c1ccc(-c2c3nc(c(-c4cccc(S(=O)(=O)[O-])c4F)c4ccc([nH]4)c(-c4cccc(S(=O)(=O)[O-])c4F)c4nc(c(-c5cccc(S(=O)(=O)[O-])c5F)c5ccc2[nH]5)C=C4)C=C3)cc1
REMARK SMILES IDX 18 1 17 2 16 3 1 4 2 5 3 7 4 8 5 9 15 10 6 11 7 12 8 13 9 14
REMARK SMILES IDX 13 15 10 16 12 17 14 18 11 19 19 20 20 21 21 22 22 24 23 25
REMARK SMILES IDX 24 26 85 27 25 28 84 29 26 30 27 31 28 32 78 33 29 34 83 35
REMARK SMILES IDX 77 36 79 37 30 38 82 39 76 40 75 41 31 43 63 44 43 45 62 46
REMARK SMILES IDX 44 47 47 48 61 49 80 50 45 51 46 52 60 54 81 55 48 56 32 57
REMARK SMILES IDX 33 58 41 59 34 60 36 61 42 62 35 63 37 64 38 65 39 66 40 67
REMARK SMILES IDX 64 68 65 69 73 70 66 71 68 72 74 73 67 74 69 75 70 76 71 77
REMARK SMILES IDX 72 78 49 79 50 80 58 81 51 82 53 83 59 84 52 85 54 86 55 87
REMARK SMILES IDX 56 88 57 89
REMARK H PARENT 16 6 20 23 79 42 47 53
REMARK Flexibility Score: inf
ROOT
ATOM      1  C   UNL A   1      36.721  32.681  31.503  1.00  0.00     0.042 C 
ENDROOT
BRANCH   1   2
ATOM      2  C   UNL A   1      37.114  31.400  32.233  1.00  0.00     0.117 C 
BRANCH   2   3
ATOM      3  N   UNL A   1      38.512  31.388  32.606  1.00  0.00    -0.356 N 
ATOM      4  O   UNL A   1      38.364  29.739  34.206  1.00  0.00    -0.275 OA
ATOM      5  C   UNL A   1      39.041  30.514  33.536  1.00  0.00     0.224 C 
ATOM      6  H   UNL A   1      39.116  32.036  32.177  1.00  0.00     0.163 HD
BRANCH   5   7
ATOM      7  C   UNL A   1      40.563  30.572  33.628  1.00  0.00     0.137 C 
BRANCH   7   8
ATOM      8  C   UNL A   1      41.145  29.417  34.394  1.00  0.00    -0.021 A 
ATOM      9  C   UNL A   1      41.361  29.361  35.798  1.00  0.00     0.024 A 
ATOM     10  C   UNL A   1      41.590  28.204  33.900  1.00  0.00     0.095 A 
ATOM     11  C   UNL A   1      41.848  28.107  36.104  1.00  0.00     0.091 A 
ATOM     12  N   UNL A   1      42.012  27.399  34.933  1.00  0.00    -0.321 N 
BRANCH  12  13
ATOM     13  C   UNL A   1      42.450  26.062  34.797  1.00  0.00     0.081 A 
ATOM     14  C   UNL A   1      43.647  25.786  34.125  1.00  0.00     0.030 A 
ATOM     15  C   UNL A   1      41.729  25.018  35.383  1.00  0.00     0.147 A 
ATOM     16  C   UNL A   1      44.128  24.475  34.085  1.00  0.00     0.002 A 
ATOM     17  C   UNL A   1      42.190  23.708  35.307  1.00  0.00     0.041 A 
ATOM     18  F   UNL A   1      40.551  25.234  35.988  1.00  0.00    -0.205 F 
ATOM     19  C   UNL A   1      43.400  23.437  34.670  1.00  0.00     0.003 A 
ENDBRANCH  12  13
ENDBRANCH   7   8
ENDBRANCH   5   7
ENDBRANCH   2   3
ENDBRANCH   1   2
BRANCH   1  20
ATOM     20  C   UNL A   1      36.950  32.619  29.990  1.00  0.00     0.118 C 
BRANCH  20  21
ATOM     21  N   UNL A   1      35.895  31.876  29.312  1.00  0.00    -0.352 N 
ATOM     22  C   UNL A   1      35.976  30.684  28.634  1.00  0.00     0.251 C 
ATOM     23  H   UNL A   1      35.001  32.286  29.343  1.00  0.00     0.163 HD
ATOM     24  O   UNL A   1      35.044  30.348  27.903  1.00  0.00    -0.269 OA
BRANCH  22  25
ATOM     25  C   UNL A   1      37.177  29.826  28.733  1.00  0.00     0.039 A 
ATOM     26  C   UNL A   1      38.097  29.860  27.676  1.00  0.00     0.014 A 
ATOM     27  C   UNL A   1      37.382  28.964  29.814  1.00  0.00     0.014 A 
ATOM     28  C   UNL A   1      39.263  29.101  27.745  1.00  0.00     0.010 A 
ATOM     29  C   UNL A   1      38.552  28.205  29.884  1.00  0.00     0.010 A 
ATOM     30  C   UNL A   1      39.512  28.301  28.867  1.00  0.00    -0.014 A 
BRANCH  30  31
ATOM     31  C   UNL A   1      40.870  27.721  29.052  1.00  0.00     0.031 A 
ATOM     32  C   UNL A   1      40.952  26.262  28.563  1.00  0.00     0.074 A 
ATOM     33  C   UNL A   1      41.832  28.503  29.628  1.00  0.00     0.049 A 
ATOM     34  N   UNL A   1      41.642  25.260  29.029  1.00  0.00    -0.248 NA
ATOM     35  C   UNL A   1      40.035  25.821  27.480  1.00  0.00     0.031 C 
ATOM     36  C   UNL A   1      41.622  29.902  30.049  1.00  0.00     0.029 A 
ATOM     37  N   UNL A   1      43.159  28.307  29.970  1.00  0.00    -0.354 N 
ATOM     38  C   UNL A   1      41.398  24.154  28.177  1.00  0.00     0.074 A 
ATOM     39  C   UNL A   1      40.292  24.518  27.348  1.00  0.00     0.031 C 
ATOM     40  C   UNL A   1      42.732  30.397  30.635  1.00  0.00     0.029 A 
ATOM     41  C   UNL A   1      43.783  29.394  30.629  1.00  0.00     0.049 A 
ATOM     42  H   UNL A   1      43.636  27.470  29.769  1.00  0.00     0.167 HD
ATOM     43  C   UNL A   1      42.219  23.065  28.097  1.00  0.00     0.034 A 
ATOM     44  C   UNL A   1      45.041  29.483  31.170  1.00  0.00     0.034 A 
ATOM     45  C   UNL A   1      43.359  23.263  28.932  1.00  0.00     0.049 A 
ATOM     46  C   UNL A   1      45.747  28.239  30.819  1.00  0.00     0.074 A 
ATOM     47  C   UNL A   1      43.592  23.200  30.278  1.00  0.00     0.029 A 
ATOM     48  N   UNL A   1      44.429  23.859  28.312  1.00  0.00    -0.354 N 
ATOM     49  N   UNL A   1      46.190  27.935  29.634  1.00  0.00    -0.248 NA
ATOM     50  C   UNL A   1      45.910  27.208  31.854  1.00  0.00     0.031 C 
ATOM     51  C   UNL A   1      44.660  24.101  30.486  1.00  0.00     0.029 A 
ATOM     52  C   UNL A   1      45.083  24.608  29.252  1.00  0.00     0.049 A 
ATOM     53  H   UNL A   1      44.680  23.766  27.364  1.00  0.00     0.167 HD
ATOM     54  C   UNL A   1      46.352  26.575  29.725  1.00  0.00     0.074 A 
ATOM     55  C   UNL A   1      46.499  26.265  31.127  1.00  0.00     0.031 C 
ATOM     56  C   UNL A   1      45.801  25.770  28.782  1.00  0.00     0.034 A 
BRANCH  43  57
ATOM     57  C   UNL A   1      42.306  21.878  27.154  1.00  0.00     0.023 A 
ATOM     58  C   UNL A   1      41.366  20.834  27.404  1.00  0.00     0.012 A 
ATOM     59  C   UNL A   1      43.358  21.586  26.269  1.00  0.00     0.148 A 
ATOM     60  C   UNL A   1      41.519  19.542  26.905  1.00  0.00     0.002 A 
ATOM     61  C   UNL A   1      43.475  20.299  25.723  1.00  0.00     0.091 A 
ATOM     62  F   UNL A   1      44.291  22.508  26.022  1.00  0.00    -0.205 F 
ATOM     63  C   UNL A   1      42.584  19.272  26.070  1.00  0.00     0.022 A 
BRANCH  61  64
ATOM     64  S   UNL A   1      44.756  19.865  24.538  1.00  0.00     0.127 S 
ATOM     65  O   UNL A   1      44.522  20.839  23.468  1.00  0.00    -0.237 OA
ATOM     66  O   UNL A   1      45.981  20.111  25.311  1.00  0.00    -0.237 OA
ATOM     67  O   UNL A   1      44.534  18.472  24.213  1.00  0.00    -0.744 OA
ENDBRANCH  61  64
ENDBRANCH  43  57
BRANCH  44  68
ATOM     68  C   UNL A   1      45.752  30.449  32.101  1.00  0.00     0.023 A 
ATOM     69  C   UNL A   1      46.817  31.274  31.714  1.00  0.00     0.012 A 
ATOM     70  C   UNL A   1      45.293  30.634  33.441  1.00  0.00     0.148 A 
ATOM     71  C   UNL A   1      47.301  32.300  32.551  1.00  0.00     0.002 A 
ATOM     72  C   UNL A   1      45.680  31.721  34.217  1.00  0.00     0.091 A 
ATOM     73  F   UNL A   1      44.496  29.721  34.005  1.00  0.00    -0.205 F 
ATOM     74  C   UNL A   1      46.699  32.559  33.778  1.00  0.00     0.022 A 
BRANCH  72  75
ATOM     75  S   UNL A   1      44.786  32.187  35.715  1.00  0.00     0.127 S 
ATOM     76  O   UNL A   1      43.395  32.175  35.265  1.00  0.00    -0.237 OA
ATOM     77  O   UNL A   1      45.148  31.094  36.620  1.00  0.00    -0.237 OA
ATOM     78  O   UNL A   1      45.299  33.491  36.111  1.00  0.00    -0.744 OA
ENDBRANCH  72  75
ENDBRANCH  44  68
BRANCH  56  79
ATOM     79  C   UNL A   1      45.685  26.388  27.400  1.00  0.00     0.023 A 
ATOM     80  C   UNL A   1      44.405  26.786  26.974  1.00  0.00     0.012 A 
ATOM     81  C   UNL A   1      46.756  26.525  26.485  1.00  0.00     0.148 A 
ATOM     82  C   UNL A   1      44.199  27.314  25.695  1.00  0.00     0.002 A 
ATOM     83  C   UNL A   1      46.552  27.049  25.208  1.00  0.00     0.091 A 
ATOM     84  F   UNL A   1      47.969  26.136  26.871  1.00  0.00    -0.205 F 
ATOM     85  C   UNL A   1      45.269  27.450  24.815  1.00  0.00     0.022 A 
BRANCH  83  86
ATOM     86  S   UNL A   1      47.859  27.200  23.971  1.00  0.00     0.127 S 
ATOM     87  O   UNL A   1      48.939  27.838  24.727  1.00  0.00    -0.237 OA
ATOM     88  O   UNL A   1      48.117  25.807  23.620  1.00  0.00    -0.237 OA
ATOM     89  O   UNL A   1      47.325  28.025  22.894  1.00  0.00    -0.744 OA
ENDBRANCH  83  86
ENDBRANCH  56  79
ENDBRANCH  30  31
ENDBRANCH  22  25
ENDBRANCH  20  21
ENDBRANCH   1  20
TORSDOF 15
ENDMDL
