MODEL 1
REMARK VINA RESULT:     -11.3      0.000      0.000
REMARK SMILES C[C@H](NC(=O)c1ccc(N)cc1)C(=O)NCCCNC(=O)c1ccc(-c2c3nc(c(-c4cccc(S(=O)(=O)[O-])c4F)c4ccc([nH]4)c(-c4cccc(S(=O)(=O)[O-])c4F)c4nc(c(-c5cccc(S(=O)(=O)[O-])c5F)c5ccc2[nH]5)C=C4)C=C3)cc1
REMARK SMILES IDX 17 1 16 2 15 3 13 4 14 5 2 7 1 8 3 9 4 10 5 12 6 13 7 14
REMARK SMILES IDX 12 15 8 16 11 17 9 18 10 19 18 22 19 23 20 24 21 26 22 27
REMARK SMILES IDX 23 28 84 29 24 30 83 31 25 32 26 33 27 34 77 35 28 36 82 37
REMARK SMILES IDX 76 38 78 39 29 40 81 41 75 42 74 43 30 45 62 46 42 47 61 48
REMARK SMILES IDX 43 49 46 50 60 51 79 52 44 53 45 54 59 56 80 57 47 58 31 59
REMARK SMILES IDX 32 60 40 61 33 62 35 63 41 64 34 65 36 66 37 67 38 68 39 69
REMARK SMILES IDX 63 70 64 71 72 72 65 73 67 74 73 75 66 76 68 77 69 78 70 79
REMARK SMILES IDX 71 80 48 81 49 82 57 83 50 84 52 85 58 86 51 87 53 88 54 89
REMARK SMILES IDX 55 90 56 91
REMARK H PARENT 15 6 3 11 10 20 10 21 19 25 78 44 46 55
REMARK Flexibility Score: inf
ROOT
ATOM      1  C   UNL A   1      31.965  28.044  26.227  1.00  0.00     0.042 C 
ENDROOT
BRANCH   1   2
ATOM      2  C   UNL A   1      32.548  26.642  26.169  1.00  0.00     0.117 C 
BRANCH   2   3
ATOM      3  N   UNL A   1      31.684  25.649  26.788  1.00  0.00    -0.354 N 
ATOM      4  C   UNL A   1      31.181  24.491  26.262  1.00  0.00     0.242 C 
ATOM      5  O   UNL A   1      30.586  23.714  27.012  1.00  0.00    -0.273 OA
ATOM      6  H   UNL A   1      31.424  25.837  27.718  1.00  0.00     0.163 HD
BRANCH   4   7
ATOM      7  C   UNL A   1      31.449  24.132  24.787  1.00  0.00     0.168 C 
ATOM      8  C   UNL A   1      30.343  24.751  23.928  1.00  0.00     0.041 C 
BRANCH   7   9
ATOM      9  N   UNL A   1      31.654  22.680  24.702  1.00  0.00    -0.341 N 
ATOM     10  C   UNL A   1      32.766  21.890  24.772  1.00  0.00     0.251 C 
ATOM     11  H   UNL A   1      30.820  22.174  24.567  1.00  0.00     0.164 HD
ATOM     12  O   UNL A   1      32.661  20.670  24.708  1.00  0.00    -0.269 OA
BRANCH  10  13
ATOM     13  C   UNL A   1      34.102  22.493  24.825  1.00  0.00     0.039 A 
ATOM     14  C   UNL A   1      34.881  22.638  23.679  1.00  0.00     0.016 A 
ATOM     15  C   UNL A   1      34.591  22.882  26.074  1.00  0.00     0.016 A 
ATOM     16  C   UNL A   1      36.195  23.097  23.802  1.00  0.00     0.026 A 
ATOM     17  C   UNL A   1      35.902  23.345  26.183  1.00  0.00     0.026 A 
ATOM     18  C   UNL A   1      36.715  23.458  25.051  1.00  0.00     0.031 A 
BRANCH  18  19
ATOM     19  N   UNL A   1      38.053  23.791  25.184  1.00  0.00    -0.399 N 
ATOM     20  H   UNL A   1      38.469  24.417  24.550  1.00  0.00     0.156 HD
ATOM     21  H   UNL A   1      38.587  23.401  25.914  1.00  0.00     0.156 HD
ENDBRANCH  18  19
ENDBRANCH  10  13
ENDBRANCH   7   9
ENDBRANCH   4   7
ENDBRANCH   2   3
ENDBRANCH   1   2
BRANCH   1  22
ATOM     22  C   UNL A   1      32.935  29.131  25.788  1.00  0.00     0.118 C 
BRANCH  22  23
ATOM     23  N   UNL A   1      32.489  30.472  26.156  1.00  0.00    -0.352 N 
ATOM     24  C   UNL A   1      33.068  31.373  27.017  1.00  0.00     0.251 C 
ATOM     25  H   UNL A   1      31.656  30.773  25.725  1.00  0.00     0.163 HD
ATOM     26  O   UNL A   1      32.470  32.399  27.328  1.00  0.00    -0.269 OA
BRANCH  24  27
ATOM     27  C   UNL A   1      34.402  31.085  27.580  1.00  0.00     0.039 A 
ATOM     28  C   UNL A   1      35.335  32.119  27.693  1.00  0.00     0.014 A 
ATOM     29  C   UNL A   1      34.716  29.798  28.024  1.00  0.00     0.014 A 
ATOM     30  C   UNL A   1      36.558  31.879  28.327  1.00  0.00     0.010 A 
ATOM     31  C   UNL A   1      35.897  29.583  28.724  1.00  0.00     0.010 A 
ATOM     32  C   UNL A   1      36.830  30.619  28.881  1.00  0.00    -0.014 A 
BRANCH  32  33
ATOM     33  C   UNL A   1      38.077  30.338  29.635  1.00  0.00     0.031 A 
ATOM     34  C   UNL A   1      39.092  29.387  29.060  1.00  0.00     0.074 A 
ATOM     35  C   UNL A   1      38.230  30.821  30.884  1.00  0.00     0.049 A 
ATOM     36  N   UNL A   1      40.149  28.868  29.624  1.00  0.00    -0.248 NA
ATOM     37  C   UNL A   1      38.862  28.929  27.679  1.00  0.00     0.031 C 
ATOM     38  C   UNL A   1      37.280  31.693  31.579  1.00  0.00     0.029 A 
ATOM     39  N   UNL A   1      39.224  30.612  31.807  1.00  0.00    -0.354 N 
ATOM     40  C   UNL A   1      40.677  27.981  28.693  1.00  0.00     0.074 A 
ATOM     41  C   UNL A   1      39.812  28.017  27.535  1.00  0.00     0.031 C 
ATOM     42  C   UNL A   1      37.733  31.937  32.819  1.00  0.00     0.029 A 
ATOM     43  C   UNL A   1      38.986  31.216  33.020  1.00  0.00     0.049 A 
ATOM     44  H   UNL A   1      40.031  30.080  31.619  1.00  0.00     0.167 HD
ATOM     45  C   UNL A   1      41.796  27.225  28.784  1.00  0.00     0.034 A 
ATOM     46  C   UNL A   1      39.691  31.181  34.168  1.00  0.00     0.034 A 
ATOM     47  C   UNL A   1      42.693  27.251  29.907  1.00  0.00     0.049 A 
ATOM     48  C   UNL A   1      40.973  30.393  34.214  1.00  0.00     0.074 A 
ATOM     49  C   UNL A   1      43.900  26.594  30.058  1.00  0.00     0.029 A 
ATOM     50  N   UNL A   1      42.485  27.982  31.066  1.00  0.00    -0.354 N 
ATOM     51  N   UNL A   1      41.529  29.670  33.271  1.00  0.00    -0.248 NA
ATOM     52  C   UNL A   1      41.742  30.443  35.465  1.00  0.00     0.031 C 
ATOM     53  C   UNL A   1      44.424  26.930  31.311  1.00  0.00     0.029 A 
ATOM     54  C   UNL A   1      43.545  27.801  31.934  1.00  0.00     0.049 A 
ATOM     55  H   UNL A   1      41.698  28.546  31.243  1.00  0.00     0.167 HD
ATOM     56  C   UNL A   1      42.731  29.214  33.801  1.00  0.00     0.074 A 
ATOM     57  C   UNL A   1      42.828  29.753  35.142  1.00  0.00     0.031 C 
ATOM     58  C   UNL A   1      43.662  28.409  33.234  1.00  0.00     0.034 A 
BRANCH  45  59
ATOM     59  C   UNL A   1      42.151  26.358  27.606  1.00  0.00     0.023 A 
ATOM     60  C   UNL A   1      42.896  26.910  26.543  1.00  0.00     0.012 A 
ATOM     61  C   UNL A   1      41.798  24.996  27.568  1.00  0.00     0.148 A 
ATOM     62  C   UNL A   1      43.254  26.129  25.446  1.00  0.00     0.002 A 
ATOM     63  C   UNL A   1      42.194  24.213  26.490  1.00  0.00     0.091 A 
ATOM     64  F   UNL A   1      41.067  24.494  28.575  1.00  0.00    -0.205 F 
ATOM     65  C   UNL A   1      42.914  24.779  25.425  1.00  0.00     0.022 A 
BRANCH  63  66
ATOM     66  S   UNL A   1      41.867  22.448  26.410  1.00  0.00     0.127 S 
ATOM     67  O   UNL A   1      40.407  22.421  26.351  1.00  0.00    -0.237 OA
ATOM     68  O   UNL A   1      42.534  22.063  25.165  1.00  0.00    -0.237 OA
ATOM     69  O   UNL A   1      42.462  21.879  27.612  1.00  0.00    -0.744 OA
ENDBRANCH  63  66
ENDBRANCH  45  59
BRANCH  46  70
ATOM     70  C   UNL A   1      39.243  31.983  35.340  1.00  0.00     0.023 A 
ATOM     71  C   UNL A   1      38.366  31.396  36.274  1.00  0.00     0.012 A 
ATOM     72  C   UNL A   1      39.700  33.296  35.560  1.00  0.00     0.148 A 
ATOM     73  C   UNL A   1      37.930  32.111  37.390  1.00  0.00     0.002 A 
ATOM     74  C   UNL A   1      39.300  33.986  36.701  1.00  0.00     0.091 A 
ATOM     75  F   UNL A   1      40.522  33.844  34.655  1.00  0.00    -0.205 F 
ATOM     76  C   UNL A   1      38.404  33.400  37.609  1.00  0.00     0.022 A 
BRANCH  74  77
ATOM     77  S   UNL A   1      39.960  35.601  37.125  1.00  0.00     0.127 S 
ATOM     78  O   UNL A   1      39.284  35.879  38.389  1.00  0.00    -0.237 OA
ATOM     79  O   UNL A   1      41.393  35.325  37.240  1.00  0.00    -0.237 OA
ATOM     80  O   UNL A   1      39.606  36.469  36.009  1.00  0.00    -0.744 OA
ENDBRANCH  74  77
ENDBRANCH  46  70
BRANCH  58  81
ATOM     81  C   UNL A   1      44.897  28.094  34.032  1.00  0.00     0.023 A 
ATOM     82  C   UNL A   1      46.010  28.953  33.964  1.00  0.00     0.012 A 
ATOM     83  C   UNL A   1      44.914  27.004  34.925  1.00  0.00     0.148 A 
ATOM     84  C   UNL A   1      47.131  28.722  34.760  1.00  0.00     0.002 A 
ATOM     85  C   UNL A   1      46.017  26.805  35.745  1.00  0.00     0.091 A 
ATOM     86  F   UNL A   1      43.851  26.186  34.958  1.00  0.00    -0.205 F 
ATOM     87  C   UNL A   1      47.130  27.658  35.659  1.00  0.00     0.022 A 
BRANCH  85  88
ATOM     88  S   UNL A   1      46.060  25.515  36.996  1.00  0.00     0.127 S 
ATOM     89  O   UNL A   1      47.331  25.788  37.662  1.00  0.00    -0.237 OA
ATOM     90  O   UNL A   1      44.873  25.816  37.798  1.00  0.00    -0.237 OA
ATOM     91  O   UNL A   1      45.990  24.253  36.269  1.00  0.00    -0.744 OA
ENDBRANCH  85  88
ENDBRANCH  58  81
ENDBRANCH  32  33
ENDBRANCH  24  27
ENDBRANCH  22  23
ENDBRANCH   1  22
TORSDOF 16
ENDMDL
MODEL 2
REMARK VINA RESULT:     -11.2      1.625      1.909
REMARK SMILES C[C@H](NC(=O)c1ccc(N)cc1)C(=O)NCCCNC(=O)c1ccc(-c2c3nc(c(-c4cccc(S(=O)(=O)[O-])c4F)c4ccc([nH]4)c(-c4cccc(S(=O)(=O)[O-])c4F)c4nc(c(-c5cccc(S(=O)(=O)[O-])c5F)c5ccc2[nH]5)C=C4)C=C3)cc1
REMARK SMILES IDX 17 1 16 2 15 3 13 4 14 5 2 7 1 8 3 9 4 10 5 12 6 13 7 14
REMARK SMILES IDX 12 15 8 16 11 17 9 18 10 19 18 22 19 23 20 24 21 26 22 27
REMARK SMILES IDX 23 28 84 29 24 30 83 31 25 32 26 33 27 34 77 35 28 36 82 37
REMARK SMILES IDX 76 38 78 39 29 40 81 41 75 42 74 43 30 45 62 46 42 47 61 48
REMARK SMILES IDX 43 49 46 50 60 51 79 52 44 53 45 54 59 56 80 57 47 58 31 59
REMARK SMILES IDX 32 60 40 61 33 62 35 63 41 64 34 65 36 66 37 67 38 68 39 69
REMARK SMILES IDX 63 70 64 71 72 72 65 73 67 74 73 75 66 76 68 77 69 78 70 79
REMARK SMILES IDX 71 80 48 81 49 82 57 83 50 84 52 85 58 86 51 87 53 88 54 89
REMARK SMILES IDX 55 90 56 91
REMARK H PARENT 15 6 3 11 10 20 10 21 19 25 78 44 46 55
REMARK Flexibility Score: inf
ROOT
ATOM      1  C   UNL A   1      33.254  28.852  24.498  1.00  0.00     0.042 C 
ENDROOT
BRANCH   1   2
ATOM      2  C   UNL A   1      33.258  27.395  24.068  1.00  0.00     0.117 C 
BRANCH   2   3
ATOM      3  N   UNL A   1      31.918  26.866  23.863  1.00  0.00    -0.354 N 
ATOM      4  C   UNL A   1      31.511  25.818  23.084  1.00  0.00     0.242 C 
ATOM      5  O   UNL A   1      30.340  25.442  23.170  1.00  0.00    -0.273 OA
ATOM      6  H   UNL A   1      31.202  27.329  24.354  1.00  0.00     0.163 HD
BRANCH   4   7
ATOM      7  C   UNL A   1      32.529  25.070  22.202  1.00  0.00     0.168 C 
ATOM      8  C   UNL A   1      32.391  25.577  20.764  1.00  0.00     0.041 C 
BRANCH   7   9
ATOM      9  N   UNL A   1      32.367  23.629  22.441  1.00  0.00    -0.341 N 
ATOM     10  C   UNL A   1      33.077  22.720  23.172  1.00  0.00     0.251 C 
ATOM     11  H   UNL A   1      31.588  23.241  21.981  1.00  0.00     0.164 HD
ATOM     12  O   UNL A   1      32.701  21.555  23.240  1.00  0.00    -0.269 OA
BRANCH  10  13
ATOM     13  C   UNL A   1      34.346  23.103  23.801  1.00  0.00     0.039 A 
ATOM     14  C   UNL A   1      35.563  22.939  23.142  1.00  0.00     0.016 A 
ATOM     15  C   UNL A   1      34.302  23.599  25.106  1.00  0.00     0.016 A 
ATOM     16  C   UNL A   1      36.750  23.196  23.832  1.00  0.00     0.026 A 
ATOM     17  C   UNL A   1      35.494  23.858  25.782  1.00  0.00     0.026 A 
ATOM     18  C   UNL A   1      36.727  23.660  25.153  1.00  0.00     0.031 A 
BRANCH  18  19
ATOM     19  N   UNL A   1      37.904  23.792  25.871  1.00  0.00    -0.399 N 
ATOM     20  H   UNL A   1      38.606  24.406  25.558  1.00  0.00     0.156 HD
ATOM     21  H   UNL A   1      38.039  23.270  26.696  1.00  0.00     0.156 HD
ENDBRANCH  18  19
ENDBRANCH  10  13
ENDBRANCH   7   9
ENDBRANCH   4   7
ENDBRANCH   2   3
ENDBRANCH   1   2
BRANCH   1  22
ATOM     22  C   UNL A   1      32.812  29.066  25.938  1.00  0.00     0.118 C 
BRANCH  22  23
ATOM     23  N   UNL A   1      32.406  30.442  26.208  1.00  0.00    -0.352 N 
ATOM     24  C   UNL A   1      33.013  31.384  27.005  1.00  0.00     0.251 C 
ATOM     25  H   UNL A   1      31.583  30.736  25.756  1.00  0.00     0.163 HD
ATOM     26  O   UNL A   1      32.446  32.446  27.241  1.00  0.00    -0.269 OA
BRANCH  24  27
ATOM     27  C   UNL A   1      34.338  31.097  27.590  1.00  0.00     0.039 A 
ATOM     28  C   UNL A   1      35.265  32.134  27.726  1.00  0.00     0.014 A 
ATOM     29  C   UNL A   1      34.649  29.808  28.030  1.00  0.00     0.014 A 
ATOM     30  C   UNL A   1      36.477  31.894  28.380  1.00  0.00     0.010 A 
ATOM     31  C   UNL A   1      35.818  29.592  28.748  1.00  0.00     0.010 A 
ATOM     32  C   UNL A   1      36.744  30.631  28.929  1.00  0.00    -0.014 A 
BRANCH  32  33
ATOM     33  C   UNL A   1      37.979  30.349  29.703  1.00  0.00     0.031 A 
ATOM     34  C   UNL A   1      38.999  29.393  29.147  1.00  0.00     0.074 A 
ATOM     35  C   UNL A   1      38.115  30.837  30.952  1.00  0.00     0.049 A 
ATOM     36  N   UNL A   1      40.047  28.873  29.729  1.00  0.00    -0.248 NA
ATOM     37  C   UNL A   1      38.789  28.930  27.765  1.00  0.00     0.031 C 
ATOM     38  C   UNL A   1      37.158  31.715  31.629  1.00  0.00     0.029 A 
ATOM     39  N   UNL A   1      39.095  30.629  31.890  1.00  0.00    -0.354 N 
ATOM     40  C   UNL A   1      40.585  27.980  28.810  1.00  0.00     0.074 A 
ATOM     41  C   UNL A   1      39.737  28.014  27.639  1.00  0.00     0.031 C 
ATOM     42  C   UNL A   1      37.593  31.963  32.875  1.00  0.00     0.029 A 
ATOM     43  C   UNL A   1      38.840  31.239  33.098  1.00  0.00     0.049 A 
ATOM     44  H   UNL A   1      39.902  30.094  31.717  1.00  0.00     0.167 HD
ATOM     45  C   UNL A   1      41.700  27.221  28.921  1.00  0.00     0.034 A 
ATOM     46  C   UNL A   1      39.528  31.207  34.256  1.00  0.00     0.034 A 
ATOM     47  C   UNL A   1      42.580  27.249  30.056  1.00  0.00     0.049 A 
ATOM     48  C   UNL A   1      40.806  30.415  34.324  1.00  0.00     0.074 A 
ATOM     49  C   UNL A   1      43.783  26.588  30.229  1.00  0.00     0.029 A 
ATOM     50  N   UNL A   1      42.358  27.986  31.209  1.00  0.00    -0.354 N 
ATOM     51  N   UNL A   1      41.374  29.686  33.393  1.00  0.00    -0.248 NA
ATOM     52  C   UNL A   1      41.557  30.468  35.587  1.00  0.00     0.031 C 
ATOM     53  C   UNL A   1      44.290  26.928  31.488  1.00  0.00     0.029 A 
ATOM     54  C   UNL A   1      43.404  27.805  32.094  1.00  0.00     0.049 A 
ATOM     55  H   UNL A   1      41.570  28.553  31.373  1.00  0.00     0.167 HD
ATOM     56  C   UNL A   1      42.567  29.229  33.942  1.00  0.00     0.074 A 
ATOM     57  C   UNL A   1      42.646  29.773  35.283  1.00  0.00     0.031 C 
ATOM     58  C   UNL A   1      43.503  28.418  33.393  1.00  0.00     0.034 A 
BRANCH  45  59
ATOM     59  C   UNL A   1      42.070  26.348  27.752  1.00  0.00     0.023 A 
ATOM     60  C   UNL A   1      42.829  26.894  26.696  1.00  0.00     0.012 A 
ATOM     61  C   UNL A   1      41.716  24.986  27.717  1.00  0.00     0.148 A 
ATOM     62  C   UNL A   1      43.201  26.107  25.607  1.00  0.00     0.002 A 
ATOM     63  C   UNL A   1      42.126  24.197  26.648  1.00  0.00     0.091 A 
ATOM     64  F   UNL A   1      40.972  24.490  28.716  1.00  0.00    -0.205 F 
ATOM     65  C   UNL A   1      42.860  24.757  25.589  1.00  0.00     0.022 A 
BRANCH  63  66
ATOM     66  S   UNL A   1      41.800  22.432  26.572  1.00  0.00     0.127 S 
ATOM     67  O   UNL A   1      42.423  21.963  27.808  1.00  0.00    -0.237 OA
ATOM     68  O   UNL A   1      40.337  22.384  26.571  1.00  0.00    -0.237 OA
ATOM     69  O   UNL A   1      42.417  21.966  25.337  1.00  0.00    -0.744 OA
ENDBRANCH  63  66
ENDBRANCH  45  59
BRANCH  46  70
ATOM     70  C   UNL A   1      39.065  32.015  35.418  1.00  0.00     0.023 A 
ATOM     71  C   UNL A   1      39.273  33.408  35.408  1.00  0.00     0.012 A 
ATOM     72  C   UNL A   1      38.393  31.430  36.509  1.00  0.00     0.148 A 
ATOM     73  C   UNL A   1      38.847  34.201  36.473  1.00  0.00     0.002 A 
ATOM     74  C   UNL A   1      37.926  32.233  37.545  1.00  0.00     0.091 A 
ATOM     75  F   UNL A   1      38.216  30.101  36.509  1.00  0.00    -0.205 F 
ATOM     76  C   UNL A   1      38.165  33.616  37.536  1.00  0.00     0.022 A 
BRANCH  74  77
ATOM     77  S   UNL A   1      36.930  31.581  38.889  1.00  0.00     0.127 S 
ATOM     78  O   UNL A   1      37.827  31.740  40.030  1.00  0.00    -0.237 OA
ATOM     79  O   UNL A   1      35.778  32.483  38.881  1.00  0.00    -0.237 OA
ATOM     80  O   UNL A   1      36.618  30.210  38.510  1.00  0.00    -0.744 OA
ENDBRANCH  74  77
ENDBRANCH  46  70
BRANCH  58  81
ATOM     81  C   UNL A   1      44.726  28.102  34.211  1.00  0.00     0.023 A 
ATOM     82  C   UNL A   1      45.813  28.996  34.213  1.00  0.00     0.012 A 
ATOM     83  C   UNL A   1      44.752  26.974  35.053  1.00  0.00     0.148 A 
ATOM     84  C   UNL A   1      46.918  28.762  35.030  1.00  0.00     0.002 A 
ATOM     85  C   UNL A   1      45.838  26.769  35.894  1.00  0.00     0.091 A 
ATOM     86  F   UNL A   1      43.714  26.124  35.018  1.00  0.00    -0.205 F 
ATOM     87  C   UNL A   1      46.925  27.657  35.879  1.00  0.00     0.022 A 
BRANCH  85  88
ATOM     88  S   UNL A   1      45.886  25.424  37.085  1.00  0.00     0.127 S 
ATOM     89  O   UNL A   1      47.174  25.648  37.737  1.00  0.00    -0.237 OA
ATOM     90  O   UNL A   1      44.721  25.706  37.925  1.00  0.00    -0.237 OA
ATOM     91  O   UNL A   1      45.781  24.197  36.305  1.00  0.00    -0.744 OA
ENDBRANCH  85  88
ENDBRANCH  58  81
ENDBRANCH  32  33
ENDBRANCH  24  27
ENDBRANCH  22  23
ENDBRANCH   1  22
TORSDOF 16
ENDMDL
MODEL 3
REMARK VINA RESULT:     -11.2      2.619      8.597
REMARK SMILES C[C@H](NC(=O)c1ccc(N)cc1)C(=O)NCCCNC(=O)c1ccc(-c2c3nc(c(-c4cccc(S(=O)(=O)[O-])c4F)c4ccc([nH]4)c(-c4cccc(S(=O)(=O)[O-])c4F)c4nc(c(-c5cccc(S(=O)(=O)[O-])c5F)c5ccc2[nH]5)C=C4)C=C3)cc1
REMARK SMILES IDX 17 1 16 2 15 3 13 4 14 5 2 7 1 8 3 9 4 10 5 12 6 13 7 14
REMARK SMILES IDX 12 15 8 16 11 17 9 18 10 19 18 22 19 23 20 24 21 26 22 27
REMARK SMILES IDX 23 28 84 29 24 30 83 31 25 32 26 33 27 34 77 35 28 36 82 37
REMARK SMILES IDX 76 38 78 39 29 40 81 41 75 42 74 43 30 45 62 46 42 47 61 48
REMARK SMILES IDX 43 49 46 50 60 51 79 52 44 53 45 54 59 56 80 57 47 58 31 59
REMARK SMILES IDX 32 60 40 61 33 62 35 63 41 64 34 65 36 66 37 67 38 68 39 69
REMARK SMILES IDX 63 70 64 71 72 72 65 73 67 74 73 75 66 76 68 77 69 78 70 79
REMARK SMILES IDX 71 80 48 81 49 82 57 83 50 84 52 85 58 86 51 87 53 88 54 89
REMARK SMILES IDX 55 90 56 91
REMARK H PARENT 15 6 3 11 10 20 10 21 19 25 78 44 46 55
REMARK Flexibility Score: inf
ROOT
ATOM      1  C   UNL A   1      31.177  31.871  26.125  1.00  0.00     0.042 C 
ENDROOT
BRANCH   1   2
ATOM      2  C   UNL A   1      31.161  30.492  25.488  1.00  0.00     0.117 C 
BRANCH   2   3
ATOM      3  N   UNL A   1      32.494  30.002  25.174  1.00  0.00    -0.354 N 
ATOM      4  C   UNL A   1      32.921  28.718  24.976  1.00  0.00     0.242 C 
ATOM      5  O   UNL A   1      34.070  28.536  24.572  1.00  0.00    -0.273 OA
ATOM      6  H   UNL A   1      33.189  30.694  25.092  1.00  0.00     0.163 HD
BRANCH   4   7
ATOM      7  C   UNL A   1      31.941  27.542  25.162  1.00  0.00     0.168 C 
ATOM      8  C   UNL A   1      32.333  26.780  26.430  1.00  0.00     0.041 C 
BRANCH   7   9
ATOM      9  N   UNL A   1      31.886  26.793  23.899  1.00  0.00    -0.341 N 
ATOM     10  C   UNL A   1      31.215  26.992  22.726  1.00  0.00     0.251 C 
ATOM     11  H   UNL A   1      32.445  25.983  23.899  1.00  0.00     0.164 HD
ATOM     12  O   UNL A   1      31.373  26.220  21.787  1.00  0.00    -0.269 OA
BRANCH  10  13
ATOM     13  C   UNL A   1      30.228  28.071  22.610  1.00  0.00     0.039 A 
ATOM     14  C   UNL A   1      30.559  29.303  22.048  1.00  0.00     0.016 A 
ATOM     15  C   UNL A   1      28.949  27.841  23.122  1.00  0.00     0.016 A 
ATOM     16  C   UNL A   1      29.622  30.339  22.080  1.00  0.00     0.026 A 
ATOM     17  C   UNL A   1      28.020  28.881  23.142  1.00  0.00     0.026 A 
ATOM     18  C   UNL A   1      28.347  30.137  22.621  1.00  0.00     0.031 A 
BRANCH  18  19
ATOM     19  N   UNL A   1      27.470  31.200  22.764  1.00  0.00    -0.399 N 
ATOM     20  H   UNL A   1      27.794  32.123  22.657  1.00  0.00     0.156 HD
ATOM     21  H   UNL A   1      26.522  31.031  22.971  1.00  0.00     0.156 HD
ENDBRANCH  18  19
ENDBRANCH  10  13
ENDBRANCH   7   9
ENDBRANCH   4   7
ENDBRANCH   2   3
ENDBRANCH   1   2
BRANCH   1  22
ATOM     22  C   UNL A   1      32.353  32.101  27.062  1.00  0.00     0.118 C 
BRANCH  22  23
ATOM     23  N   UNL A   1      32.591  33.514  27.338  1.00  0.00    -0.352 N 
ATOM     24  C   UNL A   1      33.602  34.097  28.065  1.00  0.00     0.251 C 
ATOM     25  H   UNL A   1      31.937  34.137  26.947  1.00  0.00     0.163 HD
ATOM     26  O   UNL A   1      33.559  35.296  28.325  1.00  0.00    -0.269 OA
BRANCH  24  27
ATOM     27  C   UNL A   1      34.723  33.266  28.548  1.00  0.00     0.039 A 
ATOM     28  C   UNL A   1      36.034  33.720  28.379  1.00  0.00     0.014 A 
ATOM     29  C   UNL A   1      34.472  32.054  29.194  1.00  0.00     0.014 A 
ATOM     30  C   UNL A   1      37.092  32.993  28.932  1.00  0.00     0.010 A 
ATOM     31  C   UNL A   1      35.517  31.376  29.810  1.00  0.00     0.010 A 
ATOM     32  C   UNL A   1      36.836  31.837  29.684  1.00  0.00    -0.014 A 
BRANCH  32  33
ATOM     33  C   UNL A   1      37.917  31.077  30.360  1.00  0.00     0.031 A 
ATOM     34  C   UNL A   1      38.265  31.397  31.789  1.00  0.00     0.074 A 
ATOM     35  C   UNL A   1      38.670  30.209  29.656  1.00  0.00     0.049 A 
ATOM     36  N   UNL A   1      39.280  30.987  32.503  1.00  0.00    -0.248 NA
ATOM     37  C   UNL A   1      37.374  32.334  32.494  1.00  0.00     0.031 C 
ATOM     38  C   UNL A   1      38.478  29.871  28.244  1.00  0.00     0.029 A 
ATOM     39  N   UNL A   1      39.777  29.484  30.022  1.00  0.00    -0.354 N 
ATOM     40  C   UNL A   1      39.183  31.659  33.716  1.00  0.00     0.074 A 
ATOM     41  C   UNL A   1      38.022  32.518  33.634  1.00  0.00     0.031 C 
ATOM     42  C   UNL A   1      39.438  29.012  27.862  1.00  0.00     0.029 A 
ATOM     43  C   UNL A   1      40.330  28.763  28.989  1.00  0.00     0.049 A 
ATOM     44  H   UNL A   1      40.140  29.481  30.937  1.00  0.00     0.167 HD
ATOM     45  C   UNL A   1      39.973  31.550  34.809  1.00  0.00     0.034 A 
ATOM     46  C   UNL A   1      41.439  27.999  28.952  1.00  0.00     0.034 A 
ATOM     47  C   UNL A   1      41.079  30.639  34.912  1.00  0.00     0.049 A 
ATOM     48  C   UNL A   1      42.255  27.835  30.207  1.00  0.00     0.074 A 
ATOM     49  C   UNL A   1      41.886  30.385  36.006  1.00  0.00     0.029 A 
ATOM     50  N   UNL A   1      41.527  29.823  33.885  1.00  0.00    -0.354 N 
ATOM     51  N   UNL A   1      42.066  28.371  31.388  1.00  0.00    -0.248 NA
ATOM     52  C   UNL A   1      43.416  26.936  30.135  1.00  0.00     0.031 C 
ATOM     53  C   UNL A   1      42.822  29.412  35.640  1.00  0.00     0.029 A 
ATOM     54  C   UNL A   1      42.592  29.057  34.321  1.00  0.00     0.049 A 
ATOM     55  H   UNL A   1      41.143  29.794  32.979  1.00  0.00     0.167 HD
ATOM     56  C   UNL A   1      43.055  27.844  32.209  1.00  0.00     0.074 A 
ATOM     57  C   UNL A   1      43.835  26.935  31.393  1.00  0.00     0.031 C 
ATOM     58  C   UNL A   1      43.306  28.100  33.516  1.00  0.00     0.034 A 
BRANCH  45  59
ATOM     59  C   UNL A   1      39.624  32.388  36.010  1.00  0.00     0.023 A 
ATOM     60  C   UNL A   1      40.246  33.642  36.180  1.00  0.00     0.012 A 
ATOM     61  C   UNL A   1      38.652  31.967  36.937  1.00  0.00     0.148 A 
ATOM     62  C   UNL A   1      39.932  34.449  37.272  1.00  0.00     0.002 A 
ATOM     63  C   UNL A   1      38.314  32.796  38.001  1.00  0.00     0.091 A 
ATOM     64  F   UNL A   1      38.090  30.761  36.774  1.00  0.00    -0.205 F 
ATOM     65  C   UNL A   1      38.958  34.031  38.176  1.00  0.00     0.022 A 
BRANCH  63  66
ATOM     66  S   UNL A   1      37.019  32.377  39.174  1.00  0.00     0.127 S 
ATOM     67  O   UNL A   1      37.336  33.262  40.293  1.00  0.00    -0.237 OA
ATOM     68  O   UNL A   1      35.804  32.735  38.440  1.00  0.00    -0.237 OA
ATOM     69  O   UNL A   1      37.165  30.951  39.436  1.00  0.00    -0.744 OA
ENDBRANCH  63  66
ENDBRANCH  45  59
BRANCH  46  70
ATOM     70  C   UNL A   1      41.795  27.264  27.706  1.00  0.00     0.023 A 
ATOM     71  C   UNL A   1      42.329  27.982  26.619  1.00  0.00     0.012 A 
ATOM     72  C   UNL A   1      41.646  25.868  27.599  1.00  0.00     0.148 A 
ATOM     73  C   UNL A   1      42.682  27.330  25.438  1.00  0.00     0.002 A 
ATOM     74  C   UNL A   1      42.047  25.217  26.437  1.00  0.00     0.091 A 
ATOM     75  F   UNL A   1      41.123  25.202  28.639  1.00  0.00    -0.205 F 
ATOM     76  C   UNL A   1      42.551  25.947  25.350  1.00  0.00     0.022 A 
BRANCH  74  77
ATOM     77  S   UNL A   1      42.029  23.427  26.285  1.00  0.00     0.127 S 
ATOM     78  O   UNL A   1      42.650  23.231  24.979  1.00  0.00    -0.237 OA
ATOM     79  O   UNL A   1      42.850  23.017  27.425  1.00  0.00    -0.237 OA
ATOM     80  O   UNL A   1      40.628  23.044  26.390  1.00  0.00    -0.744 OA
ENDBRANCH  74  77
ENDBRANCH  46  70
BRANCH  58  81
ATOM     81  C   UNL A   1      44.438  27.358  34.173  1.00  0.00     0.023 A 
ATOM     82  C   UNL A   1      45.734  27.907  34.159  1.00  0.00     0.012 A 
ATOM     83  C   UNL A   1      44.194  26.170  34.890  1.00  0.00     0.148 A 
ATOM     84  C   UNL A   1      46.776  27.275  34.835  1.00  0.00     0.002 A 
ATOM     85  C   UNL A   1      45.228  25.568  35.596  1.00  0.00     0.091 A 
ATOM     86  F   UNL A   1      42.956  25.653  34.872  1.00  0.00    -0.205 F 
ATOM     87  C   UNL A   1      46.522  26.115  35.563  1.00  0.00     0.022 A 
BRANCH  85  88
ATOM     88  S   UNL A   1      44.967  24.125  36.634  1.00  0.00     0.127 S 
ATOM     89  O   UNL A   1      44.218  24.694  37.752  1.00  0.00    -0.237 OA
ATOM     90  O   UNL A   1      44.186  23.248  35.761  1.00  0.00    -0.237 OA
ATOM     91  O   UNL A   1      46.295  23.622  36.958  1.00  0.00    -0.744 OA
ENDBRANCH  85  88
ENDBRANCH  58  81
ENDBRANCH  32  33
ENDBRANCH  24  27
ENDBRANCH  22  23
ENDBRANCH   1  22
TORSDOF 16
ENDMDL
