MODEL 1
REMARK VINA RESULT:     -12.6      0.000      0.000
REMARK SMILES O=C(NCCCNC(=O)c1cccc(Nc2ccc([N+](=O)[O-])cc2)c1)c1ccc(-c2c3nc(c(-c4cccc(S(=O)(=O)[O-])c4F)c4ccc([nH]4)c(-c4cccc(S(=O)(=O)[O-])c4F)c4nc(c(-c5cccc(S(=O)(=O)[O-])c5F)c5ccc2[nH]5)C=C4)C=C3)cc1
REMARK SMILES IDX 5 1 4 2 3 3 1 4 2 5 26 7 27 8 88 9 28 10 87 11 29 12 30 13
REMARK SMILES IDX 31 14 81 15 32 16 86 17 80 18 82 19 33 20 85 21 79 22 78 23
REMARK SMILES IDX 34 25 66 26 46 27 65 28 47 29 50 30 64 31 83 32 48 33 49 34
REMARK SMILES IDX 63 36 84 37 51 38 35 39 36 40 44 41 37 42 39 43 45 44 38 45
REMARK SMILES IDX 40 46 41 47 42 48 43 49 67 50 68 51 76 52 69 53 71 54 77 55
REMARK SMILES IDX 70 56 72 57 73 58 74 59 75 60 52 61 53 62 61 63 54 64 56 65
REMARK SMILES IDX 62 66 55 67 57 68 58 69 59 70 60 71 6 72 7 73 8 74 9 76
REMARK SMILES IDX 10 77 11 78 25 79 12 80 14 81 13 82 15 83 16 85 17 86 24 87
REMARK SMILES IDX 18 88 23 89 19 90 20 91 21 92 22 93
REMARK H PARENT 3 6 82 24 50 35 7 75 15 84
REMARK Flexibility Score: inf
ROOT
ATOM      1  C   UNL A   1      31.536  32.283  26.536  1.00  0.00     0.042 C 
ENDROOT
BRANCH   1   2
ATOM      2  C   UNL A   1      32.743  32.818  27.293  1.00  0.00     0.118 C 
BRANCH   2   3
ATOM      3  N   UNL A   1      32.530  34.163  27.808  1.00  0.00    -0.352 N 
ATOM      4  O   UNL A   1      32.677  35.882  29.246  1.00  0.00    -0.269 OA
ATOM      5  C   UNL A   1      33.153  34.822  28.837  1.00  0.00     0.251 C 
ATOM      6  H   UNL A   1      31.831  34.680  27.347  1.00  0.00     0.163 HD
BRANCH   5   7
ATOM      7  C   UNL A   1      34.365  34.255  29.467  1.00  0.00     0.039 A 
ATOM      8  C   UNL A   1      35.628  34.449  28.900  1.00  0.00     0.014 A 
ATOM      9  C   UNL A   1      34.239  33.539  30.659  1.00  0.00     0.014 A 
ATOM     10  C   UNL A   1      36.738  33.804  29.435  1.00  0.00     0.010 A 
ATOM     11  C   UNL A   1      35.369  32.969  31.247  1.00  0.00     0.010 A 
ATOM     12  C   UNL A   1      36.624  33.070  30.622  1.00  0.00    -0.014 A 
BRANCH  12  13
ATOM     13  C   UNL A   1      37.826  32.466  31.247  1.00  0.00     0.031 A 
ATOM     14  C   UNL A   1      38.540  31.318  30.592  1.00  0.00     0.074 A 
ATOM     15  C   UNL A   1      38.235  32.922  32.446  1.00  0.00     0.049 A 
ATOM     16  N   UNL A   1      39.541  30.608  31.041  1.00  0.00    -0.248 NA
ATOM     17  C   UNL A   1      38.058  30.906  29.264  1.00  0.00     0.031 C 
ATOM     18  C   UNL A   1      37.600  34.010  33.193  1.00  0.00     0.029 A 
ATOM     19  N   UNL A   1      39.254  32.506  33.265  1.00  0.00    -0.354 N 
ATOM     20  C   UNL A   1      39.777  29.632  30.082  1.00  0.00     0.074 A 
ATOM     21  C   UNL A   1      38.812  29.841  29.024  1.00  0.00     0.031 C 
ATOM     22  C   UNL A   1      38.229  34.165  34.365  1.00  0.00     0.029 A 
ATOM     23  C   UNL A   1      39.269  33.149  34.481  1.00  0.00     0.049 A 
ATOM     24  H   UNL A   1      39.908  31.816  33.008  1.00  0.00     0.167 HD
ATOM     25  C   UNL A   1      40.716  28.654  30.081  1.00  0.00     0.034 A 
ATOM     26  C   UNL A   1      40.001  32.919  35.587  1.00  0.00     0.034 A 
ATOM     27  C   UNL A   1      41.681  28.467  31.133  1.00  0.00     0.049 A 
ATOM     28  C   UNL A   1      41.033  31.829  35.568  1.00  0.00     0.074 A 
ATOM     29  C   UNL A   1      42.720  27.556  31.191  1.00  0.00     0.029 A 
ATOM     30  N   UNL A   1      41.708  29.182  32.320  1.00  0.00    -0.354 N 
ATOM     31  N   UNL A   1      41.328  30.997  34.600  1.00  0.00    -0.248 NA
ATOM     32  C   UNL A   1      41.852  31.666  36.775  1.00  0.00     0.031 C 
ATOM     33  C   UNL A   1      43.349  27.691  32.433  1.00  0.00     0.029 A 
ATOM     34  C   UNL A   1      42.732  28.720  33.129  1.00  0.00     0.049 A 
ATOM     35  H   UNL A   1      41.089  29.911  32.554  1.00  0.00     0.167 HD
ATOM     36  C   UNL A   1      42.390  30.233  35.065  1.00  0.00     0.074 A 
ATOM     37  C   UNL A   1      42.690  30.706  36.402  1.00  0.00     0.031 C 
ATOM     38  C   UNL A   1      43.054  29.231  34.438  1.00  0.00     0.034 A 
BRANCH  25  39
ATOM     39  C   UNL A   1      40.743  27.711  28.904  1.00  0.00     0.023 A 
ATOM     40  C   UNL A   1      39.791  26.676  28.807  1.00  0.00     0.012 A 
ATOM     41  C   UNL A   1      41.693  27.872  27.876  1.00  0.00     0.148 A 
ATOM     42  C   UNL A   1      39.818  25.784  27.734  1.00  0.00     0.002 A 
ATOM     43  C   UNL A   1      41.682  27.010  26.786  1.00  0.00     0.091 A 
ATOM     44  F   UNL A   1      42.604  28.850  27.991  1.00  0.00    -0.205 F 
ATOM     45  C   UNL A   1      40.757  25.956  26.721  1.00  0.00     0.022 A 
BRANCH  43  46
ATOM     46  S   UNL A   1      42.801  27.206  25.394  1.00  0.00     0.127 S 
ATOM     47  O   UNL A   1      42.636  25.929  24.701  1.00  0.00    -0.237 OA
ATOM     48  O   UNL A   1      42.226  28.356  24.693  1.00  0.00    -0.237 OA
ATOM     49  O   UNL A   1      44.116  27.445  25.969  1.00  0.00    -0.744 OA
ENDBRANCH  43  46
ENDBRANCH  25  39
BRANCH  26  50
ATOM     50  C   UNL A   1      39.771  33.763  36.791  1.00  0.00     0.023 A 
ATOM     51  C   UNL A   1      40.118  35.127  36.763  1.00  0.00     0.012 A 
ATOM     52  C   UNL A   1      39.122  33.238  37.926  1.00  0.00     0.148 A 
ATOM     53  C   UNL A   1      39.834  35.951  37.852  1.00  0.00     0.002 A 
ATOM     54  C   UNL A   1      38.789  34.076  38.981  1.00  0.00     0.091 A 
ATOM     55  F   UNL A   1      38.803  31.935  37.927  1.00  0.00    -0.205 F 
ATOM     56  C   UNL A   1      39.158  35.430  38.953  1.00  0.00     0.022 A 
BRANCH  54  57
ATOM     57  S   UNL A   1      37.795  33.530  40.374  1.00  0.00     0.127 S 
ATOM     58  O   UNL A   1      37.695  34.754  41.166  1.00  0.00    -0.237 OA
ATOM     59  O   UNL A   1      36.557  33.120  39.712  1.00  0.00    -0.237 OA
ATOM     60  O   UNL A   1      38.540  32.442  40.993  1.00  0.00    -0.744 OA
ENDBRANCH  54  57
ENDBRANCH  26  50
BRANCH  38  61
ATOM     61  C   UNL A   1      44.217  28.598  35.154  1.00  0.00     0.023 A 
ATOM     62  C   UNL A   1      45.521  29.096  34.967  1.00  0.00     0.012 A 
ATOM     63  C   UNL A   1      43.991  27.583  36.106  1.00  0.00     0.148 A 
ATOM     64  C   UNL A   1      46.585  28.583  35.710  1.00  0.00     0.002 A 
ATOM     65  C   UNL A   1      45.046  27.115  36.877  1.00  0.00     0.091 A 
ATOM     66  F   UNL A   1      42.745  27.112  36.250  1.00  0.00    -0.205 F 
ATOM     67  C   UNL A   1      46.346  27.606  36.673  1.00  0.00     0.022 A 
BRANCH  65  68
ATOM     68  S   UNL A   1      44.816  25.935  38.211  1.00  0.00     0.127 S 
ATOM     69  O   UNL A   1      44.366  24.747  37.486  1.00  0.00    -0.237 OA
ATOM     70  O   UNL A   1      46.165  25.834  38.769  1.00  0.00    -0.237 OA
ATOM     71  O   UNL A   1      43.830  26.523  39.108  1.00  0.00    -0.744 OA
ENDBRANCH  65  68
ENDBRANCH  38  61
ENDBRANCH  12  13
ENDBRANCH   5   7
ENDBRANCH   2   3
ENDBRANCH   1   2
BRANCH   1  72
ATOM     72  C   UNL A   1      31.422  30.765  26.537  1.00  0.00     0.118 C 
BRANCH  72  73
ATOM     73  N   UNL A   1      32.722  30.110  26.584  1.00  0.00    -0.352 N 
ATOM     74  C   UNL A   1      33.054  28.792  26.415  1.00  0.00     0.251 C 
ATOM     75  H   UNL A   1      33.482  30.710  26.766  1.00  0.00     0.163 HD
ATOM     76  O   UNL A   1      34.188  28.407  26.693  1.00  0.00    -0.269 OA
BRANCH  74  77
ATOM     77  C   UNL A   1      32.067  27.826  25.893  1.00  0.00     0.041 A 
ATOM     78  C   UNL A   1      32.006  26.554  26.462  1.00  0.00     0.014 A 
ATOM     79  C   UNL A   1      31.257  28.148  24.797  1.00  0.00     0.039 A 
ATOM     80  C   UNL A   1      31.097  25.625  25.964  1.00  0.00     0.003 A 
ATOM     81  C   UNL A   1      30.323  27.233  24.300  1.00  0.00     0.039 A 
ATOM     82  C   UNL A   1      30.257  25.970  24.901  1.00  0.00     0.026 A 
BRANCH  81  83
ATOM     83  N   UNL A   1      29.495  27.633  23.236  1.00  0.00    -0.356 N 
ATOM     84  H   UNL A   1      29.121  26.890  22.710  1.00  0.00     0.167 HD
BRANCH  83  85
ATOM     85  C   UNL A   1      29.110  28.907  22.798  1.00  0.00     0.039 A 
ATOM     86  C   UNL A   1      28.004  29.518  23.406  1.00  0.00     0.033 A 
ATOM     87  C   UNL A   1      29.841  29.632  21.847  1.00  0.00     0.033 A 
ATOM     88  C   UNL A   1      27.653  30.835  23.104  1.00  0.00     0.088 A 
ATOM     89  C   UNL A   1      29.496  30.947  21.526  1.00  0.00     0.088 A 
ATOM     90  C   UNL A   1      28.412  31.551  22.171  1.00  0.00     0.269 A 
BRANCH  90  91
ATOM     91  N   UNL A   1      28.081  32.952  21.892  1.00  0.00     0.062 N 
ATOM     92  O   UNL A   1      28.361  33.795  22.757  1.00  0.00    -0.258 OA
ATOM     93  O   UNL A   1      27.556  33.216  20.801  1.00  0.00    -0.258 OA
ENDBRANCH  90  91
ENDBRANCH  83  85
ENDBRANCH  81  83
ENDBRANCH  74  77
ENDBRANCH  72  73
ENDBRANCH   1  72
TORSDOF 16
ENDMDL
MODEL 2
REMARK VINA RESULT:     -12.5      2.354      3.219
REMARK SMILES O=C(NCCCNC(=O)c1cccc(Nc2ccc([N+](=O)[O-])cc2)c1)c1ccc(-c2c3nc(c(-c4cccc(S(=O)(=O)[O-])c4F)c4ccc([nH]4)c(-c4cccc(S(=O)(=O)[O-])c4F)c4nc(c(-c5cccc(S(=O)(=O)[O-])c5F)c5ccc2[nH]5)C=C4)C=C3)cc1
REMARK SMILES IDX 5 1 4 2 3 3 1 4 2 5 26 7 27 8 88 9 28 10 87 11 29 12 30 13
REMARK SMILES IDX 31 14 81 15 32 16 86 17 80 18 82 19 33 20 85 21 79 22 78 23
REMARK SMILES IDX 34 25 66 26 46 27 65 28 47 29 50 30 64 31 83 32 48 33 49 34
REMARK SMILES IDX 63 36 84 37 51 38 35 39 36 40 44 41 37 42 39 43 45 44 38 45
REMARK SMILES IDX 40 46 41 47 42 48 43 49 67 50 68 51 76 52 69 53 71 54 77 55
REMARK SMILES IDX 70 56 72 57 73 58 74 59 75 60 52 61 53 62 61 63 54 64 56 65
REMARK SMILES IDX 62 66 55 67 57 68 58 69 59 70 60 71 6 72 7 73 8 74 9 76
REMARK SMILES IDX 10 77 11 78 25 79 12 80 14 81 13 82 15 83 16 85 17 86 24 87
REMARK SMILES IDX 18 88 23 89 19 90 20 91 21 92 22 93
REMARK H PARENT 3 6 82 24 50 35 7 75 15 84
REMARK Flexibility Score: inf
ROOT
ATOM      1  C   UNL A   1      34.098  28.894  24.440  1.00  0.00     0.042 C 
ENDROOT
BRANCH   1   2
ATOM      2  C   UNL A   1      33.053  28.871  25.546  1.00  0.00     0.118 C 
BRANCH   2   3
ATOM      3  N   UNL A   1      32.588  30.203  25.906  1.00  0.00    -0.352 N 
ATOM      4  O   UNL A   1      32.407  32.078  27.128  1.00  0.00    -0.269 OA
ATOM      5  C   UNL A   1      33.075  31.086  26.834  1.00  0.00     0.251 C 
ATOM      6  H   UNL A   1      31.802  30.519  25.404  1.00  0.00     0.163 HD
BRANCH   5   7
ATOM      7  C   UNL A   1      34.375  30.839  27.496  1.00  0.00     0.039 A 
ATOM      8  C   UNL A   1      34.704  29.571  27.983  1.00  0.00     0.014 A 
ATOM      9  C   UNL A   1      35.290  31.888  27.606  1.00  0.00     0.014 A 
ATOM     10  C   UNL A   1      35.874  29.387  28.712  1.00  0.00     0.010 A 
ATOM     11  C   UNL A   1      36.507  31.678  28.258  1.00  0.00     0.010 A 
ATOM     12  C   UNL A   1      36.795  30.434  28.844  1.00  0.00    -0.014 A 
BRANCH  12  13
ATOM     13  C   UNL A   1      38.088  30.210  29.536  1.00  0.00     0.031 A 
ATOM     14  C   UNL A   1      39.131  29.305  28.946  1.00  0.00     0.074 A 
ATOM     15  C   UNL A   1      38.291  30.783  30.738  1.00  0.00     0.049 A 
ATOM     16  N   UNL A   1      40.270  28.918  29.457  1.00  0.00    -0.248 NA
ATOM     17  C   UNL A   1      38.851  28.750  27.611  1.00  0.00     0.031 C 
ATOM     18  C   UNL A   1      37.336  31.655  31.425  1.00  0.00     0.029 A 
ATOM     19  N   UNL A   1      39.346  30.690  31.610  1.00  0.00    -0.354 N 
ATOM     20  C   UNL A   1      40.821  28.035  28.537  1.00  0.00     0.074 A 
ATOM     21  C   UNL A   1      39.888  27.942  27.434  1.00  0.00     0.031 C 
ATOM     22  C   UNL A   1      37.837  32.002  32.618  1.00  0.00     0.029 A 
ATOM     23  C   UNL A   1      39.118  31.329  32.806  1.00  0.00     0.049 A 
ATOM     24  H   UNL A   1      40.181  30.212  31.401  1.00  0.00     0.167 HD
ATOM     25  C   UNL A   1      41.999  27.368  28.604  1.00  0.00     0.034 A 
ATOM     26  C   UNL A   1      39.830  31.336  33.949  1.00  0.00     0.034 A 
ATOM     27  C   UNL A   1      42.925  27.481  29.700  1.00  0.00     0.049 A 
ATOM     28  C   UNL A   1      41.130  30.588  34.004  1.00  0.00     0.074 A 
ATOM     29  C   UNL A   1      44.177  26.908  29.828  1.00  0.00     0.029 A 
ATOM     30  N   UNL A   1      42.689  28.193  30.866  1.00  0.00    -0.354 N 
ATOM     31  N   UNL A   1      41.697  29.859  33.074  1.00  0.00    -0.248 NA
ATOM     32  C   UNL A   1      41.902  30.686  35.249  1.00  0.00     0.031 C 
ATOM     33  C   UNL A   1      44.680  27.237  31.091  1.00  0.00     0.029 A 
ATOM     34  C   UNL A   1      43.762  28.057  31.730  1.00  0.00     0.049 A 
ATOM     35  H   UNL A   1      41.877  28.718  31.053  1.00  0.00     0.167 HD
ATOM     36  C   UNL A   1      42.909  29.440  33.605  1.00  0.00     0.074 A 
ATOM     37  C   UNL A   1      42.997  30.000  34.939  1.00  0.00     0.031 C 
ATOM     38  C   UNL A   1      43.861  28.660  33.037  1.00  0.00     0.034 A 
BRANCH  25  39
ATOM     39  C   UNL A   1      42.351  26.454  27.457  1.00  0.00     0.023 A 
ATOM     40  C   UNL A   1      43.092  26.946  26.364  1.00  0.00     0.012 A 
ATOM     41  C   UNL A   1      41.977  25.095  27.479  1.00  0.00     0.148 A 
ATOM     42  C   UNL A   1      43.408  26.117  25.287  1.00  0.00     0.002 A 
ATOM     43  C   UNL A   1      42.337  24.263  26.425  1.00  0.00     0.091 A 
ATOM     44  F   UNL A   1      41.256  24.645  28.517  1.00  0.00    -0.205 F 
ATOM     45  C   UNL A   1      43.037  24.775  25.322  1.00  0.00     0.022 A 
BRANCH  43  46
ATOM     46  S   UNL A   1      41.976  22.504  26.422  1.00  0.00     0.127 S 
ATOM     47  O   UNL A   1      42.587  22.079  25.164  1.00  0.00    -0.237 OA
ATOM     48  O   UNL A   1      42.673  22.042  27.624  1.00  0.00    -0.237 OA
ATOM     49  O   UNL A   1      40.525  22.394  26.487  1.00  0.00    -0.744 OA
ENDBRANCH  43  46
ENDBRANCH  25  39
BRANCH  26  50
ATOM     50  C   UNL A   1      39.311  32.098  35.116  1.00  0.00     0.023 A 
ATOM     51  C   UNL A   1      38.465  31.464  36.044  1.00  0.00     0.012 A 
ATOM     52  C   UNL A   1      39.733  33.421  35.358  1.00  0.00     0.148 A 
ATOM     53  C   UNL A   1      38.038  32.138  37.188  1.00  0.00     0.002 A 
ATOM     54  C   UNL A   1      39.352  34.066  36.527  1.00  0.00     0.091 A 
ATOM     55  F   UNL A   1      40.539  34.003  34.457  1.00  0.00    -0.205 F 
ATOM     56  C   UNL A   1      38.491  33.432  37.436  1.00  0.00     0.022 A 
BRANCH  54  57
ATOM     57  S   UNL A   1      39.999  35.672  37.001  1.00  0.00     0.127 S 
ATOM     58  O   UNL A   1      41.428  35.394  37.123  1.00  0.00    -0.237 OA
ATOM     59  O   UNL A   1      39.626  36.494  35.849  1.00  0.00    -0.237 OA
ATOM     60  O   UNL A   1      39.321  36.025  38.240  1.00  0.00    -0.744 OA
ENDBRANCH  54  57
ENDBRANCH  26  50
BRANCH  38  61
ATOM     61  C   UNL A   1      45.120  28.399  33.818  1.00  0.00     0.023 A 
ATOM     62  C   UNL A   1      46.180  29.326  33.788  1.00  0.00     0.012 A 
ATOM     63  C   UNL A   1      45.197  27.284  34.678  1.00  0.00     0.148 A 
ATOM     64  C   UNL A   1      47.303  29.141  34.594  1.00  0.00     0.002 A 
ATOM     65  C   UNL A   1      46.294  27.135  35.515  1.00  0.00     0.091 A 
ATOM     66  F   UNL A   1      44.185  26.406  34.674  1.00  0.00    -0.205 F 
ATOM     67  C   UNL A   1      47.354  28.056  35.467  1.00  0.00     0.022 A 
BRANCH  65  68
ATOM     68  S   UNL A   1      46.399  25.830  36.745  1.00  0.00     0.127 S 
ATOM     69  O   UNL A   1      45.295  26.174  37.640  1.00  0.00    -0.237 OA
ATOM     70  O   UNL A   1      46.179  24.629  35.939  1.00  0.00    -0.237 OA
ATOM     71  O   UNL A   1      47.727  25.932  37.334  1.00  0.00    -0.744 OA
ENDBRANCH  65  68
ENDBRANCH  38  61
ENDBRANCH  12  13
ENDBRANCH   5   7
ENDBRANCH   2   3
ENDBRANCH   1   2
BRANCH   1  72
ATOM     72  C   UNL A   1      33.519  28.998  23.037  1.00  0.00     0.118 C 
BRANCH  72  73
ATOM     73  N   UNL A   1      33.733  27.787  22.256  1.00  0.00    -0.352 N 
ATOM     74  C   UNL A   1      33.102  26.573  22.320  1.00  0.00     0.251 C 
ATOM     75  H   UNL A   1      34.441  27.852  21.575  1.00  0.00     0.163 HD
ATOM     76  O   UNL A   1      33.566  25.611  21.709  1.00  0.00    -0.269 OA
BRANCH  74  77
ATOM     77  C   UNL A   1      31.866  26.405  23.108  1.00  0.00     0.041 A 
ATOM     78  C   UNL A   1      31.860  25.492  24.164  1.00  0.00     0.014 A 
ATOM     79  C   UNL A   1      30.694  27.088  22.761  1.00  0.00     0.039 A 
ATOM     80  C   UNL A   1      30.695  25.306  24.901  1.00  0.00     0.003 A 
ATOM     81  C   UNL A   1      29.521  26.927  23.506  1.00  0.00     0.039 A 
ATOM     82  C   UNL A   1      29.541  26.028  24.579  1.00  0.00     0.026 A 
BRANCH  81  83
ATOM     83  N   UNL A   1      28.392  27.685  23.147  1.00  0.00    -0.356 N 
ATOM     84  H   UNL A   1      27.549  27.176  23.127  1.00  0.00     0.167 HD
BRANCH  83  85
ATOM     85  C   UNL A   1      28.260  29.040  22.815  1.00  0.00     0.039 A 
ATOM     86  C   UNL A   1      27.531  29.872  23.677  1.00  0.00     0.033 A 
ATOM     87  C   UNL A   1      28.904  29.613  21.711  1.00  0.00     0.033 A 
ATOM     88  C   UNL A   1      27.475  31.251  23.468  1.00  0.00     0.088 A 
ATOM     89  C   UNL A   1      28.848  30.991  21.482  1.00  0.00     0.088 A 
ATOM     90  C   UNL A   1      28.147  31.808  22.375  1.00  0.00     0.269 A 
BRANCH  90  91
ATOM     91  N   UNL A   1      28.136  33.262  22.182  1.00  0.00     0.062 N 
ATOM     92  O   UNL A   1      28.723  33.959  23.023  1.00  0.00    -0.258 OA
ATOM     93  O   UNL A   1      27.556  33.709  21.184  1.00  0.00    -0.258 OA
ENDBRANCH  90  91
ENDBRANCH  83  85
ENDBRANCH  81  83
ENDBRANCH  74  77
ENDBRANCH  72  73
ENDBRANCH   1  72
TORSDOF 16
ENDMDL
MODEL 3
REMARK VINA RESULT:     -12.3      4.735     10.077
REMARK SMILES O=C(NCCCNC(=O)c1cccc(Nc2ccc([N+](=O)[O-])cc2)c1)c1ccc(-c2c3nc(c(-c4cccc(S(=O)(=O)[O-])c4F)c4ccc([nH]4)c(-c4cccc(S(=O)(=O)[O-])c4F)c4nc(c(-c5cccc(S(=O)(=O)[O-])c5F)c5ccc2[nH]5)C=C4)C=C3)cc1
REMARK SMILES IDX 5 1 4 2 3 3 1 4 2 5 26 7 27 8 88 9 28 10 87 11 29 12 30 13
REMARK SMILES IDX 31 14 81 15 32 16 86 17 80 18 82 19 33 20 85 21 79 22 78 23
REMARK SMILES IDX 34 25 66 26 46 27 65 28 47 29 50 30 64 31 83 32 48 33 49 34
REMARK SMILES IDX 63 36 84 37 51 38 35 39 36 40 44 41 37 42 39 43 45 44 38 45
REMARK SMILES IDX 40 46 41 47 42 48 43 49 67 50 68 51 76 52 69 53 71 54 77 55
REMARK SMILES IDX 70 56 72 57 73 58 74 59 75 60 52 61 53 62 61 63 54 64 56 65
REMARK SMILES IDX 62 66 55 67 57 68 58 69 59 70 60 71 6 72 7 73 8 74 9 76
REMARK SMILES IDX 10 77 11 78 25 79 12 80 14 81 13 82 15 83 16 85 17 86 24 87
REMARK SMILES IDX 18 88 23 89 19 90 20 91 21 92 22 93
REMARK H PARENT 3 6 82 24 50 35 7 75 15 84
REMARK Flexibility Score: inf
ROOT
ATOM      1  C   UNL A   1      32.563  27.851  27.047  1.00  0.00     0.042 C 
ENDROOT
BRANCH   1   2
ATOM      2  C   UNL A   1      33.774  28.580  26.480  1.00  0.00     0.118 C 
BRANCH   2   3
ATOM      3  N   UNL A   1      33.745  30.010  26.753  1.00  0.00    -0.352 N 
ATOM      4  O   UNL A   1      34.256  31.935  27.789  1.00  0.00    -0.269 OA
ATOM      5  C   UNL A   1      34.580  30.777  27.525  1.00  0.00     0.251 C 
ATOM      6  H   UNL A   1      33.015  30.502  26.314  1.00  0.00     0.163 HD
BRANCH   5   7
ATOM      7  C   UNL A   1      35.840  30.214  28.055  1.00  0.00     0.039 A 
ATOM      8  C   UNL A   1      35.889  29.632  29.325  1.00  0.00     0.014 A 
ATOM      9  C   UNL A   1      36.986  30.244  27.258  1.00  0.00     0.014 A 
ATOM     10  C   UNL A   1      37.107  29.223  29.857  1.00  0.00     0.010 A 
ATOM     11  C   UNL A   1      38.190  29.747  27.758  1.00  0.00     0.010 A 
ATOM     12  C   UNL A   1      38.268  29.261  29.074  1.00  0.00    -0.014 A 
BRANCH  12  13
ATOM     13  C   UNL A   1      39.547  28.732  29.607  1.00  0.00     0.031 A 
ATOM     14  C   UNL A   1      40.265  29.431  30.725  1.00  0.00     0.074 A 
ATOM     15  C   UNL A   1      40.092  27.644  29.028  1.00  0.00     0.049 A 
ATOM     16  N   UNL A   1      41.435  29.167  31.245  1.00  0.00    -0.248 NA
ATOM     17  C   UNL A   1      39.585  30.587  31.331  1.00  0.00     0.031 C 
ATOM     18  C   UNL A   1      39.502  26.901  27.913  1.00  0.00     0.029 A 
ATOM     19  N   UNL A   1      41.277  26.997  29.271  1.00  0.00    -0.354 N 
ATOM     20  C   UNL A   1      41.659  30.150  32.200  1.00  0.00     0.074 A 
ATOM     21  C   UNL A   1      40.502  31.019  32.187  1.00  0.00     0.031 C 
ATOM     22  C   UNL A   1      40.333  25.913  27.554  1.00  0.00     0.029 A 
ATOM     23  C   UNL A   1      41.539  25.991  28.371  1.00  0.00     0.049 A 
ATOM     24  H   UNL A   1      41.880  27.230  30.014  1.00  0.00     0.167 HD
ATOM     25  C   UNL A   1      42.729  30.310  33.015  1.00  0.00     0.034 A 
ATOM     26  C   UNL A   1      42.644  25.244  28.184  1.00  0.00     0.034 A 
ATOM     27  C   UNL A   1      43.867  29.429  33.029  1.00  0.00     0.049 A 
ATOM     28  C   UNL A   1      43.820  25.439  29.096  1.00  0.00     0.074 A 
ATOM     29  C   UNL A   1      44.966  29.459  33.869  1.00  0.00     0.029 A 
ATOM     30  N   UNL A   1      44.067  28.378  32.147  1.00  0.00    -0.354 N 
ATOM     31  N   UNL A   1      43.962  26.293  30.079  1.00  0.00    -0.248 NA
ATOM     32  C   UNL A   1      44.972  24.551  28.896  1.00  0.00     0.031 C 
ATOM     33  C   UNL A   1      45.851  28.454  33.465  1.00  0.00     0.029 A 
ATOM     34  C   UNL A   1      45.280  27.765  32.406  1.00  0.00     0.049 A 
ATOM     35  H   UNL A   1      43.438  28.108  31.440  1.00  0.00     0.167 HD
ATOM     36  C   UNL A   1      45.204  26.024  30.640  1.00  0.00     0.074 A 
ATOM     37  C   UNL A   1      45.772  24.923  29.888  1.00  0.00     0.031 C 
ATOM     38  C   UNL A   1      45.815  26.638  31.683  1.00  0.00     0.034 A 
BRANCH  25  39
ATOM     39  C   UNL A   1      42.718  31.485  33.962  1.00  0.00     0.023 A 
ATOM     40  C   UNL A   1      43.292  32.712  33.571  1.00  0.00     0.012 A 
ATOM     41  C   UNL A   1      42.109  31.382  35.228  1.00  0.00     0.148 A 
ATOM     42  C   UNL A   1      43.307  33.800  34.444  1.00  0.00     0.002 A 
ATOM     43  C   UNL A   1      42.084  32.485  36.073  1.00  0.00     0.091 A 
ATOM     44  F   UNL A   1      41.583  30.203  35.593  1.00  0.00    -0.205 F 
ATOM     45  C   UNL A   1      42.697  33.689  35.690  1.00  0.00     0.022 A 
BRANCH  43  46
ATOM     46  S   UNL A   1      41.249  32.461  37.663  1.00  0.00     0.127 S 
ATOM     47  O   UNL A   1      42.099  31.551  38.429  1.00  0.00    -0.237 OA
ATOM     48  O   UNL A   1      41.329  33.863  38.077  1.00  0.00    -0.237 OA
ATOM     49  O   UNL A   1      39.898  31.987  37.397  1.00  0.00    -0.744 OA
ENDBRANCH  43  46
ENDBRANCH  25  39
BRANCH  26  50
ATOM     50  C   UNL A   1      42.657  24.239  27.088  1.00  0.00     0.023 A 
ATOM     51  C   UNL A   1      43.352  24.515  25.896  1.00  0.00     0.012 A 
ATOM     52  C   UNL A   1      42.063  22.973  27.264  1.00  0.00     0.148 A 
ATOM     53  C   UNL A   1      43.444  23.551  24.892  1.00  0.00     0.002 A 
ATOM     54  C   UNL A   1      42.209  21.998  26.286  1.00  0.00     0.091 A 
ATOM     55  F   UNL A   1      41.406  22.735  28.409  1.00  0.00    -0.205 F 
ATOM     56  C   UNL A   1      42.886  22.290  25.092  1.00  0.00     0.022 A 
BRANCH  54  57
ATOM     57  S   UNL A   1      41.651  20.307  26.515  1.00  0.00     0.127 S 
ATOM     58  O   UNL A   1      40.199  20.469  26.515  1.00  0.00    -0.237 OA
ATOM     59  O   UNL A   1      42.199  19.650  25.327  1.00  0.00    -0.237 OA
ATOM     60  O   UNL A   1      42.233  19.862  27.773  1.00  0.00    -0.744 OA
ENDBRANCH  54  57
ENDBRANCH  26  50
BRANCH  38  61
ATOM     61  C   UNL A   1      47.151  26.108  32.129  1.00  0.00     0.023 A 
ATOM     62  C   UNL A   1      48.340  26.624  31.579  1.00  0.00     0.012 A 
ATOM     63  C   UNL A   1      47.223  25.178  33.187  1.00  0.00     0.148 A 
ATOM     64  C   UNL A   1      49.581  26.213  32.066  1.00  0.00     0.002 A 
ATOM     65  C   UNL A   1      48.459  24.814  33.701  1.00  0.00     0.091 A 
ATOM     66  F   UNL A   1      46.078  24.687  33.681  1.00  0.00    -0.205 F 
ATOM     67  C   UNL A   1      49.640  25.322  33.135  1.00  0.00     0.022 A 
BRANCH  65  68
ATOM     68  S   UNL A   1      48.631  23.755  35.142  1.00  0.00     0.127 S 
ATOM     69  O   UNL A   1      48.104  22.485  34.644  1.00  0.00    -0.237 OA
ATOM     70  O   UNL A   1      50.077  23.771  35.365  1.00  0.00    -0.237 OA
ATOM     71  O   UNL A   1      47.847  24.379  36.200  1.00  0.00    -0.744 OA
ENDBRANCH  65  68
ENDBRANCH  38  61
ENDBRANCH  12  13
ENDBRANCH   5   7
ENDBRANCH   2   3
ENDBRANCH   1   2
BRANCH   1  72
ATOM     72  C   UNL A   1      32.176  26.595  26.281  1.00  0.00     0.118 C 
BRANCH  72  73
ATOM     73  N   UNL A   1      32.549  26.664  24.874  1.00  0.00    -0.352 N 
ATOM     74  C   UNL A   1      33.423  25.895  24.153  1.00  0.00     0.251 C 
ATOM     75  H   UNL A   1      32.102  27.376  24.362  1.00  0.00     0.163 HD
ATOM     76  O   UNL A   1      33.751  26.242  23.020  1.00  0.00    -0.269 OA
BRANCH  74  77
ATOM     77  C   UNL A   1      33.971  24.645  24.717  1.00  0.00     0.041 A 
ATOM     78  C   UNL A   1      35.222  24.678  25.334  1.00  0.00     0.014 A 
ATOM     79  C   UNL A   1      33.288  23.431  24.572  1.00  0.00     0.039 A 
ATOM     80  C   UNL A   1      35.762  23.503  25.848  1.00  0.00     0.003 A 
ATOM     81  C   UNL A   1      33.807  22.247  25.103  1.00  0.00     0.039 A 
ATOM     82  C   UNL A   1      35.052  22.302  25.743  1.00  0.00     0.026 A 
BRANCH  81  83
ATOM     83  N   UNL A   1      33.049  21.069  24.979  1.00  0.00    -0.356 N 
ATOM     84  H   UNL A   1      32.098  21.216  24.775  1.00  0.00     0.167 HD
BRANCH  83  85
ATOM     85  C   UNL A   1      33.416  19.721  25.095  1.00  0.00     0.039 A 
ATOM     86  C   UNL A   1      32.512  18.831  25.692  1.00  0.00     0.033 A 
ATOM     87  C   UNL A   1      34.605  19.213  24.556  1.00  0.00     0.033 A 
ATOM     88  C   UNL A   1      32.765  17.458  25.718  1.00  0.00     0.088 A 
ATOM     89  C   UNL A   1      34.879  17.842  24.584  1.00  0.00     0.088 A 
ATOM     90  C   UNL A   1      33.946  16.967  25.150  1.00  0.00     0.269 A 
BRANCH  90  91
ATOM     91  N   UNL A   1      34.191  15.521  25.126  1.00  0.00     0.062 N 
ATOM     92  O   UNL A   1      33.205  14.769  25.103  1.00  0.00    -0.258 OA
ATOM     93  O   UNL A   1      35.367  15.134  25.114  1.00  0.00    -0.258 OA
ENDBRANCH  90  91
ENDBRANCH  83  85
ENDBRANCH  81  83
ENDBRANCH  74  77
ENDBRANCH  72  73
ENDBRANCH   1  72
TORSDOF 16
ENDMDL
