MODEL 1
REMARK VINA RESULT:     -11.3      0.000      0.000
REMARK SMILES CC[C@@H](C)N(C)C(=O)N1[C@@H](C(=O)NCCCNC(=O)c2ccc(-c3c4nc(c(-c5cccc(S(=O)(=O)[O-])c5F)c5ccc([nH]5)c(-c5cccc(S(=O)(=O)[O-])c5F)c5nc(c(-c6cccc(S(=O)(=O)[O-])c6F)c6ccc3[nH]6)C=C5)C=C4)cc2)CC[C@H]2CCCC[C@H]21
REMARK SMILES IDX 14 1 13 2 11 3 12 4 10 6 9 7 90 8 83 9 85 10 89 11 84 12
REMARK SMILES IDX 86 13 88 14 87 15 7 16 8 17 5 18 6 19 3 20 4 21 2 22 1 23
REMARK SMILES IDX 15 24 16 25 17 26 18 27 19 29 20 30 21 31 82 32 22 33 81 34
REMARK SMILES IDX 23 35 24 36 25 37 75 38 26 39 80 40 74 41 76 42 27 43 79 44
REMARK SMILES IDX 73 45 72 46 28 48 60 49 40 50 59 51 41 52 44 53 58 54 77 55
REMARK SMILES IDX 42 56 43 57 57 59 78 60 45 61 29 62 30 63 38 64 31 65 33 66
REMARK SMILES IDX 39 67 32 68 34 69 35 70 36 71 37 72 61 73 62 74 70 75 63 76
REMARK SMILES IDX 65 77 71 78 64 79 66 80 67 81 68 82 69 83 46 84 47 85 55 86
REMARK SMILES IDX 48 87 50 88 56 89 49 90 51 91 52 92 53 93 54 94
REMARK H PARENT 13 5 17 28 76 47 44 58
REMARK Flexibility Score: inf
ROOT
ATOM      1  C   UNL A   1      31.469  27.876  26.788  1.00  0.00     0.117 C 
ENDROOT
BRANCH   1   2
ATOM      2  N   UNL A   1      31.130  26.495  27.087  1.00  0.00    -0.354 N 
ATOM      3  C   UNL A   1      30.870  25.473  26.226  1.00  0.00     0.242 C 
ATOM      4  O   UNL A   1      30.511  24.392  26.704  1.00  0.00    -0.273 OA
ATOM      5  H   UNL A   1      31.083  26.268  28.044  1.00  0.00     0.163 HD
BRANCH   3   6
ATOM      6  C   UNL A   1      30.872  25.690  24.697  1.00  0.00     0.176 C 
ATOM      7  N   UNL A   1      32.196  25.892  24.050  1.00  0.00    -0.309 N 
ATOM      8  C   UNL A   1      32.152  26.369  22.651  1.00  0.00     0.091 C 
ATOM      9  C   UNL A   1      29.895  26.870  24.451  1.00  0.00     0.036 C 
ATOM     10  C   UNL A   1      31.278  27.618  22.464  1.00  0.00     0.012 C 
ATOM     11  C   UNL A   1      33.475  26.577  21.895  1.00  0.00     0.025 C 
ATOM     12  C   UNL A   1      29.873  27.377  23.018  1.00  0.00     0.008 C 
ATOM     13  C   UNL A   1      31.926  28.906  22.997  1.00  0.00     0.006 C 
ATOM     14  C   UNL A   1      34.136  27.945  22.094  1.00  0.00     0.002 C 
ATOM     15  C   UNL A   1      33.450  28.871  23.089  1.00  0.00     0.000 C 
BRANCH   7  16
ATOM     16  C   UNL A   1      33.407  25.510  24.599  1.00  0.00     0.320 C 
ATOM     17  O   UNL A   1      34.050  26.327  25.263  1.00  0.00    -0.248 OA
BRANCH  16  18
ATOM     18  N   UNL A   1      33.888  24.225  24.436  1.00  0.00    -0.325 N 
ATOM     19  C   UNL A   1      33.071  23.019  24.433  1.00  0.00     0.149 C 
BRANCH  18  20
ATOM     20  C   UNL A   1      35.286  24.035  23.958  1.00  0.00     0.083 C 
ATOM     21  C   UNL A   1      35.415  22.910  22.923  1.00  0.00     0.031 C 
BRANCH  20  22
ATOM     22  C   UNL A   1      36.274  23.899  25.140  1.00  0.00     0.021 C 
ATOM     23  C   UNL A   1      35.730  23.115  26.324  1.00  0.00     0.006 C 
ENDBRANCH  20  22
ENDBRANCH  18  20
ENDBRANCH  16  18
ENDBRANCH   7  16
ENDBRANCH   3   6
ENDBRANCH   1   2
BRANCH   1  24
ATOM     24  C   UNL A   1      32.644  28.368  27.605  1.00  0.00     0.042 C 
BRANCH  24  25
ATOM     25  C   UNL A   1      33.563  29.292  26.828  1.00  0.00     0.118 C 
BRANCH  25  26
ATOM     26  N   UNL A   1      33.559  30.661  27.333  1.00  0.00    -0.352 N 
ATOM     27  C   UNL A   1      34.474  31.283  28.150  1.00  0.00     0.251 C 
ATOM     28  H   UNL A   1      32.795  31.215  27.052  1.00  0.00     0.163 HD
ATOM     29  O   UNL A   1      34.249  32.397  28.602  1.00  0.00    -0.269 OA
BRANCH  27  30
ATOM     30  C   UNL A   1      35.721  30.570  28.492  1.00  0.00     0.039 A 
ATOM     31  C   UNL A   1      36.846  30.738  27.681  1.00  0.00     0.014 A 
ATOM     32  C   UNL A   1      35.787  29.785  29.645  1.00  0.00     0.014 A 
ATOM     33  C   UNL A   1      38.060  30.171  28.069  1.00  0.00     0.010 A 
ATOM     34  C   UNL A   1      37.016  29.310  30.080  1.00  0.00     0.010 A 
ATOM     35  C   UNL A   1      38.161  29.483  29.289  1.00  0.00    -0.014 A 
BRANCH  35  36
ATOM     36  C   UNL A   1      39.450  28.919  29.761  1.00  0.00     0.031 A 
ATOM     37  C   UNL A   1      40.195  29.598  30.879  1.00  0.00     0.074 A 
ATOM     38  C   UNL A   1      39.995  27.866  29.121  1.00  0.00     0.049 A 
ATOM     39  N   UNL A   1      41.369  29.316  31.377  1.00  0.00    -0.248 NA
ATOM     40  C   UNL A   1      39.551  30.772  31.494  1.00  0.00     0.031 C 
ATOM     41  C   UNL A   1      39.409  27.178  27.968  1.00  0.00     0.029 A 
ATOM     42  N   UNL A   1      41.179  27.207  29.334  1.00  0.00    -0.354 N 
ATOM     43  C   UNL A   1      41.623  30.297  32.327  1.00  0.00     0.074 A 
ATOM     44  C   UNL A   1      40.500  31.208  32.307  1.00  0.00     0.031 C 
ATOM     45  C   UNL A   1      40.233  26.190  27.581  1.00  0.00     0.029 A 
ATOM     46  C   UNL A   1      41.415  26.192  28.436  1.00  0.00     0.049 A 
ATOM     47  H   UNL A   1      41.802  27.438  30.061  1.00  0.00     0.167 HD
ATOM     48  C   UNL A   1      42.677  30.412  33.169  1.00  0.00     0.034 A 
ATOM     49  C   UNL A   1      42.467  25.360  28.316  1.00  0.00     0.034 A 
ATOM     50  C   UNL A   1      43.759  29.471  33.226  1.00  0.00     0.049 A 
ATOM     51  C   UNL A   1      43.601  25.473  29.300  1.00  0.00     0.074 A 
ATOM     52  C   UNL A   1      44.826  29.438  34.105  1.00  0.00     0.029 A 
ATOM     53  N   UNL A   1      43.915  28.393  32.367  1.00  0.00    -0.354 N 
ATOM     54  N   UNL A   1      43.745  26.309  30.299  1.00  0.00    -0.248 NA
ATOM     55  C   UNL A   1      44.697  24.503  29.166  1.00  0.00     0.031 C 
ATOM     56  C   UNL A   1      45.637  28.350  33.766  1.00  0.00     0.029 A 
ATOM     57  C   UNL A   1      45.062  27.692  32.690  1.00  0.00     0.049 A 
ATOM     58  H   UNL A   1      43.299  28.162  31.634  1.00  0.00     0.167 HD
ATOM     59  C   UNL A   1      44.928  25.947  30.934  1.00  0.00     0.074 A 
ATOM     60  C   UNL A   1      45.450  24.801  30.217  1.00  0.00     0.031 C 
ATOM     61  C   UNL A   1      45.536  26.519  32.002  1.00  0.00     0.034 A 
BRANCH  48  62
ATOM     62  C   UNL A   1      42.672  31.565  34.139  1.00  0.00     0.023 A 
ATOM     63  C   UNL A   1      43.308  32.773  33.783  1.00  0.00     0.012 A 
ATOM     64  C   UNL A   1      42.005  31.474  35.376  1.00  0.00     0.148 A 
ATOM     65  C   UNL A   1      43.315  33.858  34.659  1.00  0.00     0.002 A 
ATOM     66  C   UNL A   1      41.977  32.575  36.224  1.00  0.00     0.091 A 
ATOM     67  F   UNL A   1      41.427  30.310  35.707  1.00  0.00    -0.205 F 
ATOM     68  C   UNL A   1      42.641  33.762  35.873  1.00  0.00     0.022 A 
BRANCH  66  69
ATOM     69  S   UNL A   1      41.069  32.581  37.773  1.00  0.00     0.127 S 
ATOM     70  O   UNL A   1      39.800  31.972  37.373  1.00  0.00    -0.237 OA
ATOM     71  O   UNL A   1      41.907  31.738  38.625  1.00  0.00    -0.237 OA
ATOM     72  O   UNL A   1      40.991  33.975  38.187  1.00  0.00    -0.744 OA
ENDBRANCH  66  69
ENDBRANCH  48  62
BRANCH  49  73
ATOM     73  C   UNL A   1      42.462  24.296  27.272  1.00  0.00     0.023 A 
ATOM     74  C   UNL A   1      43.315  24.421  26.158  1.00  0.00     0.012 A 
ATOM     75  C   UNL A   1      41.647  23.153  27.386  1.00  0.00     0.148 A 
ATOM     76  C   UNL A   1      43.334  23.445  25.161  1.00  0.00     0.002 A 
ATOM     77  C   UNL A   1      41.710  22.158  26.417  1.00  0.00     0.091 A 
ATOM     78  F   UNL A   1      40.834  23.057  28.448  1.00  0.00    -0.205 F 
ATOM     79  C   UNL A   1      42.539  22.309  25.296  1.00  0.00     0.022 A 
BRANCH  77  80
ATOM     80  S   UNL A   1      40.819  20.606  26.572  1.00  0.00     0.127 S 
ATOM     81  O   UNL A   1      39.468  20.995  26.178  1.00  0.00    -0.237 OA
ATOM     82  O   UNL A   1      41.522  19.756  25.609  1.00  0.00    -0.237 OA
ATOM     83  O   UNL A   1      40.982  20.196  27.961  1.00  0.00    -0.744 OA
ENDBRANCH  77  80
ENDBRANCH  49  73
BRANCH  61  84
ATOM     84  C   UNL A   1      46.818  25.899  32.491  1.00  0.00     0.023 A 
ATOM     85  C   UNL A   1      48.053  26.364  31.998  1.00  0.00     0.012 A 
ATOM     86  C   UNL A   1      46.800  24.913  33.498  1.00  0.00     0.148 A 
ATOM     87  C   UNL A   1      49.250  25.837  32.477  1.00  0.00     0.002 A 
ATOM     88  C   UNL A   1      47.998  24.428  34.006  1.00  0.00     0.091 A 
ATOM     89  F   UNL A   1      45.614  24.471  33.939  1.00  0.00    -0.205 F 
ATOM     90  C   UNL A   1      49.223  24.879  33.489  1.00  0.00     0.022 A 
BRANCH  88  91
ATOM     91  S   UNL A   1      48.061  23.267  35.375  1.00  0.00     0.127 S 
ATOM     92  O   UNL A   1      47.481  22.067  34.775  1.00  0.00    -0.237 OA
ATOM     93  O   UNL A   1      49.497  23.183  35.645  1.00  0.00    -0.237 OA
ATOM     94  O   UNL A   1      47.281  23.870  36.447  1.00  0.00    -0.744 OA
ENDBRANCH  88  91
ENDBRANCH  61  84
ENDBRANCH  35  36
ENDBRANCH  27  30
ENDBRANCH  25  26
ENDBRANCH  24  25
ENDBRANCH   1  24
TORSDOF 17
ENDMDL
MODEL 2
REMARK VINA RESULT:     -11.2      4.900      9.676
REMARK SMILES CC[C@@H](C)N(C)C(=O)N1[C@@H](C(=O)NCCCNC(=O)c2ccc(-c3c4nc(c(-c5cccc(S(=O)(=O)[O-])c5F)c5ccc([nH]5)c(-c5cccc(S(=O)(=O)[O-])c5F)c5nc(c(-c6cccc(S(=O)(=O)[O-])c6F)c6ccc3[nH]6)C=C5)C=C4)cc2)CC[C@H]2CCCC[C@H]21
REMARK SMILES IDX 14 1 13 2 11 3 12 4 10 6 9 7 90 8 83 9 85 10 89 11 84 12
REMARK SMILES IDX 86 13 88 14 87 15 7 16 8 17 5 18 6 19 3 20 4 21 2 22 1 23
REMARK SMILES IDX 15 24 16 25 17 26 18 27 19 29 20 30 21 31 82 32 22 33 81 34
REMARK SMILES IDX 23 35 24 36 25 37 75 38 26 39 80 40 74 41 76 42 27 43 79 44
REMARK SMILES IDX 73 45 72 46 28 48 60 49 40 50 59 51 41 52 44 53 58 54 77 55
REMARK SMILES IDX 42 56 43 57 57 59 78 60 45 61 29 62 30 63 38 64 31 65 33 66
REMARK SMILES IDX 39 67 32 68 34 69 35 70 36 71 37 72 61 73 62 74 70 75 63 76
REMARK SMILES IDX 65 77 71 78 64 79 66 80 67 81 68 82 69 83 46 84 47 85 55 86
REMARK SMILES IDX 48 87 50 88 56 89 49 90 51 91 52 92 53 93 54 94
REMARK H PARENT 13 5 17 28 76 47 44 58
REMARK Flexibility Score: inf
ROOT
ATOM      1  C   UNL A   1      36.461  22.951  23.630  1.00  0.00     0.117 C 
ENDROOT
BRANCH   1   2
ATOM      2  N   UNL A   1      36.253  23.909  24.701  1.00  0.00    -0.354 N 
ATOM      3  C   UNL A   1      35.098  24.230  25.348  1.00  0.00     0.242 C 
ATOM      4  O   UNL A   1      35.134  25.147  26.174  1.00  0.00    -0.273 OA
ATOM      5  H   UNL A   1      37.057  24.392  25.001  1.00  0.00     0.163 HD
BRANCH   3   6
ATOM      6  C   UNL A   1      33.753  23.579  24.960  1.00  0.00     0.176 C 
ATOM      7  N   UNL A   1      32.821  24.401  24.142  1.00  0.00    -0.309 N 
ATOM      8  C   UNL A   1      31.446  23.870  24.021  1.00  0.00     0.091 C 
ATOM      9  C   UNL A   1      33.125  23.110  26.299  1.00  0.00     0.036 C 
ATOM     10  C   UNL A   1      30.804  23.538  25.376  1.00  0.00     0.012 C 
ATOM     11  C   UNL A   1      30.425  24.642  23.169  1.00  0.00     0.025 C 
ATOM     12  C   UNL A   1      31.700  22.592  26.176  1.00  0.00     0.008 C 
ATOM     13  C   UNL A   1      30.371  24.780  26.172  1.00  0.00     0.006 C 
ATOM     14  C   UNL A   1      29.677  25.764  23.897  1.00  0.00     0.002 C 
ATOM     15  C   UNL A   1      30.118  26.029  25.331  1.00  0.00     0.000 C 
BRANCH   7  16
ATOM     16  C   UNL A   1      33.197  25.493  23.380  1.00  0.00     0.320 C 
ATOM     17  O   UNL A   1      33.682  25.308  22.262  1.00  0.00    -0.248 OA
BRANCH  16  18
ATOM     18  N   UNL A   1      33.011  26.781  23.845  1.00  0.00    -0.325 N 
ATOM     19  C   UNL A   1      33.246  27.221  25.213  1.00  0.00     0.149 C 
BRANCH  18  20
ATOM     20  C   UNL A   1      32.818  27.881  22.858  1.00  0.00     0.083 C 
ATOM     21  C   UNL A   1      34.126  28.602  22.505  1.00  0.00     0.031 C 
BRANCH  20  22
ATOM     22  C   UNL A   1      31.686  28.840  23.294  1.00  0.00     0.021 C 
ATOM     23  C   UNL A   1      30.503  28.886  22.339  1.00  0.00     0.006 C 
ENDBRANCH  20  22
ENDBRANCH  18  20
ENDBRANCH  16  18
ENDBRANCH   7  16
ENDBRANCH   3   6
ENDBRANCH   1   2
BRANCH   1  24
ATOM     24  C   UNL A   1      37.123  21.680  24.118  1.00  0.00     0.042 C 
BRANCH  24  25
ATOM     25  C   UNL A   1      37.570  21.761  25.566  1.00  0.00     0.118 C 
BRANCH  25  26
ATOM     26  N   UNL A   1      38.605  20.788  25.901  1.00  0.00    -0.352 N 
ATOM     27  C   UNL A   1      39.852  21.005  26.439  1.00  0.00     0.251 C 
ATOM     28  H   UNL A   1      38.380  19.848  25.716  1.00  0.00     0.163 HD
ATOM     29  O   UNL A   1      40.660  20.091  26.526  1.00  0.00    -0.269 OA
BRANCH  27  30
ATOM     30  C   UNL A   1      40.206  22.368  26.885  1.00  0.00     0.039 A 
ATOM     31  C   UNL A   1      41.103  22.525  27.944  1.00  0.00     0.014 A 
ATOM     32  C   UNL A   1      39.694  23.481  26.216  1.00  0.00     0.014 A 
ATOM     33  C   UNL A   1      41.539  23.806  28.285  1.00  0.00     0.010 A 
ATOM     34  C   UNL A   1      40.208  24.740  26.489  1.00  0.00     0.010 A 
ATOM     35  C   UNL A   1      41.123  24.919  27.537  1.00  0.00    -0.014 A 
BRANCH  35  36
ATOM     36  C   UNL A   1      41.614  26.287  27.834  1.00  0.00     0.031 A 
ATOM     37  C   UNL A   1      43.026  26.664  27.478  1.00  0.00     0.074 A 
ATOM     38  C   UNL A   1      40.829  27.147  28.512  1.00  0.00     0.049 A 
ATOM     39  N   UNL A   1      43.671  27.773  27.728  1.00  0.00    -0.248 NA
ATOM     40  C   UNL A   1      43.833  25.648  26.779  1.00  0.00     0.031 C 
ATOM     41  C   UNL A   1      39.474  26.865  28.989  1.00  0.00     0.029 A 
ATOM     42  N   UNL A   1      41.072  28.428  28.941  1.00  0.00    -0.354 N 
ATOM     43  C   UNL A   1      44.964  27.572  27.261  1.00  0.00     0.074 A 
ATOM     44  C   UNL A   1      45.027  26.221  26.750  1.00  0.00     0.031 C 
ATOM     45  C   UNL A   1      39.002  27.943  29.637  1.00  0.00     0.029 A 
ATOM     46  C   UNL A   1      40.029  28.980  29.648  1.00  0.00     0.049 A 
ATOM     47  H   UNL A   1      41.912  28.907  28.760  1.00  0.00     0.167 HD
ATOM     48  C   UNL A   1      45.999  28.444  27.223  1.00  0.00     0.034 A 
ATOM     49  C   UNL A   1      39.916  30.184  30.241  1.00  0.00     0.034 A 
ATOM     50  C   UNL A   1      45.913  29.804  27.677  1.00  0.00     0.049 A 
ATOM     51  C   UNL A   1      41.061  31.157  30.136  1.00  0.00     0.074 A 
ATOM     52  C   UNL A   1      46.869  30.800  27.596  1.00  0.00     0.029 A 
ATOM     53  N   UNL A   1      44.805  30.361  28.298  1.00  0.00    -0.354 N 
ATOM     54  N   UNL A   1      42.221  31.004  29.546  1.00  0.00    -0.248 NA
ATOM     55  C   UNL A   1      40.867  32.480  30.746  1.00  0.00     0.031 C 
ATOM     56  C   UNL A   1      46.345  31.956  28.185  1.00  0.00     0.029 A 
ATOM     57  C   UNL A   1      45.054  31.685  28.611  1.00  0.00     0.049 A 
ATOM     58  H   UNL A   1      43.965  29.884  28.487  1.00  0.00     0.167 HD
ATOM     59  C   UNL A   1      42.882  32.220  29.680  1.00  0.00     0.074 A 
ATOM     60  C   UNL A   1      41.982  33.105  30.392  1.00  0.00     0.031 C 
ATOM     61  C   UNL A   1      44.125  32.568  29.268  1.00  0.00     0.034 A 
BRANCH  48  62
ATOM     62  C   UNL A   1      47.291  27.968  26.614  1.00  0.00     0.023 A 
ATOM     63  C   UNL A   1      48.332  27.522  27.456  1.00  0.00     0.012 A 
ATOM     64  C   UNL A   1      47.463  27.916  25.217  1.00  0.00     0.148 A 
ATOM     65  C   UNL A   1      49.537  27.071  26.919  1.00  0.00     0.002 A 
ATOM     66  C   UNL A   1      48.649  27.421  24.689  1.00  0.00     0.091 A 
ATOM     67  F   UNL A   1      46.472  28.365  24.434  1.00  0.00    -0.205 F 
ATOM     68  C   UNL A   1      49.691  27.010  25.537  1.00  0.00     0.022 A 
BRANCH  66  69
ATOM     69  S   UNL A   1      48.916  27.226  22.923  1.00  0.00     0.127 S 
ATOM     70  O   UNL A   1      48.271  25.939  22.668  1.00  0.00    -0.237 OA
ATOM     71  O   UNL A   1      48.208  28.383  22.375  1.00  0.00    -0.237 OA
ATOM     72  O   UNL A   1      50.359  27.252  22.731  1.00  0.00    -0.744 OA
ENDBRANCH  66  69
ENDBRANCH  48  62
BRANCH  49  73
ATOM     73  C   UNL A   1      38.644  30.567  30.917  1.00  0.00     0.023 A 
ATOM     74  C   UNL A   1      38.464  30.246  32.276  1.00  0.00     0.012 A 
ATOM     75  C   UNL A   1      37.630  31.271  30.238  1.00  0.00     0.148 A 
ATOM     76  C   UNL A   1      37.284  30.588  32.939  1.00  0.00     0.002 A 
ATOM     77  C   UNL A   1      36.480  31.656  30.918  1.00  0.00     0.091 A 
ATOM     78  F   UNL A   1      37.816  31.558  28.941  1.00  0.00    -0.205 F 
ATOM     79  C   UNL A   1      36.298  31.302  32.263  1.00  0.00     0.022 A 
BRANCH  77  80
ATOM     80  S   UNL A   1      35.216  32.686  30.165  1.00  0.00     0.127 S 
ATOM     81  O   UNL A   1      34.744  31.833  29.077  1.00  0.00    -0.237 OA
ATOM     82  O   UNL A   1      34.270  32.858  31.268  1.00  0.00    -0.237 OA
ATOM     83  O   UNL A   1      35.895  33.911  29.762  1.00  0.00    -0.744 OA
ENDBRANCH  77  80
ENDBRANCH  49  73
BRANCH  61  84
ATOM     84  C   UNL A   1      44.582  33.977  29.540  1.00  0.00     0.023 A 
ATOM     85  C   UNL A   1      45.249  34.276  30.744  1.00  0.00     0.012 A 
ATOM     86  C   UNL A   1      44.423  34.983  28.567  1.00  0.00     0.148 A 
ATOM     87  C   UNL A   1      45.724  35.563  30.989  1.00  0.00     0.002 A 
ATOM     88  C   UNL A   1      44.943  36.251  28.797  1.00  0.00     0.091 A 
ATOM     89  F   UNL A   1      43.770  34.682  27.435  1.00  0.00    -0.205 F 
ATOM     90  C   UNL A   1      45.582  36.546  30.012  1.00  0.00     0.022 A 
BRANCH  88  91
ATOM     91  S   UNL A   1      44.894  37.550  27.557  1.00  0.00     0.127 S 
ATOM     92  O   UNL A   1      45.283  38.722  28.338  1.00  0.00    -0.237 OA
ATOM     93  O   UNL A   1      45.897  37.097  26.593  1.00  0.00    -0.237 OA
ATOM     94  O   UNL A   1      43.530  37.563  27.045  1.00  0.00    -0.744 OA
ENDBRANCH  88  91
ENDBRANCH  61  84
ENDBRANCH  35  36
ENDBRANCH  27  30
ENDBRANCH  25  26
ENDBRANCH  24  25
ENDBRANCH   1  24
TORSDOF 17
ENDMDL
MODEL 3
REMARK VINA RESULT:     -11.0      5.865      8.621
REMARK SMILES CC[C@@H](C)N(C)C(=O)N1[C@@H](C(=O)NCCCNC(=O)c2ccc(-c3c4nc(c(-c5cccc(S(=O)(=O)[O-])c5F)c5ccc([nH]5)c(-c5cccc(S(=O)(=O)[O-])c5F)c5nc(c(-c6cccc(S(=O)(=O)[O-])c6F)c6ccc3[nH]6)C=C5)C=C4)cc2)CC[C@H]2CCCC[C@H]21
REMARK SMILES IDX 14 1 13 2 11 3 12 4 10 6 9 7 90 8 83 9 85 10 89 11 84 12
REMARK SMILES IDX 86 13 88 14 87 15 7 16 8 17 5 18 6 19 3 20 4 21 2 22 1 23
REMARK SMILES IDX 15 24 16 25 17 26 18 27 19 29 20 30 21 31 82 32 22 33 81 34
REMARK SMILES IDX 23 35 24 36 25 37 75 38 26 39 80 40 74 41 76 42 27 43 79 44
REMARK SMILES IDX 73 45 72 46 28 48 60 49 40 50 59 51 41 52 44 53 58 54 77 55
REMARK SMILES IDX 42 56 43 57 57 59 78 60 45 61 29 62 30 63 38 64 31 65 33 66
REMARK SMILES IDX 39 67 32 68 34 69 35 70 36 71 37 72 61 73 62 74 70 75 63 76
REMARK SMILES IDX 65 77 71 78 64 79 66 80 67 81 68 82 69 83 46 84 47 85 55 86
REMARK SMILES IDX 48 87 50 88 56 89 49 90 51 91 52 92 53 93 54 94
REMARK H PARENT 13 5 17 28 76 47 44 58
REMARK Flexibility Score: inf
ROOT
ATOM      1  C   UNL A   1      37.259  21.299  25.431  1.00  0.00     0.117 C 
ENDROOT
BRANCH   1   2
ATOM      2  N   UNL A   1      37.012  21.945  24.154  1.00  0.00    -0.354 N 
ATOM      3  C   UNL A   1      36.090  22.897  23.841  1.00  0.00     0.242 C 
ATOM      4  O   UNL A   1      35.994  23.243  22.660  1.00  0.00    -0.273 OA
ATOM      5  H   UNL A   1      37.592  21.655  23.412  1.00  0.00     0.163 HD
BRANCH   3   6
ATOM      6  C   UNL A   1      35.089  23.422  24.894  1.00  0.00     0.176 C 
ATOM      7  N   UNL A   1      33.712  22.861  24.847  1.00  0.00    -0.309 N 
ATOM      8  C   UNL A   1      32.710  23.572  25.671  1.00  0.00     0.091 C 
ATOM      9  C   UNL A   1      35.117  24.966  24.749  1.00  0.00     0.036 C 
ATOM     10  C   UNL A   1      32.673  25.084  25.409  1.00  0.00     0.012 C 
ATOM     11  C   UNL A   1      31.266  23.042  25.704  1.00  0.00     0.025 C 
ATOM     12  C   UNL A   1      34.066  25.692  25.575  1.00  0.00     0.008 C 
ATOM     13  C   UNL A   1      32.004  25.460  24.077  1.00  0.00     0.006 C 
ATOM     14  C   UNL A   1      30.355  23.548  24.580  1.00  0.00     0.002 C 
ATOM     15  C   UNL A   1      31.028  24.421  23.528  1.00  0.00     0.000 C 
BRANCH   7  16
ATOM     16  C   UNL A   1      33.368  21.665  24.241  1.00  0.00     0.320 C 
ATOM     17  O   UNL A   1      32.863  21.684  23.117  1.00  0.00    -0.248 OA
BRANCH  16  18
ATOM     18  N   UNL A   1      33.609  20.457  24.868  1.00  0.00    -0.325 N 
ATOM     19  C   UNL A   1      33.573  20.239  26.308  1.00  0.00     0.149 C 
BRANCH  18  20
ATOM     20  C   UNL A   1      33.644  19.215  24.047  1.00  0.00     0.083 C 
ATOM     21  C   UNL A   1      32.269  18.549  23.913  1.00  0.00     0.031 C 
BRANCH  20  22
ATOM     22  C   UNL A   1      34.750  18.249  24.530  1.00  0.00     0.021 C 
ATOM     23  C   UNL A   1      34.386  16.776  24.424  1.00  0.00     0.006 C 
ENDBRANCH  20  22
ENDBRANCH  18  20
ENDBRANCH  16  18
ENDBRANCH   7  16
ENDBRANCH   3   6
ENDBRANCH   1   2
BRANCH   1  24
ATOM     24  C   UNL A   1      38.267  20.174  25.320  1.00  0.00     0.042 C 
BRANCH  24  25
ATOM     25  C   UNL A   1      39.524  20.420  26.133  1.00  0.00     0.118 C 
BRANCH  25  26
ATOM     26  N   UNL A   1      40.460  19.301  26.091  1.00  0.00    -0.352 N 
ATOM     27  C   UNL A   1      41.834  19.324  26.147  1.00  0.00     0.251 C 
ATOM     28  H   UNL A   1      40.052  18.409  26.012  1.00  0.00     0.163 HD
ATOM     29  O   UNL A   1      42.481  18.303  25.954  1.00  0.00    -0.269 OA
BRANCH  27  30
ATOM     30  C   UNL A   1      42.514  20.606  26.419  1.00  0.00     0.039 A 
ATOM     31  C   UNL A   1      43.005  21.356  25.348  1.00  0.00     0.014 A 
ATOM     32  C   UNL A   1      42.612  21.086  27.726  1.00  0.00     0.014 A 
ATOM     33  C   UNL A   1      43.534  22.625  25.587  1.00  0.00     0.010 A 
ATOM     34  C   UNL A   1      43.041  22.386  27.948  1.00  0.00     0.010 A 
ATOM     35  C   UNL A   1      43.522  23.163  26.884  1.00  0.00    -0.014 A 
BRANCH  35  36
ATOM     36  C   UNL A   1      44.021  24.532  27.164  1.00  0.00     0.031 A 
ATOM     37  C   UNL A   1      43.072  25.578  27.684  1.00  0.00     0.074 A 
ATOM     38  C   UNL A   1      45.291  24.858  26.856  1.00  0.00     0.049 A 
ATOM     39  N   UNL A   1      43.288  26.846  27.910  1.00  0.00    -0.248 NA
ATOM     40  C   UNL A   1      41.687  25.150  27.951  1.00  0.00     0.031 C 
ATOM     41  C   UNL A   1      46.280  23.954  26.265  1.00  0.00     0.029 A 
ATOM     42  N   UNL A   1      45.961  26.050  26.973  1.00  0.00    -0.354 N 
ATOM     43  C   UNL A   1      42.063  27.375  28.301  1.00  0.00     0.074 A 
ATOM     44  C   UNL A   1      41.098  26.300  28.240  1.00  0.00     0.031 C 
ATOM     45  C   UNL A   1      47.431  24.622  26.079  1.00  0.00     0.029 A 
ATOM     46  C   UNL A   1      47.255  26.005  26.508  1.00  0.00     0.049 A 
ATOM     47  H   UNL A   1      45.554  26.861  27.354  1.00  0.00     0.167 HD
ATOM     48  C   UNL A   1      41.772  28.632  28.711  1.00  0.00     0.034 A 
ATOM     49  C   UNL A   1      48.190  26.971  26.434  1.00  0.00     0.034 A 
ATOM     50  C   UNL A   1      42.747  29.679  28.826  1.00  0.00     0.049 A 
ATOM     51  C   UNL A   1      47.858  28.347  26.948  1.00  0.00     0.074 A 
ATOM     52  C   UNL A   1      42.580  30.959  29.322  1.00  0.00     0.029 A 
ATOM     53  N   UNL A   1      44.075  29.569  28.441  1.00  0.00    -0.354 N 
ATOM     54  N   UNL A   1      46.736  28.785  27.467  1.00  0.00    -0.248 NA
ATOM     55  C   UNL A   1      48.930  29.351  26.902  1.00  0.00     0.031 C 
ATOM     56  C   UNL A   1      43.804  31.630  29.220  1.00  0.00     0.029 A 
ATOM     57  C   UNL A   1      44.738  30.758  28.682  1.00  0.00     0.049 A 
ATOM     58  H   UNL A   1      44.484  28.762  28.053  1.00  0.00     0.167 HD
ATOM     59  C   UNL A   1      46.977  30.101  27.842  1.00  0.00     0.074 A 
ATOM     60  C   UNL A   1      48.359  30.383  27.509  1.00  0.00     0.031 C 
ATOM     61  C   UNL A   1      46.129  31.001  28.397  1.00  0.00     0.034 A 
BRANCH  48  62
ATOM     62  C   UNL A   1      40.352  28.920  29.123  1.00  0.00     0.023 A 
ATOM     63  C   UNL A   1      39.392  29.229  28.136  1.00  0.00     0.012 A 
ATOM     64  C   UNL A   1      39.955  28.840  30.472  1.00  0.00     0.148 A 
ATOM     65  C   UNL A   1      38.070  29.496  28.488  1.00  0.00     0.002 A 
ATOM     66  C   UNL A   1      38.625  29.061  30.810  1.00  0.00     0.091 A 
ATOM     67  F   UNL A   1      40.885  28.568  31.398  1.00  0.00    -0.205 F 
ATOM     68  C   UNL A   1      37.685  29.401  29.823  1.00  0.00     0.022 A 
BRANCH  66  69
ATOM     69  S   UNL A   1      38.010  28.884  32.489  1.00  0.00     0.127 S 
ATOM     70  O   UNL A   1      38.219  27.457  32.729  1.00  0.00    -0.237 OA
ATOM     71  O   UNL A   1      38.905  29.766  33.239  1.00  0.00    -0.237 OA
ATOM     72  O   UNL A   1      36.620  29.317  32.454  1.00  0.00    -0.744 OA
ENDBRANCH  66  69
ENDBRANCH  48  62
BRANCH  49  73
ATOM     73  C   UNL A   1      49.553  26.652  25.924  1.00  0.00     0.023 A 
ATOM     74  C   UNL A   1      50.424  25.883  26.721  1.00  0.00     0.012 A 
ATOM     75  C   UNL A   1      49.983  27.074  24.651  1.00  0.00     0.148 A 
ATOM     76  C   UNL A   1      51.707  25.567  26.275  1.00  0.00     0.002 A 
ATOM     77  C   UNL A   1      51.244  26.710  24.190  1.00  0.00     0.091 A 
ATOM     78  F   UNL A   1      49.145  27.814  23.911  1.00  0.00    -0.205 F 
ATOM     79  C   UNL A   1      52.114  25.972  25.006  1.00  0.00     0.022 A 
BRANCH  77  80
ATOM     80  S   UNL A   1      51.801  27.078  22.522  1.00  0.00     0.127 S 
ATOM     81  O   UNL A   1      52.112  28.502  22.617  1.00  0.00    -0.237 OA
ATOM     82  O   UNL A   1      52.965  26.199  22.392  1.00  0.00    -0.237 OA
ATOM     83  O   UNL A   1      50.688  26.729  21.649  1.00  0.00    -0.744 OA
ENDBRANCH  77  80
ENDBRANCH  49  73
BRANCH  61  84
ATOM     84  C   UNL A   1      46.672  32.369  28.715  1.00  0.00     0.023 A 
ATOM     85  C   UNL A   1      47.205  32.630  29.993  1.00  0.00     0.012 A 
ATOM     86  C   UNL A   1      46.728  33.368  27.723  1.00  0.00     0.148 A 
ATOM     87  C   UNL A   1      47.758  33.875  30.288  1.00  0.00     0.002 A 
ATOM     88  C   UNL A   1      47.325  34.589  28.010  1.00  0.00     0.091 A 
ATOM     89  F   UNL A   1      46.199  33.105  26.520  1.00  0.00    -0.205 F 
ATOM     90  C   UNL A   1      47.829  34.849  29.294  1.00  0.00     0.022 A 
BRANCH  88  91
ATOM     91  S   UNL A   1      47.550  35.865  26.764  1.00  0.00     0.127 S 
ATOM     92  O   UNL A   1      48.633  36.658  27.343  1.00  0.00    -0.237 OA
ATOM     93  O   UNL A   1      47.926  35.085  25.585  1.00  0.00    -0.237 OA
ATOM     94  O   UNL A   1      46.266  36.545  26.652  1.00  0.00    -0.744 OA
ENDBRANCH  88  91
ENDBRANCH  61  84
ENDBRANCH  35  36
ENDBRANCH  27  30
ENDBRANCH  25  26
ENDBRANCH  24  25
ENDBRANCH   1  24
TORSDOF 17
ENDMDL
