MODEL 1
REMARK VINA RESULT:     -12.3      0.000      0.000
REMARK SMILES O=C(Cc1ccc(F)c(F)c1)NC1(C(=O)NCCCNC(=O)c2ccc(-c3c4nc(c(-c5cccc(S(=O)(=O)[O-])c5F)c5ccc([nH]5)c(-c5cccc(S(=O)(=O)[O-])c5F)c5nc(c(-c6cccc(S(=O)(=O)[O-])c6F)c6ccc3[nH]6)C=C5)C=C4)cc2)CCCC1
REMARK SMILES IDX 18 1 17 2 16 3 14 4 15 5 13 7 86 8 89 9 87 10 88 11 12 12
REMARK SMILES IDX 1 13 2 14 3 16 4 17 5 18 11 19 6 20 9 21 7 22 10 23 8 24
REMARK SMILES IDX 19 25 20 26 21 27 22 29 23 30 24 31 85 32 25 33 84 34 26 35
REMARK SMILES IDX 27 36 28 37 78 38 29 39 83 40 77 41 79 42 30 43 82 44 76 45
REMARK SMILES IDX 75 46 31 48 63 49 43 50 62 51 44 52 47 53 61 54 80 55 45 56
REMARK SMILES IDX 46 57 60 59 81 60 48 61 32 62 33 63 41 64 34 65 36 66 42 67
REMARK SMILES IDX 35 68 37 69 38 70 39 71 40 72 64 73 65 74 73 75 66 76 68 77
REMARK SMILES IDX 74 78 67 79 69 80 70 81 71 82 72 83 49 84 50 85 58 86 51 87
REMARK SMILES IDX 53 88 59 89 52 90 54 91 55 92 56 93 57 94
REMARK H PARENT 16 6 12 15 20 28 79 47 47 58
REMARK Flexibility Score: inf
ROOT
ATOM      1  C   UNL A   1      31.399  32.198  26.496  1.00  0.00     0.042 C 
ENDROOT
BRANCH   1   2
ATOM      2  C   UNL A   1      31.548  30.815  25.883  1.00  0.00     0.117 C 
BRANCH   2   3
ATOM      3  N   UNL A   1      31.426  29.759  26.858  1.00  0.00    -0.354 N 
ATOM      4  C   UNL A   1      31.575  28.415  26.745  1.00  0.00     0.245 C 
ATOM      5  O   UNL A   1      31.621  27.804  27.826  1.00  0.00    -0.272 OA
ATOM      6  H   UNL A   1      31.193  30.068  27.763  1.00  0.00     0.163 HD
BRANCH   4   7
ATOM      7  C   UNL A   1      31.786  27.654  25.387  1.00  0.00     0.119 C 
ATOM      8  C   UNL A   1      31.849  26.128  25.586  1.00  0.00     0.038 C 
ATOM      9  C   UNL A   1      33.060  28.014  24.610  1.00  0.00     0.038 C 
ATOM     10  C   UNL A   1      33.232  25.638  25.167  1.00  0.00     0.003 C 
ATOM     11  C   UNL A   1      34.029  26.844  24.705  1.00  0.00     0.003 C 
BRANCH   7  12
ATOM     12  N   UNL A   1      30.516  27.942  24.668  1.00  0.00    -0.341 N 
ATOM     13  O   UNL A   1      30.885  27.161  22.526  1.00  0.00    -0.275 OA
ATOM     14  C   UNL A   1      30.165  27.693  23.362  1.00  0.00     0.225 C 
ATOM     15  H   UNL A   1      29.819  28.377  25.211  1.00  0.00     0.164 HD
BRANCH  14  16
ATOM     16  C   UNL A   1      28.771  28.176  22.995  1.00  0.00     0.135 C 
BRANCH  16  17
ATOM     17  C   UNL A   1      28.609  29.642  22.628  1.00  0.00    -0.036 A 
ATOM     18  C   UNL A   1      28.845  30.602  23.630  1.00  0.00     0.007 A 
ATOM     19  C   UNL A   1      28.248  30.095  21.349  1.00  0.00     0.046 A 
ATOM     20  C   UNL A   1      28.683  31.967  23.372  1.00  0.00     0.043 A 
ATOM     21  C   UNL A   1      28.056  31.453  21.106  1.00  0.00     0.159 A 
ATOM     22  C   UNL A   1      28.271  32.383  22.111  1.00  0.00     0.158 A 
ATOM     23  F   UNL A   1      27.652  31.853  19.892  1.00  0.00    -0.204 F 
ATOM     24  F   UNL A   1      28.089  33.689  21.875  1.00  0.00    -0.204 F 
ENDBRANCH  16  17
ENDBRANCH  14  16
ENDBRANCH   7  12
ENDBRANCH   4   7
ENDBRANCH   2   3
ENDBRANCH   1   2
BRANCH   1  25
ATOM     25  C   UNL A   1      32.668  32.668  27.189  1.00  0.00     0.118 C 
BRANCH  25  26
ATOM     26  N   UNL A   1      32.547  34.040  27.675  1.00  0.00    -0.352 N 
ATOM     27  C   UNL A   1      33.169  34.662  28.727  1.00  0.00     0.251 C 
ATOM     28  H   UNL A   1      31.923  34.607  27.169  1.00  0.00     0.163 HD
ATOM     29  O   UNL A   1      32.751  35.755  29.114  1.00  0.00    -0.269 OA
BRANCH  27  30
ATOM     30  C   UNL A   1      34.325  34.029  29.389  1.00  0.00     0.039 A 
ATOM     31  C   UNL A   1      35.618  34.412  29.026  1.00  0.00     0.014 A 
ATOM     32  C   UNL A   1      34.132  33.041  30.357  1.00  0.00     0.014 A 
ATOM     33  C   UNL A   1      36.714  33.837  29.671  1.00  0.00     0.010 A 
ATOM     34  C   UNL A   1      35.215  32.557  31.076  1.00  0.00     0.010 A 
ATOM     35  C   UNL A   1      36.519  32.926  30.721  1.00  0.00    -0.014 A 
BRANCH  35  36
ATOM     36  C   UNL A   1      37.660  32.316  31.445  1.00  0.00     0.031 A 
ATOM     37  C   UNL A   1      38.422  31.179  30.819  1.00  0.00     0.074 A 
ATOM     38  C   UNL A   1      37.953  32.725  32.694  1.00  0.00     0.049 A 
ATOM     39  N   UNL A   1      39.403  30.470  31.313  1.00  0.00    -0.248 NA
ATOM     40  C   UNL A   1      38.001  30.754  29.471  1.00  0.00     0.031 C 
ATOM     41  C   UNL A   1      37.234  33.763  33.437  1.00  0.00     0.029 A 
ATOM     42  N   UNL A   1      38.920  32.301  33.570  1.00  0.00    -0.354 N 
ATOM     43  C   UNL A   1      39.686  29.497  30.362  1.00  0.00     0.074 A 
ATOM     44  C   UNL A   1      38.740  29.671  29.284  1.00  0.00     0.031 C 
ATOM     45  C   UNL A   1      37.797  33.908  34.646  1.00  0.00     0.029 A 
ATOM     46  C   UNL A   1      38.889  32.952  34.781  1.00  0.00     0.049 A 
ATOM     47  H   UNL A   1      39.574  31.597  33.352  1.00  0.00     0.167 HD
ATOM     48  C   UNL A   1      40.666  28.564  30.366  1.00  0.00     0.034 A 
ATOM     49  C   UNL A   1      39.656  32.790  35.877  1.00  0.00     0.034 A 
ATOM     50  C   UNL A   1      41.629  28.425  31.424  1.00  0.00     0.049 A 
ATOM     51  C   UNL A   1      40.763  31.772  35.844  1.00  0.00     0.074 A 
ATOM     52  C   UNL A   1      42.714  27.571  31.494  1.00  0.00     0.029 A 
ATOM     53  N   UNL A   1      41.616  29.156  32.603  1.00  0.00    -0.354 N 
ATOM     54  N   UNL A   1      41.108  30.958  34.876  1.00  0.00    -0.248 NA
ATOM     55  C   UNL A   1      41.611  31.678  37.041  1.00  0.00     0.031 C 
ATOM     56  C   UNL A   1      43.340  27.764  32.731  1.00  0.00     0.029 A 
ATOM     57  C   UNL A   1      42.669  28.768  33.412  1.00  0.00     0.049 A 
ATOM     58  H   UNL A   1      40.955  29.849  32.830  1.00  0.00     0.167 HD
ATOM     59  C   UNL A   1      42.238  30.286  35.327  1.00  0.00     0.074 A 
ATOM     60  C   UNL A   1      42.526  30.801  36.651  1.00  0.00     0.031 C 
ATOM     61  C   UNL A   1      42.967  29.326  34.707  1.00  0.00     0.034 A 
BRANCH  48  62
ATOM     62  C   UNL A   1      40.766  27.653  29.168  1.00  0.00     0.023 A 
ATOM     63  C   UNL A   1      39.961  26.496  29.096  1.00  0.00     0.012 A 
ATOM     64  C   UNL A   1      41.635  27.951  28.101  1.00  0.00     0.148 A 
ATOM     65  C   UNL A   1      40.057  25.626  28.012  1.00  0.00     0.002 A 
ATOM     66  C   UNL A   1      41.687  27.106  26.998  1.00  0.00     0.091 A 
ATOM     67  F   UNL A   1      42.410  29.042  28.191  1.00  0.00    -0.205 F 
ATOM     68  C   UNL A   1      40.912  25.936  26.959  1.00  0.00     0.022 A 
BRANCH  66  69
ATOM     69  S   UNL A   1      42.693  27.461  25.552  1.00  0.00     0.127 S 
ATOM     70  O   UNL A   1      44.032  27.527  26.135  1.00  0.00    -0.237 OA
ATOM     71  O   UNL A   1      42.449  26.287  24.714  1.00  0.00    -0.237 OA
ATOM     72  O   UNL A   1      42.185  28.712  25.007  1.00  0.00    -0.744 OA
ENDBRANCH  66  69
ENDBRANCH  48  62
BRANCH  49  73
ATOM     73  C   UNL A   1      39.451  33.668  37.063  1.00  0.00     0.023 A 
ATOM     74  C   UNL A   1      39.892  35.006  37.014  1.00  0.00     0.012 A 
ATOM     75  C   UNL A   1      38.794  33.203  38.217  1.00  0.00     0.148 A 
ATOM     76  C   UNL A   1      39.711  35.855  38.106  1.00  0.00     0.002 A 
ATOM     77  C   UNL A   1      38.568  34.070  39.280  1.00  0.00     0.091 A 
ATOM     78  F   UNL A   1      38.384  31.927  38.242  1.00  0.00    -0.205 F 
ATOM     79  C   UNL A   1      39.042  35.390  39.234  1.00  0.00     0.022 A 
BRANCH  77  80
ATOM     80  S   UNL A   1      37.604  33.601  40.722  1.00  0.00     0.127 S 
ATOM     81  O   UNL A   1      36.385  33.079  40.110  1.00  0.00    -0.237 OA
ATOM     82  O   UNL A   1      38.464  32.594  41.342  1.00  0.00    -0.237 OA
ATOM     83  O   UNL A   1      37.444  34.820  41.503  1.00  0.00    -0.744 OA
ENDBRANCH  77  80
ENDBRANCH  49  73
BRANCH  61  84
ATOM     84  C   UNL A   1      44.184  28.802  35.424  1.00  0.00     0.023 A 
ATOM     85  C   UNL A   1      45.439  29.412  35.231  1.00  0.00     0.012 A 
ATOM     86  C   UNL A   1      44.062  27.745  36.348  1.00  0.00     0.148 A 
ATOM     87  C   UNL A   1      46.562  28.951  35.918  1.00  0.00     0.002 A 
ATOM     88  C   UNL A   1      45.174  27.329  37.070  1.00  0.00     0.091 A 
ATOM     89  F   UNL A   1      42.863  27.165  36.505  1.00  0.00    -0.205 F 
ATOM     90  C   UNL A   1      46.427  27.920  36.845  1.00  0.00     0.022 A 
BRANCH  88  91
ATOM     91  S   UNL A   1      45.073  26.080  38.357  1.00  0.00     0.127 S 
ATOM     92  O   UNL A   1      46.448  26.052  38.853  1.00  0.00    -0.237 OA
ATOM     93  O   UNL A   1      44.103  26.668  39.281  1.00  0.00    -0.237 OA
ATOM     94  O   UNL A   1      44.620  24.861  37.701  1.00  0.00    -0.744 OA
ENDBRANCH  88  91
ENDBRANCH  61  84
ENDBRANCH  35  36
ENDBRANCH  27  30
ENDBRANCH  25  26
ENDBRANCH   1  25
TORSDOF 16
ENDMDL
MODEL 2
REMARK VINA RESULT:     -12.1      3.723      5.440
REMARK SMILES O=C(Cc1ccc(F)c(F)c1)NC1(C(=O)NCCCNC(=O)c2ccc(-c3c4nc(c(-c5cccc(S(=O)(=O)[O-])c5F)c5ccc([nH]5)c(-c5cccc(S(=O)(=O)[O-])c5F)c5nc(c(-c6cccc(S(=O)(=O)[O-])c6F)c6ccc3[nH]6)C=C5)C=C4)cc2)CCCC1
REMARK SMILES IDX 18 1 17 2 16 3 14 4 15 5 13 7 86 8 89 9 87 10 88 11 12 12
REMARK SMILES IDX 1 13 2 14 3 16 4 17 5 18 11 19 6 20 9 21 7 22 10 23 8 24
REMARK SMILES IDX 19 25 20 26 21 27 22 29 23 30 24 31 85 32 25 33 84 34 26 35
REMARK SMILES IDX 27 36 28 37 78 38 29 39 83 40 77 41 79 42 30 43 82 44 76 45
REMARK SMILES IDX 75 46 31 48 63 49 43 50 62 51 44 52 47 53 61 54 80 55 45 56
REMARK SMILES IDX 46 57 60 59 81 60 48 61 32 62 33 63 41 64 34 65 36 66 42 67
REMARK SMILES IDX 35 68 37 69 38 70 39 71 40 72 64 73 65 74 73 75 66 76 68 77
REMARK SMILES IDX 74 78 67 79 69 80 70 81 71 82 72 83 49 84 50 85 58 86 51 87
REMARK SMILES IDX 53 88 59 89 52 90 54 91 55 92 56 93 57 94
REMARK H PARENT 16 6 12 15 20 28 79 47 47 58
REMARK Flexibility Score: inf
ROOT
ATOM      1  C   UNL A   1      31.750  28.519  25.750  1.00  0.00     0.042 C 
ENDROOT
BRANCH   1   2
ATOM      2  C   UNL A   1      32.095  27.387  26.704  1.00  0.00     0.117 C 
BRANCH   2   3
ATOM      3  N   UNL A   1      31.074  26.370  26.752  1.00  0.00    -0.354 N 
ATOM      4  C   UNL A   1      30.997  25.149  26.165  1.00  0.00     0.245 C 
ATOM      5  O   UNL A   1      30.083  24.423  26.588  1.00  0.00    -0.272 OA
ATOM      6  H   UNL A   1      30.295  26.602  27.309  1.00  0.00     0.163 HD
BRANCH   4   7
ATOM      7  C   UNL A   1      32.024  24.606  25.105  1.00  0.00     0.119 C 
ATOM      8  C   UNL A   1      33.474  24.983  25.464  1.00  0.00     0.038 C 
ATOM      9  C   UNL A   1      31.821  25.097  23.666  1.00  0.00     0.038 C 
ATOM     10  C   UNL A   1      34.025  25.891  24.369  1.00  0.00     0.003 C 
ATOM     11  C   UNL A   1      32.934  26.079  23.331  1.00  0.00     0.003 C 
BRANCH   7  12
ATOM     12  N   UNL A   1      31.906  23.134  25.284  1.00  0.00    -0.341 N 
ATOM     13  O   UNL A   1      33.463  22.258  23.819  1.00  0.00    -0.275 OA
ATOM     14  C   UNL A   1      32.591  22.114  24.668  1.00  0.00     0.225 C 
ATOM     15  H   UNL A   1      31.236  22.846  25.945  1.00  0.00     0.164 HD
BRANCH  14  16
ATOM     16  C   UNL A   1      32.151  20.724  25.102  1.00  0.00     0.135 C 
BRANCH  16  17
ATOM     17  C   UNL A   1      32.819  19.534  24.432  1.00  0.00    -0.036 A 
ATOM     18  C   UNL A   1      32.202  18.990  23.290  1.00  0.00     0.007 A 
ATOM     19  C   UNL A   1      34.015  18.952  24.879  1.00  0.00     0.046 A 
ATOM     20  C   UNL A   1      32.743  17.874  22.642  1.00  0.00     0.043 A 
ATOM     21  C   UNL A   1      34.531  17.821  24.250  1.00  0.00     0.159 A 
ATOM     22  C   UNL A   1      33.899  17.285  23.139  1.00  0.00     0.158 A 
ATOM     23  F   UNL A   1      35.643  17.249  24.735  1.00  0.00    -0.204 F 
ATOM     24  F   UNL A   1      34.398  16.199  22.534  1.00  0.00    -0.204 F 
ENDBRANCH  16  17
ENDBRANCH  14  16
ENDBRANCH   7  12
ENDBRANCH   4   7
ENDBRANCH   2   3
ENDBRANCH   1   2
BRANCH   1  25
ATOM     25  C   UNL A   1      32.896  29.502  25.577  1.00  0.00     0.118 C 
BRANCH  25  26
ATOM     26  N   UNL A   1      32.510  30.862  25.951  1.00  0.00    -0.352 N 
ATOM     27  C   UNL A   1      32.991  31.675  26.943  1.00  0.00     0.251 C 
ATOM     28  H   UNL A   1      31.792  31.254  25.405  1.00  0.00     0.163 HD
ATOM     29  O   UNL A   1      32.368  32.695  27.242  1.00  0.00    -0.269 OA
BRANCH  27  30
ATOM     30  C   UNL A   1      34.242  31.333  27.646  1.00  0.00     0.039 A 
ATOM     31  C   UNL A   1      35.167  32.340  27.929  1.00  0.00     0.014 A 
ATOM     32  C   UNL A   1      34.511  30.011  28.009  1.00  0.00     0.014 A 
ATOM     33  C   UNL A   1      36.339  32.027  28.620  1.00  0.00     0.010 A 
ATOM     34  C   UNL A   1      35.616  29.723  28.795  1.00  0.00     0.010 A 
ATOM     35  C   UNL A   1      36.558  30.719  29.083  1.00  0.00    -0.014 A 
BRANCH  35  36
ATOM     36  C   UNL A   1      37.779  30.357  29.843  1.00  0.00     0.031 A 
ATOM     37  C   UNL A   1      38.786  29.416  29.237  1.00  0.00     0.074 A 
ATOM     38  C   UNL A   1      37.936  30.802  31.104  1.00  0.00     0.049 A 
ATOM     39  N   UNL A   1      39.879  28.926  29.761  1.00  0.00    -0.248 NA
ATOM     40  C   UNL A   1      38.510  28.930  27.873  1.00  0.00     0.031 C 
ATOM     41  C   UNL A   1      36.988  31.653  31.827  1.00  0.00     0.029 A 
ATOM     42  N   UNL A   1      38.941  30.582  32.010  1.00  0.00    -0.354 N 
ATOM     43  C   UNL A   1      40.393  28.048  28.815  1.00  0.00     0.074 A 
ATOM     44  C   UNL A   1      39.468  28.031  27.705  1.00  0.00     0.031 C 
ATOM     45  C   UNL A   1      37.466  31.899  33.056  1.00  0.00     0.029 A 
ATOM     46  C   UNL A   1      38.733  31.195  33.223  1.00  0.00     0.049 A 
ATOM     47  H   UNL A   1      39.737  30.037  31.811  1.00  0.00     0.167 HD
ATOM     48  C   UNL A   1      41.549  27.345  28.847  1.00  0.00     0.034 A 
ATOM     49  C   UNL A   1      39.480  31.186  34.345  1.00  0.00     0.034 A 
ATOM     50  C   UNL A   1      42.484  27.401  29.938  1.00  0.00     0.049 A 
ATOM     51  C   UNL A   1      40.779  30.428  34.344  1.00  0.00     0.074 A 
ATOM     52  C   UNL A   1      43.724  26.797  30.041  1.00  0.00     0.029 A 
ATOM     53  N   UNL A   1      42.276  28.096  31.120  1.00  0.00    -0.354 N 
ATOM     54  N   UNL A   1      41.322  29.719  33.385  1.00  0.00    -0.248 NA
ATOM     55  C   UNL A   1      41.588  30.500  35.570  1.00  0.00     0.031 C 
ATOM     56  C   UNL A   1      44.253  27.102  31.300  1.00  0.00     0.029 A 
ATOM     57  C   UNL A   1      43.361  27.931  31.963  1.00  0.00     0.049 A 
ATOM     58  H   UNL A   1      41.476  28.629  31.327  1.00  0.00     0.167 HD
ATOM     59  C   UNL A   1      42.553  29.297  33.870  1.00  0.00     0.074 A 
ATOM     60  C   UNL A   1      42.681  29.843  35.207  1.00  0.00     0.031 C 
ATOM     61  C   UNL A   1      43.490  28.522  33.271  1.00  0.00     0.034 A 
BRANCH  48  62
ATOM     62  C   UNL A   1      41.881  26.493  27.649  1.00  0.00     0.023 A 
ATOM     63  C   UNL A   1      42.457  27.085  26.504  1.00  0.00     0.012 A 
ATOM     64  C   UNL A   1      41.649  25.104  27.659  1.00  0.00     0.148 A 
ATOM     65  C   UNL A   1      42.746  26.322  25.374  1.00  0.00     0.002 A 
ATOM     66  C   UNL A   1      41.988  24.340  26.548  1.00  0.00     0.091 A 
ATOM     67  F   UNL A   1      41.081  24.557  28.743  1.00  0.00    -0.205 F 
ATOM     68  C   UNL A   1      42.521  24.949  25.400  1.00  0.00     0.022 A 
BRANCH  66  69
ATOM     69  S   UNL A   1      41.817  22.552  26.512  1.00  0.00     0.127 S 
ATOM     70  O   UNL A   1      40.365  22.395  26.563  1.00  0.00    -0.237 OA
ATOM     71  O   UNL A   1      42.423  22.212  25.225  1.00  0.00    -0.237 OA
ATOM     72  O   UNL A   1      42.542  22.057  27.673  1.00  0.00    -0.744 OA
ENDBRANCH  66  69
ENDBRANCH  48  62
BRANCH  49  73
ATOM     73  C   UNL A   1      39.053  31.985  35.528  1.00  0.00     0.023 A 
ATOM     74  C   UNL A   1      39.321  33.367  35.558  1.00  0.00     0.012 A 
ATOM     75  C   UNL A   1      38.357  31.395  36.599  1.00  0.00     0.148 A 
ATOM     76  C   UNL A   1      38.930  34.144  36.649  1.00  0.00     0.002 A 
ATOM     77  C   UNL A   1      37.922  32.185  37.658  1.00  0.00     0.091 A 
ATOM     78  F   UNL A   1      38.115  30.078  36.551  1.00  0.00    -0.205 F 
ATOM     79  C   UNL A   1      38.224  33.555  37.694  1.00  0.00     0.022 A 
BRANCH  77  80
ATOM     80  S   UNL A   1      36.897  31.543  38.986  1.00  0.00     0.127 S 
ATOM     81  O   UNL A   1      35.726  32.412  38.906  1.00  0.00    -0.237 OA
ATOM     82  O   UNL A   1      36.673  30.164  38.551  1.00  0.00    -0.237 OA
ATOM     83  O   UNL A   1      37.694  31.670  40.198  1.00  0.00    -0.744 OA
ENDBRANCH  77  80
ENDBRANCH  49  73
BRANCH  61  84
ATOM     84  C   UNL A   1      44.766  28.260  34.027  1.00  0.00     0.023 A 
ATOM     85  C   UNL A   1      45.810  29.206  34.009  1.00  0.00     0.012 A 
ATOM     86  C   UNL A   1      44.898  27.100  34.817  1.00  0.00     0.148 A 
ATOM     87  C   UNL A   1      46.979  28.983  34.734  1.00  0.00     0.002 A 
ATOM     88  C   UNL A   1      46.043  26.912  35.581  1.00  0.00     0.091 A 
ATOM     89  F   UNL A   1      43.901  26.203  34.807  1.00  0.00    -0.205 F 
ATOM     90  C   UNL A   1      47.091  27.844  35.529  1.00  0.00     0.022 A 
BRANCH  88  91
ATOM     91  S   UNL A   1      46.228  25.528  36.711  1.00  0.00     0.127 S 
ATOM     92  O   UNL A   1      44.948  25.547  37.416  1.00  0.00    -0.237 OA
ATOM     93  O   UNL A   1      46.402  24.402  35.793  1.00  0.00    -0.237 OA
ATOM     94  O   UNL A   1      47.396  25.828  37.527  1.00  0.00    -0.744 OA
ENDBRANCH  88  91
ENDBRANCH  61  84
ENDBRANCH  35  36
ENDBRANCH  27  30
ENDBRANCH  25  26
ENDBRANCH   1  25
TORSDOF 16
ENDMDL
MODEL 3
REMARK VINA RESULT:     -12.1      2.447      8.157
REMARK SMILES O=C(Cc1ccc(F)c(F)c1)NC1(C(=O)NCCCNC(=O)c2ccc(-c3c4nc(c(-c5cccc(S(=O)(=O)[O-])c5F)c5ccc([nH]5)c(-c5cccc(S(=O)(=O)[O-])c5F)c5nc(c(-c6cccc(S(=O)(=O)[O-])c6F)c6ccc3[nH]6)C=C5)C=C4)cc2)CCCC1
REMARK SMILES IDX 18 1 17 2 16 3 14 4 15 5 13 7 86 8 89 9 87 10 88 11 12 12
REMARK SMILES IDX 1 13 2 14 3 16 4 17 5 18 11 19 6 20 9 21 7 22 10 23 8 24
REMARK SMILES IDX 19 25 20 26 21 27 22 29 23 30 24 31 85 32 25 33 84 34 26 35
REMARK SMILES IDX 27 36 28 37 78 38 29 39 83 40 77 41 79 42 30 43 82 44 76 45
REMARK SMILES IDX 75 46 31 48 63 49 43 50 62 51 44 52 47 53 61 54 80 55 45 56
REMARK SMILES IDX 46 57 60 59 81 60 48 61 32 62 33 63 41 64 34 65 36 66 42 67
REMARK SMILES IDX 35 68 37 69 38 70 39 71 40 72 64 73 65 74 73 75 66 76 68 77
REMARK SMILES IDX 74 78 67 79 69 80 70 81 71 82 72 83 49 84 50 85 58 86 51 87
REMARK SMILES IDX 53 88 59 89 52 90 54 91 55 92 56 93 57 94
REMARK H PARENT 16 6 12 15 20 28 79 47 47 58
REMARK Flexibility Score: inf
ROOT
ATOM      1  C   UNL A   1      32.210  28.638  27.196  1.00  0.00     0.042 C 
ENDROOT
BRANCH   1   2
ATOM      2  C   UNL A   1      31.069  27.935  26.480  1.00  0.00     0.117 C 
BRANCH   2   3
ATOM      3  N   UNL A   1      30.923  26.558  26.885  1.00  0.00    -0.354 N 
ATOM      4  C   UNL A   1      31.499  25.421  26.419  1.00  0.00     0.245 C 
ATOM      5  O   UNL A   1      31.328  24.421  27.135  1.00  0.00    -0.272 OA
ATOM      6  H   UNL A   1      30.294  26.420  27.630  1.00  0.00     0.163 HD
BRANCH   4   7
ATOM      7  C   UNL A   1      32.409  25.345  25.141  1.00  0.00     0.119 C 
ATOM      8  C   UNL A   1      32.645  23.891  24.688  1.00  0.00     0.038 C 
ATOM      9  C   UNL A   1      33.809  25.958  25.280  1.00  0.00     0.038 C 
ATOM     10  C   UNL A   1      34.134  23.581  24.803  1.00  0.00     0.003 C 
ATOM     11  C   UNL A   1      34.828  24.829  25.318  1.00  0.00     0.003 C 
BRANCH   7  12
ATOM     12  N   UNL A   1      31.549  25.982  24.107  1.00  0.00    -0.341 N 
ATOM     13  O   UNL A   1      32.855  27.686  23.253  1.00  0.00    -0.275 OA
ATOM     14  C   UNL A   1      31.809  27.048  23.279  1.00  0.00     0.225 C 
ATOM     15  H   UNL A   1      30.658  25.580  24.001  1.00  0.00     0.164 HD
BRANCH  14  16
ATOM     16  C   UNL A   1      30.645  27.426  22.375  1.00  0.00     0.135 C 
BRANCH  16  17
ATOM     17  C   UNL A   1      29.739  28.557  22.834  1.00  0.00    -0.036 A 
ATOM     18  C   UNL A   1      28.350  28.397  22.667  1.00  0.00     0.007 A 
ATOM     19  C   UNL A   1      30.203  29.745  23.420  1.00  0.00     0.046 A 
ATOM     20  C   UNL A   1      27.459  29.410  23.036  1.00  0.00     0.043 A 
ATOM     21  C   UNL A   1      29.314  30.764  23.754  1.00  0.00     0.159 A 
ATOM     22  C   UNL A   1      27.951  30.598  23.563  1.00  0.00     0.158 A 
ATOM     23  F   UNL A   1      29.790  31.912  24.256  1.00  0.00    -0.204 F 
ATOM     24  F   UNL A   1      27.097  31.578  23.888  1.00  0.00    -0.204 F 
ENDBRANCH  16  17
ENDBRANCH  14  16
ENDBRANCH   7  12
ENDBRANCH   4   7
ENDBRANCH   2   3
ENDBRANCH   1   2
BRANCH   1  25
ATOM     25  C   UNL A   1      33.074  29.456  26.249  1.00  0.00     0.118 C 
BRANCH  25  26
ATOM     26  N   UNL A   1      32.971  30.890  26.517  1.00  0.00    -0.352 N 
ATOM     27  C   UNL A   1      33.690  31.682  27.373  1.00  0.00     0.251 C 
ATOM     28  H   UNL A   1      32.276  31.359  26.003  1.00  0.00     0.163 HD
ATOM     29  O   UNL A   1      33.289  32.820  27.623  1.00  0.00    -0.269 OA
BRANCH  27  30
ATOM     30  C   UNL A   1      34.933  31.178  27.988  1.00  0.00     0.039 A 
ATOM     31  C   UNL A   1      36.031  32.033  28.116  1.00  0.00     0.014 A 
ATOM     32  C   UNL A   1      35.021  29.853  28.422  1.00  0.00     0.014 A 
ATOM     33  C   UNL A   1      37.198  31.569  28.723  1.00  0.00     0.010 A 
ATOM     34  C   UNL A   1      36.137  29.431  29.128  1.00  0.00     0.010 A 
ATOM     35  C   UNL A   1      37.250  30.272  29.260  1.00  0.00    -0.014 A 
BRANCH  35  36
ATOM     36  C   UNL A   1      38.465  29.757  29.936  1.00  0.00     0.031 A 
ATOM     37  C   UNL A   1      38.832  30.265  31.304  1.00  0.00     0.074 A 
ATOM     38  C   UNL A   1      39.279  28.904  29.285  1.00  0.00     0.049 A 
ATOM     39  N   UNL A   1      39.883  29.992  32.033  1.00  0.00    -0.248 NA
ATOM     40  C   UNL A   1      37.917  31.241  31.923  1.00  0.00     0.031 C 
ATOM     41  C   UNL A   1      39.069  28.404  27.924  1.00  0.00     0.029 A 
ATOM     42  N   UNL A   1      40.458  28.323  29.674  1.00  0.00    -0.354 N 
ATOM     43  C   UNL A   1      39.777  30.788  33.167  1.00  0.00     0.074 A 
ATOM     44  C   UNL A   1      38.588  31.594  33.009  1.00  0.00     0.031 C 
ATOM     45  C   UNL A   1      40.075  27.577  27.600  1.00  0.00     0.029 A 
ATOM     46  C   UNL A   1      41.018  27.517  28.711  1.00  0.00     0.049 A 
ATOM     47  H   UNL A   1      40.867  28.470  30.558  1.00  0.00     0.167 HD
ATOM     48  C   UNL A   1      40.576  30.822  34.259  1.00  0.00     0.034 A 
ATOM     49  C   UNL A   1      42.166  26.811  28.724  1.00  0.00     0.034 A 
ATOM     50  C   UNL A   1      41.734  29.987  34.425  1.00  0.00     0.049 A 
ATOM     51  C   UNL A   1      43.018  26.835  29.963  1.00  0.00     0.074 A 
ATOM     52  C   UNL A   1      42.566  29.878  35.524  1.00  0.00     0.029 A 
ATOM     53  N   UNL A   1      42.227  29.122  33.459  1.00  0.00    -0.354 N 
ATOM     54  N   UNL A   1      42.825  27.483  31.086  1.00  0.00    -0.248 NA
ATOM     55  C   UNL A   1      44.228  26.001  29.951  1.00  0.00     0.031 C 
ATOM     56  C   UNL A   1      43.583  28.969  35.210  1.00  0.00     0.029 A 
ATOM     57  C   UNL A   1      43.358  28.481  33.932  1.00  0.00     0.049 A 
ATOM     58  H   UNL A   1      41.830  28.985  32.569  1.00  0.00     0.167 HD
ATOM     59  C   UNL A   1      43.861  27.103  31.931  1.00  0.00     0.074 A 
ATOM     60  C   UNL A   1      44.671  26.155  31.191  1.00  0.00     0.031 C 
ATOM     61  C   UNL A   1      44.123  27.505  33.199  1.00  0.00     0.034 A 
BRANCH  48  62
ATOM     62  C   UNL A   1      40.194  31.764  35.372  1.00  0.00     0.023 A 
ATOM     63  C   UNL A   1      40.879  32.989  35.523  1.00  0.00     0.012 A 
ATOM     64  C   UNL A   1      39.141  31.455  36.256  1.00  0.00     0.148 A 
ATOM     65  C   UNL A   1      40.562  33.862  36.561  1.00  0.00     0.002 A 
ATOM     66  C   UNL A   1      38.795  32.355  37.257  1.00  0.00     0.091 A 
ATOM     67  F   UNL A   1      38.513  30.279  36.116  1.00  0.00    -0.205 F 
ATOM     68  C   UNL A   1      39.514  33.550  37.422  1.00  0.00     0.022 A 
BRANCH  66  69
ATOM     69  S   UNL A   1      37.406  32.085  38.364  1.00  0.00     0.127 S 
ATOM     70  O   UNL A   1      36.417  33.019  37.827  1.00  0.00    -0.237 OA
ATOM     71  O   UNL A   1      37.100  30.673  38.133  1.00  0.00    -0.237 OA
ATOM     72  O   UNL A   1      37.893  32.390  39.701  1.00  0.00    -0.744 OA
ENDBRANCH  66  69
ENDBRANCH  48  62
BRANCH  49  73
ATOM     73  C   UNL A   1      42.529  25.962  27.555  1.00  0.00     0.023 A 
ATOM     74  C   UNL A   1      43.358  26.495  26.548  1.00  0.00     0.012 A 
ATOM     75  C   UNL A   1      42.092  24.629  27.452  1.00  0.00     0.148 A 
ATOM     76  C   UNL A   1      43.720  25.724  25.442  1.00  0.00     0.002 A 
ATOM     77  C   UNL A   1      42.501  23.849  26.375  1.00  0.00     0.091 A 
ATOM     78  F   UNL A   1      41.302  24.144  28.420  1.00  0.00    -0.205 F 
ATOM     79  C   UNL A   1      43.299  24.400  25.361  1.00  0.00     0.022 A 
BRANCH  77  80
ATOM     80  S   UNL A   1      42.116  22.099  26.247  1.00  0.00     0.127 S 
ATOM     81  O   UNL A   1      42.869  21.714  25.056  1.00  0.00    -0.237 OA
ATOM     82  O   UNL A   1      42.649  21.583  27.508  1.00  0.00    -0.237 OA
ATOM     83  O   UNL A   1      40.666  22.021  26.129  1.00  0.00    -0.744 OA
ENDBRANCH  77  80
ENDBRANCH  49  73
BRANCH  61  84
ATOM     84  C   UNL A   1      45.305  26.883  33.896  1.00  0.00     0.023 A 
ATOM     85  C   UNL A   1      46.566  27.510  33.851  1.00  0.00     0.012 A 
ATOM     86  C   UNL A   1      45.143  25.709  34.658  1.00  0.00     0.148 A 
ATOM     87  C   UNL A   1      47.655  26.956  34.522  1.00  0.00     0.002 A 
ATOM     88  C   UNL A   1      46.220  25.194  35.369  1.00  0.00     0.091 A 
ATOM     89  F   UNL A   1      43.940  25.117  34.674  1.00  0.00    -0.205 F 
ATOM     90  C   UNL A   1      47.480  25.808  35.290  1.00  0.00     0.022 A 
BRANCH  88  91
ATOM     91  S   UNL A   1      46.060  23.780  36.465  1.00  0.00     0.127 S 
ATOM     92  O   UNL A   1      47.424  23.643  36.973  1.00  0.00    -0.237 OA
ATOM     93  O   UNL A   1      45.088  24.260  37.448  1.00  0.00    -0.237 OA
ATOM     94  O   UNL A   1      45.588  22.680  35.637  1.00  0.00    -0.744 OA
ENDBRANCH  88  91
ENDBRANCH  61  84
ENDBRANCH  35  36
ENDBRANCH  27  30
ENDBRANCH  25  26
ENDBRANCH   1  25
TORSDOF 16
ENDMDL
