MODEL 1
REMARK VINA RESULT:     -12.4      0.000      0.000
REMARK SMILES CC(C)CSc1cc2c(cc1Cl)C=C(C(=O)NCCCNC(=O)c1ccc(-c3c4nc(c(-c5cccc(S(=O)(=O)[O-])c5F)c5ccc([nH]5)c(-c5cccc(S(=O)(=O)[O-])c5F)c5nc(c(-c6cccc(S(=O)(=O)[O-])c6F)c6ccc3[nH]6)C=C5)C=C4)cc1)[C@@H](C(F)(F)F)O2
REMARK SMILES IDX 19 1 18 2 17 3 15 4 16 5 14 7 6 8 7 9 11 10 8 11 10 12 12 13
REMARK SMILES IDX 9 14 92 15 13 16 87 17 5 18 4 19 2 20 1 21 3 22 88 23 89 24
REMARK SMILES IDX 90 25 91 26 20 27 21 28 22 29 23 31 24 32 25 33 86 34 26 35
REMARK SMILES IDX 85 36 27 37 28 38 29 39 79 40 30 41 84 42 78 43 80 44 31 45
REMARK SMILES IDX 83 46 77 47 76 48 32 50 64 51 44 52 63 53 45 54 48 55 62 56
REMARK SMILES IDX 81 57 46 58 47 59 61 61 82 62 49 63 33 64 34 65 42 66 35 67
REMARK SMILES IDX 37 68 43 69 36 70 38 71 39 72 40 73 41 74 65 75 66 76 74 77
REMARK SMILES IDX 67 78 69 79 75 80 68 81 70 82 71 83 72 84 73 85 50 86 51 87
REMARK SMILES IDX 59 88 52 89 54 90 60 91 53 92 55 93 56 94 57 95 58 96
REMARK H PARENT 17 6 21 30 80 49 48 60
REMARK Flexibility Score: inf
ROOT
ATOM      1  C   UNL A   1      31.676  31.996  26.919  1.00  0.00     0.042 C 
ENDROOT
BRANCH   1   2
ATOM      2  C   UNL A   1      31.927  30.519  26.662  1.00  0.00     0.118 C 
BRANCH   2   3
ATOM      3  N   UNL A   1      32.015  30.215  25.239  1.00  0.00    -0.352 N 
ATOM      4  C   UNL A   1      32.132  29.117  24.458  1.00  0.00     0.251 C 
ATOM      5  O   UNL A   1      32.155  29.331  23.242  1.00  0.00    -0.270 OA
ATOM      6  H   UNL A   1      31.980  31.036  24.697  1.00  0.00     0.163 HD
BRANCH   4   7
ATOM      7  C   UNL A   1      32.226  27.715  24.959  1.00  0.00     0.067 C 
ATOM      8  C   UNL A   1      33.885  23.195  26.515  1.00  0.00     0.030 A 
ATOM      9  C   UNL A   1      32.663  23.861  26.496  1.00  0.00     0.063 A 
ATOM     10  C   UNL A   1      34.971  23.828  25.873  1.00  0.00     0.055 A 
ATOM     11  C   UNL A   1      32.545  25.151  25.991  1.00  0.00     0.129 A 
ATOM     12  C   UNL A   1      34.834  25.108  25.305  1.00  0.00     0.033 A 
ATOM     13  Cl  UNL A   1      36.535  23.090  25.749  1.00  0.00    -0.083 Cl
ATOM     14  C   UNL A   1      33.619  25.788  25.388  1.00  0.00     0.019 A 
ATOM     15  O   UNL A   1      31.342  25.742  26.215  1.00  0.00    -0.475 OA
ATOM     16  C   UNL A   1      33.450  27.153  24.911  1.00  0.00     0.025 C 
ATOM     17  C   UNL A   1      31.042  26.945  25.472  1.00  0.00     0.314 C 
BRANCH   8  18
ATOM     18  S   UNL A   1      34.076  21.633  27.386  1.00  0.00    -0.124 SA
BRANCH  18  19
ATOM     19  C   UNL A   1      33.259  20.361  26.335  1.00  0.00     0.078 C 
BRANCH  19  20
ATOM     20  C   UNL A   1      33.838  20.153  24.918  1.00  0.00    -0.007 C 
ATOM     21  C   UNL A   1      33.909  18.704  24.433  1.00  0.00     0.008 C 
ATOM     22  C   UNL A   1      32.987  20.951  23.918  1.00  0.00     0.008 C 
ENDBRANCH  19  20
ENDBRANCH  18  19
ENDBRANCH   8  18
BRANCH  17  23
ATOM     23  C   UNL A   1      30.035  26.562  24.374  1.00  0.00     0.429 C 
ATOM     24  F   UNL A   1      29.064  25.763  24.885  1.00  0.00    -0.167 F 
ATOM     25  F   UNL A   1      29.409  27.628  23.828  1.00  0.00    -0.167 F 
ATOM     26  F   UNL A   1      30.618  25.886  23.358  1.00  0.00    -0.167 F 
ENDBRANCH  17  23
ENDBRANCH   4   7
ENDBRANCH   2   3
ENDBRANCH   1   2
BRANCH   1  27
ATOM     27  C   UNL A   1      32.899  32.694  27.496  1.00  0.00     0.118 C 
BRANCH  27  28
ATOM     28  N   UNL A   1      32.644  34.104  27.781  1.00  0.00    -0.352 N 
ATOM     29  C   UNL A   1      33.159  34.925  28.760  1.00  0.00     0.251 C 
ATOM     30  H   UNL A   1      32.000  34.538  27.176  1.00  0.00     0.163 HD
ATOM     31  O   UNL A   1      32.640  36.013  28.972  1.00  0.00    -0.269 OA
BRANCH  29  32
ATOM     32  C   UNL A   1      34.316  34.474  29.560  1.00  0.00     0.039 A 
ATOM     33  C   UNL A   1      35.613  34.698  29.102  1.00  0.00     0.014 A 
ATOM     34  C   UNL A   1      34.107  33.805  30.770  1.00  0.00     0.014 A 
ATOM     35  C   UNL A   1      36.679  34.070  29.727  1.00  0.00     0.010 A 
ATOM     36  C   UNL A   1      35.198  33.275  31.465  1.00  0.00     0.010 A 
ATOM     37  C   UNL A   1      36.488  33.352  30.918  1.00  0.00    -0.014 A 
BRANCH  37  38
ATOM     38  C   UNL A   1      37.660  32.703  31.562  1.00  0.00     0.031 A 
ATOM     39  C   UNL A   1      38.126  33.121  32.931  1.00  0.00     0.074 A 
ATOM     40  C   UNL A   1      38.267  31.681  30.926  1.00  0.00     0.049 A 
ATOM     41  N   UNL A   1      39.113  32.636  33.641  1.00  0.00    -0.248 NA
ATOM     42  C   UNL A   1      37.404  34.222  33.592  1.00  0.00     0.031 C 
ATOM     43  C   UNL A   1      37.919  31.199  29.586  1.00  0.00     0.029 A 
ATOM     44  N   UNL A   1      39.282  30.848  31.323  1.00  0.00    -0.354 N 
ATOM     45  C   UNL A   1      39.163  33.401  34.801  1.00  0.00     0.074 A 
ATOM     46  C   UNL A   1      38.105  34.381  34.708  1.00  0.00     0.031 C 
ATOM     47  C   UNL A   1      38.664  30.123  29.297  1.00  0.00     0.029 A 
ATOM     48  C   UNL A   1      39.588  29.878  30.398  1.00  0.00     0.049 A 
ATOM     49  H   UNL A   1      39.746  30.937  32.187  1.00  0.00     0.167 HD
ATOM     50  C   UNL A   1      40.001  33.280  35.857  1.00  0.00     0.034 A 
ATOM     51  C   UNL A   1      40.518  28.903  30.421  1.00  0.00     0.034 A 
ATOM     52  C   UNL A   1      41.007  32.261  35.979  1.00  0.00     0.049 A 
ATOM     53  C   UNL A   1      41.408  28.772  31.619  1.00  0.00     0.074 A 
ATOM     54  C   UNL A   1      41.875  32.039  37.034  1.00  0.00     0.029 A 
ATOM     55  N   UNL A   1      41.271  31.289  35.028  1.00  0.00    -0.354 N 
ATOM     56  N   UNL A   1      41.395  29.469  32.728  1.00  0.00    -0.248 NA
ATOM     57  C   UNL A   1      42.433  27.719  31.577  1.00  0.00     0.031 C 
ATOM     58  C   UNL A   1      42.664  30.928  36.722  1.00  0.00     0.029 A 
ATOM     59  C   UNL A   1      42.285  30.461  35.473  1.00  0.00     0.049 A 
ATOM     60  H   UNL A   1      40.807  31.202  34.164  1.00  0.00     0.167 HD
ATOM     61  C   UNL A   1      42.408  28.942  33.518  1.00  0.00     0.074 A 
ATOM     62  C   UNL A   1      42.995  27.848  32.772  1.00  0.00     0.031 C 
ATOM     63  C   UNL A   1      42.827  29.347  34.740  1.00  0.00     0.034 A 
BRANCH  50  64
ATOM     64  C   UNL A   1      39.842  34.236  37.005  1.00  0.00     0.023 A 
ATOM     65  C   UNL A   1      40.142  35.598  36.810  1.00  0.00     0.012 A 
ATOM     66  C   UNL A   1      39.282  33.814  38.226  1.00  0.00     0.148 A 
ATOM     67  C   UNL A   1      39.890  36.529  37.817  1.00  0.00     0.002 A 
ATOM     68  C   UNL A   1      39.008  34.752  39.215  1.00  0.00     0.091 A 
ATOM     69  F   UNL A   1      39.014  32.510  38.387  1.00  0.00    -0.205 F 
ATOM     70  C   UNL A   1      39.313  36.108  39.012  1.00  0.00     0.022 A 
BRANCH  68  71
ATOM     71  S   UNL A   1      38.218  34.328  40.772  1.00  0.00     0.127 S 
ATOM     72  O   UNL A   1      39.287  33.599  41.455  1.00  0.00    -0.237 OA
ATOM     73  O   UNL A   1      37.921  35.645  41.333  1.00  0.00    -0.237 OA
ATOM     74  O   UNL A   1      37.050  33.527  40.429  1.00  0.00    -0.744 OA
ENDBRANCH  68  71
ENDBRANCH  50  64
BRANCH  51  75
ATOM     75  C   UNL A   1      40.610  27.967  29.270  1.00  0.00     0.023 A 
ATOM     76  C   UNL A   1      39.696  26.902  29.168  1.00  0.00     0.012 A 
ATOM     77  C   UNL A   1      41.532  28.190  28.229  1.00  0.00     0.148 A 
ATOM     78  C   UNL A   1      39.699  26.074  28.045  1.00  0.00     0.002 A 
ATOM     79  C   UNL A   1      41.496  27.393  27.092  1.00  0.00     0.091 A 
ATOM     80  F   UNL A   1      42.397  29.207  28.356  1.00  0.00    -0.205 F 
ATOM     81  C   UNL A   1      40.588  26.327  27.003  1.00  0.00     0.022 A 
BRANCH  79  82
ATOM     82  S   UNL A   1      42.509  27.728  25.648  1.00  0.00     0.127 S 
ATOM     83  O   UNL A   1      43.850  27.772  26.227  1.00  0.00    -0.237 OA
ATOM     84  O   UNL A   1      42.236  26.559  24.812  1.00  0.00    -0.237 OA
ATOM     85  O   UNL A   1      42.017  28.986  25.102  1.00  0.00    -0.744 OA
ENDBRANCH  79  82
ENDBRANCH  51  75
BRANCH  63  86
ATOM     86  C   UNL A   1      43.980  28.616  35.365  1.00  0.00     0.023 A 
ATOM     87  C   UNL A   1      45.293  29.001  35.037  1.00  0.00     0.012 A 
ATOM     88  C   UNL A   1      43.763  27.646  36.361  1.00  0.00     0.148 A 
ATOM     89  C   UNL A   1      46.379  28.426  35.692  1.00  0.00     0.002 A 
ATOM     90  C   UNL A   1      44.848  27.099  37.031  1.00  0.00     0.091 A 
ATOM     91  F   UNL A   1      42.499  27.293  36.643  1.00  0.00    -0.205 F 
ATOM     92  C   UNL A   1      46.158  27.485  36.696  1.00  0.00     0.022 A 
BRANCH  90  93
ATOM     93  S   UNL A   1      44.663  25.936  38.387  1.00  0.00     0.127 S 
ATOM     94  O   UNL A   1      44.048  24.792  37.716  1.00  0.00    -0.237 OA
ATOM     95  O   UNL A   1      46.049  25.726  38.805  1.00  0.00    -0.237 OA
ATOM     96  O   UNL A   1      43.824  26.599  39.376  1.00  0.00    -0.744 OA
ENDBRANCH  90  93
ENDBRANCH  63  86
ENDBRANCH  37  38
ENDBRANCH  29  32
ENDBRANCH  27  28
ENDBRANCH   1  27
TORSDOF 17
ENDMDL
MODEL 2
REMARK VINA RESULT:     -12.3      6.176     11.229
REMARK SMILES CC(C)CSc1cc2c(cc1Cl)C=C(C(=O)NCCCNC(=O)c1ccc(-c3c4nc(c(-c5cccc(S(=O)(=O)[O-])c5F)c5ccc([nH]5)c(-c5cccc(S(=O)(=O)[O-])c5F)c5nc(c(-c6cccc(S(=O)(=O)[O-])c6F)c6ccc3[nH]6)C=C5)C=C4)cc1)[C@@H](C(F)(F)F)O2
REMARK SMILES IDX 19 1 18 2 17 3 15 4 16 5 14 7 6 8 7 9 11 10 8 11 10 12 12 13
REMARK SMILES IDX 9 14 92 15 13 16 87 17 5 18 4 19 2 20 1 21 3 22 88 23 89 24
REMARK SMILES IDX 90 25 91 26 20 27 21 28 22 29 23 31 24 32 25 33 86 34 26 35
REMARK SMILES IDX 85 36 27 37 28 38 29 39 79 40 30 41 84 42 78 43 80 44 31 45
REMARK SMILES IDX 83 46 77 47 76 48 32 50 64 51 44 52 63 53 45 54 48 55 62 56
REMARK SMILES IDX 81 57 46 58 47 59 61 61 82 62 49 63 33 64 34 65 42 66 35 67
REMARK SMILES IDX 37 68 43 69 36 70 38 71 39 72 40 73 41 74 65 75 66 76 74 77
REMARK SMILES IDX 67 78 69 79 75 80 68 81 70 82 71 83 72 84 73 85 50 86 51 87
REMARK SMILES IDX 59 88 52 89 54 90 60 91 53 92 55 93 56 94 57 95 58 96
REMARK H PARENT 17 6 21 30 80 49 48 60
REMARK Flexibility Score: inf
ROOT
ATOM      1  C   UNL A   1      35.717  21.129  25.158  1.00  0.00     0.042 C 
ENDROOT
BRANCH   1   2
ATOM      2  C   UNL A   1      34.861  22.034  26.030  1.00  0.00     0.118 C 
BRANCH   2   3
ATOM      3  N   UNL A   1      33.455  21.649  26.007  1.00  0.00    -0.352 N 
ATOM      4  C   UNL A   1      32.293  22.140  25.518  1.00  0.00     0.251 C 
ATOM      5  O   UNL A   1      31.294  21.446  25.726  1.00  0.00    -0.270 OA
ATOM      6  H   UNL A   1      33.311  20.796  26.478  1.00  0.00     0.163 HD
BRANCH   4   7
ATOM      7  C   UNL A   1      32.154  23.421  24.765  1.00  0.00     0.067 C 
ATOM      8  C   UNL A   1      30.467  27.789  22.846  1.00  0.00     0.030 A 
ATOM      9  C   UNL A   1      31.676  27.098  22.853  1.00  0.00     0.063 A 
ATOM     10  C   UNL A   1      29.352  27.135  23.411  1.00  0.00     0.055 A 
ATOM     11  C   UNL A   1      31.814  25.880  23.510  1.00  0.00     0.129 A 
ATOM     12  C   UNL A   1      29.479  25.872  24.019  1.00  0.00     0.033 A 
ATOM     13  Cl  UNL A   1      27.765  27.835  23.409  1.00  0.00    -0.083 Cl
ATOM     14  C   UNL A   1      30.726  25.251  24.094  1.00  0.00     0.019 A 
ATOM     15  O   UNL A   1      33.092  25.424  23.596  1.00  0.00    -0.475 OA
ATOM     16  C   UNL A   1      30.936  23.996  24.802  1.00  0.00     0.025 C 
ATOM     17  C   UNL A   1      33.279  24.045  23.990  1.00  0.00     0.314 C 
BRANCH   8  18
ATOM     18  S   UNL A   1      30.362  29.466  22.206  1.00  0.00    -0.124 SA
BRANCH  18  19
ATOM     19  C   UNL A   1      29.544  30.462  23.521  1.00  0.00     0.078 C 
BRANCH  19  20
ATOM     20  C   UNL A   1      28.460  31.463  23.063  1.00  0.00    -0.007 C 
ATOM     21  C   UNL A   1      28.862  32.938  23.085  1.00  0.00     0.008 C 
ATOM     22  C   UNL A   1      28.034  31.104  21.631  1.00  0.00     0.008 C 
ENDBRANCH  19  20
ENDBRANCH  18  19
ENDBRANCH   8  18
BRANCH  17  23
ATOM     23  C   UNL A   1      33.664  23.260  22.725  1.00  0.00     0.429 C 
ATOM     24  F   UNL A   1      35.014  23.213  22.592  1.00  0.00    -0.167 F 
ATOM     25  F   UNL A   1      33.234  21.978  22.739  1.00  0.00    -0.167 F 
ATOM     26  F   UNL A   1      33.169  23.827  21.600  1.00  0.00    -0.167 F 
ENDBRANCH  17  23
ENDBRANCH   4   7
ENDBRANCH   2   3
ENDBRANCH   1   2
BRANCH   1  27
ATOM     27  C   UNL A   1      37.158  21.610  25.073  1.00  0.00     0.118 C 
BRANCH  27  28
ATOM     28  N   UNL A   1      38.109  20.566  25.444  1.00  0.00    -0.352 N 
ATOM     29  C   UNL A   1      39.359  20.657  26.017  1.00  0.00     0.251 C 
ATOM     30  H   UNL A   1      37.809  19.647  25.256  1.00  0.00     0.163 HD
ATOM     31  O   UNL A   1      40.091  19.676  26.033  1.00  0.00    -0.269 OA
BRANCH  29  32
ATOM     32  C   UNL A   1      39.813  21.945  26.582  1.00  0.00     0.039 A 
ATOM     33  C   UNL A   1      39.265  23.142  26.123  1.00  0.00     0.014 A 
ATOM     34  C   UNL A   1      40.806  21.961  27.566  1.00  0.00     0.014 A 
ATOM     35  C   UNL A   1      39.856  24.346  26.477  1.00  0.00     0.010 A 
ATOM     36  C   UNL A   1      41.317  23.183  28.013  1.00  0.00     0.010 A 
ATOM     37  C   UNL A   1      40.887  24.384  27.428  1.00  0.00    -0.014 A 
BRANCH  37  38
ATOM     38  C   UNL A   1      41.484  25.697  27.787  1.00  0.00     0.031 A 
ATOM     39  C   UNL A   1      42.860  26.083  27.313  1.00  0.00     0.074 A 
ATOM     40  C   UNL A   1      40.745  26.574  28.496  1.00  0.00     0.049 A 
ATOM     41  N   UNL A   1      43.510  27.200  27.515  1.00  0.00    -0.248 NA
ATOM     42  C   UNL A   1      43.608  25.096  26.514  1.00  0.00     0.031 C 
ATOM     43  C   UNL A   1      39.406  26.308  29.029  1.00  0.00     0.029 A 
ATOM     44  N   UNL A   1      40.996  27.870  28.868  1.00  0.00    -0.354 N 
ATOM     45  C   UNL A   1      44.754  27.033  26.918  1.00  0.00     0.074 A 
ATOM     46  C   UNL A   1      44.772  25.710  26.339  1.00  0.00     0.031 C 
ATOM     47  C   UNL A   1      38.932  27.420  29.608  1.00  0.00     0.029 A 
ATOM     48  C   UNL A   1      39.955  28.457  29.547  1.00  0.00     0.049 A 
ATOM     49  H   UNL A   1      41.841  28.335  28.669  1.00  0.00     0.167 HD
ATOM     50  C   UNL A   1      45.779  27.914  26.842  1.00  0.00     0.034 A 
ATOM     51  C   UNL A   1      39.833  29.690  30.076  1.00  0.00     0.034 A 
ATOM     52  C   UNL A   1      45.734  29.255  27.357  1.00  0.00     0.049 A 
ATOM     53  C   UNL A   1      40.971  30.656  29.945  1.00  0.00     0.074 A 
ATOM     54  C   UNL A   1      46.713  30.231  27.288  1.00  0.00     0.029 A 
ATOM     55  N   UNL A   1      44.655  29.814  28.021  1.00  0.00    -0.354 N 
ATOM     56  N   UNL A   1      42.114  30.494  29.324  1.00  0.00    -0.248 NA
ATOM     57  C   UNL A   1      40.805  31.973  30.575  1.00  0.00     0.031 C 
ATOM     58  C   UNL A   1      46.224  31.383  27.909  1.00  0.00     0.029 A 
ATOM     59  C   UNL A   1      44.941  31.123  28.363  1.00  0.00     0.049 A 
ATOM     60  H   UNL A   1      43.810  29.348  28.221  1.00  0.00     0.167 HD
ATOM     61  C   UNL A   1      42.805  31.687  29.488  1.00  0.00     0.074 A 
ATOM     62  C   UNL A   1      41.941  32.573  30.241  1.00  0.00     0.031 C 
ATOM     63  C   UNL A   1      44.053  32.006  29.071  1.00  0.00     0.034 A 
BRANCH  50  64
ATOM     64  C   UNL A   1      47.031  27.490  26.126  1.00  0.00     0.023 A 
ATOM     65  C   UNL A   1      47.968  26.686  26.802  1.00  0.00     0.012 A 
ATOM     66  C   UNL A   1      47.216  27.778  24.760  1.00  0.00     0.148 A 
ATOM     67  C   UNL A   1      49.078  26.175  26.130  1.00  0.00     0.002 A 
ATOM     68  C   UNL A   1      48.310  27.243  24.090  1.00  0.00     0.091 A 
ATOM     69  F   UNL A   1      46.312  28.552  24.144  1.00  0.00    -0.205 F 
ATOM     70  C   UNL A   1      49.242  26.444  24.774  1.00  0.00     0.022 A 
BRANCH  68  71
ATOM     71  S   UNL A   1      48.590  27.481  22.331  1.00  0.00     0.127 S 
ATOM     72  O   UNL A   1      47.407  28.253  21.947  1.00  0.00    -0.237 OA
ATOM     73  O   UNL A   1      49.842  28.236  22.321  1.00  0.00    -0.237 OA
ATOM     74  O   UNL A   1      48.669  26.148  21.749  1.00  0.00    -0.744 OA
ENDBRANCH  68  71
ENDBRANCH  50  64
BRANCH  51  75
ATOM     75  C   UNL A   1      38.561  30.066  30.747  1.00  0.00     0.023 A 
ATOM     76  C   UNL A   1      38.376  29.753  32.106  1.00  0.00     0.012 A 
ATOM     77  C   UNL A   1      37.582  30.819  30.070  1.00  0.00     0.148 A 
ATOM     78  C   UNL A   1      37.234  30.187  32.782  1.00  0.00     0.002 A 
ATOM     79  C   UNL A   1      36.473  31.289  30.761  1.00  0.00     0.091 A 
ATOM     80  F   UNL A   1      37.779  31.094  28.773  1.00  0.00    -0.205 F 
ATOM     81  C   UNL A   1      36.291  30.965  32.114  1.00  0.00     0.022 A 
BRANCH  79  82
ATOM     82  S   UNL A   1      35.278  32.407  30.020  1.00  0.00     0.127 S 
ATOM     83  O   UNL A   1      34.736  31.589  28.937  1.00  0.00    -0.237 OA
ATOM     84  O   UNL A   1      34.360  32.645  31.133  1.00  0.00    -0.237 OA
ATOM     85  O   UNL A   1      36.037  33.579  29.605  1.00  0.00    -0.744 OA
ENDBRANCH  79  82
ENDBRANCH  51  75
BRANCH  63  86
ATOM     86  C   UNL A   1      44.580  33.370  29.415  1.00  0.00     0.023 A 
ATOM     87  C   UNL A   1      45.277  33.549  30.624  1.00  0.00     0.012 A 
ATOM     88  C   UNL A   1      44.496  34.428  28.492  1.00  0.00     0.148 A 
ATOM     89  C   UNL A   1      45.883  34.770  30.913  1.00  0.00     0.002 A 
ATOM     90  C   UNL A   1      45.128  35.632  28.772  1.00  0.00     0.091 A 
ATOM     91  F   UNL A   1      43.816  34.229  27.352  1.00  0.00    -0.205 F 
ATOM     92  C   UNL A   1      45.820  35.806  29.984  1.00  0.00     0.022 A 
BRANCH  90  93
ATOM     93  S   UNL A   1      45.166  37.000  27.609  1.00  0.00     0.127 S 
ATOM     94  O   UNL A   1      45.860  38.029  28.382  1.00  0.00    -0.237 OA
ATOM     95  O   UNL A   1      45.941  36.442  26.501  1.00  0.00    -0.237 OA
ATOM     96  O   UNL A   1      43.776  37.297  27.289  1.00  0.00    -0.744 OA
ENDBRANCH  90  93
ENDBRANCH  63  86
ENDBRANCH  37  38
ENDBRANCH  29  32
ENDBRANCH  27  28
ENDBRANCH   1  27
TORSDOF 17
ENDMDL
MODEL 3
REMARK VINA RESULT:     -12.3      6.187     10.363
REMARK SMILES CC(C)CSc1cc2c(cc1Cl)C=C(C(=O)NCCCNC(=O)c1ccc(-c3c4nc(c(-c5cccc(S(=O)(=O)[O-])c5F)c5ccc([nH]5)c(-c5cccc(S(=O)(=O)[O-])c5F)c5nc(c(-c6cccc(S(=O)(=O)[O-])c6F)c6ccc3[nH]6)C=C5)C=C4)cc1)[C@@H](C(F)(F)F)O2
REMARK SMILES IDX 19 1 18 2 17 3 15 4 16 5 14 7 6 8 7 9 11 10 8 11 10 12 12 13
REMARK SMILES IDX 9 14 92 15 13 16 87 17 5 18 4 19 2 20 1 21 3 22 88 23 89 24
REMARK SMILES IDX 90 25 91 26 20 27 21 28 22 29 23 31 24 32 25 33 86 34 26 35
REMARK SMILES IDX 85 36 27 37 28 38 29 39 79 40 30 41 84 42 78 43 80 44 31 45
REMARK SMILES IDX 83 46 77 47 76 48 32 50 64 51 44 52 63 53 45 54 48 55 62 56
REMARK SMILES IDX 81 57 46 58 47 59 61 61 82 62 49 63 33 64 34 65 42 66 35 67
REMARK SMILES IDX 37 68 43 69 36 70 38 71 39 72 40 73 41 74 65 75 66 76 74 77
REMARK SMILES IDX 67 78 69 79 75 80 68 81 70 82 71 83 72 84 73 85 50 86 51 87
REMARK SMILES IDX 59 88 52 89 54 90 60 91 53 92 55 93 56 94 57 95 58 96
REMARK H PARENT 17 6 21 30 80 49 48 60
REMARK Flexibility Score: inf
ROOT
ATOM      1  C   UNL A   1      38.149  19.966  25.005  1.00  0.00     0.042 C 
ENDROOT
BRANCH   1   2
ATOM      2  C   UNL A   1      36.914  20.800  25.305  1.00  0.00     0.118 C 
BRANCH   2   3
ATOM      3  N   UNL A   1      35.683  20.116  24.926  1.00  0.00    -0.352 N 
ATOM      4  C   UNL A   1      34.380  20.431  24.749  1.00  0.00     0.251 C 
ATOM      5  O   UNL A   1      33.652  19.499  24.392  1.00  0.00    -0.270 OA
ATOM      6  H   UNL A   1      35.846  19.161  24.749  1.00  0.00     0.163 HD
BRANCH   4   7
ATOM      7  C   UNL A   1      33.791  21.788  24.947  1.00  0.00     0.067 C 
ATOM      8  C   UNL A   1      32.279  26.580  24.352  1.00  0.00     0.030 A 
ATOM      9  C   UNL A   1      32.062  25.570  25.285  1.00  0.00     0.063 A 
ATOM     10  C   UNL A   1      33.220  26.321  23.333  1.00  0.00     0.055 A 
ATOM     11  C   UNL A   1      32.639  24.312  25.143  1.00  0.00     0.129 A 
ATOM     12  C   UNL A   1      33.853  25.068  23.228  1.00  0.00     0.033 A 
ATOM     13  Cl  UNL A   1      33.653  27.507  22.144  1.00  0.00    -0.083 Cl
ATOM     14  C   UNL A   1      33.539  24.045  24.123  1.00  0.00     0.019 A 
ATOM     15  O   UNL A   1      32.184  23.377  26.017  1.00  0.00    -0.475 OA
ATOM     16  C   UNL A   1      34.083  22.700  23.999  1.00  0.00     0.025 C 
ATOM     17  C   UNL A   1      32.939  22.149  26.130  1.00  0.00     0.314 C 
BRANCH   8  18
ATOM     18  S   UNL A   1      31.343  28.114  24.413  1.00  0.00    -0.124 SA
BRANCH  18  19
ATOM     19  C   UNL A   1      32.488  29.383  25.097  1.00  0.00     0.078 C 
BRANCH  19  20
ATOM     20  C   UNL A   1      32.770  29.320  26.614  1.00  0.00    -0.007 C 
ATOM     21  C   UNL A   1      31.721  28.596  27.459  1.00  0.00     0.008 C 
ATOM     22  C   UNL A   1      34.124  28.628  26.833  1.00  0.00     0.008 C 
ENDBRANCH  19  20
ENDBRANCH  18  19
ENDBRANCH   8  18
BRANCH  17  23
ATOM     23  C   UNL A   1      33.720  22.215  27.453  1.00  0.00     0.429 C 
ATOM     24  F   UNL A   1      34.754  23.088  27.346  1.00  0.00    -0.167 F 
ATOM     25  F   UNL A   1      32.969  22.632  28.497  1.00  0.00    -0.167 F 
ATOM     26  F   UNL A   1      34.241  21.015  27.800  1.00  0.00    -0.167 F 
ENDBRANCH  17  23
ENDBRANCH   4   7
ENDBRANCH   2   3
ENDBRANCH   1   2
BRANCH   1  27
ATOM     27  C   UNL A   1      39.365  20.438  25.789  1.00  0.00     0.118 C 
BRANCH  27  28
ATOM     28  N   UNL A   1      40.336  19.366  25.995  1.00  0.00    -0.352 N 
ATOM     29  C   UNL A   1      41.706  19.414  26.126  1.00  0.00     0.251 C 
ATOM     30  H   UNL A   1      39.949  18.462  26.050  1.00  0.00     0.163 HD
ATOM     31  O   UNL A   1      42.358  18.380  26.058  1.00  0.00    -0.269 OA
BRANCH  29  32
ATOM     32  C   UNL A   1      42.378  20.716  26.321  1.00  0.00     0.039 A 
ATOM     33  C   UNL A   1      42.589  21.208  27.608  1.00  0.00     0.014 A 
ATOM     34  C   UNL A   1      42.784  21.462  25.211  1.00  0.00     0.014 A 
ATOM     35  C   UNL A   1      42.996  22.522  27.781  1.00  0.00     0.010 A 
ATOM     36  C   UNL A   1      43.310  22.745  25.394  1.00  0.00     0.010 A 
ATOM     37  C   UNL A   1      43.365  23.308  26.678  1.00  0.00    -0.014 A 
BRANCH  37  38
ATOM     38  C   UNL A   1      43.807  24.708  26.910  1.00  0.00     0.031 A 
ATOM     39  C   UNL A   1      42.871  25.733  27.492  1.00  0.00     0.074 A 
ATOM     40  C   UNL A   1      45.089  25.035  26.651  1.00  0.00     0.049 A 
ATOM     41  N   UNL A   1      43.110  26.987  27.781  1.00  0.00    -0.248 NA
ATOM     42  C   UNL A   1      41.490  25.309  27.784  1.00  0.00     0.031 C 
ATOM     43  C   UNL A   1      46.086  24.134  26.067  1.00  0.00     0.029 A 
ATOM     44  N   UNL A   1      45.782  26.199  26.866  1.00  0.00    -0.354 N 
ATOM     45  C   UNL A   1      41.907  27.511  28.238  1.00  0.00     0.074 A 
ATOM     46  C   UNL A   1      40.935  26.443  28.195  1.00  0.00     0.031 C 
ATOM     47  C   UNL A   1      47.272  24.756  26.024  1.00  0.00     0.029 A 
ATOM     48  C   UNL A   1      47.109  26.120  26.514  1.00  0.00     0.049 A 
ATOM     49  H   UNL A   1      45.370  27.012  27.238  1.00  0.00     0.167 HD
ATOM     50  C   UNL A   1      41.644  28.765  28.675  1.00  0.00     0.034 A 
ATOM     51  C   UNL A   1      48.089  27.043  26.563  1.00  0.00     0.034 A 
ATOM     52  C   UNL A   1      42.627  29.807  28.783  1.00  0.00     0.049 A 
ATOM     53  C   UNL A   1      47.776  28.412  27.085  1.00  0.00     0.074 A 
ATOM     54  C   UNL A   1      42.457  31.098  29.254  1.00  0.00     0.029 A 
ATOM     55  N   UNL A   1      43.961  29.679  28.431  1.00  0.00    -0.354 N 
ATOM     56  N   UNL A   1      46.645  28.865  27.567  1.00  0.00    -0.248 NA
ATOM     57  C   UNL A   1      48.869  29.394  27.080  1.00  0.00     0.031 C 
ATOM     58  C   UNL A   1      43.691  31.751  29.190  1.00  0.00     0.029 A 
ATOM     59  C   UNL A   1      44.627  30.865  28.680  1.00  0.00     0.049 A 
ATOM     60  H   UNL A   1      44.372  28.866  28.059  1.00  0.00     0.167 HD
ATOM     61  C   UNL A   1      46.887  30.184  27.923  1.00  0.00     0.074 A 
ATOM     62  C   UNL A   1      48.281  30.450  27.629  1.00  0.00     0.031 C 
ATOM     63  C   UNL A   1      46.024  31.098  28.425  1.00  0.00     0.034 A 
BRANCH  50  64
ATOM     64  C   UNL A   1      40.247  29.083  29.129  1.00  0.00     0.023 A 
ATOM     65  C   UNL A   1      39.259  29.363  28.165  1.00  0.00     0.012 A 
ATOM     66  C   UNL A   1      39.887  28.979  30.487  1.00  0.00     0.148 A 
ATOM     67  C   UNL A   1      37.930  29.541  28.546  1.00  0.00     0.002 A 
ATOM     68  C   UNL A   1      38.555  29.131  30.855  1.00  0.00     0.091 A 
ATOM     69  F   UNL A   1      40.848  28.719  31.383  1.00  0.00    -0.205 F 
ATOM     70  C   UNL A   1      37.577  29.414  29.887  1.00  0.00     0.022 A 
BRANCH  68  71
ATOM     71  S   UNL A   1      37.981  28.935  32.547  1.00  0.00     0.127 S 
ATOM     72  O   UNL A   1      38.190  27.503  32.764  1.00  0.00    -0.237 OA
ATOM     73  O   UNL A   1      38.898  29.804  33.283  1.00  0.00    -0.237 OA
ATOM     74  O   UNL A   1      36.588  29.361  32.554  1.00  0.00    -0.744 OA
ENDBRANCH  68  71
ENDBRANCH  50  64
BRANCH  51  75
ATOM     75  C   UNL A   1      49.460  26.664  26.129  1.00  0.00     0.023 A 
ATOM     76  C   UNL A   1      50.215  25.775  26.915  1.00  0.00     0.012 A 
ATOM     77  C   UNL A   1      49.972  27.101  24.892  1.00  0.00     0.148 A 
ATOM     78  C   UNL A   1      51.461  25.327  26.475  1.00  0.00     0.002 A 
ATOM     79  C   UNL A   1      51.190  26.612  24.438  1.00  0.00     0.091 A 
ATOM     80  F   UNL A   1      49.235  27.955  24.167  1.00  0.00    -0.205 F 
ATOM     81  C   UNL A   1      51.941  25.733  25.233  1.00  0.00     0.022 A 
BRANCH  79  82
ATOM     82  S   UNL A   1      51.822  26.974  22.796  1.00  0.00     0.127 S 
ATOM     83  O   UNL A   1      50.650  26.718  21.962  1.00  0.00    -0.237 OA
ATOM     84  O   UNL A   1      52.195  28.383  22.922  1.00  0.00    -0.237 OA
ATOM     85  O   UNL A   1      52.947  26.070  22.597  1.00  0.00    -0.744 OA
ENDBRANCH  79  82
ENDBRANCH  51  75
BRANCH  63  86
ATOM     86  C   UNL A   1      46.544  32.482  28.693  1.00  0.00     0.023 A 
ATOM     87  C   UNL A   1      47.104  32.770  29.951  1.00  0.00     0.012 A 
ATOM     88  C   UNL A   1      46.591  33.444  27.668  1.00  0.00     0.148 A 
ATOM     89  C   UNL A   1      47.704  34.005  30.188  1.00  0.00     0.002 A 
ATOM     90  C   UNL A   1      47.218  34.661  27.901  1.00  0.00     0.091 A 
ATOM     91  F   UNL A   1      46.040  33.142  26.483  1.00  0.00    -0.205 F 
ATOM     92  C   UNL A   1      47.772  34.945  29.162  1.00  0.00     0.022 A 
BRANCH  90  93
ATOM     93  S   UNL A   1      47.421  35.906  26.623  1.00  0.00     0.127 S 
ATOM     94  O   UNL A   1      48.108  35.149  25.577  1.00  0.00    -0.237 OA
ATOM     95  O   UNL A   1      46.036  36.258  26.312  1.00  0.00    -0.237 OA
ATOM     96  O   UNL A   1      48.201  36.980  27.224  1.00  0.00    -0.744 OA
ENDBRANCH  90  93
ENDBRANCH  63  86
ENDBRANCH  37  38
ENDBRANCH  29  32
ENDBRANCH  27  28
ENDBRANCH   1  27
TORSDOF 17
ENDMDL
