MODEL 1
REMARK VINA RESULT:     -12.3      0.000      0.000
REMARK SMILES O=C(NCCCNC(=O)c1cccc(Nc2ccnc3ccc(Cl)cc23)c1)c1ccc(-c2c3nc(c(-c4cccc(S(=O)(=O)[O-])c4F)c4ccc([nH]4)c(-c4cccc(S(=O)(=O)[O-])c4F)c4nc(c(-c5cccc(S(=O)(=O)[O-])c5F)c5ccc2[nH]5)C=C4)C=C3)cc1
REMARK SMILES IDX 4 1 3 2 1 3 2 4 28 6 29 7 90 8 30 9 89 10 31 11 32 12 33 13
REMARK SMILES IDX 83 14 34 15 88 16 82 17 84 18 35 19 87 20 81 21 80 22 36 24
REMARK SMILES IDX 68 25 48 26 67 27 49 28 52 29 66 30 85 31 50 32 51 33 65 35
REMARK SMILES IDX 86 36 53 37 37 38 38 39 46 40 39 41 41 42 47 43 40 44 42 45
REMARK SMILES IDX 43 46 44 47 45 48 69 49 70 50 78 51 71 52 73 53 79 54 72 55
REMARK SMILES IDX 74 56 75 57 76 58 77 59 54 60 55 61 63 62 56 63 58 64 64 65
REMARK SMILES IDX 57 66 59 67 60 68 61 69 62 70 5 71 6 72 7 73 8 74 9 76 10 77
REMARK SMILES IDX 11 78 27 79 12 80 14 81 13 82 15 83 16 85 17 86 26 87 18 88
REMARK SMILES IDX 20 89 25 90 19 91 21 92 23 93 22 94 24 95
REMARK H PARENT 3 5 84 23 52 34 7 75 15 84
REMARK Flexibility Score: inf
ROOT
ATOM      1  C   UNL A   1      33.994  29.104  26.115  1.00  0.00     0.118 C 
ENDROOT
BRANCH   1   2
ATOM      2  N   UNL A   1      33.858  30.434  26.694  1.00  0.00    -0.352 N 
ATOM      3  O   UNL A   1      34.135  32.134  28.126  1.00  0.00    -0.269 OA
ATOM      4  C   UNL A   1      34.572  31.071  27.677  1.00  0.00     0.251 C 
ATOM      5  H   UNL A   1      33.126  30.969  26.313  1.00  0.00     0.163 HD
BRANCH   4   6
ATOM      6  C   UNL A   1      35.827  30.503  28.219  1.00  0.00     0.039 A 
ATOM      7  C   UNL A   1      35.831  29.674  29.342  1.00  0.00     0.014 A 
ATOM      8  C   UNL A   1      37.027  30.751  27.543  1.00  0.00     0.014 A 
ATOM      9  C   UNL A   1      37.036  29.214  29.871  1.00  0.00     0.010 A 
ATOM     10  C   UNL A   1      38.227  30.224  28.027  1.00  0.00     0.010 A 
ATOM     11  C   UNL A   1      38.247  29.477  29.215  1.00  0.00    -0.014 A 
BRANCH  11  12
ATOM     12  C   UNL A   1      39.521  28.916  29.737  1.00  0.00     0.031 A 
ATOM     13  C   UNL A   1      40.264  29.590  30.856  1.00  0.00     0.074 A 
ATOM     14  C   UNL A   1      40.039  27.813  29.158  1.00  0.00     0.049 A 
ATOM     15  N   UNL A   1      41.413  29.269  31.394  1.00  0.00    -0.248 NA
ATOM     16  C   UNL A   1      39.641  30.788  31.442  1.00  0.00     0.031 C 
ATOM     17  C   UNL A   1      39.437  27.097  28.032  1.00  0.00     0.029 A 
ATOM     18  N   UNL A   1      41.199  27.125  29.411  1.00  0.00    -0.354 N 
ATOM     19  C   UNL A   1      41.676  30.247  32.346  1.00  0.00     0.074 A 
ATOM     20  C   UNL A   1      40.566  31.177  32.308  1.00  0.00     0.031 C 
ATOM     21  C   UNL A   1      40.238  26.080  27.681  1.00  0.00     0.029 A 
ATOM     22  C   UNL A   1      41.432  26.105  28.519  1.00  0.00     0.049 A 
ATOM     23  H   UNL A   1      41.804  27.341  30.157  1.00  0.00     0.167 HD
ATOM     24  C   UNL A   1      42.738  30.356  33.182  1.00  0.00     0.034 A 
ATOM     25  C   UNL A   1      42.502  25.301  28.361  1.00  0.00     0.034 A 
ATOM     26  C   UNL A   1      43.827  29.415  33.227  1.00  0.00     0.049 A 
ATOM     27  C   UNL A   1      43.663  25.431  29.301  1.00  0.00     0.074 A 
ATOM     28  C   UNL A   1      44.904  29.389  34.096  1.00  0.00     0.029 A 
ATOM     29  N   UNL A   1      43.994  28.351  32.354  1.00  0.00    -0.354 N 
ATOM     30  N   UNL A   1      43.826  26.272  30.294  1.00  0.00    -0.248 NA
ATOM     31  C   UNL A   1      44.775  24.487  29.126  1.00  0.00     0.031 C 
ATOM     32  C   UNL A   1      45.741  28.333  33.724  1.00  0.00     0.029 A 
ATOM     33  C   UNL A   1      45.166  27.675  32.648  1.00  0.00     0.049 A 
ATOM     34  H   UNL A   1      43.371  28.111  31.631  1.00  0.00     0.167 HD
ATOM     35  C   UNL A   1      45.041  25.941  30.881  1.00  0.00     0.074 A 
ATOM     36  C   UNL A   1      45.568  24.813  30.139  1.00  0.00     0.031 C 
ATOM     37  C   UNL A   1      45.662  26.525  31.934  1.00  0.00     0.034 A 
BRANCH  24  38
ATOM     38  C   UNL A   1      42.768  31.529  34.127  1.00  0.00     0.023 A 
ATOM     39  C   UNL A   1      43.334  32.752  33.713  1.00  0.00     0.012 A 
ATOM     40  C   UNL A   1      42.200  31.434  35.413  1.00  0.00     0.148 A 
ATOM     41  C   UNL A   1      43.375  33.847  34.577  1.00  0.00     0.002 A 
ATOM     42  C   UNL A   1      42.204  32.543  36.253  1.00  0.00     0.091 A 
ATOM     43  F   UNL A   1      41.683  30.260  35.802  1.00  0.00    -0.205 F 
ATOM     44  C   UNL A   1      42.803  33.745  35.842  1.00  0.00     0.022 A 
BRANCH  42  45
ATOM     45  S   UNL A   1      41.419  32.530  37.869  1.00  0.00     0.127 S 
ATOM     46  O   UNL A   1      41.528  33.935  38.261  1.00  0.00    -0.237 OA
ATOM     47  O   UNL A   1      40.060  32.090  37.552  1.00  0.00    -0.237 OA
ATOM     48  O   UNL A   1      42.185  31.589  38.675  1.00  0.00    -0.744 OA
ENDBRANCH  42  45
ENDBRANCH  24  38
BRANCH  25  49
ATOM     49  C   UNL A   1      42.490  24.293  27.265  1.00  0.00     0.023 A 
ATOM     50  C   UNL A   1      43.172  24.560  26.063  1.00  0.00     0.012 A 
ATOM     51  C   UNL A   1      41.881  23.036  27.450  1.00  0.00     0.148 A 
ATOM     52  C   UNL A   1      43.237  23.593  25.058  1.00  0.00     0.002 A 
ATOM     53  C   UNL A   1      42.000  22.060  26.470  1.00  0.00     0.091 A 
ATOM     54  F   UNL A   1      41.232  22.810  28.601  1.00  0.00    -0.205 F 
ATOM     55  C   UNL A   1      42.664  22.341  25.266  1.00  0.00     0.022 A 
BRANCH  53  56
ATOM     56  S   UNL A   1      41.424  20.375  26.711  1.00  0.00     0.127 S 
ATOM     57  O   UNL A   1      39.979  20.564  26.800  1.00  0.00    -0.237 OA
ATOM     58  O   UNL A   1      41.887  19.723  25.485  1.00  0.00    -0.237 OA
ATOM     59  O   UNL A   1      42.073  19.903  27.926  1.00  0.00    -0.744 OA
ENDBRANCH  53  56
ENDBRANCH  25  49
BRANCH  37  60
ATOM     60  C   UNL A   1      46.972  25.940  32.392  1.00  0.00     0.023 A 
ATOM     61  C   UNL A   1      47.007  25.061  33.492  1.00  0.00     0.012 A 
ATOM     62  C   UNL A   1      48.152  26.180  31.659  1.00  0.00     0.148 A 
ATOM     63  C   UNL A   1      48.199  24.442  33.865  1.00  0.00     0.002 A 
ATOM     64  C   UNL A   1      49.325  25.521  32.006  1.00  0.00     0.091 A 
ATOM     65  F   UNL A   1      48.099  27.034  30.627  1.00  0.00    -0.205 F 
ATOM     66  C   UNL A   1      49.353  24.660  33.115  1.00  0.00     0.022 A 
BRANCH  64  67
ATOM     67  S   UNL A   1      50.833  25.661  31.040  1.00  0.00     0.127 S 
ATOM     68  O   UNL A   1      51.750  24.806  31.792  1.00  0.00    -0.237 OA
ATOM     69  O   UNL A   1      50.419  25.121  29.744  1.00  0.00    -0.237 OA
ATOM     70  O   UNL A   1      51.176  27.076  31.026  1.00  0.00    -0.744 OA
ENDBRANCH  64  67
ENDBRANCH  37  60
ENDBRANCH  11  12
ENDBRANCH   4   6
ENDBRANCH   1   2
BRANCH   1  71
ATOM     71  C   UNL A   1      33.289  28.020  26.929  1.00  0.00     0.042 C 
BRANCH  71  72
ATOM     72  C   UNL A   1      31.832  28.314  27.265  1.00  0.00     0.118 C 
BRANCH  72  73
ATOM     73  N   UNL A   1      30.982  27.138  27.220  1.00  0.00    -0.352 N 
ATOM     74  C   UNL A   1      30.634  26.285  26.209  1.00  0.00     0.251 C 
ATOM     75  H   UNL A   1      30.577  26.910  28.087  1.00  0.00     0.163 HD
ATOM     76  O   UNL A   1      29.799  25.411  26.450  1.00  0.00    -0.269 OA
BRANCH  74  77
ATOM     77  C   UNL A   1      31.199  26.366  24.840  1.00  0.00     0.041 A 
ATOM     78  C   UNL A   1      30.505  27.166  23.919  1.00  0.00     0.014 A 
ATOM     79  C   UNL A   1      32.238  25.542  24.390  1.00  0.00     0.039 A 
ATOM     80  C   UNL A   1      30.863  27.174  22.574  1.00  0.00     0.003 A 
ATOM     81  C   UNL A   1      32.594  25.534  23.030  1.00  0.00     0.039 A 
ATOM     82  C   UNL A   1      31.900  26.357  22.133  1.00  0.00     0.026 A 
BRANCH  81  83
ATOM     83  N   UNL A   1      33.435  24.519  22.502  1.00  0.00    -0.355 N 
ATOM     84  H   UNL A   1      34.032  24.715  21.744  1.00  0.00     0.167 HD
BRANCH  83  85
ATOM     85  C   UNL A   1      33.408  23.216  23.078  1.00  0.00     0.050 A 
ATOM     86  C   UNL A   1      32.346  22.370  22.747  1.00  0.00     0.047 A 
ATOM     87  C   UNL A   1      34.403  22.762  23.975  1.00  0.00     0.025 A 
ATOM     88  C   UNL A   1      32.350  21.083  23.231  1.00  0.00     0.114 A 
ATOM     89  C   UNL A   1      34.275  21.433  24.445  1.00  0.00     0.072 A 
ATOM     90  C   UNL A   1      35.508  23.537  24.404  1.00  0.00     0.033 A 
ATOM     91  N   UNL A   1      33.287  20.607  24.069  1.00  0.00    -0.256 NA
ATOM     92  C   UNL A   1      35.210  20.941  25.343  1.00  0.00     0.030 A 
ATOM     93  C   UNL A   1      36.431  23.012  25.308  1.00  0.00     0.041 A 
ATOM     94  C   UNL A   1      36.278  21.719  25.791  1.00  0.00     0.023 A 
ATOM     95  Cl  UNL A   1      37.766  23.959  25.833  1.00  0.00    -0.084 Cl
ENDBRANCH  83  85
ENDBRANCH  81  83
ENDBRANCH  74  77
ENDBRANCH  72  73
ENDBRANCH  71  72
ENDBRANCH   1  71
TORSDOF 15
ENDMDL
MODEL 2
REMARK VINA RESULT:     -12.3      1.916      2.396
REMARK SMILES O=C(NCCCNC(=O)c1cccc(Nc2ccnc3ccc(Cl)cc23)c1)c1ccc(-c2c3nc(c(-c4cccc(S(=O)(=O)[O-])c4F)c4ccc([nH]4)c(-c4cccc(S(=O)(=O)[O-])c4F)c4nc(c(-c5cccc(S(=O)(=O)[O-])c5F)c5ccc2[nH]5)C=C4)C=C3)cc1
REMARK SMILES IDX 4 1 3 2 1 3 2 4 28 6 29 7 90 8 30 9 89 10 31 11 32 12 33 13
REMARK SMILES IDX 83 14 34 15 88 16 82 17 84 18 35 19 87 20 81 21 80 22 36 24
REMARK SMILES IDX 68 25 48 26 67 27 49 28 52 29 66 30 85 31 50 32 51 33 65 35
REMARK SMILES IDX 86 36 53 37 37 38 38 39 46 40 39 41 41 42 47 43 40 44 42 45
REMARK SMILES IDX 43 46 44 47 45 48 69 49 70 50 78 51 71 52 73 53 79 54 72 55
REMARK SMILES IDX 74 56 75 57 76 58 77 59 54 60 55 61 63 62 56 63 58 64 64 65
REMARK SMILES IDX 57 66 59 67 60 68 61 69 62 70 5 71 6 72 7 73 8 74 9 76 10 77
REMARK SMILES IDX 11 78 27 79 12 80 14 81 13 82 15 83 16 85 17 86 26 87 18 88
REMARK SMILES IDX 20 89 25 90 19 91 21 92 23 93 22 94 24 95
REMARK H PARENT 3 5 84 23 52 34 7 75 15 84
REMARK Flexibility Score: inf
ROOT
ATOM      1  C   UNL A   1      34.015  29.083  26.023  1.00  0.00     0.118 C 
ENDROOT
BRANCH   1   2
ATOM      2  N   UNL A   1      33.860  30.398  26.630  1.00  0.00    -0.352 N 
ATOM      3  O   UNL A   1      34.102  32.068  28.104  1.00  0.00    -0.269 OA
ATOM      4  C   UNL A   1      34.555  31.019  27.637  1.00  0.00     0.251 C 
ATOM      5  H   UNL A   1      33.128  30.935  26.252  1.00  0.00     0.163 HD
BRANCH   4   6
ATOM      6  C   UNL A   1      35.807  30.450  28.183  1.00  0.00     0.039 A 
ATOM      7  C   UNL A   1      35.820  29.703  29.362  1.00  0.00     0.014 A 
ATOM      8  C   UNL A   1      36.994  30.610  27.457  1.00  0.00     0.014 A 
ATOM      9  C   UNL A   1      37.026  29.242  29.889  1.00  0.00     0.010 A 
ATOM     10  C   UNL A   1      38.191  30.078  27.944  1.00  0.00     0.010 A 
ATOM     11  C   UNL A   1      38.224  29.417  29.182  1.00  0.00    -0.014 A 
BRANCH  11  12
ATOM     12  C   UNL A   1      39.496  28.853  29.706  1.00  0.00     0.031 A 
ATOM     13  C   UNL A   1      40.233  29.521  30.833  1.00  0.00     0.074 A 
ATOM     14  C   UNL A   1      40.015  27.753  29.123  1.00  0.00     0.049 A 
ATOM     15  N   UNL A   1      41.379  29.196  31.374  1.00  0.00    -0.248 NA
ATOM     16  C   UNL A   1      39.608  30.716  31.422  1.00  0.00     0.031 C 
ATOM     17  C   UNL A   1      39.418  27.043  27.991  1.00  0.00     0.029 A 
ATOM     18  N   UNL A   1      41.174  27.063  29.378  1.00  0.00    -0.354 N 
ATOM     19  C   UNL A   1      41.638  30.169  32.333  1.00  0.00     0.074 A 
ATOM     20  C   UNL A   1      40.529  31.099  32.295  1.00  0.00     0.031 C 
ATOM     21  C   UNL A   1      40.220  26.028  27.638  1.00  0.00     0.029 A 
ATOM     22  C   UNL A   1      41.411  26.047  28.483  1.00  0.00     0.049 A 
ATOM     23  H   UNL A   1      41.775  27.275  30.129  1.00  0.00     0.167 HD
ATOM     24  C   UNL A   1      42.697  30.273  33.174  1.00  0.00     0.034 A 
ATOM     25  C   UNL A   1      42.481  25.244  28.325  1.00  0.00     0.034 A 
ATOM     26  C   UNL A   1      43.785  29.331  33.220  1.00  0.00     0.049 A 
ATOM     27  C   UNL A   1      43.638  25.368  29.272  1.00  0.00     0.074 A 
ATOM     28  C   UNL A   1      44.857  29.300  34.093  1.00  0.00     0.029 A 
ATOM     29  N   UNL A   1      43.956  28.272  32.341  1.00  0.00    -0.354 N 
ATOM     30  N   UNL A   1      43.796  26.204  30.269  1.00  0.00    -0.248 NA
ATOM     31  C   UNL A   1      44.750  24.424  29.096  1.00  0.00     0.031 C 
ATOM     32  C   UNL A   1      45.696  28.245  33.720  1.00  0.00     0.029 A 
ATOM     33  C   UNL A   1      45.126  27.593  32.637  1.00  0.00     0.049 A 
ATOM     34  H   UNL A   1      43.336  28.036  31.614  1.00  0.00     0.167 HD
ATOM     35  C   UNL A   1      45.008  25.869  30.860  1.00  0.00     0.074 A 
ATOM     36  C   UNL A   1      45.538  24.745  30.114  1.00  0.00     0.031 C 
ATOM     37  C   UNL A   1      45.625  26.447  31.920  1.00  0.00     0.034 A 
BRANCH  24  38
ATOM     38  C   UNL A   1      42.723  31.441  34.126  1.00  0.00     0.023 A 
ATOM     39  C   UNL A   1      43.370  32.637  33.754  1.00  0.00     0.012 A 
ATOM     40  C   UNL A   1      42.072  31.369  35.374  1.00  0.00     0.148 A 
ATOM     41  C   UNL A   1      43.408  33.726  34.625  1.00  0.00     0.002 A 
ATOM     42  C   UNL A   1      42.075  32.475  36.218  1.00  0.00     0.091 A 
ATOM     43  F   UNL A   1      41.477  30.220  35.724  1.00  0.00    -0.205 F 
ATOM     44  C   UNL A   1      42.755  33.648  35.852  1.00  0.00     0.022 A 
BRANCH  42  45
ATOM     45  S   UNL A   1      41.192  32.494  37.783  1.00  0.00     0.127 S 
ATOM     46  O   UNL A   1      39.883  31.976  37.389  1.00  0.00    -0.237 OA
ATOM     47  O   UNL A   1      41.988  31.578  38.600  1.00  0.00    -0.237 OA
ATOM     48  O   UNL A   1      41.214  33.879  38.234  1.00  0.00    -0.744 OA
ENDBRANCH  42  45
ENDBRANCH  24  38
BRANCH  25  49
ATOM     49  C   UNL A   1      42.474  24.242  27.223  1.00  0.00     0.023 A 
ATOM     50  C   UNL A   1      43.129  24.531  26.012  1.00  0.00     0.012 A 
ATOM     51  C   UNL A   1      41.897  22.970  27.411  1.00  0.00     0.148 A 
ATOM     52  C   UNL A   1      43.199  23.571  25.000  1.00  0.00     0.002 A 
ATOM     53  C   UNL A   1      42.022  22.002  26.424  1.00  0.00     0.091 A 
ATOM     54  F   UNL A   1      41.273  22.723  28.571  1.00  0.00    -0.205 F 
ATOM     55  C   UNL A   1      42.659  22.305  25.211  1.00  0.00     0.022 A 
BRANCH  53  56
ATOM     56  S   UNL A   1      41.489  20.303  26.665  1.00  0.00     0.127 S 
ATOM     57  O   UNL A   1      41.897  19.682  25.407  1.00  0.00    -0.237 OA
ATOM     58  O   UNL A   1      42.278  19.907  27.832  1.00  0.00    -0.237 OA
ATOM     59  O   UNL A   1      40.054  20.366  26.899  1.00  0.00    -0.744 OA
ENDBRANCH  53  56
ENDBRANCH  25  49
BRANCH  37  60
ATOM     60  C   UNL A   1      46.932  25.860  32.381  1.00  0.00     0.023 A 
ATOM     61  C   UNL A   1      48.148  26.361  31.875  1.00  0.00     0.012 A 
ATOM     62  C   UNL A   1      46.955  24.885  33.398  1.00  0.00     0.148 A 
ATOM     63  C   UNL A   1      49.366  25.888  32.365  1.00  0.00     0.002 A 
ATOM     64  C   UNL A   1      48.170  24.455  33.917  1.00  0.00     0.091 A 
ATOM     65  F   UNL A   1      45.785  24.410  33.852  1.00  0.00    -0.205 F 
ATOM     66  C   UNL A   1      49.377  24.948  33.393  1.00  0.00     0.022 A 
BRANCH  64  67
ATOM     67  S   UNL A   1      48.282  23.325  35.308  1.00  0.00     0.127 S 
ATOM     68  O   UNL A   1      49.702  23.405  35.644  1.00  0.00    -0.237 OA
ATOM     69  O   UNL A   1      47.387  23.949  36.284  1.00  0.00    -0.237 OA
ATOM     70  O   UNL A   1      47.834  22.030  34.815  1.00  0.00    -0.744 OA
ENDBRANCH  64  67
ENDBRANCH  37  60
ENDBRANCH  11  12
ENDBRANCH   4   6
ENDBRANCH   1   2
BRANCH   1  71
ATOM     71  C   UNL A   1      33.108  28.870  24.813  1.00  0.00     0.042 C 
BRANCH  71  72
ATOM     72  C   UNL A   1      31.725  29.501  24.926  1.00  0.00     0.118 C 
BRANCH  72  73
ATOM     73  N   UNL A   1      31.093  29.739  23.641  1.00  0.00    -0.352 N 
ATOM     74  C   UNL A   1      30.595  28.899  22.683  1.00  0.00     0.251 C 
ATOM     75  H   UNL A   1      31.007  30.693  23.414  1.00  0.00     0.163 HD
ATOM     76  O   UNL A   1      30.197  29.395  21.628  1.00  0.00    -0.269 OA
BRANCH  74  77
ATOM     77  C   UNL A   1      30.522  27.427  22.846  1.00  0.00     0.041 A 
ATOM     78  C   UNL A   1      29.518  26.936  23.695  1.00  0.00     0.014 A 
ATOM     79  C   UNL A   1      31.507  26.553  22.369  1.00  0.00     0.039 A 
ATOM     80  C   UNL A   1      29.474  25.588  24.038  1.00  0.00     0.003 A 
ATOM     81  C   UNL A   1      31.477  25.193  22.724  1.00  0.00     0.039 A 
ATOM     82  C   UNL A   1      30.453  24.723  23.558  1.00  0.00     0.026 A 
BRANCH  81  83
ATOM     83  N   UNL A   1      32.600  24.355  22.496  1.00  0.00    -0.355 N 
ATOM     84  H   UNL A   1      32.817  24.053  21.584  1.00  0.00     0.167 HD
BRANCH  83  85
ATOM     85  C   UNL A   1      33.410  23.954  23.597  1.00  0.00     0.050 A 
ATOM     86  C   UNL A   1      34.151  24.934  24.262  1.00  0.00     0.047 A 
ATOM     87  C   UNL A   1      33.498  22.609  24.026  1.00  0.00     0.025 A 
ATOM     88  C   UNL A   1      34.874  24.576  25.377  1.00  0.00     0.114 A 
ATOM     89  C   UNL A   1      34.311  22.354  25.156  1.00  0.00     0.072 A 
ATOM     90  C   UNL A   1      32.816  21.528  23.415  1.00  0.00     0.033 A 
ATOM     91  N   UNL A   1      34.966  23.313  25.827  1.00  0.00    -0.256 NA
ATOM     92  C   UNL A   1      34.451  21.051  25.608  1.00  0.00     0.030 A 
ATOM     93  C   UNL A   1      32.977  20.228  23.895  1.00  0.00     0.041 A 
ATOM     94  C   UNL A   1      33.805  19.984  24.982  1.00  0.00     0.023 A 
ATOM     95  Cl  UNL A   1      32.155  18.918  23.145  1.00  0.00    -0.084 Cl
ENDBRANCH  83  85
ENDBRANCH  81  83
ENDBRANCH  74  77
ENDBRANCH  72  73
ENDBRANCH  71  72
ENDBRANCH   1  71
TORSDOF 15
ENDMDL
MODEL 3
REMARK VINA RESULT:     -12.2      2.711      8.168
REMARK SMILES O=C(NCCCNC(=O)c1cccc(Nc2ccnc3ccc(Cl)cc23)c1)c1ccc(-c2c3nc(c(-c4cccc(S(=O)(=O)[O-])c4F)c4ccc([nH]4)c(-c4cccc(S(=O)(=O)[O-])c4F)c4nc(c(-c5cccc(S(=O)(=O)[O-])c5F)c5ccc2[nH]5)C=C4)C=C3)cc1
REMARK SMILES IDX 4 1 3 2 1 3 2 4 28 6 29 7 90 8 30 9 89 10 31 11 32 12 33 13
REMARK SMILES IDX 83 14 34 15 88 16 82 17 84 18 35 19 87 20 81 21 80 22 36 24
REMARK SMILES IDX 68 25 48 26 67 27 49 28 52 29 66 30 85 31 50 32 51 33 65 35
REMARK SMILES IDX 86 36 53 37 37 38 38 39 46 40 39 41 41 42 47 43 40 44 42 45
REMARK SMILES IDX 43 46 44 47 45 48 69 49 70 50 78 51 71 52 73 53 79 54 72 55
REMARK SMILES IDX 74 56 75 57 76 58 77 59 54 60 55 61 63 62 56 63 58 64 64 65
REMARK SMILES IDX 57 66 59 67 60 68 61 69 62 70 5 71 6 72 7 73 8 74 9 76 10 77
REMARK SMILES IDX 11 78 27 79 12 80 14 81 13 82 15 83 16 85 17 86 26 87 18 88
REMARK SMILES IDX 20 89 25 90 19 91 21 92 23 93 22 94 24 95
REMARK H PARENT 3 5 84 23 52 34 7 75 15 84
REMARK Flexibility Score: inf
ROOT
ATOM      1  C   UNL A   1      33.108  28.704  25.381  1.00  0.00     0.118 C 
ENDROOT
BRANCH   1   2
ATOM      2  N   UNL A   1      32.673  30.047  25.740  1.00  0.00    -0.352 N 
ATOM      3  O   UNL A   1      32.473  31.938  26.925  1.00  0.00    -0.269 OA
ATOM      4  C   UNL A   1      33.141  30.929  26.683  1.00  0.00     0.251 C 
ATOM      5  H   UNL A   1      31.911  30.381  25.216  1.00  0.00     0.163 HD
BRANCH   4   6
ATOM      6  C   UNL A   1      34.399  30.684  27.421  1.00  0.00     0.039 A 
ATOM      7  C   UNL A   1      35.334  31.698  27.633  1.00  0.00     0.014 A 
ATOM      8  C   UNL A   1      34.619  29.418  27.978  1.00  0.00     0.014 A 
ATOM      9  C   UNL A   1      36.543  31.418  28.269  1.00  0.00     0.010 A 
ATOM     10  C   UNL A   1      35.795  29.158  28.687  1.00  0.00     0.010 A 
ATOM     11  C   UNL A   1      36.784  30.147  28.810  1.00  0.00    -0.014 A 
BRANCH  11  12
ATOM     12  C   UNL A   1      38.039  29.875  29.560  1.00  0.00     0.031 A 
ATOM     13  C   UNL A   1      39.086  28.949  29.006  1.00  0.00     0.074 A 
ATOM     14  C   UNL A   1      38.209  30.429  30.777  1.00  0.00     0.049 A 
ATOM     15  N   UNL A   1      40.210  28.558  29.550  1.00  0.00    -0.248 NA
ATOM     16  C   UNL A   1      38.835  28.380  27.673  1.00  0.00     0.031 C 
ATOM     17  C   UNL A   1      37.243  31.305  31.442  1.00  0.00     0.029 A 
ATOM     18  N   UNL A   1      39.235  30.314  31.682  1.00  0.00    -0.354 N 
ATOM     19  C   UNL A   1      40.778  27.663  28.651  1.00  0.00     0.074 A 
ATOM     20  C   UNL A   1      39.870  27.565  27.528  1.00  0.00     0.031 C 
ATOM     21  C   UNL A   1      37.713  31.635  32.654  1.00  0.00     0.029 A 
ATOM     22  C   UNL A   1      38.985  30.954  32.873  1.00  0.00     0.049 A 
ATOM     23  H   UNL A   1      40.067  29.820  31.496  1.00  0.00     0.167 HD
ATOM     24  C   UNL A   1      41.952  26.991  28.748  1.00  0.00     0.034 A 
ATOM     25  C   UNL A   1      39.676  30.964  34.029  1.00  0.00     0.034 A 
ATOM     26  C   UNL A   1      42.859  27.110  29.860  1.00  0.00     0.049 A 
ATOM     27  C   UNL A   1      40.977  30.222  34.113  1.00  0.00     0.074 A 
ATOM     28  C   UNL A   1      44.111  26.540  30.012  1.00  0.00     0.029 A 
ATOM     29  N   UNL A   1      42.604  27.826  31.020  1.00  0.00    -0.354 N 
ATOM     30  N   UNL A   1      41.570  29.498  33.195  1.00  0.00    -0.248 NA
ATOM     31  C   UNL A   1      41.722  30.319  35.375  1.00  0.00     0.031 C 
ATOM     32  C   UNL A   1      44.596  26.880  31.278  1.00  0.00     0.029 A 
ATOM     33  C   UNL A   1      43.664  27.695  31.902  1.00  0.00     0.049 A 
ATOM     34  H   UNL A   1      41.789  28.350  31.191  1.00  0.00     0.167 HD
ATOM     35  C   UNL A   1      42.771  29.078  33.755  1.00  0.00     0.074 A 
ATOM     36  C   UNL A   1      42.826  29.640  35.090  1.00  0.00     0.031 C 
ATOM     37  C   UNL A   1      43.733  28.294  33.211  1.00  0.00     0.034 A 
BRANCH  24  38
ATOM     38  C   UNL A   1      42.331  26.075  27.613  1.00  0.00     0.023 A 
ATOM     39  C   UNL A   1      43.092  26.570  26.534  1.00  0.00     0.012 A 
ATOM     40  C   UNL A   1      41.969  24.713  27.633  1.00  0.00     0.148 A 
ATOM     41  C   UNL A   1      43.447  25.737  25.472  1.00  0.00     0.002 A 
ATOM     42  C   UNL A   1      42.366  23.878  26.594  1.00  0.00     0.091 A 
ATOM     43  F   UNL A   1      41.230  24.260  28.655  1.00  0.00    -0.205 F 
ATOM     44  C   UNL A   1      43.092  24.392  25.506  1.00  0.00     0.022 A 
BRANCH  42  45
ATOM     45  S   UNL A   1      42.025  22.115  26.591  1.00  0.00     0.127 S 
ATOM     46  O   UNL A   1      40.563  22.097  26.559  1.00  0.00    -0.237 OA
ATOM     47  O   UNL A   1      42.665  21.676  25.351  1.00  0.00    -0.237 OA
ATOM     48  O   UNL A   1      42.636  21.590  27.804  1.00  0.00    -0.744 OA
ENDBRANCH  42  45
ENDBRANCH  24  38
BRANCH  25  49
ATOM     49  C   UNL A   1      39.134  31.727  35.186  1.00  0.00     0.023 A 
ATOM     50  C   UNL A   1      38.268  31.095  36.098  1.00  0.00     0.012 A 
ATOM     51  C   UNL A   1      39.549  33.052  35.432  1.00  0.00     0.148 A 
ATOM     52  C   UNL A   1      37.815  31.775  37.231  1.00  0.00     0.002 A 
ATOM     53  C   UNL A   1      39.141  33.700  36.590  1.00  0.00     0.091 A 
ATOM     54  F   UNL A   1      40.368  33.633  34.545  1.00  0.00    -0.205 F 
ATOM     55  C   UNL A   1      38.262  33.069  37.483  1.00  0.00     0.022 A 
BRANCH  53  56
ATOM     56  S   UNL A   1      39.781  35.308  37.073  1.00  0.00     0.127 S 
ATOM     57  O   UNL A   1      39.010  35.585  38.282  1.00  0.00    -0.237 OA
ATOM     58  O   UNL A   1      41.196  35.010  37.298  1.00  0.00    -0.237 OA
ATOM     59  O   UNL A   1      39.524  36.193  35.946  1.00  0.00    -0.744 OA
ENDBRANCH  53  56
ENDBRANCH  25  49
BRANCH  37  60
ATOM     60  C   UNL A   1      44.964  28.016  34.033  1.00  0.00     0.023 A 
ATOM     61  C   UNL A   1      46.040  28.925  34.021  1.00  0.00     0.012 A 
ATOM     62  C   UNL A   1      45.003  26.907  34.902  1.00  0.00     0.148 A 
ATOM     63  C   UNL A   1      47.144  28.725  34.850  1.00  0.00     0.002 A 
ATOM     64  C   UNL A   1      46.082  26.741  35.761  1.00  0.00     0.091 A 
ATOM     65  F   UNL A   1      43.975  26.046  34.882  1.00  0.00    -0.205 F 
ATOM     66  C   UNL A   1      47.158  27.643  35.729  1.00  0.00     0.022 A 
BRANCH  64  67
ATOM     67  S   UNL A   1      46.143  25.437  36.995  1.00  0.00     0.127 S 
ATOM     68  O   UNL A   1      46.180  24.238  36.159  1.00  0.00    -0.237 OA
ATOM     69  O   UNL A   1      47.394  25.734  37.694  1.00  0.00    -0.237 OA
ATOM     70  O   UNL A   1      44.943  25.590  37.805  1.00  0.00    -0.744 OA
ENDBRANCH  64  67
ENDBRANCH  37  60
ENDBRANCH  11  12
ENDBRANCH   4   6
ENDBRANCH   1   2
BRANCH   1  71
ATOM     71  C   UNL A   1      33.901  28.660  24.076  1.00  0.00     0.042 C 
BRANCH  71  72
ATOM     72  C   UNL A   1      33.072  28.856  22.812  1.00  0.00     0.118 C 
BRANCH  72  73
ATOM     73  N   UNL A   1      33.250  27.797  21.836  1.00  0.00    -0.352 N 
ATOM     74  C   UNL A   1      32.899  26.475  21.827  1.00  0.00     0.251 C 
ATOM     75  H   UNL A   1      33.716  28.087  21.019  1.00  0.00     0.163 HD
ATOM     76  O   UNL A   1      33.276  25.781  20.882  1.00  0.00    -0.269 OA
BRANCH  74  77
ATOM     77  C   UNL A   1      32.101  25.834  22.901  1.00  0.00     0.041 A 
ATOM     78  C   UNL A   1      30.874  26.437  23.218  1.00  0.00     0.014 A 
ATOM     79  C   UNL A   1      32.599  24.816  23.722  1.00  0.00     0.039 A 
ATOM     80  C   UNL A   1      30.134  26.008  24.317  1.00  0.00     0.003 A 
ATOM     81  C   UNL A   1      31.865  24.388  24.843  1.00  0.00     0.039 A 
ATOM     82  C   UNL A   1      30.632  24.992  25.127  1.00  0.00     0.026 A 
BRANCH  81  83
ATOM     83  N   UNL A   1      32.463  23.573  25.840  1.00  0.00    -0.355 N 
ATOM     84  H   UNL A   1      32.461  23.861  26.782  1.00  0.00     0.167 HD
BRANCH  83  85
ATOM     85  C   UNL A   1      33.064  22.337  25.466  1.00  0.00     0.050 A 
ATOM     86  C   UNL A   1      32.226  21.271  25.126  1.00  0.00     0.047 A 
ATOM     87  C   UNL A   1      34.466  22.151  25.441  1.00  0.00     0.025 A 
ATOM     88  C   UNL A   1      32.792  20.098  24.686  1.00  0.00     0.114 A 
ATOM     89  C   UNL A   1      34.931  20.884  25.015  1.00  0.00     0.072 A 
ATOM     90  C   UNL A   1      35.411  23.146  25.789  1.00  0.00     0.033 A 
ATOM     91  N   UNL A   1      34.119  19.889  24.629  1.00  0.00    -0.256 NA
ATOM     92  C   UNL A   1      36.295  20.638  24.991  1.00  0.00     0.030 A 
ATOM     93  C   UNL A   1      36.778  22.867  25.753  1.00  0.00     0.041 A 
ATOM     94  C   UNL A   1      37.223  21.610  25.368  1.00  0.00     0.023 A 
ATOM     95  Cl  UNL A   1      37.921  24.075  26.186  1.00  0.00    -0.084 Cl
ENDBRANCH  83  85
ENDBRANCH  81  83
ENDBRANCH  74  77
ENDBRANCH  72  73
ENDBRANCH  71  72
ENDBRANCH   1  71
TORSDOF 15
ENDMDL
