MODEL 1
REMARK VINA RESULT:     -12.8      0.000      0.000
REMARK SMILES CC(C)(C)OC(=O)N1CCN(C(=O)c2ccc3c(c2)OCO3)[C@H](C(=O)NCCCNC(=O)c2ccc(-c3c4nc(c(-c5cccc(S(=O)(=O)[O-])c5F)c5ccc([nH]5)c(-c5cccc(S(=O)(=O)[O-])c5F)c5nc(c(-c6cccc(S(=O)(=O)[O-])c6F)c6ccc3[nH]6)C=C5)C=C4)cc2)C1
REMARK SMILES IDX 28 1 27 2 26 3 24 4 25 5 23 7 8 8 9 9 96 10 10 11 11 12 6 13
REMARK SMILES IDX 7 14 5 15 2 16 1 17 3 18 4 19 12 20 13 21 14 22 15 23 19 24
REMARK SMILES IDX 16 25 18 26 17 27 20 28 22 29 21 30 29 31 30 32 31 33 32 35
REMARK SMILES IDX 33 36 34 37 95 38 35 39 94 40 36 41 37 42 38 43 88 44 39 45
REMARK SMILES IDX 93 46 87 47 89 48 40 49 92 50 86 51 85 52 41 54 73 55 53 56
REMARK SMILES IDX 72 57 54 58 57 59 71 60 90 61 55 62 56 63 70 65 91 66 58 67
REMARK SMILES IDX 42 68 43 69 51 70 44 71 46 72 52 73 45 74 47 75 48 76 49 77
REMARK SMILES IDX 50 78 74 79 75 80 83 81 76 82 78 83 84 84 77 85 79 86 80 87
REMARK SMILES IDX 81 88 82 89 59 90 60 91 68 92 61 93 63 94 69 95 62 96 64 97
REMARK SMILES IDX 65 98 66 99 67 100
REMARK H PARENT 26 6 30 34 89 53 57 64
REMARK Flexibility Score: inf
ROOT
ATOM      1  C   UNL A   1      31.735  29.080  26.593  1.00  0.00     0.042 C 
ENDROOT
BRANCH   1   2
ATOM      2  C   UNL A   1      32.005  27.620  26.248  1.00  0.00     0.117 C 
BRANCH   2   3
ATOM      3  N   UNL A   1      30.927  26.706  26.582  1.00  0.00    -0.354 N 
ATOM      4  C   UNL A   1      30.208  25.838  25.813  1.00  0.00     0.244 C 
ATOM      5  O   UNL A   1      29.531  24.994  26.410  1.00  0.00    -0.273 OA
ATOM      6  H   UNL A   1      30.668  26.714  27.532  1.00  0.00     0.163 HD
BRANCH   4   7
ATOM      7  C   UNL A   1      30.321  25.788  24.276  1.00  0.00     0.194 C 
ATOM      8  N   UNL A   1      32.444  25.342  22.861  1.00  0.00    -0.304 N 
ATOM      9  C   UNL A   1      32.358  26.706  22.366  1.00  0.00     0.144 C 
ATOM     10  C   UNL A   1      31.611  24.971  24.000  1.00  0.00     0.158 C 
ATOM     11  C   UNL A   1      30.915  27.181  22.275  1.00  0.00     0.142 C 
ATOM     12  N   UNL A   1      30.150  27.055  23.520  1.00  0.00    -0.323 N 
BRANCH   8  13
ATOM     13  C   UNL A   1      33.528  24.552  22.507  1.00  0.00     0.410 C 
ATOM     14  O   UNL A   1      33.597  23.895  21.481  1.00  0.00    -0.224 OA
BRANCH  13  15
ATOM     15  O   UNL A   1      34.504  24.628  23.445  1.00  0.00    -0.444 OA
BRANCH  15  16
ATOM     16  C   UNL A   1      35.085  23.468  24.088  1.00  0.00     0.106 C 
ATOM     17  C   UNL A   1      35.475  23.979  25.484  1.00  0.00     0.056 C 
ATOM     18  C   UNL A   1      36.348  23.043  23.336  1.00  0.00     0.056 C 
ATOM     19  C   UNL A   1      34.101  22.307  24.250  1.00  0.00     0.056 C 
ENDBRANCH  15  16
ENDBRANCH  13  15
ENDBRANCH   8  13
BRANCH  12  20
ATOM     20  C   UNL A   1      28.880  27.686  23.453  1.00  0.00     0.254 C 
ATOM     21  O   UNL A   1      27.830  27.097  23.703  1.00  0.00    -0.269 OA
BRANCH  20  22
ATOM     22  C   UNL A   1      28.770  29.110  23.060  1.00  0.00     0.044 A 
ATOM     23  C   UNL A   1      28.032  29.449  21.914  1.00  0.00     0.018 A 
ATOM     24  C   UNL A   1      29.300  30.114  23.879  1.00  0.00     0.064 A 
ATOM     25  C   UNL A   1      27.930  30.773  21.487  1.00  0.00     0.051 A 
ATOM     26  C   UNL A   1      29.153  31.420  23.454  1.00  0.00     0.166 A 
ATOM     27  C   UNL A   1      28.511  31.736  22.278  1.00  0.00     0.165 A 
ATOM     28  O   UNL A   1      29.598  32.530  24.104  1.00  0.00    -0.454 OA
ATOM     29  O   UNL A   1      28.500  33.071  22.025  1.00  0.00    -0.454 OA
ATOM     30  C   UNL A   1      29.138  33.572  23.214  1.00  0.00     0.468 C 
ENDBRANCH  20  22
ENDBRANCH  12  20
ENDBRANCH   4   7
ENDBRANCH   2   3
ENDBRANCH   1   2
BRANCH   1  31
ATOM     31  C   UNL A   1      32.699  30.094  25.992  1.00  0.00     0.118 C 
BRANCH  31  32
ATOM     32  N   UNL A   1      32.463  31.462  26.415  1.00  0.00    -0.352 N 
ATOM     33  C   UNL A   1      33.228  32.233  27.262  1.00  0.00     0.251 C 
ATOM     34  H   UNL A   1      31.656  31.892  26.052  1.00  0.00     0.163 HD
ATOM     35  O   UNL A   1      32.859  33.364  27.562  1.00  0.00    -0.269 OA
BRANCH  33  36
ATOM     36  C   UNL A   1      34.466  31.672  27.844  1.00  0.00     0.039 A 
ATOM     37  C   UNL A   1      35.585  32.501  27.955  1.00  0.00     0.014 A 
ATOM     38  C   UNL A   1      34.518  30.354  28.310  1.00  0.00     0.014 A 
ATOM     39  C   UNL A   1      36.738  32.028  28.585  1.00  0.00     0.010 A 
ATOM     40  C   UNL A   1      35.647  29.906  28.997  1.00  0.00     0.010 A 
ATOM     41  C   UNL A   1      36.771  30.736  29.136  1.00  0.00    -0.014 A 
BRANCH  41  42
ATOM     42  C   UNL A   1      37.978  30.244  29.851  1.00  0.00     0.031 A 
ATOM     43  C   UNL A   1      38.272  30.709  31.252  1.00  0.00     0.074 A 
ATOM     44  C   UNL A   1      38.842  29.421  29.223  1.00  0.00     0.049 A 
ATOM     45  N   UNL A   1      39.277  30.398  32.030  1.00  0.00    -0.248 NA
ATOM     46  C   UNL A   1      37.326  31.666  31.850  1.00  0.00     0.031 C 
ATOM     47  C   UNL A   1      38.715  28.956  27.840  1.00  0.00     0.029 A 
ATOM     48  N   UNL A   1      40.011  28.847  29.659  1.00  0.00    -0.354 N 
ATOM     49  C   UNL A   1      39.104  31.143  33.191  1.00  0.00     0.074 A 
ATOM     50  C   UNL A   1      37.916  31.946  33.003  1.00  0.00     0.031 C 
ATOM     51  C   UNL A   1      39.759  28.165  27.544  1.00  0.00     0.029 A 
ATOM     52  C   UNL A   1      40.643  28.082  28.704  1.00  0.00     0.049 A 
ATOM     53  H   UNL A   1      40.365  28.970  30.569  1.00  0.00     0.167 HD
ATOM     54  C   UNL A   1      39.844  31.135  34.325  1.00  0.00     0.034 A 
ATOM     55  C   UNL A   1      41.801  27.395  28.755  1.00  0.00     0.034 A 
ATOM     56  C   UNL A   1      40.998  30.301  34.531  1.00  0.00     0.049 A 
ATOM     57  C   UNL A   1      42.584  27.371  30.041  1.00  0.00     0.074 A 
ATOM     58  C   UNL A   1      41.760  30.154  35.675  1.00  0.00     0.029 A 
ATOM     59  N   UNL A   1      41.560  29.478  33.567  1.00  0.00    -0.354 N 
ATOM     60  N   UNL A   1      42.309  27.949  31.185  1.00  0.00    -0.248 NA
ATOM     61  C   UNL A   1      43.816  26.568  30.056  1.00  0.00     0.031 C 
ATOM     62  C   UNL A   1      42.797  29.258  35.398  1.00  0.00     0.029 A 
ATOM     63  C   UNL A   1      42.666  28.828  34.088  1.00  0.00     0.049 A 
ATOM     64  H   UNL A   1      41.223  29.371  32.648  1.00  0.00     0.167 HD
ATOM     65  C   UNL A   1      43.312  27.554  32.064  1.00  0.00     0.074 A 
ATOM     66  C   UNL A   1      44.187  26.668  31.326  1.00  0.00     0.031 C 
ATOM     67  C   UNL A   1      43.498  27.904  33.360  1.00  0.00     0.034 A 
BRANCH  54  68
ATOM     68  C   UNL A   1      39.393  32.017  35.459  1.00  0.00     0.023 A 
ATOM     69  C   UNL A   1      38.523  31.497  36.440  1.00  0.00     0.012 A 
ATOM     70  C   UNL A   1      39.867  33.337  35.588  1.00  0.00     0.148 A 
ATOM     71  C   UNL A   1      38.104  32.285  37.510  1.00  0.00     0.002 A 
ATOM     72  C   UNL A   1      39.479  34.103  36.681  1.00  0.00     0.091 A 
ATOM     73  F   UNL A   1      40.676  33.822  34.635  1.00  0.00    -0.205 F 
ATOM     74  C   UNL A   1      38.590  33.584  37.636  1.00  0.00     0.022 A 
BRANCH  72  75
ATOM     75  S   UNL A   1      40.110  35.760  36.976  1.00  0.00     0.127 S 
ATOM     76  O   UNL A   1      41.551  35.521  37.035  1.00  0.00    -0.237 OA
ATOM     77  O   UNL A   1      39.659  36.478  35.783  1.00  0.00    -0.237 OA
ATOM     78  O   UNL A   1      39.498  36.206  38.220  1.00  0.00    -0.744 OA
ENDBRANCH  72  75
ENDBRANCH  54  68
BRANCH  55  79
ATOM     79  C   UNL A   1      42.257  26.612  27.571  1.00  0.00     0.023 A 
ATOM     80  C   UNL A   1      42.997  27.257  26.560  1.00  0.00     0.012 A 
ATOM     81  C   UNL A   1      41.984  25.236  27.450  1.00  0.00     0.148 A 
ATOM     82  C   UNL A   1      43.428  26.553  25.435  1.00  0.00     0.002 A 
ATOM     83  C   UNL A   1      42.464  24.529  26.354  1.00  0.00     0.091 A 
ATOM     84  F   UNL A   1      41.267  24.643  28.416  1.00  0.00    -0.205 F 
ATOM     85  C   UNL A   1      43.171  25.188  25.336  1.00  0.00     0.022 A 
BRANCH  83  86
ATOM     86  S   UNL A   1      42.296  22.746  26.210  1.00  0.00     0.127 S 
ATOM     87  O   UNL A   1      40.846  22.577  26.267  1.00  0.00    -0.237 OA
ATOM     88  O   UNL A   1      42.897  22.491  24.901  1.00  0.00    -0.237 OA
ATOM     89  O   UNL A   1      43.044  22.191  27.330  1.00  0.00    -0.744 OA
ENDBRANCH  83  86
ENDBRANCH  55  79
BRANCH  67  90
ATOM     90  C   UNL A   1      44.676  27.307  34.086  1.00  0.00     0.023 A 
ATOM     91  C   UNL A   1      45.908  27.991  34.100  1.00  0.00     0.012 A 
ATOM     92  C   UNL A   1      44.539  26.112  34.820  1.00  0.00     0.148 A 
ATOM     93  C   UNL A   1      46.994  27.477  34.808  1.00  0.00     0.002 A 
ATOM     94  C   UNL A   1      45.612  25.633  35.562  1.00  0.00     0.091 A 
ATOM     95  F   UNL A   1      43.364  25.467  34.779  1.00  0.00    -0.205 F 
ATOM     96  C   UNL A   1      46.843  26.306  35.548  1.00  0.00     0.022 A 
BRANCH  94  97
ATOM     97  S   UNL A   1      45.478  24.187  36.622  1.00  0.00     0.127 S 
ATOM     98  O   UNL A   1      44.893  23.204  35.711  1.00  0.00    -0.237 OA
ATOM     99  O   UNL A   1      46.875  23.933  36.978  1.00  0.00    -0.237 OA
ATOM    100  O   UNL A   1      44.634  24.586  37.739  1.00  0.00    -0.744 OA
ENDBRANCH  94  97
ENDBRANCH  67  90
ENDBRANCH  41  42
ENDBRANCH  33  36
ENDBRANCH  31  32
ENDBRANCH   1  31
TORSDOF 18
ENDMDL
MODEL 2
REMARK VINA RESULT:     -12.5      1.579      4.793
REMARK SMILES CC(C)(C)OC(=O)N1CCN(C(=O)c2ccc3c(c2)OCO3)[C@H](C(=O)NCCCNC(=O)c2ccc(-c3c4nc(c(-c5cccc(S(=O)(=O)[O-])c5F)c5ccc([nH]5)c(-c5cccc(S(=O)(=O)[O-])c5F)c5nc(c(-c6cccc(S(=O)(=O)[O-])c6F)c6ccc3[nH]6)C=C5)C=C4)cc2)C1
REMARK SMILES IDX 28 1 27 2 26 3 24 4 25 5 23 7 8 8 9 9 96 10 10 11 11 12 6 13
REMARK SMILES IDX 7 14 5 15 2 16 1 17 3 18 4 19 12 20 13 21 14 22 15 23 19 24
REMARK SMILES IDX 16 25 18 26 17 27 20 28 22 29 21 30 29 31 30 32 31 33 32 35
REMARK SMILES IDX 33 36 34 37 95 38 35 39 94 40 36 41 37 42 38 43 88 44 39 45
REMARK SMILES IDX 93 46 87 47 89 48 40 49 92 50 86 51 85 52 41 54 73 55 53 56
REMARK SMILES IDX 72 57 54 58 57 59 71 60 90 61 55 62 56 63 70 65 91 66 58 67
REMARK SMILES IDX 42 68 43 69 51 70 44 71 46 72 52 73 45 74 47 75 48 76 49 77
REMARK SMILES IDX 50 78 74 79 75 80 83 81 76 82 78 83 84 84 77 85 79 86 80 87
REMARK SMILES IDX 81 88 82 89 59 90 60 91 68 92 61 93 63 94 69 95 62 96 64 97
REMARK SMILES IDX 65 98 66 99 67 100
REMARK H PARENT 26 6 30 34 89 53 57 64
REMARK Flexibility Score: inf
ROOT
ATOM      1  C   UNL A   1      32.474  29.825  25.626  1.00  0.00     0.042 C 
ENDROOT
BRANCH   1   2
ATOM      2  C   UNL A   1      33.176  28.517  25.279  1.00  0.00     0.117 C 
BRANCH   2   3
ATOM      3  N   UNL A   1      33.987  28.562  24.076  1.00  0.00    -0.354 N 
ATOM      4  C   UNL A   1      33.734  28.151  22.800  1.00  0.00     0.244 C 
ATOM      5  O   UNL A   1      34.505  28.551  21.921  1.00  0.00    -0.273 OA
ATOM      6  H   UNL A   1      34.880  28.959  24.203  1.00  0.00     0.163 HD
BRANCH   4   7
ATOM      7  C   UNL A   1      32.479  27.344  22.412  1.00  0.00     0.194 C 
ATOM      8  N   UNL A   1      30.025  27.815  23.097  1.00  0.00    -0.304 N 
ATOM      9  C   UNL A   1      30.039  26.578  23.862  1.00  0.00     0.144 C 
ATOM     10  C   UNL A   1      31.298  28.332  22.607  1.00  0.00     0.158 C 
ATOM     11  C   UNL A   1      30.943  25.534  23.225  1.00  0.00     0.142 C 
ATOM     12  N   UNL A   1      32.318  25.982  22.980  1.00  0.00    -0.323 N 
BRANCH   8  13
ATOM     13  C   UNL A   1      28.914  28.643  23.155  1.00  0.00     0.410 C 
ATOM     14  O   UNL A   1      27.770  28.279  22.934  1.00  0.00    -0.224 OA
BRANCH  13  15
ATOM     15  O   UNL A   1      29.270  29.902  23.509  1.00  0.00    -0.444 OA
BRANCH  15  16
ATOM     16  C   UNL A   1      28.583  31.088  23.042  1.00  0.00     0.106 C 
ATOM     17  C   UNL A   1      29.429  32.244  23.597  1.00  0.00     0.056 C 
ATOM     18  C   UNL A   1      27.184  31.145  23.659  1.00  0.00     0.056 C 
ATOM     19  C   UNL A   1      28.539  31.202  21.516  1.00  0.00     0.056 C 
ENDBRANCH  15  16
ENDBRANCH  13  15
ENDBRANCH   8  13
BRANCH  12  20
ATOM     20  C   UNL A   1      33.177  24.928  22.573  1.00  0.00     0.254 C 
ATOM     21  O   UNL A   1      33.101  24.398  21.466  1.00  0.00    -0.269 OA
BRANCH  20  22
ATOM     22  C   UNL A   1      34.216  24.409  23.492  1.00  0.00     0.044 A 
ATOM     23  C   UNL A   1      34.313  24.943  24.788  1.00  0.00     0.018 A 
ATOM     24  C   UNL A   1      35.018  23.325  23.116  1.00  0.00     0.064 A 
ATOM     25  C   UNL A   1      35.298  24.510  25.675  1.00  0.00     0.051 A 
ATOM     26  C   UNL A   1      35.961  22.890  24.027  1.00  0.00     0.166 A 
ATOM     27  C   UNL A   1      36.113  23.484  25.259  1.00  0.00     0.165 A 
ATOM     28  O   UNL A   1      36.832  21.860  23.850  1.00  0.00    -0.454 OA
ATOM     29  O   UNL A   1      37.112  22.930  25.993  1.00  0.00    -0.454 OA
ATOM     30  C   UNL A   1      37.525  21.863  25.118  1.00  0.00     0.468 C 
ENDBRANCH  20  22
ENDBRANCH  12  20
ENDBRANCH   4   7
ENDBRANCH   2   3
ENDBRANCH   1   2
BRANCH   1  31
ATOM     31  C   UNL A   1      32.709  30.352  27.035  1.00  0.00     0.118 C 
BRANCH  31  32
ATOM     32  N   UNL A   1      32.771  31.799  27.127  1.00  0.00    -0.352 N 
ATOM     33  C   UNL A   1      33.789  32.575  27.633  1.00  0.00     0.251 C 
ATOM     34  H   UNL A   1      31.987  32.286  26.785  1.00  0.00     0.163 HD
ATOM     35  O   UNL A   1      33.662  33.794  27.685  1.00  0.00    -0.269 OA
BRANCH  33  36
ATOM     36  C   UNL A   1      35.011  31.927  28.156  1.00  0.00     0.039 A 
ATOM     37  C   UNL A   1      36.177  32.690  28.258  1.00  0.00     0.014 A 
ATOM     38  C   UNL A   1      35.004  30.593  28.577  1.00  0.00     0.014 A 
ATOM     39  C   UNL A   1      37.321  32.133  28.835  1.00  0.00     0.010 A 
ATOM     40  C   UNL A   1      36.126  30.061  29.213  1.00  0.00     0.010 A 
ATOM     41  C   UNL A   1      37.298  30.823  29.342  1.00  0.00    -0.014 A 
BRANCH  41  42
ATOM     42  C   UNL A   1      38.498  30.241  30.002  1.00  0.00     0.031 A 
ATOM     43  C   UNL A   1      38.881  30.670  31.392  1.00  0.00     0.074 A 
ATOM     44  C   UNL A   1      39.276  29.368  29.331  1.00  0.00     0.049 A 
ATOM     45  N   UNL A   1      39.893  30.282  32.125  1.00  0.00    -0.248 NA
ATOM     46  C   UNL A   1      38.028  31.682  32.038  1.00  0.00     0.031 C 
ATOM     47  C   UNL A   1      39.060  28.928  27.951  1.00  0.00     0.029 A 
ATOM     48  N   UNL A   1      40.420  28.710  29.712  1.00  0.00    -0.354 N 
ATOM     49  C   UNL A   1      39.820  31.023  33.299  1.00  0.00     0.074 A 
ATOM     50  C   UNL A   1      38.683  31.908  33.167  1.00  0.00     0.031 C 
ATOM     51  C   UNL A   1      40.034  28.071  27.604  1.00  0.00     0.029 A 
ATOM     52  C   UNL A   1      40.957  27.916  28.725  1.00  0.00     0.049 A 
ATOM     53  H   UNL A   1      40.819  28.799  30.608  1.00  0.00     0.167 HD
ATOM     54  C   UNL A   1      40.604  30.952  34.400  1.00  0.00     0.034 A 
ATOM     55  C   UNL A   1      42.066  27.150  28.722  1.00  0.00     0.034 A 
ATOM     56  C   UNL A   1      41.705  30.039  34.550  1.00  0.00     0.049 A 
ATOM     57  C   UNL A   1      42.898  27.058  29.974  1.00  0.00     0.074 A 
ATOM     58  C   UNL A   1      42.502  29.827  35.660  1.00  0.00     0.029 A 
ATOM     59  N   UNL A   1      42.169  29.190  33.557  1.00  0.00    -0.354 N 
ATOM     60  N   UNL A   1      42.711  27.640  31.133  1.00  0.00    -0.248 NA
ATOM     61  C   UNL A   1      44.072  26.173  29.930  1.00  0.00     0.031 C 
ATOM     62  C   UNL A   1      43.463  28.865  35.332  1.00  0.00     0.029 A 
ATOM     63  C   UNL A   1      43.248  28.460  34.025  1.00  0.00     0.049 A 
ATOM     64  H   UNL A   1      41.788  29.117  32.652  1.00  0.00     0.167 HD
ATOM     65  C   UNL A   1      43.720  27.167  31.965  1.00  0.00     0.074 A 
ATOM     66  C   UNL A   1      44.501  26.232  31.183  1.00  0.00     0.031 C 
ATOM     67  C   UNL A   1      43.984  27.489  33.255  1.00  0.00     0.034 A 
BRANCH  54  68
ATOM     68  C   UNL A   1      40.262  31.851  35.559  1.00  0.00     0.023 A 
ATOM     69  C   UNL A   1      41.026  33.015  35.783  1.00  0.00     0.012 A 
ATOM     70  C   UNL A   1      39.159  31.578  36.391  1.00  0.00     0.148 A 
ATOM     71  C   UNL A   1      40.720  33.874  36.838  1.00  0.00     0.002 A 
ATOM     72  C   UNL A   1      38.834  32.463  37.414  1.00  0.00     0.091 A 
ATOM     73  F   UNL A   1      38.457  30.456  36.177  1.00  0.00    -0.205 F 
ATOM     74  C   UNL A   1      39.619  33.603  37.646  1.00  0.00     0.022 A 
BRANCH  72  75
ATOM     75  S   UNL A   1      37.390  32.244  38.461  1.00  0.00     0.127 S 
ATOM     76  O   UNL A   1      37.828  32.879  39.703  1.00  0.00    -0.237 OA
ATOM     77  O   UNL A   1      36.363  32.985  37.727  1.00  0.00    -0.237 OA
ATOM     78  O   UNL A   1      37.164  30.808  38.538  1.00  0.00    -0.744 OA
ENDBRANCH  72  75
ENDBRANCH  54  68
BRANCH  55  79
ATOM     79  C   UNL A   1      42.418  26.351  27.513  1.00  0.00     0.023 A 
ATOM     80  C   UNL A   1      43.107  26.971  26.451  1.00  0.00     0.012 A 
ATOM     81  C   UNL A   1      42.096  24.984  27.416  1.00  0.00     0.148 A 
ATOM     82  C   UNL A   1      43.440  26.252  25.303  1.00  0.00     0.002 A 
ATOM     83  C   UNL A   1      42.480  24.260  26.293  1.00  0.00     0.091 A 
ATOM     84  F   UNL A   1      41.427  24.415  28.430  1.00  0.00    -0.205 F 
ATOM     85  C   UNL A   1      43.137  24.895  25.227  1.00  0.00     0.022 A 
BRANCH  83  86
ATOM     86  S   UNL A   1      42.248  22.483  26.168  1.00  0.00     0.127 S 
ATOM     87  O   UNL A   1      42.930  22.007  27.369  1.00  0.00    -0.237 OA
ATOM     88  O   UNL A   1      40.789  22.366  26.199  1.00  0.00    -0.237 OA
ATOM     89  O   UNL A   1      42.852  22.098  24.900  1.00  0.00    -0.744 OA
ENDBRANCH  83  86
ENDBRANCH  55  79
BRANCH  67  90
ATOM     90  C   UNL A   1      45.147  26.805  33.926  1.00  0.00     0.023 A 
ATOM     91  C   UNL A   1      46.445  27.336  33.787  1.00  0.00     0.012 A 
ATOM     92  C   UNL A   1      44.942  25.686  34.758  1.00  0.00     0.148 A 
ATOM     93  C   UNL A   1      47.525  26.744  34.442  1.00  0.00     0.002 A 
ATOM     94  C   UNL A   1      46.015  25.132  35.444  1.00  0.00     0.091 A 
ATOM     95  F   UNL A   1      43.702  25.185  34.862  1.00  0.00    -0.205 F 
ATOM     96  C   UNL A   1      47.309  25.651  35.278  1.00  0.00     0.022 A 
BRANCH  94  97
ATOM     97  S   UNL A   1      45.814  23.786  36.618  1.00  0.00     0.127 S 
ATOM     98  O   UNL A   1      47.166  23.658  37.159  1.00  0.00    -0.237 OA
ATOM     99  O   UNL A   1      44.831  24.334  37.554  1.00  0.00    -0.237 OA
ATOM    100  O   UNL A   1      45.338  22.648  35.844  1.00  0.00    -0.744 OA
ENDBRANCH  94  97
ENDBRANCH  67  90
ENDBRANCH  41  42
ENDBRANCH  33  36
ENDBRANCH  31  32
ENDBRANCH   1  31
TORSDOF 18
ENDMDL
MODEL 3
REMARK VINA RESULT:     -12.5      1.656      2.382
REMARK SMILES CC(C)(C)OC(=O)N1CCN(C(=O)c2ccc3c(c2)OCO3)[C@H](C(=O)NCCCNC(=O)c2ccc(-c3c4nc(c(-c5cccc(S(=O)(=O)[O-])c5F)c5ccc([nH]5)c(-c5cccc(S(=O)(=O)[O-])c5F)c5nc(c(-c6cccc(S(=O)(=O)[O-])c6F)c6ccc3[nH]6)C=C5)C=C4)cc2)C1
REMARK SMILES IDX 28 1 27 2 26 3 24 4 25 5 23 7 8 8 9 9 96 10 10 11 11 12 6 13
REMARK SMILES IDX 7 14 5 15 2 16 1 17 3 18 4 19 12 20 13 21 14 22 15 23 19 24
REMARK SMILES IDX 16 25 18 26 17 27 20 28 22 29 21 30 29 31 30 32 31 33 32 35
REMARK SMILES IDX 33 36 34 37 95 38 35 39 94 40 36 41 37 42 38 43 88 44 39 45
REMARK SMILES IDX 93 46 87 47 89 48 40 49 92 50 86 51 85 52 41 54 73 55 53 56
REMARK SMILES IDX 72 57 54 58 57 59 71 60 90 61 55 62 56 63 70 65 91 66 58 67
REMARK SMILES IDX 42 68 43 69 51 70 44 71 46 72 52 73 45 74 47 75 48 76 49 77
REMARK SMILES IDX 50 78 74 79 75 80 83 81 76 82 78 83 84 84 77 85 79 86 80 87
REMARK SMILES IDX 81 88 82 89 59 90 60 91 68 92 61 93 63 94 69 95 62 96 64 97
REMARK SMILES IDX 65 98 66 99 67 100
REMARK H PARENT 26 6 30 34 89 53 57 64
REMARK Flexibility Score: inf
ROOT
ATOM      1  C   UNL A   1      31.783  29.340  27.244  1.00  0.00     0.042 C 
ENDROOT
BRANCH   1   2
ATOM      2  C   UNL A   1      32.150  27.861  27.244  1.00  0.00     0.117 C 
BRANCH   2   3
ATOM      3  N   UNL A   1      33.275  27.512  26.394  1.00  0.00    -0.354 N 
ATOM      4  C   UNL A   1      33.544  26.391  25.666  1.00  0.00     0.244 C 
ATOM      5  O   UNL A   1      34.448  26.473  24.827  1.00  0.00    -0.273 OA
ATOM      6  H   UNL A   1      33.969  28.209  26.333  1.00  0.00     0.163 HD
BRANCH   4   7
ATOM      7  C   UNL A   1      32.690  25.110  25.753  1.00  0.00     0.194 C 
ATOM      8  N   UNL A   1      33.389  22.700  25.112  1.00  0.00    -0.304 N 
ATOM      9  C   UNL A   1      32.415  22.742  24.033  1.00  0.00     0.144 C 
ATOM     10  C   UNL A   1      33.720  23.949  25.787  1.00  0.00     0.158 C 
ATOM     11  C   UNL A   1      31.213  23.603  24.395  1.00  0.00     0.142 C 
ATOM     12  N   UNL A   1      31.544  24.967  24.820  1.00  0.00    -0.323 N 
BRANCH   8  13
ATOM     13  C   UNL A   1      34.225  21.600  25.236  1.00  0.00     0.410 C 
ATOM     14  O   UNL A   1      33.930  20.466  24.893  1.00  0.00    -0.224 OA
BRANCH  13  15
ATOM     15  O   UNL A   1      35.418  21.961  25.770  1.00  0.00    -0.444 OA
BRANCH  15  16
ATOM     16  C   UNL A   1      36.643  22.048  25.003  1.00  0.00     0.106 C 
ATOM     17  C   UNL A   1      37.476  23.093  25.761  1.00  0.00     0.056 C 
ATOM     18  C   UNL A   1      36.332  22.573  23.600  1.00  0.00     0.056 C 
ATOM     19  C   UNL A   1      37.427  20.734  24.960  1.00  0.00     0.056 C 
ENDBRANCH  15  16
ENDBRANCH  13  15
ENDBRANCH   8  13
BRANCH  12  20
ATOM     20  C   UNL A   1      30.399  25.795  24.956  1.00  0.00     0.254 C 
ATOM     21  O   UNL A   1      29.550  25.618  25.828  1.00  0.00    -0.269 OA
BRANCH  20  22
ATOM     22  C   UNL A   1      30.174  26.924  24.024  1.00  0.00     0.044 A 
ATOM     23  C   UNL A   1      31.250  27.405  23.260  1.00  0.00     0.018 A 
ATOM     24  C   UNL A   1      28.885  27.433  23.825  1.00  0.00     0.064 A 
ATOM     25  C   UNL A   1      31.093  28.489  22.395  1.00  0.00     0.051 A 
ATOM     26  C   UNL A   1      28.750  28.481  22.935  1.00  0.00     0.166 A 
ATOM     27  C   UNL A   1      29.828  29.010  22.262  1.00  0.00     0.165 A 
ATOM     28  O   UNL A   1      27.588  29.111  22.609  1.00  0.00    -0.454 OA
ATOM     29  O   UNL A   1      29.489  30.052  21.460  1.00  0.00    -0.454 OA
ATOM     30  C   UNL A   1      28.061  30.073  21.639  1.00  0.00     0.468 C 
ENDBRANCH  20  22
ENDBRANCH  12  20
ENDBRANCH   4   7
ENDBRANCH   2   3
ENDBRANCH   1   2
BRANCH   1  31
ATOM     31  C   UNL A   1      32.748  30.265  26.515  1.00  0.00     0.118 C 
BRANCH  31  32
ATOM     32  N   UNL A   1      32.624  31.663  26.883  1.00  0.00    -0.352 N 
ATOM     33  C   UNL A   1      33.496  32.427  27.625  1.00  0.00     0.251 C 
ATOM     34  H   UNL A   1      31.815  32.123  26.562  1.00  0.00     0.163 HD
ATOM     35  O   UNL A   1      33.216  33.591  27.893  1.00  0.00    -0.269 OA
BRANCH  33  36
ATOM     36  C   UNL A   1      34.745  31.821  28.137  1.00  0.00     0.039 A 
ATOM     37  C   UNL A   1      35.902  32.603  28.163  1.00  0.00     0.014 A 
ATOM     38  C   UNL A   1      34.771  30.509  28.621  1.00  0.00     0.014 A 
ATOM     39  C   UNL A   1      37.073  32.090  28.727  1.00  0.00     0.010 A 
ATOM     40  C   UNL A   1      35.922  30.023  29.243  1.00  0.00     0.010 A 
ATOM     41  C   UNL A   1      37.086  30.806  29.296  1.00  0.00    -0.014 A 
BRANCH  41  42
ATOM     42  C   UNL A   1      38.315  30.273  29.942  1.00  0.00     0.031 A 
ATOM     43  C   UNL A   1      38.697  30.716  31.328  1.00  0.00     0.074 A 
ATOM     44  C   UNL A   1      39.120  29.431  29.262  1.00  0.00     0.049 A 
ATOM     45  N   UNL A   1      39.732  30.369  32.049  1.00  0.00    -0.248 NA
ATOM     46  C   UNL A   1      37.813  31.695  31.983  1.00  0.00     0.031 C 
ATOM     47  C   UNL A   1      38.906  28.982  27.885  1.00  0.00     0.029 A 
ATOM     48  N   UNL A   1      40.293  28.819  29.630  1.00  0.00    -0.354 N 
ATOM     49  C   UNL A   1      39.644  31.108  33.223  1.00  0.00     0.074 A 
ATOM     50  C   UNL A   1      38.472  31.947  33.105  1.00  0.00     0.031 C 
ATOM     51  C   UNL A   1      39.908  28.164  27.526  1.00  0.00     0.029 A 
ATOM     52  C   UNL A   1      40.850  28.046  28.637  1.00  0.00     0.049 A 
ATOM     53  H   UNL A   1      40.699  28.923  30.521  1.00  0.00     0.167 HD
ATOM     54  C   UNL A   1      40.443  31.068  34.316  1.00  0.00     0.034 A 
ATOM     55  C   UNL A   1      41.988  27.324  28.621  1.00  0.00     0.034 A 
ATOM     56  C   UNL A   1      41.581  30.200  34.453  1.00  0.00     0.049 A 
ATOM     57  C   UNL A   1      42.838  27.266  29.863  1.00  0.00     0.074 A 
ATOM     58  C   UNL A   1      42.399  30.021  35.553  1.00  0.00     0.029 A 
ATOM     59  N   UNL A   1      42.066  29.369  33.454  1.00  0.00    -0.354 N 
ATOM     60  N   UNL A   1      42.641  27.841  31.024  1.00  0.00    -0.248 NA
ATOM     61  C   UNL A   1      44.045  26.428  29.806  1.00  0.00     0.031 C 
ATOM     62  C   UNL A   1      43.393  29.097  35.214  1.00  0.00     0.029 A 
ATOM     63  C   UNL A   1      43.179  28.683  33.910  1.00  0.00     0.049 A 
ATOM     64  H   UNL A   1      41.678  29.281  32.554  1.00  0.00     0.167 HD
ATOM     65  C   UNL A   1      43.678  27.409  31.845  1.00  0.00     0.074 A 
ATOM     66  C   UNL A   1      44.487  26.505  31.054  1.00  0.00     0.031 C 
ATOM     67  C   UNL A   1      43.944  27.742  33.131  1.00  0.00     0.034 A 
BRANCH  54  68
ATOM     68  C   UNL A   1      40.079  31.953  35.479  1.00  0.00     0.023 A 
ATOM     69  C   UNL A   1      40.728  33.195  35.635  1.00  0.00     0.012 A 
ATOM     70  C   UNL A   1      39.063  31.587  36.382  1.00  0.00     0.148 A 
ATOM     71  C   UNL A   1      40.398  34.043  36.692  1.00  0.00     0.002 A 
ATOM     72  C   UNL A   1      38.709  32.457  37.408  1.00  0.00     0.091 A 
ATOM     73  F   UNL A   1      38.471  30.394  36.231  1.00  0.00    -0.205 F 
ATOM     74  C   UNL A   1      39.383  33.678  37.571  1.00  0.00     0.022 A 
BRANCH  72  75
ATOM     75  S   UNL A   1      37.361  32.114  38.547  1.00  0.00     0.127 S 
ATOM     76  O   UNL A   1      37.936  32.544  39.821  1.00  0.00    -0.237 OA
ATOM     77  O   UNL A   1      36.298  32.979  38.034  1.00  0.00    -0.237 OA
ATOM     78  O   UNL A   1      37.092  30.688  38.431  1.00  0.00    -0.744 OA
ENDBRANCH  72  75
ENDBRANCH  54  68
BRANCH  55  79
ATOM     79  C   UNL A   1      42.357  26.540  27.408  1.00  0.00     0.023 A 
ATOM     80  C   UNL A   1      43.000  27.188  26.334  1.00  0.00     0.012 A 
ATOM     81  C   UNL A   1      42.098  25.159  27.319  1.00  0.00     0.148 A 
ATOM     82  C   UNL A   1      43.347  26.482  25.182  1.00  0.00     0.002 A 
ATOM     83  C   UNL A   1      42.497  24.450  26.191  1.00  0.00     0.091 A 
ATOM     84  F   UNL A   1      41.473  24.562  28.345  1.00  0.00    -0.205 F 
ATOM     85  C   UNL A   1      43.106  25.112  25.114  1.00  0.00     0.022 A 
BRANCH  83  86
ATOM     86  S   UNL A   1      42.347  22.664  26.074  1.00  0.00     0.127 S 
ATOM     87  O   UNL A   1      43.073  22.223  27.262  1.00  0.00    -0.237 OA
ATOM     88  O   UNL A   1      40.896  22.479  26.133  1.00  0.00    -0.237 OA
ATOM     89  O   UNL A   1      42.943  22.305  24.795  1.00  0.00    -0.744 OA
ENDBRANCH  83  86
ENDBRANCH  55  79
BRANCH  67  90
ATOM     90  C   UNL A   1      45.141  27.105  33.789  1.00  0.00     0.023 A 
ATOM     91  C   UNL A   1      46.382  27.772  33.779  1.00  0.00     0.012 A 
ATOM     92  C   UNL A   1      45.016  25.886  34.484  1.00  0.00     0.148 A 
ATOM     93  C   UNL A   1      47.487  27.220  34.425  1.00  0.00     0.002 A 
ATOM     94  C   UNL A   1      46.110  25.367  35.166  1.00  0.00     0.091 A 
ATOM     95  F   UNL A   1      43.832  25.257  34.466  1.00  0.00    -0.205 F 
ATOM     96  C   UNL A   1      47.349  26.025  35.128  1.00  0.00     0.022 A 
BRANCH  94  97
ATOM     97  S   UNL A   1      45.998  23.885  36.177  1.00  0.00     0.127 S 
ATOM     98  O   UNL A   1      47.042  24.124  37.173  1.00  0.00    -0.237 OA
ATOM     99  O   UNL A   1      44.631  23.966  36.696  1.00  0.00    -0.237 OA
ATOM    100  O   UNL A   1      46.235  22.766  35.276  1.00  0.00    -0.744 OA
ENDBRANCH  94  97
ENDBRANCH  67  90
ENDBRANCH  41  42
ENDBRANCH  33  36
ENDBRANCH  31  32
ENDBRANCH   1  31
TORSDOF 18
ENDMDL
