MODEL 1
REMARK VINA RESULT:     -13.0      0.000      0.000
REMARK SMILES C[C@H](NC(=O)c1c(C(=O)NCCCNC(=O)c2ccc(-c3c4nc(c(-c5cccc(S(=O)(=O)[O-])c5F)c5ccc([nH]5)c(-c5cccc(S(=O)(=O)[O-])c5F)c5nc(c(-c6cccc(S(=O)(=O)[O-])c6F)c6ccc3[nH]6)C=C5)C=C4)cc2)cnn1C)[C@]12C[C@H]3C[C@H](C[C@H](C3)C1)C2
REMARK SMILES IDX 12 1 11 2 10 3 8 4 9 5 7 7 6 8 82 9 80 10 81 11 83 12 4 13
REMARK SMILES IDX 3 14 5 16 2 17 1 18 84 19 85 20 92 21 93 22 86 23 90 24
REMARK SMILES IDX 88 25 87 26 91 27 89 28 13 29 14 30 15 31 16 33 17 34 18 35
REMARK SMILES IDX 79 36 19 37 78 38 20 39 21 40 22 41 72 42 23 43 77 44 71 45
REMARK SMILES IDX 73 46 24 47 76 48 70 49 69 50 25 52 57 53 37 54 56 55 38 56
REMARK SMILES IDX 41 57 55 58 74 59 39 60 40 61 54 63 75 64 42 65 26 66 27 67
REMARK SMILES IDX 35 68 28 69 30 70 36 71 29 72 31 73 32 74 33 75 34 76 58 77
REMARK SMILES IDX 59 78 67 79 60 80 62 81 68 82 61 83 63 84 64 85 65 86 66 87
REMARK SMILES IDX 43 88 44 89 52 90 45 91 47 92 53 93 46 94 48 95 49 96 50 97
REMARK SMILES IDX 51 98
REMARK H PARENT 10 6 3 15 14 32 73 51 41 62
REMARK Flexibility Score: inf
ROOT
ATOM      1  C   UNL A   1      31.726  30.396  25.714  1.00  0.00     0.042 C 
ENDROOT
BRANCH   1   2
ATOM      2  C   UNL A   1      32.346  29.331  24.823  1.00  0.00     0.118 C 
BRANCH   2   3
ATOM      3  N   UNL A   1      31.366  28.722  23.958  1.00  0.00    -0.352 N 
ATOM      4  C   UNL A   1      30.752  27.506  23.900  1.00  0.00     0.255 C 
ATOM      5  O   UNL A   1      29.895  27.428  23.011  1.00  0.00    -0.269 OA
ATOM      6  H   UNL A   1      31.069  29.327  23.240  1.00  0.00     0.163 HD
BRANCH   4   7
ATOM      7  C   UNL A   1      30.975  26.356  24.772  1.00  0.00     0.090 A 
ATOM      8  C   UNL A   1      31.140  24.972  24.648  1.00  0.00     0.138 A 
ATOM      9  N   UNL A   1      31.382  24.509  25.924  1.00  0.00    -0.262 N 
ATOM     10  C   UNL A   1      31.026  26.550  26.187  1.00  0.00     0.149 A 
ATOM     11  N   UNL A   1      31.267  25.442  26.879  1.00  0.00    -0.180 NA
ATOM     12  C   UNL A   1      31.617  23.144  26.340  1.00  0.00     0.174 C 
BRANCH   8  13
ATOM     13  C   UNL A   1      31.174  24.071  23.536  1.00  0.00     0.270 C 
ATOM     14  N   UNL A   1      32.363  23.705  22.954  1.00  0.00    -0.348 N 
ATOM     15  H   UNL A   1      32.292  22.876  22.428  1.00  0.00     0.164 HD
ATOM     16  O   UNL A   1      30.139  23.618  23.048  1.00  0.00    -0.267 OA
BRANCH  14  17
ATOM     17  C   UNL A   1      33.728  24.278  22.944  1.00  0.00     0.085 C 
ATOM     18  C   UNL A   1      33.784  25.797  23.122  1.00  0.00     0.031 C 
BRANCH  17  19
ATOM     19  C   UNL A   1      34.699  23.494  23.921  1.00  0.00    -0.009 C 
ATOM     20  C   UNL A   1      36.105  23.246  23.311  1.00  0.00     0.012 C 
ATOM     21  C   UNL A   1      34.106  22.105  24.303  1.00  0.00     0.012 C 
ATOM     22  C   UNL A   1      34.909  24.297  25.240  1.00  0.00     0.012 C 
ATOM     23  C   UNL A   1      37.014  22.473  24.291  1.00  0.00    -0.010 C 
ATOM     24  C   UNL A   1      35.002  21.343  25.284  1.00  0.00    -0.010 C 
ATOM     25  C   UNL A   1      35.805  23.525  26.231  1.00  0.00    -0.010 C 
ATOM     26  C   UNL A   1      37.180  23.279  25.590  1.00  0.00     0.007 C 
ATOM     27  C   UNL A   1      36.372  21.120  24.627  1.00  0.00     0.007 C 
ATOM     28  C   UNL A   1      35.153  22.173  26.562  1.00  0.00     0.007 C 
ENDBRANCH  17  19
ENDBRANCH  14  17
ENDBRANCH   8  13
ENDBRANCH   4   7
ENDBRANCH   2   3
ENDBRANCH   1   2
BRANCH   1  29
ATOM     29  C   UNL A   1      32.582  30.742  26.923  1.00  0.00     0.118 C 
BRANCH  29  30
ATOM     30  N   UNL A   1      32.837  32.174  27.028  1.00  0.00    -0.352 N 
ATOM     31  C   UNL A   1      33.799  32.881  27.707  1.00  0.00     0.251 C 
ATOM     32  H   UNL A   1      32.208  32.735  26.520  1.00  0.00     0.163 HD
ATOM     33  O   UNL A   1      33.664  34.097  27.830  1.00  0.00    -0.269 OA
BRANCH  31  34
ATOM     34  C   UNL A   1      34.981  32.212  28.301  1.00  0.00     0.039 A 
ATOM     35  C   UNL A   1      36.203  32.893  28.330  1.00  0.00     0.014 A 
ATOM     36  C   UNL A   1      34.916  30.903  28.777  1.00  0.00     0.014 A 
ATOM     37  C   UNL A   1      37.331  32.285  28.889  1.00  0.00     0.010 A 
ATOM     38  C   UNL A   1      36.005  30.345  29.439  1.00  0.00     0.010 A 
ATOM     39  C   UNL A   1      37.233  31.017  29.484  1.00  0.00    -0.014 A 
BRANCH  39  40
ATOM     40  C   UNL A   1      38.397  30.365  30.141  1.00  0.00     0.031 A 
ATOM     41  C   UNL A   1      38.798  30.758  31.540  1.00  0.00     0.074 A 
ATOM     42  C   UNL A   1      39.154  29.492  29.444  1.00  0.00     0.049 A 
ATOM     43  N   UNL A   1      39.832  30.371  32.242  1.00  0.00    -0.248 NA
ATOM     44  C   UNL A   1      37.950  31.746  32.228  1.00  0.00     0.031 C 
ATOM     45  C   UNL A   1      38.928  29.097  28.052  1.00  0.00     0.029 A 
ATOM     46  N   UNL A   1      40.283  28.800  29.805  1.00  0.00    -0.354 N 
ATOM     47  C   UNL A   1      39.785  31.101  33.424  1.00  0.00     0.074 A 
ATOM     48  C   UNL A   1      38.645  31.984  33.329  1.00  0.00     0.031 C 
ATOM     49  C   UNL A   1      39.878  28.225  27.682  1.00  0.00     0.029 A 
ATOM     50  C   UNL A   1      40.800  28.023  28.795  1.00  0.00     0.049 A 
ATOM     51  H   UNL A   1      40.686  28.856  30.701  1.00  0.00     0.167 HD
ATOM     52  C   UNL A   1      40.593  31.020  34.509  1.00  0.00     0.034 A 
ATOM     53  C   UNL A   1      41.895  27.237  28.766  1.00  0.00     0.034 A 
ATOM     54  C   UNL A   1      41.683  30.090  34.630  1.00  0.00     0.049 A 
ATOM     55  C   UNL A   1      42.733  27.108  30.010  1.00  0.00     0.074 A 
ATOM     56  C   UNL A   1      42.497  29.857  35.722  1.00  0.00     0.029 A 
ATOM     57  N   UNL A   1      42.108  29.237  33.624  1.00  0.00    -0.354 N 
ATOM     58  N   UNL A   1      42.577  27.691  31.174  1.00  0.00    -0.248 NA
ATOM     59  C   UNL A   1      43.875  26.185  29.949  1.00  0.00     0.031 C 
ATOM     60  C   UNL A   1      43.426  28.871  35.372  1.00  0.00     0.029 A 
ATOM     61  C   UNL A   1      43.175  28.477  34.067  1.00  0.00     0.049 A 
ATOM     62  H   UNL A   1      41.709  29.181  32.725  1.00  0.00     0.167 HD
ATOM     63  C   UNL A   1      43.577  27.180  31.993  1.00  0.00     0.074 A 
ATOM     64  C   UNL A   1      44.320  26.223  31.197  1.00  0.00     0.031 C 
ATOM     65  C   UNL A   1      43.867  27.488  33.282  1.00  0.00     0.034 A 
BRANCH  52  66
ATOM     66  C   UNL A   1      40.284  31.916  35.681  1.00  0.00     0.023 A 
ATOM     67  C   UNL A   1      41.122  33.019  35.953  1.00  0.00     0.012 A 
ATOM     68  C   UNL A   1      39.144  31.705  36.479  1.00  0.00     0.148 A 
ATOM     69  C   UNL A   1      40.854  33.871  37.022  1.00  0.00     0.002 A 
ATOM     70  C   UNL A   1      38.856  32.587  37.516  1.00  0.00     0.091 A 
ATOM     71  F   UNL A   1      38.369  30.642  36.221  1.00  0.00    -0.205 F 
ATOM     72  C   UNL A   1      39.717  33.661  37.797  1.00  0.00     0.022 A 
BRANCH  70  73
ATOM     73  S   UNL A   1      37.373  32.451  38.521  1.00  0.00     0.127 S 
ATOM     74  O   UNL A   1      36.363  33.029  37.636  1.00  0.00    -0.237 OA
ATOM     75  O   UNL A   1      37.261  31.004  38.711  1.00  0.00    -0.237 OA
ATOM     76  O   UNL A   1      37.644  33.203  39.738  1.00  0.00    -0.744 OA
ENDBRANCH  70  73
ENDBRANCH  52  66
BRANCH  53  77
ATOM     77  C   UNL A   1      42.212  26.451  27.540  1.00  0.00     0.023 A 
ATOM     78  C   UNL A   1      42.881  27.079  26.472  1.00  0.00     0.012 A 
ATOM     79  C   UNL A   1      41.893  25.083  27.441  1.00  0.00     0.148 A 
ATOM     80  C   UNL A   1      43.199  26.368  25.315  1.00  0.00     0.002 A 
ATOM     81  C   UNL A   1      42.263  24.366  26.309  1.00  0.00     0.091 A 
ATOM     82  F   UNL A   1      41.248  24.506  28.465  1.00  0.00    -0.205 F 
ATOM     83  C   UNL A   1      42.900  25.011  25.237  1.00  0.00     0.022 A 
BRANCH  81  84
ATOM     84  S   UNL A   1      42.044  22.589  26.182  1.00  0.00     0.127 S 
ATOM     85  O   UNL A   1      42.729  22.290  24.929  1.00  0.00    -0.237 OA
ATOM     86  O   UNL A   1      42.722  22.112  27.387  1.00  0.00    -0.237 OA
ATOM     87  O   UNL A   1      40.602  22.371  26.183  1.00  0.00    -0.744 OA
ENDBRANCH  81  84
ENDBRANCH  53  77
BRANCH  65  88
ATOM     88  C   UNL A   1      45.015  26.762  33.932  1.00  0.00     0.023 A 
ATOM     89  C   UNL A   1      46.330  27.242  33.768  1.00  0.00     0.012 A 
ATOM     90  C   UNL A   1      44.783  25.653  34.768  1.00  0.00     0.148 A 
ATOM     91  C   UNL A   1      47.399  26.610  34.400  1.00  0.00     0.002 A 
ATOM     92  C   UNL A   1      45.847  25.056  35.433  1.00  0.00     0.091 A 
ATOM     93  F   UNL A   1      43.528  25.198  34.895  1.00  0.00    -0.205 F 
ATOM     94  C   UNL A   1      47.157  25.526  35.241  1.00  0.00     0.022 A 
BRANCH  92  95
ATOM     95  S   UNL A   1      45.616  23.719  36.610  1.00  0.00     0.127 S 
ATOM     96  O   UNL A   1      44.667  24.311  37.551  1.00  0.00    -0.237 OA
ATOM     97  O   UNL A   1      45.061  22.657  35.769  1.00  0.00    -0.237 OA
ATOM     98  O   UNL A   1      46.937  23.429  37.150  1.00  0.00    -0.744 OA
ENDBRANCH  92  95
ENDBRANCH  65  88
ENDBRANCH  39  40
ENDBRANCH  31  34
ENDBRANCH  29  30
ENDBRANCH   1  29
TORSDOF 16
ENDMDL
MODEL 2
REMARK VINA RESULT:     -13.0      1.534      3.852
REMARK SMILES C[C@H](NC(=O)c1c(C(=O)NCCCNC(=O)c2ccc(-c3c4nc(c(-c5cccc(S(=O)(=O)[O-])c5F)c5ccc([nH]5)c(-c5cccc(S(=O)(=O)[O-])c5F)c5nc(c(-c6cccc(S(=O)(=O)[O-])c6F)c6ccc3[nH]6)C=C5)C=C4)cc2)cnn1C)[C@]12C[C@H]3C[C@H](C[C@H](C3)C1)C2
REMARK SMILES IDX 12 1 11 2 10 3 8 4 9 5 7 7 6 8 82 9 80 10 81 11 83 12 4 13
REMARK SMILES IDX 3 14 5 16 2 17 1 18 84 19 85 20 92 21 93 22 86 23 90 24
REMARK SMILES IDX 88 25 87 26 91 27 89 28 13 29 14 30 15 31 16 33 17 34 18 35
REMARK SMILES IDX 79 36 19 37 78 38 20 39 21 40 22 41 72 42 23 43 77 44 71 45
REMARK SMILES IDX 73 46 24 47 76 48 70 49 69 50 25 52 57 53 37 54 56 55 38 56
REMARK SMILES IDX 41 57 55 58 74 59 39 60 40 61 54 63 75 64 42 65 26 66 27 67
REMARK SMILES IDX 35 68 28 69 30 70 36 71 29 72 31 73 32 74 33 75 34 76 58 77
REMARK SMILES IDX 59 78 67 79 60 80 62 81 68 82 61 83 63 84 64 85 65 86 66 87
REMARK SMILES IDX 43 88 44 89 52 90 45 91 47 92 53 93 46 94 48 95 49 96 50 97
REMARK SMILES IDX 51 98
REMARK H PARENT 10 6 3 15 14 32 73 51 41 62
REMARK Flexibility Score: inf
ROOT
ATOM      1  C   UNL A   1      31.783  29.521  27.050  1.00  0.00     0.042 C 
ENDROOT
BRANCH   1   2
ATOM      2  C   UNL A   1      32.077  28.152  27.644  1.00  0.00     0.118 C 
BRANCH   2   3
ATOM      3  N   UNL A   1      31.034  27.204  27.341  1.00  0.00    -0.352 N 
ATOM      4  C   UNL A   1      30.927  26.114  26.528  1.00  0.00     0.255 C 
ATOM      5  O   UNL A   1      29.842  25.527  26.630  1.00  0.00    -0.269 OA
ATOM      6  H   UNL A   1      30.203  27.385  27.837  1.00  0.00     0.163 HD
BRANCH   4   7
ATOM      7  C   UNL A   1      31.939  25.580  25.620  1.00  0.00     0.090 A 
ATOM      8  C   UNL A   1      32.116  25.408  24.243  1.00  0.00     0.138 A 
ATOM      9  N   UNL A   1      33.380  24.881  24.091  1.00  0.00    -0.262 N 
ATOM     10  C   UNL A   1      33.129  25.003  26.162  1.00  0.00     0.149 A 
ATOM     11  N   UNL A   1      33.993  24.580  25.245  1.00  0.00    -0.180 NA
ATOM     12  C   UNL A   1      34.045  24.516  22.861  1.00  0.00     0.174 C 
BRANCH   8  13
ATOM     13  C   UNL A   1      31.324  25.723  23.092  1.00  0.00     0.270 C 
ATOM     14  N   UNL A   1      31.148  27.024  22.687  1.00  0.00    -0.348 N 
ATOM     15  H   UNL A   1      30.861  27.096  21.748  1.00  0.00     0.164 HD
ATOM     16  O   UNL A   1      30.754  24.844  22.447  1.00  0.00    -0.267 OA
BRANCH  14  17
ATOM     17  C   UNL A   1      31.294  28.341  23.347  1.00  0.00     0.085 C 
ATOM     18  C   UNL A   1      32.655  29.009  23.143  1.00  0.00     0.031 C 
BRANCH  17  19
ATOM     19  C   UNL A   1      30.070  29.294  23.027  1.00  0.00    -0.009 C 
ATOM     20  C   UNL A   1      28.700  28.566  23.086  1.00  0.00     0.012 C 
ATOM     21  C   UNL A   1      30.203  29.920  21.606  1.00  0.00     0.012 C 
ATOM     22  C   UNL A   1      30.009  30.465  24.054  1.00  0.00     0.012 C 
ATOM     23  C   UNL A   1      27.537  29.528  22.760  1.00  0.00    -0.010 C 
ATOM     24  C   UNL A   1      29.056  30.883  21.287  1.00  0.00    -0.010 C 
ATOM     25  C   UNL A   1      28.858  31.439  23.727  1.00  0.00    -0.010 C 
ATOM     26  C   UNL A   1      27.520  30.684  23.774  1.00  0.00     0.007 C 
ATOM     27  C   UNL A   1      27.731  30.109  21.352  1.00  0.00     0.007 C 
ATOM     28  C   UNL A   1      29.062  32.016  22.317  1.00  0.00     0.007 C 
ENDBRANCH  17  19
ENDBRANCH  14  17
ENDBRANCH   8  13
ENDBRANCH   4   7
ENDBRANCH   2   3
ENDBRANCH   1   2
BRANCH   1  29
ATOM     29  C   UNL A   1      33.012  30.197  26.461  1.00  0.00     0.118 C 
BRANCH  29  30
ATOM     30  N   UNL A   1      33.080  31.613  26.802  1.00  0.00    -0.352 N 
ATOM     31  C   UNL A   1      33.896  32.305  27.664  1.00  0.00     0.251 C 
ATOM     32  H   UNL A   1      32.425  32.175  26.329  1.00  0.00     0.163 HD
ATOM     33  O   UNL A   1      33.603  33.463  27.955  1.00  0.00    -0.269 OA
BRANCH  31  34
ATOM     34  C   UNL A   1      35.105  31.684  28.255  1.00  0.00     0.039 A 
ATOM     35  C   UNL A   1      36.299  32.414  28.281  1.00  0.00     0.014 A 
ATOM     36  C   UNL A   1      35.094  30.375  28.733  1.00  0.00     0.014 A 
ATOM     37  C   UNL A   1      37.452  31.852  28.838  1.00  0.00     0.010 A 
ATOM     38  C   UNL A   1      36.207  29.860  29.392  1.00  0.00     0.010 A 
ATOM     39  C   UNL A   1      37.407  30.582  29.434  1.00  0.00    -0.014 A 
BRANCH  39  40
ATOM     40  C   UNL A   1      38.597  29.978  30.088  1.00  0.00     0.031 A 
ATOM     41  C   UNL A   1      39.029  30.441  31.457  1.00  0.00     0.074 A 
ATOM     42  C   UNL A   1      39.349  29.085  29.411  1.00  0.00     0.049 A 
ATOM     43  N   UNL A   1      40.087  30.101  32.147  1.00  0.00    -0.248 NA
ATOM     44  C   UNL A   1      38.184  31.447  32.121  1.00  0.00     0.031 C 
ATOM     45  C   UNL A   1      39.094  28.623  28.046  1.00  0.00     0.029 A 
ATOM     46  N   UNL A   1      40.499  28.427  29.773  1.00  0.00    -0.354 N 
ATOM     47  C   UNL A   1      40.059  30.884  33.296  1.00  0.00     0.074 A 
ATOM     48  C   UNL A   1      38.903  31.745  33.192  1.00  0.00     0.031 C 
ATOM     49  C   UNL A   1      40.048  27.749  27.691  1.00  0.00     0.029 A 
ATOM     50  C   UNL A   1      41.001  27.611  28.786  1.00  0.00     0.049 A 
ATOM     51  H   UNL A   1      40.924  28.530  30.655  1.00  0.00     0.167 HD
ATOM     52  C   UNL A   1      40.897  30.865  34.361  1.00  0.00     0.034 A 
ATOM     53  C   UNL A   1      42.108  26.842  28.764  1.00  0.00     0.034 A 
ATOM     54  C   UNL A   1      42.004  29.958  34.495  1.00  0.00     0.049 A 
ATOM     55  C   UNL A   1      42.979  26.782  29.989  1.00  0.00     0.074 A 
ATOM     56  C   UNL A   1      42.850  29.787  35.575  1.00  0.00     0.029 A 
ATOM     57  N   UNL A   1      42.416  29.066  33.517  1.00  0.00    -0.354 N 
ATOM     58  N   UNL A   1      42.845  27.415  31.129  1.00  0.00    -0.248 NA
ATOM     59  C   UNL A   1      44.134  25.874  29.939  1.00  0.00     0.031 C 
ATOM     60  C   UNL A   1      43.785  28.799  35.245  1.00  0.00     0.029 A 
ATOM     61  C   UNL A   1      43.506  28.342  33.966  1.00  0.00     0.049 A 
ATOM     62  H   UNL A   1      41.995  28.962  32.633  1.00  0.00     0.167 HD
ATOM     63  C   UNL A   1      43.874  26.958  31.944  1.00  0.00     0.074 A 
ATOM     64  C   UNL A   1      44.611  25.976  31.172  1.00  0.00     0.031 C 
ATOM     65  C   UNL A   1      44.193  27.328  33.209  1.00  0.00     0.034 A 
BRANCH  52  66
ATOM     66  C   UNL A   1      40.605  31.810  35.499  1.00  0.00     0.023 A 
ATOM     67  C   UNL A   1      41.457  32.911  35.724  1.00  0.00     0.012 A 
ATOM     68  C   UNL A   1      39.465  31.644  36.310  1.00  0.00     0.148 A 
ATOM     69  C   UNL A   1      41.205  33.807  36.762  1.00  0.00     0.002 A 
ATOM     70  C   UNL A   1      39.194  32.568  37.313  1.00  0.00     0.091 A 
ATOM     71  F   UNL A   1      38.676  30.581  36.096  1.00  0.00    -0.205 F 
ATOM     72  C   UNL A   1      40.069  33.642  37.548  1.00  0.00     0.022 A 
BRANCH  70  73
ATOM     73  S   UNL A   1      37.714  32.490  38.329  1.00  0.00     0.127 S 
ATOM     74  O   UNL A   1      37.657  31.067  38.659  1.00  0.00    -0.237 OA
ATOM     75  O   UNL A   1      38.064  33.363  39.451  1.00  0.00    -0.237 OA
ATOM     76  O   UNL A   1      36.628  32.983  37.493  1.00  0.00    -0.744 OA
ENDBRANCH  70  73
ENDBRANCH  52  66
BRANCH  53  77
ATOM     77  C   UNL A   1      42.404  26.005  27.567  1.00  0.00     0.023 A 
ATOM     78  C   UNL A   1      43.125  26.566  26.494  1.00  0.00     0.012 A 
ATOM     79  C   UNL A   1      42.016  24.653  27.501  1.00  0.00     0.148 A 
ATOM     80  C   UNL A   1      43.425  25.806  25.364  1.00  0.00     0.002 A 
ATOM     81  C   UNL A   1      42.369  23.885  26.396  1.00  0.00     0.091 A 
ATOM     82  F   UNL A   1      41.325  24.140  28.527  1.00  0.00    -0.205 F 
ATOM     83  C   UNL A   1      43.057  24.464  25.319  1.00  0.00     0.022 A 
BRANCH  81  84
ATOM     84  S   UNL A   1      42.059  22.118  26.315  1.00  0.00     0.127 S 
ATOM     85  O   UNL A   1      40.631  22.076  26.023  1.00  0.00    -0.237 OA
ATOM     86  O   UNL A   1      42.929  21.707  25.212  1.00  0.00    -0.237 OA
ATOM     87  O   UNL A   1      42.456  21.591  27.615  1.00  0.00    -0.744 OA
ENDBRANCH  81  84
ENDBRANCH  53  77
BRANCH  65  88
ATOM     88  C   UNL A   1      45.369  26.650  33.860  1.00  0.00     0.023 A 
ATOM     89  C   UNL A   1      46.640  27.257  33.816  1.00  0.00     0.012 A 
ATOM     90  C   UNL A   1      45.199  25.453  34.582  1.00  0.00     0.148 A 
ATOM     91  C   UNL A   1      47.730  26.666  34.453  1.00  0.00     0.002 A 
ATOM     92  C   UNL A   1      46.279  24.894  35.255  1.00  0.00     0.091 A 
ATOM     93  F   UNL A   1      43.986  24.880  34.596  1.00  0.00    -0.205 F 
ATOM     94  C   UNL A   1      47.547  25.493  35.181  1.00  0.00     0.022 A 
BRANCH  92  95
ATOM     95  S   UNL A   1      46.113  23.439  36.296  1.00  0.00     0.127 S 
ATOM     96  O   UNL A   1      47.511  23.061  36.503  1.00  0.00    -0.237 OA
ATOM     97  O   UNL A   1      45.446  23.979  37.481  1.00  0.00    -0.237 OA
ATOM     98  O   UNL A   1      45.313  22.491  35.533  1.00  0.00    -0.744 OA
ENDBRANCH  92  95
ENDBRANCH  65  88
ENDBRANCH  39  40
ENDBRANCH  31  34
ENDBRANCH  29  30
ENDBRANCH   1  29
TORSDOF 16
ENDMDL
MODEL 3
REMARK VINA RESULT:     -12.9      5.005     10.433
REMARK SMILES C[C@H](NC(=O)c1c(C(=O)NCCCNC(=O)c2ccc(-c3c4nc(c(-c5cccc(S(=O)(=O)[O-])c5F)c5ccc([nH]5)c(-c5cccc(S(=O)(=O)[O-])c5F)c5nc(c(-c6cccc(S(=O)(=O)[O-])c6F)c6ccc3[nH]6)C=C5)C=C4)cc2)cnn1C)[C@]12C[C@H]3C[C@H](C[C@H](C3)C1)C2
REMARK SMILES IDX 12 1 11 2 10 3 8 4 9 5 7 7 6 8 82 9 80 10 81 11 83 12 4 13
REMARK SMILES IDX 3 14 5 16 2 17 1 18 84 19 85 20 92 21 93 22 86 23 90 24
REMARK SMILES IDX 88 25 87 26 91 27 89 28 13 29 14 30 15 31 16 33 17 34 18 35
REMARK SMILES IDX 79 36 19 37 78 38 20 39 21 40 22 41 72 42 23 43 77 44 71 45
REMARK SMILES IDX 73 46 24 47 76 48 70 49 69 50 25 52 57 53 37 54 56 55 38 56
REMARK SMILES IDX 41 57 55 58 74 59 39 60 40 61 54 63 75 64 42 65 26 66 27 67
REMARK SMILES IDX 35 68 28 69 30 70 36 71 29 72 31 73 32 74 33 75 34 76 58 77
REMARK SMILES IDX 59 78 67 79 60 80 62 81 68 82 61 83 63 84 64 85 65 86 66 87
REMARK SMILES IDX 43 88 44 89 52 90 45 91 47 92 53 93 46 94 48 95 49 96 50 97
REMARK SMILES IDX 51 98
REMARK H PARENT 10 6 3 15 14 32 73 51 41 62
REMARK Flexibility Score: inf
ROOT
ATOM      1  C   UNL A   1      36.455  22.460  24.321  1.00  0.00     0.042 C 
ENDROOT
BRANCH   1   2
ATOM      2  C   UNL A   1      34.993  22.210  23.983  1.00  0.00     0.118 C 
BRANCH   2   3
ATOM      3  N   UNL A   1      34.526  23.099  22.948  1.00  0.00    -0.352 N 
ATOM      4  C   UNL A   1      33.880  24.300  22.927  1.00  0.00     0.255 C 
ATOM      5  O   UNL A   1      33.732  24.759  21.788  1.00  0.00    -0.269 OA
ATOM      6  H   UNL A   1      34.718  22.759  22.044  1.00  0.00     0.163 HD
BRANCH   4   7
ATOM      7  C   UNL A   1      33.405  25.074  24.071  1.00  0.00     0.090 A 
ATOM      8  C   UNL A   1      32.233  25.722  24.475  1.00  0.00     0.138 A 
ATOM      9  N   UNL A   1      32.489  26.204  25.740  1.00  0.00    -0.262 N 
ATOM     10  C   UNL A   1      34.304  25.357  25.146  1.00  0.00     0.149 A 
ATOM     11  N   UNL A   1      33.756  26.037  26.147  1.00  0.00    -0.180 NA
ATOM     12  C   UNL A   1      31.600  26.954  26.599  1.00  0.00     0.174 C 
BRANCH   8  13
ATOM     13  C   UNL A   1      30.934  25.882  23.892  1.00  0.00     0.270 C 
ATOM     14  N   UNL A   1      30.552  27.076  23.330  1.00  0.00    -0.348 N 
ATOM     15  H   UNL A   1      29.794  26.979  22.709  1.00  0.00     0.164 HD
ATOM     16  O   UNL A   1      30.113  24.967  23.900  1.00  0.00    -0.267 OA
BRANCH  14  17
ATOM     17  C   UNL A   1      31.025  28.474  23.450  1.00  0.00     0.085 C 
ATOM     18  C   UNL A   1      32.355  28.759  22.750  1.00  0.00     0.031 C 
BRANCH  17  19
ATOM     19  C   UNL A   1      29.884  29.510  23.082  1.00  0.00    -0.009 C 
ATOM     20  C   UNL A   1      28.464  28.882  23.100  1.00  0.00     0.012 C 
ATOM     21  C   UNL A   1      30.109  30.111  21.663  1.00  0.00     0.012 C 
ATOM     22  C   UNL A   1      29.874  30.691  24.099  1.00  0.00     0.012 C 
ATOM     23  C   UNL A   1      27.385  29.922  22.729  1.00  0.00    -0.010 C 
ATOM     24  C   UNL A   1      29.046  31.151  21.299  1.00  0.00    -0.010 C 
ATOM     25  C   UNL A   1      28.808  31.743  23.727  1.00  0.00    -0.010 C 
ATOM     26  C   UNL A   1      27.418  31.086  23.735  1.00  0.00     0.007 C 
ATOM     27  C   UNL A   1      27.667  30.476  21.325  1.00  0.00     0.007 C 
ATOM     28  C   UNL A   1      29.099  32.290  22.322  1.00  0.00     0.007 C 
ENDBRANCH  17  19
ENDBRANCH  14  17
ENDBRANCH   8  13
ENDBRANCH   4   7
ENDBRANCH   2   3
ENDBRANCH   1   2
BRANCH   1  29
ATOM     29  C   UNL A   1      36.776  22.250  25.794  1.00  0.00     0.118 C 
BRANCH  29  30
ATOM     30  N   UNL A   1      37.878  21.315  25.990  1.00  0.00    -0.352 N 
ATOM     31  C   UNL A   1      39.208  21.519  26.268  1.00  0.00     0.251 C 
ATOM     32  H   UNL A   1      37.623  20.367  25.910  1.00  0.00     0.163 HD
ATOM     33  O   UNL A   1      39.987  20.575  26.156  1.00  0.00    -0.269 OA
BRANCH  31  34
ATOM     34  C   UNL A   1      39.719  22.846  26.686  1.00  0.00     0.039 A 
ATOM     35  C   UNL A   1      40.681  22.913  27.700  1.00  0.00     0.014 A 
ATOM     36  C   UNL A   1      39.224  24.026  26.133  1.00  0.00     0.014 A 
ATOM     37  C   UNL A   1      41.183  24.153  28.108  1.00  0.00     0.010 A 
ATOM     38  C   UNL A   1      39.807  25.248  26.455  1.00  0.00     0.010 A 
ATOM     39  C   UNL A   1      40.777  25.332  27.462  1.00  0.00    -0.014 A 
BRANCH  39  40
ATOM     40  C   UNL A   1      41.333  26.661  27.829  1.00  0.00     0.031 A 
ATOM     41  C   UNL A   1      42.774  26.991  27.530  1.00  0.00     0.074 A 
ATOM     42  C   UNL A   1      40.572  27.535  28.520  1.00  0.00     0.049 A 
ATOM     43  N   UNL A   1      43.461  28.056  27.853  1.00  0.00    -0.248 NA
ATOM     44  C   UNL A   1      43.558  25.974  26.807  1.00  0.00     0.031 C 
ATOM     45  C   UNL A   1      39.193  27.301  28.952  1.00  0.00     0.029 A 
ATOM     46  N   UNL A   1      40.863  28.786  29.003  1.00  0.00    -0.354 N 
ATOM     47  C   UNL A   1      44.761  27.816  27.421  1.00  0.00     0.074 A 
ATOM     48  C   UNL A   1      44.777  26.489  26.849  1.00  0.00     0.031 C 
ATOM     49  C   UNL A   1      38.754  28.377  29.624  1.00  0.00     0.029 A 
ATOM     50  C   UNL A   1      39.826  29.363  29.700  1.00  0.00     0.049 A 
ATOM     51  H   UNL A   1      41.731  29.230  28.865  1.00  0.00     0.167 HD
ATOM     52  C   UNL A   1      45.838  28.637  27.460  1.00  0.00     0.034 A 
ATOM     53  C   UNL A   1      39.749  30.551  30.333  1.00  0.00     0.034 A 
ATOM     54  C   UNL A   1      45.801  29.983  27.964  1.00  0.00     0.049 A 
ATOM     55  C   UNL A   1      40.936  31.475  30.297  1.00  0.00     0.074 A 
ATOM     56  C   UNL A   1      46.807  30.932  27.957  1.00  0.00     0.029 A 
ATOM     57  N   UNL A   1      44.699  30.572  28.563  1.00  0.00    -0.354 N 
ATOM     58  N   UNL A   1      42.109  31.290  29.741  1.00  0.00    -0.248 NA
ATOM     59  C   UNL A   1      40.776  32.787  30.941  1.00  0.00     0.031 C 
ATOM     60  C   UNL A   1      46.317  32.093  28.565  1.00  0.00     0.029 A 
ATOM     61  C   UNL A   1      44.999  31.871  28.932  1.00  0.00     0.049 A 
ATOM     62  H   UNL A   1      43.830  30.131  28.706  1.00  0.00     0.167 HD
ATOM     63  C   UNL A   1      42.815  32.471  29.938  1.00  0.00     0.074 A 
ATOM     64  C   UNL A   1      41.928  33.374  30.644  1.00  0.00     0.031 C 
ATOM     65  C   UNL A   1      44.088  32.777  29.583  1.00  0.00     0.034 A 
BRANCH  52  66
ATOM     66  C   UNL A   1      47.131  28.126  26.879  1.00  0.00     0.023 A 
ATOM     67  C   UNL A   1      48.145  27.660  27.743  1.00  0.00     0.012 A 
ATOM     68  C   UNL A   1      47.326  28.055  25.486  1.00  0.00     0.148 A 
ATOM     69  C   UNL A   1      49.346  27.170  27.232  1.00  0.00     0.002 A 
ATOM     70  C   UNL A   1      48.508  27.521  24.983  1.00  0.00     0.091 A 
ATOM     71  F   UNL A   1      46.362  28.520  24.679  1.00  0.00    -0.205 F 
ATOM     72  C   UNL A   1      49.523  27.092  25.854  1.00  0.00     0.022 A 
BRANCH  70  73
ATOM     73  S   UNL A   1      48.802  27.302  23.224  1.00  0.00     0.127 S 
ATOM     74  O   UNL A   1      50.262  27.352  23.160  1.00  0.00    -0.237 OA
ATOM     75  O   UNL A   1      48.227  25.978  22.979  1.00  0.00    -0.237 OA
ATOM     76  O   UNL A   1      48.108  28.397  22.562  1.00  0.00    -0.744 OA
ENDBRANCH  70  73
ENDBRANCH  52  66
BRANCH  53  77
ATOM     77  C   UNL A   1      38.473  30.962  30.983  1.00  0.00     0.023 A 
ATOM     78  C   UNL A   1      38.301  30.744  32.365  1.00  0.00     0.012 A 
ATOM     79  C   UNL A   1      37.450  31.601  30.257  1.00  0.00     0.148 A 
ATOM     80  C   UNL A   1      37.121  31.125  33.004  1.00  0.00     0.002 A 
ATOM     81  C   UNL A   1      36.300  32.031  30.911  1.00  0.00     0.091 A 
ATOM     82  F   UNL A   1      37.629  31.792  28.943  1.00  0.00    -0.205 F 
ATOM     83  C   UNL A   1      36.127  31.778  32.281  1.00  0.00     0.022 A 
BRANCH  81  84
ATOM     84  S   UNL A   1      35.032  33.000  30.090  1.00  0.00     0.127 S 
ATOM     85  O   UNL A   1      34.496  32.042  29.129  1.00  0.00    -0.237 OA
ATOM     86  O   UNL A   1      34.137  33.331  31.199  1.00  0.00    -0.237 OA
ATOM     87  O   UNL A   1      35.725  34.149  29.519  1.00  0.00    -0.744 OA
ENDBRANCH  81  84
ENDBRANCH  53  77
BRANCH  65  88
ATOM     88  C   UNL A   1      44.595  34.155  29.917  1.00  0.00     0.023 A 
ATOM     89  C   UNL A   1      45.315  34.364  31.111  1.00  0.00     0.012 A 
ATOM     90  C   UNL A   1      44.427  35.221  29.014  1.00  0.00     0.148 A 
ATOM     91  C   UNL A   1      45.832  35.623  31.414  1.00  0.00     0.002 A 
ATOM     92  C   UNL A   1      44.986  36.461  29.300  1.00  0.00     0.091 A 
ATOM     93  F   UNL A   1      43.722  35.007  27.894  1.00  0.00    -0.205 F 
ATOM     94  C   UNL A   1      45.678  36.666  30.505  1.00  0.00     0.022 A 
BRANCH  92  95
ATOM     95  S   UNL A   1      44.920  37.834  28.143  1.00  0.00     0.127 S 
ATOM     96  O   UNL A   1      43.492  38.148  28.134  1.00  0.00    -0.237 OA
ATOM     97  O   UNL A   1      45.761  38.835  28.800  1.00  0.00    -0.237 OA
ATOM     98  O   UNL A   1      45.459  37.325  26.889  1.00  0.00    -0.744 OA
ENDBRANCH  92  95
ENDBRANCH  65  88
ENDBRANCH  39  40
ENDBRANCH  31  34
ENDBRANCH  29  30
ENDBRANCH   1  29
TORSDOF 16
ENDMDL
