MODEL 1
REMARK VINA RESULT:     -12.5      0.000      0.000
REMARK SMILES COc1ccc(OC)c(Nc2c(-c3ccc(C(=O)NCCCNC(=O)c4ccc(-c5c6nc(c(-c7cccc(S(=O)(=O)[O-])c7F)c7ccc([nH]7)c(-c7cccc(S(=O)(=O)[O-])c7F)c7nc(c(-c8cccc(S(=O)(=O)[O-])c8F)c8ccc5[nH]8)C=C7)C=C6)cc4)cc3)nc3cnccn23)c1
REMARK SMILES IDX 20 1 19 2 17 3 18 4 16 6 13 7 14 8 90 9 15 10 89 11 12 12
REMARK SMILES IDX 11 13 97 14 91 15 92 16 96 17 93 18 95 19 94 20 10 21 9 23
REMARK SMILES IDX 3 24 4 25 98 26 5 27 6 28 2 29 1 30 7 31 8 32 21 33 22 34
REMARK SMILES IDX 23 35 24 36 25 38 26 39 27 40 88 41 28 42 87 43 29 44 30 45
REMARK SMILES IDX 31 46 81 47 32 48 86 49 80 50 82 51 33 52 85 53 79 54 78 55
REMARK SMILES IDX 34 57 66 58 46 59 65 60 47 61 50 62 64 63 83 64 48 65 49 66
REMARK SMILES IDX 63 68 84 69 51 70 35 71 36 72 44 73 37 74 39 75 45 76 38 77
REMARK SMILES IDX 40 78 41 79 42 80 43 81 67 82 68 83 76 84 69 85 71 86 77 87
REMARK SMILES IDX 70 88 72 89 73 90 74 91 75 92 52 93 53 94 61 95 54 96 56 97
REMARK SMILES IDX 62 98 55 99 57 100 58 101 59 102 60 103
REMARK H PARENT 19 5 10 22 23 37 82 56 50 67
REMARK Flexibility Score: inf
ROOT
ATOM      1  C   UNL A   1      31.823  28.350  25.099  1.00  0.00     0.118 C 
ENDROOT
BRANCH   1   2
ATOM      2  N   UNL A   1      31.132  28.508  23.833  1.00  0.00    -0.352 N 
ATOM      3  C   UNL A   1      30.824  27.608  22.845  1.00  0.00     0.251 C 
ATOM      4  O   UNL A   1      30.135  28.004  21.905  1.00  0.00    -0.269 OA
ATOM      5  H   UNL A   1      30.828  29.427  23.651  1.00  0.00     0.163 HD
BRANCH   3   6
ATOM      6  C   UNL A   1      31.242  26.177  22.886  1.00  0.00     0.039 A 
ATOM      7  C   UNL A   1      31.889  23.441  23.046  1.00  0.00     0.004 A 
ATOM      8  C   UNL A   1      30.665  23.901  23.540  1.00  0.00     0.011 A 
ATOM      9  C   UNL A   1      32.775  24.342  22.458  1.00  0.00     0.011 A 
ATOM     10  C   UNL A   1      30.349  25.262  23.465  1.00  0.00     0.014 A 
ATOM     11  C   UNL A   1      32.435  25.690  22.347  1.00  0.00     0.014 A 
BRANCH   7  12
ATOM     12  C   UNL A   1      32.245  22.042  23.053  1.00  0.00     0.114 A 
ATOM     13  C   UNL A   1      33.011  21.421  24.032  1.00  0.00     0.143 A 
ATOM     14  N   UNL A   1      32.862  20.078  23.764  1.00  0.00    -0.283 N 
ATOM     15  N   UNL A   1      31.819  21.150  22.093  1.00  0.00    -0.225 NA
ATOM     16  C   UNL A   1      32.239  19.990  22.542  1.00  0.00     0.157 A 
ATOM     17  C   UNL A   1      33.237  18.925  24.430  1.00  0.00     0.115 A 
ATOM     18  C   UNL A   1      32.117  18.699  21.929  1.00  0.00     0.158 A 
ATOM     19  C   UNL A   1      33.050  17.745  23.808  1.00  0.00     0.129 A 
ATOM     20  N   UNL A   1      32.521  17.610  22.532  1.00  0.00    -0.259 NA
BRANCH  13  21
ATOM     21  N   UNL A   1      33.608  21.916  25.138  1.00  0.00    -0.336 N 
ATOM     22  H   UNL A   1      33.062  21.851  25.953  1.00  0.00     0.168 HD
BRANCH  21  23
ATOM     23  C   UNL A   1      34.887  22.514  25.342  1.00  0.00     0.086 A 
ATOM     24  C   UNL A   1      37.301  21.874  25.391  1.00  0.00     0.121 A 
ATOM     25  C   UNL A   1      37.642  23.187  25.639  1.00  0.00     0.050 A 
ATOM     26  C   UNL A   1      35.952  21.553  25.230  1.00  0.00     0.076 A 
ATOM     27  C   UNL A   1      36.642  24.147  25.717  1.00  0.00     0.052 A 
ATOM     28  C   UNL A   1      35.263  23.849  25.585  1.00  0.00     0.142 A 
BRANCH  24  29
ATOM     29  O   UNL A   1      38.353  21.005  25.386  1.00  0.00    -0.497 OA
ATOM     30  C   UNL A   1      38.088  19.682  24.941  1.00  0.00     0.278 C 
ENDBRANCH  24  29
BRANCH  28  31
ATOM     31  O   UNL A   1      34.615  25.027  25.781  1.00  0.00    -0.495 OA
ATOM     32  C   UNL A   1      33.263  25.195  26.101  1.00  0.00     0.278 C 
ENDBRANCH  28  31
ENDBRANCH  21  23
ENDBRANCH  13  21
ENDBRANCH   7  12
ENDBRANCH   3   6
ENDBRANCH   1   2
BRANCH   1  33
ATOM     33  C   UNL A   1      33.299  28.718  24.973  1.00  0.00     0.042 C 
BRANCH  33  34
ATOM     34  C   UNL A   1      33.977  28.918  26.320  1.00  0.00     0.118 C 
BRANCH  34  35
ATOM     35  N   UNL A   1      33.982  30.320  26.718  1.00  0.00    -0.352 N 
ATOM     36  C   UNL A   1      34.801  30.963  27.615  1.00  0.00     0.251 C 
ATOM     37  H   UNL A   1      33.303  30.886  26.283  1.00  0.00     0.163 HD
ATOM     38  O   UNL A   1      34.520  32.088  28.005  1.00  0.00    -0.269 OA
BRANCH  36  39
ATOM     39  C   UNL A   1      36.015  30.280  28.105  1.00  0.00     0.039 A 
ATOM     40  C   UNL A   1      37.177  30.304  27.327  1.00  0.00     0.014 A 
ATOM     41  C   UNL A   1      35.999  29.618  29.334  1.00  0.00     0.014 A 
ATOM     42  C   UNL A   1      38.343  29.708  27.812  1.00  0.00     0.010 A 
ATOM     43  C   UNL A   1      37.179  29.101  29.850  1.00  0.00     0.010 A 
ATOM     44  C   UNL A   1      38.358  29.130  29.090  1.00  0.00    -0.014 A 
BRANCH  44  45
ATOM     45  C   UNL A   1      39.580  28.522  29.671  1.00  0.00     0.031 A 
ATOM     46  C   UNL A   1      40.302  29.236  30.778  1.00  0.00     0.074 A 
ATOM     47  C   UNL A   1      40.115  27.423  29.105  1.00  0.00     0.049 A 
ATOM     48  N   UNL A   1      41.478  28.990  31.292  1.00  0.00    -0.248 NA
ATOM     49  C   UNL A   1      39.628  30.413  31.353  1.00  0.00     0.031 C 
ATOM     50  C   UNL A   1      39.537  26.683  27.982  1.00  0.00     0.029 A 
ATOM     51  N   UNL A   1      41.293  26.769  29.365  1.00  0.00    -0.354 N 
ATOM     52  C   UNL A   1      41.711  30.012  32.203  1.00  0.00     0.074 A 
ATOM     53  C   UNL A   1      40.567  30.894  32.153  1.00  0.00     0.031 C 
ATOM     54  C   UNL A   1      40.371  25.691  27.634  1.00  0.00     0.029 A 
ATOM     55  C   UNL A   1      41.562  25.753  28.478  1.00  0.00     0.049 A 
ATOM     56  H   UNL A   1      41.890  27.004  30.113  1.00  0.00     0.167 HD
ATOM     57  C   UNL A   1      42.777  30.193  33.017  1.00  0.00     0.034 A 
ATOM     58  C   UNL A   1      42.657  24.979  28.336  1.00  0.00     0.034 A 
ATOM     59  C   UNL A   1      43.891  29.287  33.085  1.00  0.00     0.049 A 
ATOM     60  C   UNL A   1      43.812  25.167  29.280  1.00  0.00     0.074 A 
ATOM     61  C   UNL A   1      44.970  29.315  33.948  1.00  0.00     0.029 A 
ATOM     62  N   UNL A   1      44.075  28.198  32.246  1.00  0.00    -0.354 N 
ATOM     63  N   UNL A   1      43.956  26.051  30.237  1.00  0.00    -0.248 NA
ATOM     64  C   UNL A   1      44.940  24.233  29.152  1.00  0.00     0.031 C 
ATOM     65  C   UNL A   1      45.827  28.267  33.604  1.00  0.00     0.029 A 
ATOM     66  C   UNL A   1      45.258  27.555  32.559  1.00  0.00     0.049 A 
ATOM     67  H   UNL A   1      43.454  27.924  31.532  1.00  0.00     0.167 HD
ATOM     68  C   UNL A   1      45.167  25.756  30.853  1.00  0.00     0.074 A 
ATOM     69  C   UNL A   1      45.716  24.608  30.160  1.00  0.00     0.031 C 
ATOM     70  C   UNL A   1      45.765  26.380  31.896  1.00  0.00     0.034 A 
BRANCH  57  71
ATOM     71  C   UNL A   1      42.777  31.406  33.910  1.00  0.00     0.023 A 
ATOM     72  C   UNL A   1      43.342  32.617  33.459  1.00  0.00     0.012 A 
ATOM     73  C   UNL A   1      42.195  31.354  35.193  1.00  0.00     0.148 A 
ATOM     74  C   UNL A   1      43.377  33.738  34.287  1.00  0.00     0.002 A 
ATOM     75  C   UNL A   1      42.185  32.491  35.991  1.00  0.00     0.091 A 
ATOM     76  F   UNL A   1      41.681  30.190  35.616  1.00  0.00    -0.205 F 
ATOM     77  C   UNL A   1      42.792  33.678  35.549  1.00  0.00     0.022 A 
BRANCH  75  78
ATOM     78  S   UNL A   1      41.377  32.535  37.595  1.00  0.00     0.127 S 
ATOM     79  O   UNL A   1      40.022  32.102  37.255  1.00  0.00    -0.237 OA
ATOM     80  O   UNL A   1      42.156  31.559  38.359  1.00  0.00    -0.237 OA
ATOM     81  O   UNL A   1      41.499  33.907  38.066  1.00  0.00    -0.744 OA
ENDBRANCH  75  78
ENDBRANCH  57  71
BRANCH  58  82
ATOM     82  C   UNL A   1      42.678  23.931  27.279  1.00  0.00     0.023 A 
ATOM     83  C   UNL A   1      43.341  24.185  26.063  1.00  0.00     0.012 A 
ATOM     84  C   UNL A   1      42.112  22.660  27.501  1.00  0.00     0.148 A 
ATOM     85  C   UNL A   1      43.423  23.200  25.079  1.00  0.00     0.002 A 
ATOM     86  C   UNL A   1      42.245  21.665  26.539  1.00  0.00     0.091 A 
ATOM     87  F   UNL A   1      41.486  22.440  28.666  1.00  0.00    -0.205 F 
ATOM     88  C   UNL A   1      42.886  21.938  25.321  1.00  0.00     0.022 A 
BRANCH  86  89
ATOM     89  S   UNL A   1      41.710  19.973  26.816  1.00  0.00     0.127 S 
ATOM     90  O   UNL A   1      41.622  19.459  25.451  1.00  0.00    -0.237 OA
ATOM     91  O   UNL A   1      42.816  19.436  27.608  1.00  0.00    -0.237 OA
ATOM     92  O   UNL A   1      40.445  20.067  27.534  1.00  0.00    -0.744 OA
ENDBRANCH  86  89
ENDBRANCH  58  82
BRANCH  70  93
ATOM     93  C   UNL A   1      47.059  25.812  32.416  1.00  0.00     0.023 A 
ATOM     94  C   UNL A   1      48.291  26.298  31.940  1.00  0.00     0.012 A 
ATOM     95  C   UNL A   1      47.041  24.883  33.476  1.00  0.00     0.148 A 
ATOM     96  C   UNL A   1      49.488  25.856  32.503  1.00  0.00     0.002 A 
ATOM     97  C   UNL A   1      48.234  24.489  34.067  1.00  0.00     0.091 A 
ATOM     98  F   UNL A   1      45.856  24.422  33.900  1.00  0.00    -0.205 F 
ATOM     99  C   UNL A   1      49.460  24.966  33.574  1.00  0.00     0.022 A 
BRANCH  97 100
ATOM    100  S   UNL A   1      48.289  23.432  35.518  1.00  0.00     0.127 S 
ATOM    101  O   UNL A   1      49.727  23.344  35.768  1.00  0.00    -0.237 OA
ATOM    102  O   UNL A   1      47.546  24.221  36.500  1.00  0.00    -0.237 OA
ATOM    103  O   UNL A   1      47.650  22.181  35.134  1.00  0.00    -0.744 OA
ENDBRANCH  97 100
ENDBRANCH  70  93
ENDBRANCH  44  45
ENDBRANCH  36  39
ENDBRANCH  34  35
ENDBRANCH  33  34
ENDBRANCH   1  33
TORSDOF 18
ENDMDL
MODEL 2
REMARK VINA RESULT:     -12.1      1.968      7.618
REMARK SMILES COc1ccc(OC)c(Nc2c(-c3ccc(C(=O)NCCCNC(=O)c4ccc(-c5c6nc(c(-c7cccc(S(=O)(=O)[O-])c7F)c7ccc([nH]7)c(-c7cccc(S(=O)(=O)[O-])c7F)c7nc(c(-c8cccc(S(=O)(=O)[O-])c8F)c8ccc5[nH]8)C=C7)C=C6)cc4)cc3)nc3cnccn23)c1
REMARK SMILES IDX 20 1 19 2 17 3 18 4 16 6 13 7 14 8 90 9 15 10 89 11 12 12
REMARK SMILES IDX 11 13 97 14 91 15 92 16 96 17 93 18 95 19 94 20 10 21 9 23
REMARK SMILES IDX 3 24 4 25 98 26 5 27 6 28 2 29 1 30 7 31 8 32 21 33 22 34
REMARK SMILES IDX 23 35 24 36 25 38 26 39 27 40 88 41 28 42 87 43 29 44 30 45
REMARK SMILES IDX 31 46 81 47 32 48 86 49 80 50 82 51 33 52 85 53 79 54 78 55
REMARK SMILES IDX 34 57 66 58 46 59 65 60 47 61 50 62 64 63 83 64 48 65 49 66
REMARK SMILES IDX 63 68 84 69 51 70 35 71 36 72 44 73 37 74 39 75 45 76 38 77
REMARK SMILES IDX 40 78 41 79 42 80 43 81 67 82 68 83 76 84 69 85 71 86 77 87
REMARK SMILES IDX 70 88 72 89 73 90 74 91 75 92 52 93 53 94 61 95 54 96 56 97
REMARK SMILES IDX 62 98 55 99 57 100 58 101 59 102 60 103
REMARK H PARENT 19 5 10 22 23 37 82 56 50 67
REMARK Flexibility Score: inf
ROOT
ATOM      1  C   UNL A   1      31.468  27.854  25.446  1.00  0.00     0.118 C 
ENDROOT
BRANCH   1   2
ATOM      2  N   UNL A   1      31.012  28.154  24.101  1.00  0.00    -0.352 N 
ATOM      3  C   UNL A   1      30.816  27.352  23.007  1.00  0.00     0.251 C 
ATOM      4  O   UNL A   1      30.323  27.866  22.002  1.00  0.00    -0.269 OA
ATOM      5  H   UNL A   1      30.805  29.105  23.948  1.00  0.00     0.163 HD
BRANCH   3   6
ATOM      6  C   UNL A   1      31.125  25.893  22.998  1.00  0.00     0.039 A 
ATOM      7  C   UNL A   1      31.845  23.172  22.896  1.00  0.00     0.004 A 
ATOM      8  C   UNL A   1      32.693  24.142  22.355  1.00  0.00     0.011 A 
ATOM      9  C   UNL A   1      30.652  23.564  23.503  1.00  0.00     0.011 A 
ATOM     10  C   UNL A   1      32.330  25.493  22.401  1.00  0.00     0.014 A 
ATOM     11  C   UNL A   1      30.317  24.915  23.584  1.00  0.00     0.014 A 
BRANCH   7  12
ATOM     12  C   UNL A   1      32.192  21.771  22.920  1.00  0.00     0.114 A 
ATOM     13  C   UNL A   1      32.865  21.136  23.956  1.00  0.00     0.143 A 
ATOM     14  N   UNL A   1      32.735  19.796  23.661  1.00  0.00    -0.283 N 
ATOM     15  N   UNL A   1      31.849  20.892  21.916  1.00  0.00    -0.225 NA
ATOM     16  C   UNL A   1      32.222  19.725  22.388  1.00  0.00     0.157 A 
ATOM     17  C   UNL A   1      33.043  18.634  24.345  1.00  0.00     0.115 A 
ATOM     18  C   UNL A   1      32.148  18.441  21.753  1.00  0.00     0.158 A 
ATOM     19  C   UNL A   1      32.907  17.462  23.696  1.00  0.00     0.129 A 
ATOM     20  N   UNL A   1      32.493  17.344  22.376  1.00  0.00    -0.259 NA
BRANCH  13  21
ATOM     21  N   UNL A   1      33.365  21.616  25.116  1.00  0.00    -0.336 N 
ATOM     22  H   UNL A   1      32.801  21.435  25.901  1.00  0.00     0.168 HD
BRANCH  21  23
ATOM     23  C   UNL A   1      34.561  22.334  25.412  1.00  0.00     0.086 A 
ATOM     24  C   UNL A   1      37.036  22.086  25.186  1.00  0.00     0.121 A 
ATOM     25  C   UNL A   1      37.210  23.331  25.752  1.00  0.00     0.050 A 
ATOM     26  C   UNL A   1      35.736  21.609  25.007  1.00  0.00     0.076 A 
ATOM     27  C   UNL A   1      36.097  24.074  26.121  1.00  0.00     0.052 A 
ATOM     28  C   UNL A   1      34.767  23.608  25.976  1.00  0.00     0.142 A 
BRANCH  24  29
ATOM     29  O   UNL A   1      38.195  21.420  24.910  1.00  0.00    -0.497 OA
ATOM     30  C   UNL A   1      38.207  20.023  25.171  1.00  0.00     0.278 C 
ENDBRANCH  24  29
BRANCH  28  31
ATOM     31  O   UNL A   1      33.980  24.583  26.501  1.00  0.00    -0.495 OA
ATOM     32  C   UNL A   1      32.581  24.617  26.507  1.00  0.00     0.278 C 
ENDBRANCH  28  31
ENDBRANCH  21  23
ENDBRANCH  13  21
ENDBRANCH   7  12
ENDBRANCH   3   6
ENDBRANCH   1   2
BRANCH   1  33
ATOM     33  C   UNL A   1      32.987  27.960  25.551  1.00  0.00     0.042 C 
BRANCH  33  34
ATOM     34  C   UNL A   1      33.521  29.306  25.085  1.00  0.00     0.118 C 
BRANCH  34  35
ATOM     35  N   UNL A   1      32.813  30.413  25.715  1.00  0.00    -0.352 N 
ATOM     36  C   UNL A   1      33.106  31.079  26.880  1.00  0.00     0.251 C 
ATOM     37  H   UNL A   1      32.010  30.728  25.238  1.00  0.00     0.163 HD
ATOM     38  O   UNL A   1      32.280  31.826  27.386  1.00  0.00    -0.269 OA
BRANCH  36  39
ATOM     39  C   UNL A   1      34.424  30.877  27.516  1.00  0.00     0.039 A 
ATOM     40  C   UNL A   1      35.304  31.958  27.629  1.00  0.00     0.014 A 
ATOM     41  C   UNL A   1      34.783  29.618  28.001  1.00  0.00     0.014 A 
ATOM     42  C   UNL A   1      36.527  31.785  28.280  1.00  0.00     0.010 A 
ATOM     43  C   UNL A   1      35.959  29.469  28.720  1.00  0.00     0.010 A 
ATOM     44  C   UNL A   1      36.849  30.547  28.856  1.00  0.00    -0.014 A 
BRANCH  44  45
ATOM     45  C   UNL A   1      38.114  30.321  29.596  1.00  0.00     0.031 A 
ATOM     46  C   UNL A   1      39.134  29.369  29.037  1.00  0.00     0.074 A 
ATOM     47  C   UNL A   1      38.275  30.847  30.825  1.00  0.00     0.049 A 
ATOM     48  N   UNL A   1      40.206  28.880  29.602  1.00  0.00    -0.248 NA
ATOM     49  C   UNL A   1      38.887  28.865  27.675  1.00  0.00     0.031 C 
ATOM     50  C   UNL A   1      37.322  31.732  31.497  1.00  0.00     0.029 A 
ATOM     51  N   UNL A   1      39.274  30.670  31.749  1.00  0.00    -0.354 N 
ATOM     52  C   UNL A   1      40.726  27.968  28.692  1.00  0.00     0.074 A 
ATOM     53  C   UNL A   1      39.839  27.953  27.550  1.00  0.00     0.031 C 
ATOM     54  C   UNL A   1      37.770  32.002  32.733  1.00  0.00     0.029 A 
ATOM     55  C   UNL A   1      39.016  31.275  32.956  1.00  0.00     0.049 A 
ATOM     56  H   UNL A   1      40.095  30.157  31.566  1.00  0.00     0.167 HD
ATOM     57  C   UNL A   1      41.849  27.219  28.794  1.00  0.00     0.034 A 
ATOM     58  C   UNL A   1      39.688  31.224  34.124  1.00  0.00     0.034 A 
ATOM     59  C   UNL A   1      42.743  27.273  29.918  1.00  0.00     0.049 A 
ATOM     60  C   UNL A   1      40.958  30.422  34.202  1.00  0.00     0.074 A 
ATOM     61  C   UNL A   1      43.962  26.640  30.078  1.00  0.00     0.029 A 
ATOM     62  N   UNL A   1      42.507  27.989  31.081  1.00  0.00    -0.354 N 
ATOM     63  N   UNL A   1      41.517  29.676  33.280  1.00  0.00    -0.248 NA
ATOM     64  C   UNL A   1      41.709  30.480  35.464  1.00  0.00     0.031 C 
ATOM     65  C   UNL A   1      44.443  26.941  31.355  1.00  0.00     0.029 A 
ATOM     66  C   UNL A   1      43.548  27.802  31.972  1.00  0.00     0.049 A 
ATOM     67  H   UNL A   1      41.714  28.548  31.249  1.00  0.00     0.167 HD
ATOM     68  C   UNL A   1      42.704  29.210  33.832  1.00  0.00     0.074 A 
ATOM     69  C   UNL A   1      42.785  29.760  35.171  1.00  0.00     0.031 C 
ATOM     70  C   UNL A   1      43.640  28.401  33.279  1.00  0.00     0.034 A 
BRANCH  57  71
ATOM     71  C   UNL A   1      42.179  26.296  27.651  1.00  0.00     0.023 A 
ATOM     72  C   UNL A   1      42.870  26.786  26.523  1.00  0.00     0.012 A 
ATOM     73  C   UNL A   1      41.825  24.932  27.702  1.00  0.00     0.148 A 
ATOM     74  C   UNL A   1      43.154  25.950  25.444  1.00  0.00     0.002 A 
ATOM     75  C   UNL A   1      42.160  24.094  26.646  1.00  0.00     0.091 A 
ATOM     76  F   UNL A   1      41.150  24.486  28.771  1.00  0.00    -0.205 F 
ATOM     77  C   UNL A   1      42.806  24.604  25.509  1.00  0.00     0.022 A 
BRANCH  75  78
ATOM     78  S   UNL A   1      41.833  22.328  26.678  1.00  0.00     0.127 S 
ATOM     79  O   UNL A   1      40.378  22.299  26.821  1.00  0.00    -0.237 OA
ATOM     80  O   UNL A   1      42.326  21.900  25.368  1.00  0.00    -0.237 OA
ATOM     81  O   UNL A   1      42.586  21.803  27.808  1.00  0.00    -0.744 OA
ENDBRANCH  75  78
ENDBRANCH  57  71
BRANCH  58  82
ATOM     82  C   UNL A   1      39.183  31.996  35.292  1.00  0.00     0.023 A 
ATOM     83  C   UNL A   1      38.288  31.386  36.192  1.00  0.00     0.012 A 
ATOM     84  C   UNL A   1      39.641  33.302  35.556  1.00  0.00     0.148 A 
ATOM     85  C   UNL A   1      37.843  32.069  37.324  1.00  0.00     0.002 A 
ATOM     86  C   UNL A   1      39.237  33.956  36.715  1.00  0.00     0.091 A 
ATOM     87  F   UNL A   1      40.492  33.863  34.686  1.00  0.00    -0.205 F 
ATOM     88  C   UNL A   1      38.325  33.348  37.591  1.00  0.00     0.022 A 
BRANCH  86  89
ATOM     89  S   UNL A   1      39.910  35.545  37.213  1.00  0.00     0.127 S 
ATOM     90  O   UNL A   1      39.158  35.818  38.436  1.00  0.00    -0.237 OA
ATOM     91  O   UNL A   1      41.321  35.221  37.416  1.00  0.00    -0.237 OA
ATOM     92  O   UNL A   1      39.653  36.454  36.103  1.00  0.00    -0.744 OA
ENDBRANCH  86  89
ENDBRANCH  58  82
BRANCH  70  93
ATOM     93  C   UNL A   1      44.879  28.097  34.079  1.00  0.00     0.023 A 
ATOM     94  C   UNL A   1      45.981  28.973  34.043  1.00  0.00     0.012 A 
ATOM     95  C   UNL A   1      44.890  27.002  34.967  1.00  0.00     0.148 A 
ATOM     96  C   UNL A   1      47.082  28.755  34.871  1.00  0.00     0.002 A 
ATOM     97  C   UNL A   1      45.967  26.823  35.826  1.00  0.00     0.091 A 
ATOM     98  F   UNL A   1      43.838  26.173  34.969  1.00  0.00    -0.205 F 
ATOM     99  C   UNL A   1      47.068  27.692  35.772  1.00  0.00     0.022 A 
BRANCH  97 100
ATOM    100  S   UNL A   1      45.988  25.547  37.091  1.00  0.00     0.127 S 
ATOM    101  O   UNL A   1      47.307  25.746  37.692  1.00  0.00    -0.237 OA
ATOM    102  O   UNL A   1      44.865  25.940  37.942  1.00  0.00    -0.237 OA
ATOM    103  O   UNL A   1      45.810  24.282  36.394  1.00  0.00    -0.744 OA
ENDBRANCH  97 100
ENDBRANCH  70  93
ENDBRANCH  44  45
ENDBRANCH  36  39
ENDBRANCH  34  35
ENDBRANCH  33  34
ENDBRANCH   1  33
TORSDOF 18
ENDMDL
MODEL 3
REMARK VINA RESULT:     -11.9      1.323      2.222
REMARK SMILES COc1ccc(OC)c(Nc2c(-c3ccc(C(=O)NCCCNC(=O)c4ccc(-c5c6nc(c(-c7cccc(S(=O)(=O)[O-])c7F)c7ccc([nH]7)c(-c7cccc(S(=O)(=O)[O-])c7F)c7nc(c(-c8cccc(S(=O)(=O)[O-])c8F)c8ccc5[nH]8)C=C7)C=C6)cc4)cc3)nc3cnccn23)c1
REMARK SMILES IDX 20 1 19 2 17 3 18 4 16 6 13 7 14 8 90 9 15 10 89 11 12 12
REMARK SMILES IDX 11 13 97 14 91 15 92 16 96 17 93 18 95 19 94 20 10 21 9 23
REMARK SMILES IDX 3 24 4 25 98 26 5 27 6 28 2 29 1 30 7 31 8 32 21 33 22 34
REMARK SMILES IDX 23 35 24 36 25 38 26 39 27 40 88 41 28 42 87 43 29 44 30 45
REMARK SMILES IDX 31 46 81 47 32 48 86 49 80 50 82 51 33 52 85 53 79 54 78 55
REMARK SMILES IDX 34 57 66 58 46 59 65 60 47 61 50 62 64 63 83 64 48 65 49 66
REMARK SMILES IDX 63 68 84 69 51 70 35 71 36 72 44 73 37 74 39 75 45 76 38 77
REMARK SMILES IDX 40 78 41 79 42 80 43 81 67 82 68 83 76 84 69 85 71 86 77 87
REMARK SMILES IDX 70 88 72 89 73 90 74 91 75 92 52 93 53 94 61 95 54 96 56 97
REMARK SMILES IDX 62 98 55 99 57 100 58 101 59 102 60 103
REMARK H PARENT 19 5 10 22 23 37 82 56 50 67
REMARK Flexibility Score: inf
ROOT
ATOM      1  C   UNL A   1      32.425  26.867  26.229  1.00  0.00     0.118 C 
ENDROOT
BRANCH   1   2
ATOM      2  N   UNL A   1      31.010  26.597  26.406  1.00  0.00    -0.352 N 
ATOM      3  C   UNL A   1      30.299  25.425  26.396  1.00  0.00     0.251 C 
ATOM      4  O   UNL A   1      29.101  25.481  26.673  1.00  0.00    -0.269 OA
ATOM      5  H   UNL A   1      30.463  27.401  26.562  1.00  0.00     0.163 HD
BRANCH   3   6
ATOM      6  C   UNL A   1      30.918  24.097  26.117  1.00  0.00     0.039 A 
ATOM      7  C   UNL A   1      32.007  21.588  25.445  1.00  0.00     0.004 A 
ATOM      8  C   UNL A   1      31.189  22.263  24.534  1.00  0.00     0.011 A 
ATOM      9  C   UNL A   1      32.294  22.174  26.676  1.00  0.00     0.011 A 
ATOM     10  C   UNL A   1      30.644  23.507  24.874  1.00  0.00     0.014 A 
ATOM     11  C   UNL A   1      31.784  23.434  26.991  1.00  0.00     0.014 A 
BRANCH   7  12
ATOM     12  C   UNL A   1      32.634  20.327  25.128  1.00  0.00     0.114 A 
ATOM     13  C   UNL A   1      33.921  20.184  24.625  1.00  0.00     0.143 A 
ATOM     14  N   UNL A   1      34.168  18.832  24.733  1.00  0.00    -0.283 N 
ATOM     15  N   UNL A   1      32.025  19.109  25.335  1.00  0.00    -0.225 NA
ATOM     16  C   UNL A   1      32.969  18.241  25.055  1.00  0.00     0.157 A 
ATOM     17  C   UNL A   1      35.293  18.050  24.548  1.00  0.00     0.115 A 
ATOM     18  C   UNL A   1      32.894  16.808  25.056  1.00  0.00     0.158 A 
ATOM     19  C   UNL A   1      35.152  16.712  24.607  1.00  0.00     0.129 A 
ATOM     20  N   UNL A   1      33.944  16.063  24.826  1.00  0.00    -0.259 NA
BRANCH  13  21
ATOM     21  N   UNL A   1      34.852  21.104  24.293  1.00  0.00    -0.336 N 
ATOM     22  H   UNL A   1      35.733  20.723  24.076  1.00  0.00     0.168 HD
BRANCH  21  23
ATOM     23  C   UNL A   1      34.794  22.525  24.197  1.00  0.00     0.086 A 
ATOM     24  C   UNL A   1      33.872  24.295  22.694  1.00  0.00     0.121 A 
ATOM     25  C   UNL A   1      34.363  25.267  23.541  1.00  0.00     0.050 A 
ATOM     26  C   UNL A   1      34.072  22.954  23.028  1.00  0.00     0.076 A 
ATOM     27  C   UNL A   1      35.033  24.888  24.696  1.00  0.00     0.052 A 
ATOM     28  C   UNL A   1      35.275  23.537  25.050  1.00  0.00     0.142 A 
BRANCH  24  29
ATOM     29  O   UNL A   1      33.277  24.775  21.564  1.00  0.00    -0.497 OA
ATOM     30  C   UNL A   1      32.919  26.150  21.563  1.00  0.00     0.278 C 
ENDBRANCH  24  29
BRANCH  28  31
ATOM     31  O   UNL A   1      36.001  23.585  26.197  1.00  0.00    -0.495 OA
ATOM     32  C   UNL A   1      37.385  23.757  26.305  1.00  0.00     0.278 C 
ENDBRANCH  28  31
ENDBRANCH  21  23
ENDBRANCH  13  21
ENDBRANCH   7  12
ENDBRANCH   3   6
ENDBRANCH   1   2
BRANCH   1  33
ATOM     33  C   UNL A   1      32.663  28.313  25.799  1.00  0.00     0.042 C 
BRANCH  33  34
ATOM     34  C   UNL A   1      34.030  28.836  26.212  1.00  0.00     0.118 C 
BRANCH  34  35
ATOM     35  N   UNL A   1      33.956  30.207  26.702  1.00  0.00    -0.352 N 
ATOM     36  C   UNL A   1      34.734  30.834  27.646  1.00  0.00     0.251 C 
ATOM     37  H   UNL A   1      33.248  30.763  26.301  1.00  0.00     0.163 HD
ATOM     38  O   UNL A   1      34.390  31.912  28.108  1.00  0.00    -0.269 OA
BRANCH  36  39
ATOM     39  C   UNL A   1      35.983  30.187  28.098  1.00  0.00     0.039 A 
ATOM     40  C   UNL A   1      37.132  30.287  27.309  1.00  0.00     0.014 A 
ATOM     41  C   UNL A   1      36.011  29.485  29.305  1.00  0.00     0.014 A 
ATOM     42  C   UNL A   1      38.329  29.726  27.760  1.00  0.00     0.010 A 
ATOM     43  C   UNL A   1      37.218  29.003  29.790  1.00  0.00     0.010 A 
ATOM     44  C   UNL A   1      38.385  29.107  29.017  1.00  0.00    -0.014 A 
BRANCH  44  45
ATOM     45  C   UNL A   1      39.640  28.533  29.563  1.00  0.00     0.031 A 
ATOM     46  C   UNL A   1      40.355  29.250  30.673  1.00  0.00     0.074 A 
ATOM     47  C   UNL A   1      40.205  27.468  28.964  1.00  0.00     0.049 A 
ATOM     48  N   UNL A   1      41.548  29.037  31.161  1.00  0.00    -0.248 NA
ATOM     49  C   UNL A   1      39.647  30.388  31.286  1.00  0.00     0.031 C 
ATOM     50  C   UNL A   1      39.635  26.731  27.835  1.00  0.00     0.029 A 
ATOM     51  N   UNL A   1      41.411  26.853  29.189  1.00  0.00    -0.354 N 
ATOM     52  C   UNL A   1      41.759  30.048  32.090  1.00  0.00     0.074 A 
ATOM     53  C   UNL A   1      40.581  30.887  32.080  1.00  0.00     0.031 C 
ATOM     54  C   UNL A   1      40.499  25.779  27.451  1.00  0.00     0.029 A 
ATOM     55  C   UNL A   1      41.702  25.868  28.275  1.00  0.00     0.049 A 
ATOM     56  H   UNL A   1      42.012  27.095  29.931  1.00  0.00     0.167 HD
ATOM     57  C   UNL A   1      42.832  30.252  32.889  1.00  0.00     0.034 A 
ATOM     58  C   UNL A   1      42.822  25.139  28.096  1.00  0.00     0.034 A 
ATOM     59  C   UNL A   1      43.980  29.387  32.918  1.00  0.00     0.049 A 
ATOM     60  C   UNL A   1      43.986  25.350  29.024  1.00  0.00     0.074 A 
ATOM     61  C   UNL A   1      45.073  29.437  33.763  1.00  0.00     0.029 A 
ATOM     62  N   UNL A   1      44.189  28.325  32.052  1.00  0.00    -0.354 N 
ATOM     63  N   UNL A   1      44.114  26.218  29.998  1.00  0.00    -0.248 NA
ATOM     64  C   UNL A   1      45.145  24.462  28.856  1.00  0.00     0.031 C 
ATOM     65  C   UNL A   1      45.962  28.430  33.380  1.00  0.00     0.029 A 
ATOM     66  C   UNL A   1      45.401  27.720  32.330  1.00  0.00     0.049 A 
ATOM     67  H   UNL A   1      43.566  28.042  31.344  1.00  0.00     0.167 HD
ATOM     68  C   UNL A   1      45.346  25.956  30.586  1.00  0.00     0.074 A 
ATOM     69  C   UNL A   1      45.926  24.844  29.859  1.00  0.00     0.031 C 
ATOM     70  C   UNL A   1      45.940  26.580  31.633  1.00  0.00     0.034 A 
BRANCH  57  71
ATOM     71  C   UNL A   1      42.802  31.444  33.810  1.00  0.00     0.023 A 
ATOM     72  C   UNL A   1      43.327  32.682  33.381  1.00  0.00     0.012 A 
ATOM     73  C   UNL A   1      42.233  31.346  35.095  1.00  0.00     0.148 A 
ATOM     74  C   UNL A   1      43.335  33.785  34.234  1.00  0.00     0.002 A 
ATOM     75  C   UNL A   1      42.195  32.465  35.919  1.00  0.00     0.091 A 
ATOM     76  F   UNL A   1      41.758  30.159  35.496  1.00  0.00    -0.205 F 
ATOM     77  C   UNL A   1      42.763  33.679  35.498  1.00  0.00     0.022 A 
BRANCH  75  78
ATOM     78  S   UNL A   1      41.400  32.449  37.529  1.00  0.00     0.127 S 
ATOM     79  O   UNL A   1      42.224  31.486  38.257  1.00  0.00    -0.237 OA
ATOM     80  O   UNL A   1      41.557  33.838  37.963  1.00  0.00    -0.237 OA
ATOM     81  O   UNL A   1      40.022  32.044  37.290  1.00  0.00    -0.744 OA
ENDBRANCH  75  78
ENDBRANCH  57  71
BRANCH  58  82
ATOM     82  C   UNL A   1      42.863  24.115  27.016  1.00  0.00     0.023 A 
ATOM     83  C   UNL A   1      43.612  24.367  25.850  1.00  0.00     0.012 A 
ATOM     84  C   UNL A   1      42.229  22.867  27.171  1.00  0.00     0.148 A 
ATOM     85  C   UNL A   1      43.712  23.402  24.848  1.00  0.00     0.002 A 
ATOM     86  C   UNL A   1      42.378  21.889  26.194  1.00  0.00     0.091 A 
ATOM     87  F   UNL A   1      41.522  22.649  28.289  1.00  0.00    -0.205 F 
ATOM     88  C   UNL A   1      43.106  22.161  25.024  1.00  0.00     0.022 A 
BRANCH  86  89
ATOM     89  S   UNL A   1      41.752  20.217  26.394  1.00  0.00     0.127 S 
ATOM     90  O   UNL A   1      42.391  19.523  25.278  1.00  0.00    -0.237 OA
ATOM     91  O   UNL A   1      42.267  19.863  27.716  1.00  0.00    -0.237 OA
ATOM     92  O   UNL A   1      40.301  20.323  26.319  1.00  0.00    -0.744 OA
ENDBRANCH  86  89
ENDBRANCH  58  82
BRANCH  70  93
ATOM     93  C   UNL A   1      47.263  26.050  32.117  1.00  0.00     0.023 A 
ATOM     94  C   UNL A   1      48.466  26.542  31.578  1.00  0.00     0.012 A 
ATOM     95  C   UNL A   1      47.304  25.153  33.204  1.00  0.00     0.148 A 
ATOM     96  C   UNL A   1      49.693  26.138  32.106  1.00  0.00     0.002 A 
ATOM     97  C   UNL A   1      48.527  24.797  33.758  1.00  0.00     0.091 A 
ATOM     98  F   UNL A   1      46.145  24.685  33.688  1.00  0.00    -0.205 F 
ATOM     99  C   UNL A   1      49.723  25.281  33.204  1.00  0.00     0.022 A 
BRANCH  97 100
ATOM    100  S   UNL A   1      48.657  23.786  35.237  1.00  0.00     0.127 S 
ATOM    101  O   UNL A   1      48.209  24.715  36.274  1.00  0.00    -0.237 OA
ATOM    102  O   UNL A   1      47.724  22.698  34.949  1.00  0.00    -0.237 OA
ATOM    103  O   UNL A   1      50.053  23.381  35.330  1.00  0.00    -0.744 OA
ENDBRANCH  97 100
ENDBRANCH  70  93
ENDBRANCH  44  45
ENDBRANCH  36  39
ENDBRANCH  34  35
ENDBRANCH  33  34
ENDBRANCH   1  33
TORSDOF 18
ENDMDL
