MODEL 1
REMARK VINA RESULT:     -12.9      0.000      0.000
REMARK SMILES COc1cccc(NC(=O)[C@@H]2[C@@H](C(=O)NCCCNC(=O)c3ccc(-c4c5nc(c(-c6cccc(S(=O)(=O)[O-])c6F)c6ccc([nH]6)c(-c6cccc(S(=O)(=O)[O-])c6F)c6nc(c(-c7cccc(S(=O)(=O)[O-])c7F)c7ccc4[nH]7)C=C6)C=C5)cc3)[C@H]3C=C[C@@H]2C3)c1
REMARK SMILES IDX 17 1 16 2 15 3 13 4 14 5 12 7 11 8 88 9 85 10 87 11 89 12
REMARK SMILES IDX 86 13 9 14 8 15 10 17 7 18 3 19 4 20 90 21 5 22 6 23 2 24
REMARK SMILES IDX 1 25 18 26 19 27 20 28 21 30 22 31 23 32 84 33 24 34 83 35
REMARK SMILES IDX 25 36 26 37 27 38 77 39 28 40 82 41 76 42 78 43 29 44 81 45
REMARK SMILES IDX 75 46 74 47 30 49 62 50 42 51 61 52 43 53 46 54 60 55 79 56
REMARK SMILES IDX 44 57 45 58 59 60 80 61 47 62 31 63 32 64 40 65 33 66 35 67
REMARK SMILES IDX 41 68 34 69 36 70 37 71 38 72 39 73 63 74 64 75 72 76 65 77
REMARK SMILES IDX 67 78 73 79 66 80 68 81 69 82 70 83 71 84 48 85 49 86 57 87
REMARK SMILES IDX 50 88 52 89 58 90 51 91 53 92 54 93 55 94 56 95
REMARK H PARENT 15 6 8 16 19 29 78 48 46 59
REMARK Flexibility Score: inf
ROOT
ATOM      1  C   UNL A   1      36.556  20.837  25.049  1.00  0.00     0.042 C 
ENDROOT
BRANCH   1   2
ATOM      2  C   UNL A   1      35.450  21.326  25.960  1.00  0.00     0.117 C 
BRANCH   2   3
ATOM      3  N   UNL A   1      34.228  20.542  25.907  1.00  0.00    -0.356 N 
ATOM      4  C   UNL A   1      32.973  20.963  25.544  1.00  0.00     0.224 C 
ATOM      5  O   UNL A   1      32.065  20.139  25.469  1.00  0.00    -0.275 OA
ATOM      6  H   UNL A   1      34.309  19.596  26.164  1.00  0.00     0.163 HD
BRANCH   4   7
ATOM      7  C   UNL A   1      32.775  22.460  25.348  1.00  0.00     0.098 C 
ATOM      8  C   UNL A   1      31.330  22.949  25.176  1.00  0.00     0.099 C 
ATOM      9  C   UNL A   1      31.311  23.547  23.744  1.00  0.00     0.025 C 
ATOM     10  C   UNL A   1      33.448  23.012  24.046  1.00  0.00     0.025 C 
ATOM     11  C   UNL A   1      31.657  22.462  22.737  1.00  0.00    -0.027 C 
ATOM     12  C   UNL A   1      32.647  24.273  23.703  1.00  0.00     0.017 C 
ATOM     13  C   UNL A   1      32.957  22.166  22.897  1.00  0.00    -0.027 C 
BRANCH   8  14
ATOM     14  C   UNL A   1      30.825  23.942  26.228  1.00  0.00     0.228 C 
ATOM     15  N   UNL A   1      30.331  25.201  26.098  1.00  0.00    -0.326 N 
ATOM     16  H   UNL A   1      29.980  25.487  26.972  1.00  0.00     0.169 HD
ATOM     17  O   UNL A   1      30.731  23.504  27.391  1.00  0.00    -0.274 OA
BRANCH  15  18
ATOM     18  C   UNL A   1      30.135  26.257  25.172  1.00  0.00     0.044 A 
ATOM     19  C   UNL A   1      30.992  28.404  24.388  1.00  0.00     0.120 A 
ATOM     20  C   UNL A   1      29.933  28.561  23.507  1.00  0.00     0.046 A 
ATOM     21  C   UNL A   1      31.088  27.287  25.226  1.00  0.00     0.072 A 
ATOM     22  C   UNL A   1      29.015  27.538  23.397  1.00  0.00     0.006 A 
ATOM     23  C   UNL A   1      29.136  26.402  24.208  1.00  0.00     0.026 A 
BRANCH  19  24
ATOM     24  O   UNL A   1      31.962  29.367  24.445  1.00  0.00    -0.497 OA
ATOM     25  C   UNL A   1      31.861  30.061  25.693  1.00  0.00     0.278 C 
ENDBRANCH  19  24
ENDBRANCH  15  18
ENDBRANCH   8  14
ENDBRANCH   4   7
ENDBRANCH   2   3
ENDBRANCH   1   2
BRANCH   1  26
ATOM     26  C   UNL A   1      37.902  21.493  25.281  1.00  0.00     0.118 C 
BRANCH  26  27
ATOM     27  N   UNL A   1      38.893  20.592  25.856  1.00  0.00    -0.352 N 
ATOM     28  C   UNL A   1      40.043  20.858  26.567  1.00  0.00     0.251 C 
ATOM     29  H   UNL A   1      38.711  19.635  25.712  1.00  0.00     0.163 HD
ATOM     30  O   UNL A   1      40.809  19.945  26.835  1.00  0.00    -0.269 OA
BRANCH  28  31
ATOM     31  C   UNL A   1      40.365  22.247  26.974  1.00  0.00     0.039 A 
ATOM     32  C   UNL A   1      41.248  22.451  28.038  1.00  0.00     0.014 A 
ATOM     33  C   UNL A   1      39.812  23.342  26.312  1.00  0.00     0.014 A 
ATOM     34  C   UNL A   1      41.639  23.751  28.376  1.00  0.00     0.010 A 
ATOM     35  C   UNL A   1      40.292  24.621  26.568  1.00  0.00     0.010 A 
ATOM     36  C   UNL A   1      41.200  24.844  27.611  1.00  0.00    -0.014 A 
BRANCH  36  37
ATOM     37  C   UNL A   1      41.669  26.228  27.881  1.00  0.00     0.031 A 
ATOM     38  C   UNL A   1      43.081  26.629  27.532  1.00  0.00     0.074 A 
ATOM     39  C   UNL A   1      40.868  27.093  28.536  1.00  0.00     0.049 A 
ATOM     40  N   UNL A   1      43.703  27.752  27.773  1.00  0.00    -0.248 NA
ATOM     41  C   UNL A   1      43.913  25.619  26.855  1.00  0.00     0.031 C 
ATOM     42  C   UNL A   1      39.514  26.799  29.013  1.00  0.00     0.029 A 
ATOM     43  N   UNL A   1      41.086  28.386  28.942  1.00  0.00    -0.354 N 
ATOM     44  C   UNL A   1      45.005  27.571  27.322  1.00  0.00     0.074 A 
ATOM     45  C   UNL A   1      45.097  26.213  26.833  1.00  0.00     0.031 C 
ATOM     46  C   UNL A   1      39.021  27.879  29.637  1.00  0.00     0.029 A 
ATOM     47  C   UNL A   1      40.032  28.931  29.639  1.00  0.00     0.049 A 
ATOM     48  H   UNL A   1      41.918  28.877  28.753  1.00  0.00     0.167 HD
ATOM     49  C   UNL A   1      46.024  28.461  27.282  1.00  0.00     0.034 A 
ATOM     50  C   UNL A   1      39.898  30.140  30.221  1.00  0.00     0.034 A 
ATOM     51  C   UNL A   1      45.913  29.827  27.716  1.00  0.00     0.049 A 
ATOM     52  C   UNL A   1      41.024  31.131  30.112  1.00  0.00     0.074 A 
ATOM     53  C   UNL A   1      46.855  30.836  27.629  1.00  0.00     0.029 A 
ATOM     54  N   UNL A   1      44.793  30.374  28.321  1.00  0.00    -0.354 N 
ATOM     55  N   UNL A   1      42.194  30.990  29.536  1.00  0.00    -0.248 NA
ATOM     56  C   UNL A   1      40.800  32.461  30.698  1.00  0.00     0.031 C 
ATOM     57  C   UNL A   1      46.311  31.990  28.203  1.00  0.00     0.029 A 
ATOM     58  C   UNL A   1      45.021  31.706  28.621  1.00  0.00     0.049 A 
ATOM     59  H   UNL A   1      43.959  29.887  28.511  1.00  0.00     0.167 HD
ATOM     60  C   UNL A   1      42.830  32.220  29.659  1.00  0.00     0.074 A 
ATOM     61  C   UNL A   1      41.906  33.101  30.345  1.00  0.00     0.031 C 
ATOM     62  C   UNL A   1      44.071  32.584  29.255  1.00  0.00     0.034 A 
BRANCH  49  63
ATOM     63  C   UNL A   1      47.331  28.001  26.690  1.00  0.00     0.023 A 
ATOM     64  C   UNL A   1      48.381  27.604  27.544  1.00  0.00     0.012 A 
ATOM     65  C   UNL A   1      47.506  27.911  25.294  1.00  0.00     0.148 A 
ATOM     66  C   UNL A   1      49.598  27.166  27.022  1.00  0.00     0.002 A 
ATOM     67  C   UNL A   1      48.705  27.427  24.782  1.00  0.00     0.091 A 
ATOM     68  F   UNL A   1      46.506  28.311  24.497  1.00  0.00    -0.205 F 
ATOM     69  C   UNL A   1      49.755  27.068  25.642  1.00  0.00     0.022 A 
BRANCH  67  70
ATOM     70  S   UNL A   1      48.979  27.186  23.023  1.00  0.00     0.127 S 
ATOM     71  O   UNL A   1      48.231  25.954  22.774  1.00  0.00    -0.237 OA
ATOM     72  O   UNL A   1      48.378  28.391  22.450  1.00  0.00    -0.237 OA
ATOM     73  O   UNL A   1      50.421  27.086  22.851  1.00  0.00    -0.744 OA
ENDBRANCH  67  70
ENDBRANCH  49  63
BRANCH  50  74
ATOM     74  C   UNL A   1      38.620  30.499  30.900  1.00  0.00     0.023 A 
ATOM     75  C   UNL A   1      38.432  30.146  32.251  1.00  0.00     0.012 A 
ATOM     76  C   UNL A   1      37.608  31.215  30.231  1.00  0.00     0.148 A 
ATOM     77  C   UNL A   1      37.247  30.469  32.913  1.00  0.00     0.002 A 
ATOM     78  C   UNL A   1      36.454  31.582  30.912  1.00  0.00     0.091 A 
ATOM     79  F   UNL A   1      37.802  31.533  28.943  1.00  0.00    -0.205 F 
ATOM     80  C   UNL A   1      36.262  31.195  32.248  1.00  0.00     0.022 A 
BRANCH  78  81
ATOM     81  S   UNL A   1      35.197  32.636  30.178  1.00  0.00     0.127 S 
ATOM     82  O   UNL A   1      34.680  31.786  29.109  1.00  0.00    -0.237 OA
ATOM     83  O   UNL A   1      34.281  32.842  31.300  1.00  0.00    -0.237 OA
ATOM     84  O   UNL A   1      35.895  33.841  29.748  1.00  0.00    -0.744 OA
ENDBRANCH  78  81
ENDBRANCH  50  74
BRANCH  62  85
ATOM     85  C   UNL A   1      44.500  34.006  29.505  1.00  0.00     0.023 A 
ATOM     86  C   UNL A   1      45.114  34.350  30.725  1.00  0.00     0.012 A 
ATOM     87  C   UNL A   1      44.365  34.982  28.497  1.00  0.00     0.148 A 
ATOM     88  C   UNL A   1      45.557  35.653  30.952  1.00  0.00     0.002 A 
ATOM     89  C   UNL A   1      44.855  36.265  28.710  1.00  0.00     0.091 A 
ATOM     90  F   UNL A   1      43.762  34.639  27.350  1.00  0.00    -0.205 F 
ATOM     91  C   UNL A   1      45.440  36.605  29.941  1.00  0.00     0.022 A 
BRANCH  89  92
ATOM     92  S   UNL A   1      44.836  37.528  27.434  1.00  0.00     0.127 S 
ATOM     93  O   UNL A   1      45.825  37.013  26.490  1.00  0.00    -0.237 OA
ATOM     94  O   UNL A   1      43.453  37.470  26.960  1.00  0.00    -0.237 OA
ATOM     95  O   UNL A   1      45.195  38.774  28.098  1.00  0.00    -0.744 OA
ENDBRANCH  89  92
ENDBRANCH  62  85
ENDBRANCH  36  37
ENDBRANCH  28  31
ENDBRANCH  26  27
ENDBRANCH   1  26
TORSDOF 16
ENDMDL
MODEL 2
REMARK VINA RESULT:     -12.9      5.362      7.498
REMARK SMILES COc1cccc(NC(=O)[C@@H]2[C@@H](C(=O)NCCCNC(=O)c3ccc(-c4c5nc(c(-c6cccc(S(=O)(=O)[O-])c6F)c6ccc([nH]6)c(-c6cccc(S(=O)(=O)[O-])c6F)c6nc(c(-c7cccc(S(=O)(=O)[O-])c7F)c7ccc4[nH]7)C=C6)C=C5)cc3)[C@H]3C=C[C@@H]2C3)c1
REMARK SMILES IDX 17 1 16 2 15 3 13 4 14 5 12 7 11 8 88 9 85 10 87 11 89 12
REMARK SMILES IDX 86 13 9 14 8 15 10 17 7 18 3 19 4 20 90 21 5 22 6 23 2 24
REMARK SMILES IDX 1 25 18 26 19 27 20 28 21 30 22 31 23 32 84 33 24 34 83 35
REMARK SMILES IDX 25 36 26 37 27 38 77 39 28 40 82 41 76 42 78 43 29 44 81 45
REMARK SMILES IDX 75 46 74 47 30 49 62 50 42 51 61 52 43 53 46 54 60 55 79 56
REMARK SMILES IDX 44 57 45 58 59 60 80 61 47 62 31 63 32 64 40 65 33 66 35 67
REMARK SMILES IDX 41 68 34 69 36 70 37 71 38 72 39 73 63 74 64 75 72 76 65 77
REMARK SMILES IDX 67 78 73 79 66 80 68 81 69 82 70 83 71 84 48 85 49 86 57 87
REMARK SMILES IDX 50 88 52 89 58 90 51 91 53 92 54 93 55 94 56 95
REMARK H PARENT 15 6 8 16 19 29 78 48 46 59
REMARK Flexibility Score: inf
ROOT
ATOM      1  C   UNL A   1      32.020  27.984  25.779  1.00  0.00     0.042 C 
ENDROOT
BRANCH   1   2
ATOM      2  C   UNL A   1      32.860  26.999  26.564  1.00  0.00     0.117 C 
BRANCH   2   3
ATOM      3  N   UNL A   1      32.219  25.720  26.818  1.00  0.00    -0.356 N 
ATOM      4  C   UNL A   1      32.484  24.513  26.220  1.00  0.00     0.224 C 
ATOM      5  O   UNL A   1      31.905  23.507  26.622  1.00  0.00    -0.275 OA
ATOM      6  H   UNL A   1      31.508  25.718  27.498  1.00  0.00     0.163 HD
BRANCH   4   7
ATOM      7  C   UNL A   1      33.423  24.525  25.021  1.00  0.00     0.098 C 
ATOM      8  C   UNL A   1      33.194  23.447  23.953  1.00  0.00     0.099 C 
ATOM      9  C   UNL A   1      34.502  22.612  23.984  1.00  0.00     0.025 C 
ATOM     10  C   UNL A   1      34.921  24.274  25.401  1.00  0.00     0.025 C 
ATOM     11  C   UNL A   1      34.679  22.001  25.365  1.00  0.00    -0.027 C 
ATOM     12  C   UNL A   1      35.552  23.703  24.125  1.00  0.00     0.017 C 
ATOM     13  C   UNL A   1      34.968  23.002  26.212  1.00  0.00    -0.027 C 
BRANCH   8  14
ATOM     14  C   UNL A   1      32.860  23.954  22.545  1.00  0.00     0.228 C 
ATOM     15  N   UNL A   1      32.028  24.946  22.131  1.00  0.00    -0.326 N 
ATOM     16  H   UNL A   1      32.167  25.081  21.166  1.00  0.00     0.169 HD
ATOM     17  O   UNL A   1      33.539  23.473  21.617  1.00  0.00    -0.274 OA
BRANCH  15  18
ATOM     18  C   UNL A   1      31.035  25.857  22.571  1.00  0.00     0.044 A 
ATOM     19  C   UNL A   1      30.201  28.143  22.374  1.00  0.00     0.120 A 
ATOM     20  C   UNL A   1      29.236  27.927  23.347  1.00  0.00     0.046 A 
ATOM     21  C   UNL A   1      31.103  27.139  22.003  1.00  0.00     0.072 A 
ATOM     22  C   UNL A   1      29.113  26.660  23.878  1.00  0.00     0.006 A 
ATOM     23  C   UNL A   1      29.992  25.646  23.474  1.00  0.00     0.026 A 
BRANCH  19  24
ATOM     24  O   UNL A   1      30.278  29.367  21.770  1.00  0.00    -0.497 OA
ATOM     25  C   UNL A   1      29.277  30.227  22.325  1.00  0.00     0.278 C 
ENDBRANCH  19  24
ENDBRANCH  15  18
ENDBRANCH   8  14
ENDBRANCH   4   7
ENDBRANCH   2   3
ENDBRANCH   1   2
BRANCH   1  26
ATOM     26  C   UNL A   1      32.772  29.204  25.288  1.00  0.00     0.118 C 
BRANCH  26  27
ATOM     27  N   UNL A   1      32.279  30.453  25.853  1.00  0.00    -0.352 N 
ATOM     28  C   UNL A   1      32.784  31.242  26.864  1.00  0.00     0.251 C 
ATOM     29  H   UNL A   1      31.448  30.789  25.446  1.00  0.00     0.163 HD
ATOM     30  O   UNL A   1      32.125  32.184  27.277  1.00  0.00    -0.269 OA
BRANCH  28  31
ATOM     31  C   UNL A   1      34.100  30.929  27.470  1.00  0.00     0.039 A 
ATOM     32  C   UNL A   1      35.034  31.957  27.626  1.00  0.00     0.014 A 
ATOM     33  C   UNL A   1      34.416  29.637  27.890  1.00  0.00     0.014 A 
ATOM     34  C   UNL A   1      36.243  31.703  28.281  1.00  0.00     0.010 A 
ATOM     35  C   UNL A   1      35.560  29.414  28.645  1.00  0.00     0.010 A 
ATOM     36  C   UNL A   1      36.496  30.439  28.839  1.00  0.00    -0.014 A 
BRANCH  36  37
ATOM     37  C   UNL A   1      37.726  30.160  29.623  1.00  0.00     0.031 A 
ATOM     38  C   UNL A   1      38.768  29.214  29.081  1.00  0.00     0.074 A 
ATOM     39  C   UNL A   1      37.862  30.670  30.864  1.00  0.00     0.049 A 
ATOM     40  N   UNL A   1      39.858  28.772  29.652  1.00  0.00    -0.248 NA
ATOM     41  C   UNL A   1      38.534  28.663  27.735  1.00  0.00     0.031 C 
ATOM     42  C   UNL A   1      36.882  31.524  31.541  1.00  0.00     0.029 A 
ATOM     43  N   UNL A   1      38.863  30.519  31.791  1.00  0.00    -0.354 N 
ATOM     44  C   UNL A   1      40.413  27.863  28.760  1.00  0.00     0.074 A 
ATOM     45  C   UNL A   1      39.517  27.780  27.628  1.00  0.00     0.031 C 
ATOM     46  C   UNL A   1      37.333  31.826  32.768  1.00  0.00     0.029 A 
ATOM     47  C   UNL A   1      38.615  31.162  32.982  1.00  0.00     0.049 A 
ATOM     48  H   UNL A   1      39.681  30.000  31.620  1.00  0.00     0.167 HD
ATOM     49  C   UNL A   1      41.581  27.183  28.852  1.00  0.00     0.034 A 
ATOM     50  C   UNL A   1      39.334  31.207  34.121  1.00  0.00     0.034 A 
ATOM     51  C   UNL A   1      42.497  27.310  29.953  1.00  0.00     0.049 A 
ATOM     52  C   UNL A   1      40.656  30.489  34.177  1.00  0.00     0.074 A 
ATOM     53  C   UNL A   1      43.749  26.741  30.099  1.00  0.00     0.029 A 
ATOM     54  N   UNL A   1      42.259  28.056  31.096  1.00  0.00    -0.354 N 
ATOM     55  N   UNL A   1      41.239  29.762  33.256  1.00  0.00    -0.248 NA
ATOM     56  C   UNL A   1      41.437  30.629  35.414  1.00  0.00     0.031 C 
ATOM     57  C   UNL A   1      44.260  27.126  31.343  1.00  0.00     0.029 A 
ATOM     58  C   UNL A   1      43.338  27.958  31.958  1.00  0.00     0.049 A 
ATOM     59  H   UNL A   1      41.443  28.578  31.270  1.00  0.00     0.167 HD
ATOM     60  C   UNL A   1      42.468  29.387  33.787  1.00  0.00     0.074 A 
ATOM     61  C   UNL A   1      42.554  29.988  35.102  1.00  0.00     0.031 C 
ATOM     62  C   UNL A   1      43.431  28.605  33.241  1.00  0.00     0.034 A 
BRANCH  49  63
ATOM     63  C   UNL A   1      41.962  26.289  27.702  1.00  0.00     0.023 A 
ATOM     64  C   UNL A   1      42.726  26.811  26.637  1.00  0.00     0.012 A 
ATOM     65  C   UNL A   1      41.612  24.924  27.693  1.00  0.00     0.148 A 
ATOM     66  C   UNL A   1      43.098  26.003  25.563  1.00  0.00     0.002 A 
ATOM     67  C   UNL A   1      42.029  24.113  26.643  1.00  0.00     0.091 A 
ATOM     68  F   UNL A   1      40.869  24.448  28.702  1.00  0.00    -0.205 F 
ATOM     69  C   UNL A   1      42.759  24.653  25.572  1.00  0.00     0.022 A 
BRANCH  67  70
ATOM     70  S   UNL A   1      41.714  22.346  26.600  1.00  0.00     0.127 S 
ATOM     71  O   UNL A   1      42.345  21.903  27.843  1.00  0.00    -0.237 OA
ATOM     72  O   UNL A   1      40.251  22.294  26.608  1.00  0.00    -0.237 OA
ATOM     73  O   UNL A   1      42.332  21.857  25.376  1.00  0.00    -0.744 OA
ENDBRANCH  67  70
ENDBRANCH  49  63
BRANCH  50  74
ATOM     74  C   UNL A   1      38.848  32.014  35.276  1.00  0.00     0.023 A 
ATOM     75  C   UNL A   1      38.924  33.420  35.218  1.00  0.00     0.012 A 
ATOM     76  C   UNL A   1      38.284  31.405  36.413  1.00  0.00     0.148 A 
ATOM     77  C   UNL A   1      38.478  34.202  36.284  1.00  0.00     0.002 A 
ATOM     78  C   UNL A   1      37.790  32.192  37.447  1.00  0.00     0.091 A 
ATOM     79  F   UNL A   1      38.229  30.066  36.454  1.00  0.00    -0.205 F 
ATOM     80  C   UNL A   1      37.902  33.590  37.393  1.00  0.00     0.022 A 
BRANCH  78  81
ATOM     81  S   UNL A   1      36.907  31.495  38.849  1.00  0.00     0.127 S 
ATOM     82  O   UNL A   1      37.854  31.714  39.938  1.00  0.00    -0.237 OA
ATOM     83  O   UNL A   1      35.707  32.332  38.897  1.00  0.00    -0.237 OA
ATOM     84  O   UNL A   1      36.650  30.104  38.501  1.00  0.00    -0.744 OA
ENDBRANCH  78  81
ENDBRANCH  50  74
BRANCH  62  85
ATOM     85  C   UNL A   1      44.686  28.378  34.044  1.00  0.00     0.023 A 
ATOM     86  C   UNL A   1      45.764  29.276  33.930  1.00  0.00     0.012 A 
ATOM     87  C   UNL A   1      44.761  27.316  34.969  1.00  0.00     0.148 A 
ATOM     88  C   UNL A   1      46.913  29.103  34.702  1.00  0.00     0.002 A 
ATOM     89  C   UNL A   1      45.888  27.181  35.770  1.00  0.00     0.091 A 
ATOM     90  F   UNL A   1      43.730  26.462  35.048  1.00  0.00    -0.205 F 
ATOM     91  C   UNL A   1      46.970  28.065  35.629  1.00  0.00     0.022 A 
BRANCH  89  92
ATOM     92  S   UNL A   1      46.009  25.935  37.058  1.00  0.00     0.127 S 
ATOM     93  O   UNL A   1      46.247  24.722  36.278  1.00  0.00    -0.237 OA
ATOM     94  O   UNL A   1      47.161  26.399  37.832  1.00  0.00    -0.237 OA
ATOM     95  O   UNL A   1      44.743  25.977  37.777  1.00  0.00    -0.744 OA
ENDBRANCH  89  92
ENDBRANCH  62  85
ENDBRANCH  36  37
ENDBRANCH  28  31
ENDBRANCH  26  27
ENDBRANCH   1  26
TORSDOF 16
ENDMDL
MODEL 3
REMARK VINA RESULT:     -12.8      5.650      9.134
REMARK SMILES COc1cccc(NC(=O)[C@@H]2[C@@H](C(=O)NCCCNC(=O)c3ccc(-c4c5nc(c(-c6cccc(S(=O)(=O)[O-])c6F)c6ccc([nH]6)c(-c6cccc(S(=O)(=O)[O-])c6F)c6nc(c(-c7cccc(S(=O)(=O)[O-])c7F)c7ccc4[nH]7)C=C6)C=C5)cc3)[C@H]3C=C[C@@H]2C3)c1
REMARK SMILES IDX 17 1 16 2 15 3 13 4 14 5 12 7 11 8 88 9 85 10 87 11 89 12
REMARK SMILES IDX 86 13 9 14 8 15 10 17 7 18 3 19 4 20 90 21 5 22 6 23 2 24
REMARK SMILES IDX 1 25 18 26 19 27 20 28 21 30 22 31 23 32 84 33 24 34 83 35
REMARK SMILES IDX 25 36 26 37 27 38 77 39 28 40 82 41 76 42 78 43 29 44 81 45
REMARK SMILES IDX 75 46 74 47 30 49 62 50 42 51 61 52 43 53 46 54 60 55 79 56
REMARK SMILES IDX 44 57 45 58 59 60 80 61 47 62 31 63 32 64 40 65 33 66 35 67
REMARK SMILES IDX 41 68 34 69 36 70 37 71 38 72 39 73 63 74 64 75 72 76 65 77
REMARK SMILES IDX 67 78 73 79 66 80 68 81 69 82 70 83 71 84 48 85 49 86 57 87
REMARK SMILES IDX 50 88 52 89 58 90 51 91 53 92 54 93 55 94 56 95
REMARK H PARENT 15 6 8 16 19 29 78 48 46 59
REMARK Flexibility Score: inf
ROOT
ATOM      1  C   UNL A   1      31.681  31.861  26.672  1.00  0.00     0.042 C 
ENDROOT
BRANCH   1   2
ATOM      2  C   UNL A   1      31.660  30.365  26.897  1.00  0.00     0.117 C 
BRANCH   2   3
ATOM      3  N   UNL A   1      32.823  29.657  26.389  1.00  0.00    -0.356 N 
ATOM      4  C   UNL A   1      32.845  28.573  25.546  1.00  0.00     0.224 C 
ATOM      5  O   UNL A   1      33.928  28.154  25.142  1.00  0.00    -0.275 OA
ATOM      6  H   UNL A   1      33.698  29.994  26.684  1.00  0.00     0.163 HD
BRANCH   4   7
ATOM      7  C   UNL A   1      31.513  27.902  25.245  1.00  0.00     0.098 C 
ATOM      8  C   UNL A   1      31.569  26.470  24.696  1.00  0.00     0.099 C 
ATOM      9  C   UNL A   1      30.943  26.591  23.281  1.00  0.00     0.025 C 
ATOM     10  C   UNL A   1      30.687  28.630  24.131  1.00  0.00     0.025 C 
ATOM     11  C   UNL A   1      31.775  27.545  22.439  1.00  0.00    -0.027 C 
ATOM     12  C   UNL A   1      29.783  27.539  23.546  1.00  0.00     0.017 C 
ATOM     13  C   UNL A   1      31.591  28.780  22.932  1.00  0.00    -0.027 C 
BRANCH   8  14
ATOM     14  C   UNL A   1      30.882  25.395  25.546  1.00  0.00     0.228 C 
ATOM     15  N   UNL A   1      30.934  24.038  25.476  1.00  0.00    -0.326 N 
ATOM     16  H   UNL A   1      30.474  23.672  26.266  1.00  0.00     0.169 HD
ATOM     17  O   UNL A   1      30.261  25.804  26.546  1.00  0.00    -0.274 OA
BRANCH  15  18
ATOM     18  C   UNL A   1      31.403  22.955  24.690  1.00  0.00     0.044 A 
ATOM     19  C   UNL A   1      32.142  20.630  24.743  1.00  0.00     0.120 A 
ATOM     20  C   UNL A   1      32.453  20.646  23.391  1.00  0.00     0.046 A 
ATOM     21  C   UNL A   1      31.647  21.766  25.394  1.00  0.00     0.072 A 
ATOM     22  C   UNL A   1      32.168  21.785  22.668  1.00  0.00     0.006 A 
ATOM     23  C   UNL A   1      31.634  22.908  23.315  1.00  0.00     0.026 A 
BRANCH  19  24
ATOM     24  O   UNL A   1      32.332  19.479  25.457  1.00  0.00    -0.497 OA
ATOM     25  C   UNL A   1      33.388  18.722  24.855  1.00  0.00     0.278 C 
ENDBRANCH  19  24
ENDBRANCH  15  18
ENDBRANCH   8  14
ENDBRANCH   4   7
ENDBRANCH   2   3
ENDBRANCH   1   2
BRANCH   1  26
ATOM     26  C   UNL A   1      32.866  32.577  27.288  1.00  0.00     0.118 C 
BRANCH  26  27
ATOM     27  N   UNL A   1      32.593  33.970  27.618  1.00  0.00    -0.352 N 
ATOM     28  C   UNL A   1      33.141  34.788  28.581  1.00  0.00     0.251 C 
ATOM     29  H   UNL A   1      31.902  34.396  27.061  1.00  0.00     0.163 HD
ATOM     30  O   UNL A   1      32.659  35.893  28.776  1.00  0.00    -0.269 OA
BRANCH  28  31
ATOM     31  C   UNL A   1      34.287  34.319  29.397  1.00  0.00     0.039 A 
ATOM     32  C   UNL A   1      34.036  33.531  30.523  1.00  0.00     0.014 A 
ATOM     33  C   UNL A   1      35.600  34.643  29.055  1.00  0.00     0.014 A 
ATOM     34  C   UNL A   1      35.106  33.000  31.251  1.00  0.00     0.010 A 
ATOM     35  C   UNL A   1      36.658  34.018  29.703  1.00  0.00     0.010 A 
ATOM     36  C   UNL A   1      36.427  33.200  30.817  1.00  0.00    -0.014 A 
BRANCH  36  37
ATOM     37  C   UNL A   1      37.583  32.573  31.509  1.00  0.00     0.031 A 
ATOM     38  C   UNL A   1      38.318  31.425  30.863  1.00  0.00     0.074 A 
ATOM     39  C   UNL A   1      37.907  32.960  32.760  1.00  0.00     0.049 A 
ATOM     40  N   UNL A   1      39.284  30.689  31.345  1.00  0.00    -0.248 NA
ATOM     41  C   UNL A   1      37.883  31.030  29.512  1.00  0.00     0.031 C 
ATOM     42  C   UNL A   1      37.215  33.995  33.533  1.00  0.00     0.029 A 
ATOM     43  N   UNL A   1      38.881  32.507  33.614  1.00  0.00    -0.354 N 
ATOM     44  C   UNL A   1      39.541  29.721  30.381  1.00  0.00     0.074 A 
ATOM     45  C   UNL A   1      38.599  29.934  29.306  1.00  0.00     0.031 C 
ATOM     46  C   UNL A   1      37.790  34.102  34.740  1.00  0.00     0.029 A 
ATOM     47  C   UNL A   1      38.867  33.123  34.845  1.00  0.00     0.049 A 
ATOM     48  H   UNL A   1      39.528  31.807  33.370  1.00  0.00     0.167 HD
ATOM     49  C   UNL A   1      40.498  28.762  30.371  1.00  0.00     0.034 A 
ATOM     50  C   UNL A   1      39.629  32.917  35.937  1.00  0.00     0.034 A 
ATOM     51  C   UNL A   1      41.470  28.589  31.416  1.00  0.00     0.049 A 
ATOM     52  C   UNL A   1      40.723  31.885  35.878  1.00  0.00     0.074 A 
ATOM     53  C   UNL A   1      42.539  27.713  31.458  1.00  0.00     0.029 A 
ATOM     54  N   UNL A   1      41.489  29.305  32.603  1.00  0.00    -0.354 N 
ATOM     55  N   UNL A   1      41.052  31.087  34.893  1.00  0.00    -0.248 NA
ATOM     56  C   UNL A   1      41.575  31.751  37.069  1.00  0.00     0.031 C 
ATOM     57  C   UNL A   1      43.193  27.884  32.683  1.00  0.00     0.029 A 
ATOM     58  C   UNL A   1      42.548  28.886  33.390  1.00  0.00     0.049 A 
ATOM     59  H   UNL A   1      40.845  30.006  32.850  1.00  0.00     0.167 HD
ATOM     60  C   UNL A   1      42.168  30.383  35.329  1.00  0.00     0.074 A 
ATOM     61  C   UNL A   1      42.472  30.865  36.660  1.00  0.00     0.031 C 
ATOM     62  C   UNL A   1      42.870  29.413  34.690  1.00  0.00     0.034 A 
BRANCH  49  63
ATOM     63  C   UNL A   1      40.577  27.868  29.161  1.00  0.00     0.023 A 
ATOM     64  C   UNL A   1      39.709  26.762  29.055  1.00  0.00     0.012 A 
ATOM     65  C   UNL A   1      41.471  28.146  28.108  1.00  0.00     0.148 A 
ATOM     66  C   UNL A   1      39.757  25.922  27.942  1.00  0.00     0.002 A 
ATOM     67  C   UNL A   1      41.479  27.333  26.980  1.00  0.00     0.091 A 
ATOM     68  F   UNL A   1      42.303  29.189  28.234  1.00  0.00    -0.205 F 
ATOM     69  C   UNL A   1      40.633  26.214  26.902  1.00  0.00     0.022 A 
BRANCH  67  70
ATOM     70  S   UNL A   1      42.512  27.670  25.550  1.00  0.00     0.127 S 
ATOM     71  O   UNL A   1      41.935  28.920  25.057  1.00  0.00    -0.237 OA
ATOM     72  O   UNL A   1      43.838  27.808  26.155  1.00  0.00    -0.237 OA
ATOM     73  O   UNL A   1      42.364  26.522  24.668  1.00  0.00    -0.744 OA
ENDBRANCH  67  70
ENDBRANCH  49  63
BRANCH  50  74
ATOM     74  C   UNL A   1      39.426  33.754  37.153  1.00  0.00     0.023 A 
ATOM     75  C   UNL A   1      39.897  35.082  37.166  1.00  0.00     0.012 A 
ATOM     76  C   UNL A   1      38.745  33.258  38.282  1.00  0.00     0.148 A 
ATOM     77  C   UNL A   1      39.723  35.889  38.290  1.00  0.00     0.002 A 
ATOM     78  C   UNL A   1      38.524  34.086  39.376  1.00  0.00     0.091 A 
ATOM     79  F   UNL A   1      38.312  31.990  38.254  1.00  0.00    -0.205 F 
ATOM     80  C   UNL A   1      39.028  35.396  39.391  1.00  0.00     0.022 A 
BRANCH  78  81
ATOM     81  S   UNL A   1      37.520  33.580  40.778  1.00  0.00     0.127 S 
ATOM     82  O   UNL A   1      37.372  34.834  41.510  1.00  0.00    -0.237 OA
ATOM     83  O   UNL A   1      36.304  33.100  40.122  1.00  0.00    -0.237 OA
ATOM     84  O   UNL A   1      38.284  32.538  41.454  1.00  0.00    -0.744 OA
ENDBRANCH  78  81
ENDBRANCH  50  74
BRANCH  62  85
ATOM     85  C   UNL A   1      44.062  28.829  35.402  1.00  0.00     0.023 A 
ATOM     86  C   UNL A   1      45.339  29.392  35.212  1.00  0.00     0.012 A 
ATOM     87  C   UNL A   1      43.900  27.771  36.319  1.00  0.00     0.148 A 
ATOM     88  C   UNL A   1      46.443  28.890  35.900  1.00  0.00     0.002 A 
ATOM     89  C   UNL A   1      44.996  27.309  37.038  1.00  0.00     0.091 A 
ATOM     90  F   UNL A   1      42.679  27.237  36.472  1.00  0.00    -0.205 F 
ATOM     91  C   UNL A   1      46.270  27.859  36.820  1.00  0.00     0.022 A 
BRANCH  89  92
ATOM     92  S   UNL A   1      44.851  26.054  38.314  1.00  0.00     0.127 S 
ATOM     93  O   UNL A   1      46.243  25.887  38.727  1.00  0.00    -0.237 OA
ATOM     94  O   UNL A   1      43.996  26.713  39.303  1.00  0.00    -0.237 OA
ATOM     95  O   UNL A   1      44.246  24.896  37.670  1.00  0.00    -0.744 OA
ENDBRANCH  89  92
ENDBRANCH  62  85
ENDBRANCH  36  37
ENDBRANCH  28  31
ENDBRANCH  26  27
ENDBRANCH   1  26
TORSDOF 16
ENDMDL
