MODEL 1
REMARK VINA RESULT:     -11.2      0.000      0.000
REMARK SMILES CC(=O)N1CCC[C@H]([N@@H+](CC(=O)NCCCNC(=O)c2ccc(-c3c4nc(c(-c5cccc(S(=O)(=O)[O-])c5F)c5ccc([nH]5)c(-c5cccc(S(=O)(=O)[O-])c5F)c5nc(c(-c6cccc(S(=O)(=O)[O-])c6F)c6ccc3[nH]6)C=C5)C=C4)cc2)C(C)C)C1
REMARK SMILES IDX 15 1 14 2 13 3 11 4 12 5 10 7 9 8 8 10 4 11 5 12 86 13 6 14
REMARK SMILES IDX 7 15 2 16 1 17 3 18 83 19 84 20 85 21 16 22 17 23 18 24
REMARK SMILES IDX 19 26 20 27 21 28 82 29 22 30 81 31 23 32 24 33 25 34 75 35
REMARK SMILES IDX 26 36 80 37 74 38 76 39 27 40 79 41 73 42 72 43 28 45 60 46
REMARK SMILES IDX 40 47 59 48 41 49 44 50 58 51 77 52 42 53 43 54 57 56 78 57
REMARK SMILES IDX 45 58 29 59 30 60 38 61 31 62 33 63 39 64 32 65 34 66 35 67
REMARK SMILES IDX 36 68 37 69 61 70 62 71 70 72 63 73 65 74 71 75 64 76 66 77
REMARK SMILES IDX 67 78 68 79 69 80 46 81 47 82 55 83 48 84 50 85 56 86 49 87
REMARK SMILES IDX 51 88 52 89 53 90 54 91
REMARK H PARENT 13 6 9 9 17 25 76 44 44 55
REMARK Flexibility Score: inf
ROOT
ATOM      1  C   UNL A   1      33.123  29.039  24.226  1.00  0.00     0.042 C 
ENDROOT
BRANCH   1   2
ATOM      2  C   UNL A   1      32.222  28.343  23.188  1.00  0.00     0.118 C 
BRANCH   2   3
ATOM      3  N   UNL A   1      32.886  27.554  22.153  1.00  0.00    -0.351 N 
ATOM      4  C   UNL A   1      32.729  26.256  21.737  1.00  0.00     0.275 C 
ATOM      5  O   UNL A   1      33.281  25.942  20.678  1.00  0.00    -0.269 OA
ATOM      6  H   UNL A   1      33.580  28.049  21.660  1.00  0.00     0.163 HD
BRANCH   4   7
ATOM      7  C   UNL A   1      31.960  25.220  22.572  1.00  0.00     0.364 C 
BRANCH   7   8
ATOM      8  N   UNL A   1      32.726  24.620  23.704  1.00  0.00    -0.321 N 
ATOM      9  H   UNL A   1      33.483  25.257  23.950  1.00  0.00     0.349 HD
BRANCH   8  10
ATOM     10  C   UNL A   1      33.559  23.466  23.314  1.00  0.00     0.204 C 
ATOM     11  N   UNL A   1      33.289  21.001  24.063  1.00  0.00    -0.337 N 
ATOM     12  C   UNL A   1      34.697  20.977  24.441  1.00  0.00     0.120 C 
ATOM     13  C   UNL A   1      32.836  22.099  23.237  1.00  0.00     0.184 C 
ATOM     14  C   UNL A   1      35.182  22.331  24.934  1.00  0.00     0.028 C 
ATOM     15  C   UNL A   1      34.984  23.399  23.875  1.00  0.00     0.069 C 
BRANCH  11  16
ATOM     16  C   UNL A   1      32.539  19.842  24.242  1.00  0.00     0.219 C 
ATOM     17  C   UNL A   1      32.421  18.850  23.101  1.00  0.00     0.114 C 
ATOM     18  O   UNL A   1      32.010  19.560  25.319  1.00  0.00    -0.275 OA
ENDBRANCH  11  16
ENDBRANCH   8  10
BRANCH   8  19
ATOM     19  C   UNL A   1      32.073  24.694  25.020  1.00  0.00     0.178 C 
ATOM     20  C   UNL A   1      32.713  25.591  26.083  1.00  0.00     0.075 C 
ATOM     21  C   UNL A   1      30.576  25.030  24.905  1.00  0.00     0.075 C 
ENDBRANCH   8  19
ENDBRANCH   7   8
ENDBRANCH   4   7
ENDBRANCH   2   3
ENDBRANCH   1   2
BRANCH   1  22
ATOM     22  C   UNL A   1      32.595  29.151  25.660  1.00  0.00     0.118 C 
BRANCH  22  23
ATOM     23  N   UNL A   1      32.314  30.517  26.046  1.00  0.00    -0.352 N 
ATOM     24  C   UNL A   1      32.967  31.350  26.922  1.00  0.00     0.251 C 
ATOM     25  H   UNL A   1      31.526  30.915  25.609  1.00  0.00     0.163 HD
ATOM     26  O   UNL A   1      32.415  32.407  27.232  1.00  0.00    -0.269 OA
BRANCH  24  27
ATOM     27  C   UNL A   1      34.294  31.027  27.515  1.00  0.00     0.039 A 
ATOM     28  C   UNL A   1      34.490  29.725  27.994  1.00  0.00     0.014 A 
ATOM     29  C   UNL A   1      35.290  31.985  27.732  1.00  0.00     0.014 A 
ATOM     30  C   UNL A   1      35.666  29.383  28.673  1.00  0.00     0.010 A 
ATOM     31  C   UNL A   1      36.488  31.631  28.377  1.00  0.00     0.010 A 
ATOM     32  C   UNL A   1      36.683  30.331  28.874  1.00  0.00    -0.014 A 
BRANCH  32  33
ATOM     33  C   UNL A   1      37.926  29.956  29.613  1.00  0.00     0.031 A 
ATOM     34  C   UNL A   1      38.209  30.507  30.989  1.00  0.00     0.074 A 
ATOM     35  C   UNL A   1      38.818  29.116  29.047  1.00  0.00     0.049 A 
ATOM     36  N   UNL A   1      39.222  30.263  31.785  1.00  0.00    -0.248 NA
ATOM     37  C   UNL A   1      37.234  31.460  31.543  1.00  0.00     0.031 C 
ATOM     38  C   UNL A   1      38.702  28.542  27.706  1.00  0.00     0.029 A 
ATOM     39  N   UNL A   1      40.006  28.612  29.521  1.00  0.00    -0.354 N 
ATOM     40  C   UNL A   1      39.019  31.041  32.920  1.00  0.00     0.074 A 
ATOM     41  C   UNL A   1      37.797  31.786  32.700  1.00  0.00     0.031 C 
ATOM     42  C   UNL A   1      39.776  27.771  27.462  1.00  0.00     0.029 A 
ATOM     43  C   UNL A   1      40.667  27.809  28.620  1.00  0.00     0.049 A 
ATOM     44  H   UNL A   1      40.352  28.808  30.422  1.00  0.00     0.167 HD
ATOM     45  C   UNL A   1      39.760  31.110  34.054  1.00  0.00     0.034 A 
ATOM     46  C   UNL A   1      41.855  27.175  28.708  1.00  0.00     0.034 A 
ATOM     47  C   UNL A   1      40.957  30.348  34.296  1.00  0.00     0.049 A 
ATOM     48  C   UNL A   1      42.649  27.257  29.986  1.00  0.00     0.074 A 
ATOM     49  C   UNL A   1      41.736  30.313  35.441  1.00  0.00     0.029 A 
ATOM     50  N   UNL A   1      41.554  29.492  33.385  1.00  0.00    -0.354 N 
ATOM     51  N   UNL A   1      42.353  27.875  31.103  1.00  0.00    -0.248 NA
ATOM     52  C   UNL A   1      43.920  26.518  30.030  1.00  0.00     0.031 C 
ATOM     53  C   UNL A   1      42.810  29.445  35.217  1.00  0.00     0.029 A 
ATOM     54  C   UNL A   1      42.690  28.927  33.939  1.00  0.00     0.049 A 
ATOM     55  H   UNL A   1      41.219  29.313  32.477  1.00  0.00     0.167 HD
ATOM     56  C   UNL A   1      43.379  27.571  31.991  1.00  0.00     0.074 A 
ATOM     57  C   UNL A   1      44.293  26.692  31.291  1.00  0.00     0.031 C 
ATOM     58  C   UNL A   1      43.560  27.999  33.265  1.00  0.00     0.034 A 
BRANCH  45  59
ATOM     59  C   UNL A   1      39.265  31.999  35.169  1.00  0.00     0.023 A 
ATOM     60  C   UNL A   1      38.348  31.476  36.103  1.00  0.00     0.012 A 
ATOM     61  C   UNL A   1      39.776  33.299  35.353  1.00  0.00     0.148 A 
ATOM     62  C   UNL A   1      37.928  32.241  37.191  1.00  0.00     0.002 A 
ATOM     63  C   UNL A   1      39.382  34.041  36.461  1.00  0.00     0.091 A 
ATOM     64  F   UNL A   1      40.639  33.781  34.448  1.00  0.00    -0.205 F 
ATOM     65  C   UNL A   1      38.451  33.518  37.375  1.00  0.00     0.022 A 
BRANCH  63  66
ATOM     66  S   UNL A   1      40.054  35.665  36.837  1.00  0.00     0.127 S 
ATOM     67  O   UNL A   1      39.428  35.952  38.128  1.00  0.00    -0.237 OA
ATOM     68  O   UNL A   1      41.490  35.396  36.903  1.00  0.00    -0.237 OA
ATOM     69  O   UNL A   1      39.647  36.533  35.740  1.00  0.00    -0.744 OA
ENDBRANCH  63  66
ENDBRANCH  45  59
BRANCH  46  70
ATOM     70  C   UNL A   1      42.350  26.353  27.565  1.00  0.00     0.023 A 
ATOM     71  C   UNL A   1      43.149  26.953  26.573  1.00  0.00     0.012 A 
ATOM     72  C   UNL A   1      42.033  24.986  27.456  1.00  0.00     0.148 A 
ATOM     73  C   UNL A   1      43.593  26.215  25.473  1.00  0.00     0.002 A 
ATOM     74  C   UNL A   1      42.528  24.243  26.389  1.00  0.00     0.091 A 
ATOM     75  F   UNL A   1      41.252  24.434  28.396  1.00  0.00    -0.205 F 
ATOM     76  C   UNL A   1      43.290  24.859  25.387  1.00  0.00     0.022 A 
BRANCH  74  77
ATOM     77  S   UNL A   1      42.298  22.464  26.289  1.00  0.00     0.127 S 
ATOM     78  O   UNL A   1      42.860  22.016  27.563  1.00  0.00    -0.237 OA
ATOM     79  O   UNL A   1      40.841  22.347  26.187  1.00  0.00    -0.237 OA
ATOM     80  O   UNL A   1      43.012  22.050  25.092  1.00  0.00    -0.744 OA
ENDBRANCH  74  77
ENDBRANCH  46  70
BRANCH  58  81
ATOM     81  C   UNL A   1      44.769  27.497  34.012  1.00  0.00     0.023 A 
ATOM     82  C   UNL A   1      45.952  28.264  34.022  1.00  0.00     0.012 A 
ATOM     83  C   UNL A   1      44.712  26.306  34.763  1.00  0.00     0.148 A 
ATOM     84  C   UNL A   1      47.068  27.837  34.740  1.00  0.00     0.002 A 
ATOM     85  C   UNL A   1      45.815  25.910  35.513  1.00  0.00     0.091 A 
ATOM     86  F   UNL A   1      43.586  25.579  34.727  1.00  0.00    -0.205 F 
ATOM     87  C   UNL A   1      46.997  26.668  35.494  1.00  0.00     0.022 A 
BRANCH  85  88
ATOM     88  S   UNL A   1      45.782  24.467  36.584  1.00  0.00     0.127 S 
ATOM     89  O   UNL A   1      44.358  24.365  36.904  1.00  0.00    -0.237 OA
ATOM     90  O   UNL A   1      46.285  23.412  35.703  1.00  0.00    -0.237 OA
ATOM     91  O   UNL A   1      46.655  24.781  37.706  1.00  0.00    -0.744 OA
ENDBRANCH  85  88
ENDBRANCH  58  81
ENDBRANCH  32  33
ENDBRANCH  24  27
ENDBRANCH  22  23
ENDBRANCH   1  22
TORSDOF 17
ENDMDL
MODEL 2
REMARK VINA RESULT:     -11.1      5.155     10.197
REMARK SMILES CC(=O)N1CCC[C@H]([N@@H+](CC(=O)NCCCNC(=O)c2ccc(-c3c4nc(c(-c5cccc(S(=O)(=O)[O-])c5F)c5ccc([nH]5)c(-c5cccc(S(=O)(=O)[O-])c5F)c5nc(c(-c6cccc(S(=O)(=O)[O-])c6F)c6ccc3[nH]6)C=C5)C=C4)cc2)C(C)C)C1
REMARK SMILES IDX 15 1 14 2 13 3 11 4 12 5 10 7 9 8 8 10 4 11 5 12 86 13 6 14
REMARK SMILES IDX 7 15 2 16 1 17 3 18 83 19 84 20 85 21 16 22 17 23 18 24
REMARK SMILES IDX 19 26 20 27 21 28 82 29 22 30 81 31 23 32 24 33 25 34 75 35
REMARK SMILES IDX 26 36 80 37 74 38 76 39 27 40 79 41 73 42 72 43 28 45 60 46
REMARK SMILES IDX 40 47 59 48 41 49 44 50 58 51 77 52 42 53 43 54 57 56 78 57
REMARK SMILES IDX 45 58 29 59 30 60 38 61 31 62 33 63 39 64 32 65 34 66 35 67
REMARK SMILES IDX 36 68 37 69 61 70 62 71 70 72 63 73 65 74 71 75 64 76 66 77
REMARK SMILES IDX 67 78 68 79 69 80 46 81 47 82 55 83 48 84 50 85 56 86 49 87
REMARK SMILES IDX 51 88 52 89 53 90 54 91
REMARK H PARENT 13 6 9 9 17 25 76 44 44 55
REMARK Flexibility Score: inf
ROOT
ATOM      1  C   UNL A   1      35.163  21.804  26.510  1.00  0.00     0.042 C 
ENDROOT
BRANCH   1   2
ATOM      2  C   UNL A   1      33.709  21.760  26.002  1.00  0.00     0.118 C 
BRANCH   2   3
ATOM      3  N   UNL A   1      32.678  22.295  26.888  1.00  0.00    -0.351 N 
ATOM      4  C   UNL A   1      31.476  22.911  26.642  1.00  0.00     0.275 C 
ATOM      5  O   UNL A   1      30.715  23.046  27.605  1.00  0.00    -0.269 OA
ATOM      6  H   UNL A   1      32.887  22.196  27.846  1.00  0.00     0.163 HD
BRANCH   4   7
ATOM      7  C   UNL A   1      31.113  23.464  25.255  1.00  0.00     0.364 C 
BRANCH   7   8
ATOM      8  N   UNL A   1      31.808  24.728  24.873  1.00  0.00    -0.321 N 
ATOM      9  H   UNL A   1      32.679  24.785  25.400  1.00  0.00     0.349 HD
BRANCH   8  10
ATOM     10  C   UNL A   1      31.171  25.945  25.413  1.00  0.00     0.204 C 
ATOM     11  N   UNL A   1      30.990  28.266  24.278  1.00  0.00    -0.337 N 
ATOM     12  C   UNL A   1      31.534  28.881  25.483  1.00  0.00     0.120 C 
ATOM     13  C   UNL A   1      30.532  26.898  24.373  1.00  0.00     0.184 C 
ATOM     14  C   UNL A   1      32.522  27.972  26.196  1.00  0.00     0.028 C 
ATOM     15  C   UNL A   1      31.873  26.655  26.577  1.00  0.00     0.069 C 
BRANCH  11  16
ATOM     16  C   UNL A   1      30.656  29.093  23.209  1.00  0.00     0.219 C 
ATOM     17  C   UNL A   1      29.309  29.791  23.203  1.00  0.00     0.114 C 
ATOM     18  O   UNL A   1      31.441  29.329  22.289  1.00  0.00    -0.275 OA
ENDBRANCH  11  16
ENDBRANCH   8  10
BRANCH   8  19
ATOM     19  C   UNL A   1      32.464  24.717  23.556  1.00  0.00     0.178 C 
ATOM     20  C   UNL A   1      33.910  25.213  23.477  1.00  0.00     0.075 C 
ATOM     21  C   UNL A   1      32.359  23.344  22.870  1.00  0.00     0.075 C 
ENDBRANCH   8  19
ENDBRANCH   7   8
ENDBRANCH   4   7
ENDBRANCH   2   3
ENDBRANCH   1   2
BRANCH   1  22
ATOM     22  C   UNL A   1      36.271  21.993  25.468  1.00  0.00     0.118 C 
BRANCH  22  23
ATOM     23  N   UNL A   1      37.292  20.971  25.550  1.00  0.00    -0.352 N 
ATOM     24  C   UNL A   1      38.625  21.064  25.871  1.00  0.00     0.251 C 
ATOM     25  H   UNL A   1      36.981  20.060  25.341  1.00  0.00     0.163 HD
ATOM     26  O   UNL A   1      39.334  20.076  25.675  1.00  0.00    -0.269 OA
BRANCH  24  27
ATOM     27  C   UNL A   1      39.243  22.298  26.428  1.00  0.00     0.039 A 
ATOM     28  C   UNL A   1      38.783  23.529  25.941  1.00  0.00     0.014 A 
ATOM     29  C   UNL A   1      40.336  22.281  27.301  1.00  0.00     0.014 A 
ATOM     30  C   UNL A   1      39.401  24.726  26.328  1.00  0.00     0.010 A 
ATOM     31  C   UNL A   1      40.928  23.485  27.721  1.00  0.00     0.010 A 
ATOM     32  C   UNL A   1      40.481  24.721  27.224  1.00  0.00    -0.014 A 
BRANCH  32  33
ATOM     33  C   UNL A   1      41.139  26.003  27.617  1.00  0.00     0.031 A 
ATOM     34  C   UNL A   1      42.568  26.297  27.227  1.00  0.00     0.074 A 
ATOM     35  C   UNL A   1      40.455  26.919  28.335  1.00  0.00     0.049 A 
ATOM     36  N   UNL A   1      43.283  27.371  27.456  1.00  0.00    -0.248 NA
ATOM     37  C   UNL A   1      43.289  25.247  26.491  1.00  0.00     0.031 C 
ATOM     38  C   UNL A   1      39.085  26.755  28.822  1.00  0.00     0.029 A 
ATOM     39  N   UNL A   1      40.823  28.161  28.794  1.00  0.00    -0.354 N 
ATOM     40  C   UNL A   1      44.539  27.122  26.913  1.00  0.00     0.074 A 
ATOM     41  C   UNL A   1      44.497  25.783  26.362  1.00  0.00     0.031 C 
ATOM     42  C   UNL A   1      38.731  27.850  29.517  1.00  0.00     0.029 A 
ATOM     43  C   UNL A   1      39.852  28.787  29.541  1.00  0.00     0.049 A 
ATOM     44  H   UNL A   1      41.702  28.565  28.607  1.00  0.00     0.167 HD
ATOM     45  C   UNL A   1      45.620  27.939  26.848  1.00  0.00     0.034 A 
ATOM     46  C   UNL A   1      39.857  29.977  30.178  1.00  0.00     0.034 A 
ATOM     47  C   UNL A   1      45.662  29.284  27.361  1.00  0.00     0.049 A 
ATOM     48  C   UNL A   1      41.067  30.870  30.075  1.00  0.00     0.074 A 
ATOM     49  C   UNL A   1      46.697  30.201  27.284  1.00  0.00     0.029 A 
ATOM     50  N   UNL A   1      44.632  29.905  28.048  1.00  0.00    -0.354 N 
ATOM     51  N   UNL A   1      42.184  30.674  29.418  1.00  0.00    -0.248 NA
ATOM     52  C   UNL A   1      40.998  32.168  30.764  1.00  0.00     0.031 C 
ATOM     53  C   UNL A   1      46.297  31.372  27.936  1.00  0.00     0.029 A 
ATOM     54  C   UNL A   1      45.006  31.190  28.403  1.00  0.00     0.049 A 
ATOM     55  H   UNL A   1      43.762  29.493  28.254  1.00  0.00     0.167 HD
ATOM     56  C   UNL A   1      42.933  31.834  29.586  1.00  0.00     0.074 A 
ATOM     57  C   UNL A   1      42.133  32.739  30.384  1.00  0.00     0.031 C 
ATOM     58  C   UNL A   1      44.182  32.114  29.137  1.00  0.00     0.034 A 
BRANCH  45  59
ATOM     59  C   UNL A   1      46.848  27.431  26.132  1.00  0.00     0.023 A 
ATOM     60  C   UNL A   1      47.674  26.488  26.776  1.00  0.00     0.012 A 
ATOM     61  C   UNL A   1      47.126  27.801  24.801  1.00  0.00     0.148 A 
ATOM     62  C   UNL A   1      48.772  25.938  26.116  1.00  0.00     0.002 A 
ATOM     63  C   UNL A   1      48.201  27.219  24.137  1.00  0.00     0.091 A 
ATOM     64  F   UNL A   1      46.335  28.706  24.209  1.00  0.00    -0.205 F 
ATOM     65  C   UNL A   1      49.030  26.295  24.796  1.00  0.00     0.022 A 
BRANCH  63  66
ATOM     66  S   UNL A   1      48.575  27.548  22.410  1.00  0.00     0.127 S 
ATOM     67  O   UNL A   1      49.849  28.260  22.514  1.00  0.00    -0.237 OA
ATOM     68  O   UNL A   1      48.675  26.199  21.854  1.00  0.00    -0.237 OA
ATOM     69  O   UNL A   1      47.461  28.336  21.899  1.00  0.00    -0.744 OA
ENDBRANCH  63  66
ENDBRANCH  45  59
BRANCH  46  70
ATOM     70  C   UNL A   1      38.651  30.427  30.932  1.00  0.00     0.023 A 
ATOM     71  C   UNL A   1      38.530  30.116  32.300  1.00  0.00     0.012 A 
ATOM     72  C   UNL A   1      37.625  31.158  30.302  1.00  0.00     0.148 A 
ATOM     73  C   UNL A   1      37.393  30.492  33.018  1.00  0.00     0.002 A 
ATOM     74  C   UNL A   1      36.523  31.581  31.038  1.00  0.00     0.091 A 
ATOM     75  F   UNL A   1      37.743  31.427  28.994  1.00  0.00    -0.205 F 
ATOM     76  C   UNL A   1      36.395  31.232  32.390  1.00  0.00     0.022 A 
BRANCH  74  77
ATOM     77  S   UNL A   1      35.271  32.657  30.331  1.00  0.00     0.127 S 
ATOM     78  O   UNL A   1      34.784  31.857  29.209  1.00  0.00    -0.237 OA
ATOM     79  O   UNL A   1      34.325  32.798  31.440  1.00  0.00    -0.237 OA
ATOM     80  O   UNL A   1      35.970  33.886  29.988  1.00  0.00    -0.744 OA
ENDBRANCH  74  77
ENDBRANCH  46  70
BRANCH  58  81
ATOM     81  C   UNL A   1      44.758  33.470  29.457  1.00  0.00     0.023 A 
ATOM     82  C   UNL A   1      45.475  33.659  30.656  1.00  0.00     0.012 A 
ATOM     83  C   UNL A   1      44.651  34.535  28.542  1.00  0.00     0.148 A 
ATOM     84  C   UNL A   1      46.050  34.894  30.951  1.00  0.00     0.002 A 
ATOM     85  C   UNL A   1      45.265  35.752  28.823  1.00  0.00     0.091 A 
ATOM     86  F   UNL A   1      43.949  34.344  27.416  1.00  0.00    -0.205 F 
ATOM     87  C   UNL A   1      45.955  35.936  30.032  1.00  0.00     0.022 A 
BRANCH  85  88
ATOM     88  S   UNL A   1      45.271  37.119  27.656  1.00  0.00     0.127 S 
ATOM     89  O   UNL A   1      46.009  36.548  26.531  1.00  0.00    -0.237 OA
ATOM     90  O   UNL A   1      43.843  37.324  27.407  1.00  0.00    -0.237 OA
ATOM     91  O   UNL A   1      45.927  38.225  28.340  1.00  0.00    -0.744 OA
ENDBRANCH  85  88
ENDBRANCH  58  81
ENDBRANCH  32  33
ENDBRANCH  24  27
ENDBRANCH  22  23
ENDBRANCH   1  22
TORSDOF 17
ENDMDL
MODEL 3
REMARK VINA RESULT:     -11.0      2.174      2.919
REMARK SMILES CC(=O)N1CCC[C@H]([N@@H+](CC(=O)NCCCNC(=O)c2ccc(-c3c4nc(c(-c5cccc(S(=O)(=O)[O-])c5F)c5ccc([nH]5)c(-c5cccc(S(=O)(=O)[O-])c5F)c5nc(c(-c6cccc(S(=O)(=O)[O-])c6F)c6ccc3[nH]6)C=C5)C=C4)cc2)C(C)C)C1
REMARK SMILES IDX 15 1 14 2 13 3 11 4 12 5 10 7 9 8 8 10 4 11 5 12 86 13 6 14
REMARK SMILES IDX 7 15 2 16 1 17 3 18 83 19 84 20 85 21 16 22 17 23 18 24
REMARK SMILES IDX 19 26 20 27 21 28 82 29 22 30 81 31 23 32 24 33 25 34 75 35
REMARK SMILES IDX 26 36 80 37 74 38 76 39 27 40 79 41 73 42 72 43 28 45 60 46
REMARK SMILES IDX 40 47 59 48 41 49 44 50 58 51 77 52 42 53 43 54 57 56 78 57
REMARK SMILES IDX 45 58 29 59 30 60 38 61 31 62 33 63 39 64 32 65 34 66 35 67
REMARK SMILES IDX 36 68 37 69 61 70 62 71 70 72 63 73 65 74 71 75 64 76 66 77
REMARK SMILES IDX 67 78 68 79 69 80 46 81 47 82 55 83 48 84 50 85 56 86 49 87
REMARK SMILES IDX 51 88 52 89 53 90 54 91
REMARK H PARENT 13 6 9 9 17 25 76 44 44 55
REMARK Flexibility Score: inf
ROOT
ATOM      1  C   UNL A   1      33.457  28.267  25.765  1.00  0.00     0.042 C 
ENDROOT
BRANCH   1   2
ATOM      2  C   UNL A   1      33.609  26.776  25.404  1.00  0.00     0.118 C 
BRANCH   2   3
ATOM      3  N   UNL A   1      33.989  26.460  24.030  1.00  0.00    -0.351 N 
ATOM      4  C   UNL A   1      33.419  25.657  23.074  1.00  0.00     0.275 C 
ATOM      5  O   UNL A   1      33.849  25.772  21.923  1.00  0.00    -0.269 OA
ATOM      6  H   UNL A   1      34.814  26.909  23.732  1.00  0.00     0.163 HD
BRANCH   4   7
ATOM      7  C   UNL A   1      32.341  24.618  23.421  1.00  0.00     0.364 C 
BRANCH   7   8
ATOM      8  N   UNL A   1      32.733  23.617  24.457  1.00  0.00    -0.321 N 
ATOM      9  H   UNL A   1      33.419  24.049  25.074  1.00  0.00     0.349 HD
BRANCH   8  10
ATOM     10  C   UNL A   1      33.588  22.530  23.942  1.00  0.00     0.204 C 
ATOM     11  N   UNL A   1      33.300  19.984  24.317  1.00  0.00    -0.337 N 
ATOM     12  C   UNL A   1      34.690  19.905  24.749  1.00  0.00     0.120 C 
ATOM     13  C   UNL A   1      32.876  21.188  23.639  1.00  0.00     0.184 C 
ATOM     14  C   UNL A   1      35.146  21.174  25.450  1.00  0.00     0.028 C 
ATOM     15  C   UNL A   1      34.988  22.383  24.548  1.00  0.00     0.069 C 
BRANCH  11  16
ATOM     16  C   UNL A   1      32.549  18.811  24.297  1.00  0.00     0.219 C 
ATOM     17  C   UNL A   1      32.403  18.046  22.995  1.00  0.00     0.114 C 
ATOM     18  O   UNL A   1      32.043  18.335  25.315  1.00  0.00    -0.275 OA
ENDBRANCH  11  16
ENDBRANCH   8  10
BRANCH   8  19
ATOM     19  C   UNL A   1      31.742  23.384  25.520  1.00  0.00     0.178 C 
ATOM     20  C   UNL A   1      32.264  23.161  26.941  1.00  0.00     0.075 C 
ATOM     21  C   UNL A   1      30.653  24.470  25.542  1.00  0.00     0.075 C 
ENDBRANCH   8  19
ENDBRANCH   7   8
ENDBRANCH   4   7
ENDBRANCH   2   3
ENDBRANCH   1   2
BRANCH   1  22
ATOM     22  C   UNL A   1      33.304  28.624  27.247  1.00  0.00     0.118 C 
BRANCH  22  23
ATOM     23  N   UNL A   1      33.409  30.047  27.491  1.00  0.00    -0.352 N 
ATOM     24  C   UNL A   1      34.430  30.785  28.040  1.00  0.00     0.251 C 
ATOM     25  H   UNL A   1      32.622  30.571  27.219  1.00  0.00     0.163 HD
ATOM     26  O   UNL A   1      34.200  31.961  28.326  1.00  0.00    -0.269 OA
BRANCH  24  27
ATOM     27  C   UNL A   1      35.783  30.226  28.312  1.00  0.00     0.039 A 
ATOM     28  C   UNL A   1      36.015  29.679  29.581  1.00  0.00     0.014 A 
ATOM     29  C   UNL A   1      36.853  30.342  27.419  1.00  0.00     0.014 A 
ATOM     30  C   UNL A   1      37.296  29.246  29.949  1.00  0.00     0.010 A 
ATOM     31  C   UNL A   1      38.129  29.869  27.774  1.00  0.00     0.010 A 
ATOM     32  C   UNL A   1      38.371  29.334  29.050  1.00  0.00    -0.014 A 
BRANCH  32  33
ATOM     33  C   UNL A   1      39.734  28.882  29.461  1.00  0.00     0.031 A 
ATOM     34  C   UNL A   1      40.496  29.598  30.549  1.00  0.00     0.074 A 
ATOM     35  C   UNL A   1      40.303  27.821  28.852  1.00  0.00     0.049 A 
ATOM     36  N   UNL A   1      41.674  29.321  31.053  1.00  0.00    -0.248 NA
ATOM     37  C   UNL A   1      39.857  30.781  31.147  1.00  0.00     0.031 C 
ATOM     38  C   UNL A   1      39.707  27.060  27.754  1.00  0.00     0.029 A 
ATOM     39  N   UNL A   1      41.517  27.208  29.058  1.00  0.00    -0.354 N 
ATOM     40  C   UNL A   1      41.928  30.301  32.008  1.00  0.00     0.074 A 
ATOM     41  C   UNL A   1      40.789  31.195  31.997  1.00  0.00     0.031 C 
ATOM     42  C   UNL A   1      40.557  26.088  27.379  1.00  0.00     0.029 A 
ATOM     43  C   UNL A   1      41.766  26.166  28.195  1.00  0.00     0.049 A 
ATOM     44  H   UNL A   1      42.149  27.490  29.759  1.00  0.00     0.167 HD
ATOM     45  C   UNL A   1      42.991  30.431  32.839  1.00  0.00     0.034 A 
ATOM     46  C   UNL A   1      42.844  25.364  28.068  1.00  0.00     0.034 A 
ATOM     47  C   UNL A   1      44.112  29.527  32.881  1.00  0.00     0.049 A 
ATOM     48  C   UNL A   1      44.004  25.521  29.017  1.00  0.00     0.074 A 
ATOM     49  C   UNL A   1      45.204  29.552  33.733  1.00  0.00     0.029 A 
ATOM     50  N   UNL A   1      44.292  28.443  32.038  1.00  0.00    -0.354 N 
ATOM     51  N   UNL A   1      44.146  26.357  30.016  1.00  0.00    -0.248 NA
ATOM     52  C   UNL A   1      45.135  24.595  28.847  1.00  0.00     0.031 C 
ATOM     53  C   UNL A   1      46.049  28.489  33.397  1.00  0.00     0.029 A 
ATOM     54  C   UNL A   1      45.475  27.794  32.347  1.00  0.00     0.049 A 
ATOM     55  H   UNL A   1      43.670  28.175  31.324  1.00  0.00     0.167 HD
ATOM     56  C   UNL A   1      45.360  26.035  30.613  1.00  0.00     0.074 A 
ATOM     57  C   UNL A   1      45.903  24.910  29.881  1.00  0.00     0.031 C 
ATOM     58  C   UNL A   1      45.980  26.632  31.661  1.00  0.00     0.034 A 
BRANCH  45  59
ATOM     59  C   UNL A   1      42.975  31.563  33.836  1.00  0.00     0.023 A 
ATOM     60  C   UNL A   1      43.376  32.848  33.419  1.00  0.00     0.012 A 
ATOM     61  C   UNL A   1      42.471  31.384  35.140  1.00  0.00     0.148 A 
ATOM     62  C   UNL A   1      43.300  33.934  34.289  1.00  0.00     0.002 A 
ATOM     63  C   UNL A   1      42.363  32.480  35.990  1.00  0.00     0.091 A 
ATOM     64  F   UNL A   1      42.104  30.154  35.521  1.00  0.00    -0.205 F 
ATOM     65  C   UNL A   1      42.785  33.753  35.570  1.00  0.00     0.022 A 
BRANCH  63  66
ATOM     66  S   UNL A   1      41.640  32.373  37.632  1.00  0.00     0.127 S 
ATOM     67  O   UNL A   1      42.379  31.249  38.208  1.00  0.00    -0.237 OA
ATOM     68  O   UNL A   1      41.975  33.678  38.202  1.00  0.00    -0.237 OA
ATOM     69  O   UNL A   1      40.215  32.144  37.432  1.00  0.00    -0.744 OA
ENDBRANCH  63  66
ENDBRANCH  45  59
BRANCH  46  70
ATOM     70  C   UNL A   1      42.859  24.291  27.031  1.00  0.00     0.023 A 
ATOM     71  C   UNL A   1      43.555  24.501  25.825  1.00  0.00     0.012 A 
ATOM     72  C   UNL A   1      42.188  23.069  27.232  1.00  0.00     0.148 A 
ATOM     73  C   UNL A   1      43.552  23.529  24.823  1.00  0.00     0.002 A 
ATOM     74  C   UNL A   1      42.239  22.082  26.253  1.00  0.00     0.091 A 
ATOM     75  F   UNL A   1      41.510  22.893  28.375  1.00  0.00    -0.205 F 
ATOM     76  C   UNL A   1      42.903  22.317  25.041  1.00  0.00     0.022 A 
BRANCH  74  77
ATOM     77  S   UNL A   1      41.548  20.447  26.525  1.00  0.00     0.127 S 
ATOM     78  O   UNL A   1      40.112  20.708  26.438  1.00  0.00    -0.237 OA
ATOM     79  O   UNL A   1      42.102  19.688  25.400  1.00  0.00    -0.237 OA
ATOM     80  O   UNL A   1      42.048  20.028  27.825  1.00  0.00    -0.744 OA
ENDBRANCH  74  77
ENDBRANCH  46  70
BRANCH  58  81
ATOM     81  C   UNL A   1      47.299  26.064  32.117  1.00  0.00     0.023 A 
ATOM     82  C   UNL A   1      48.492  26.484  31.495  1.00  0.00     0.012 A 
ATOM     83  C   UNL A   1      47.365  25.172  33.205  1.00  0.00     0.148 A 
ATOM     84  C   UNL A   1      49.726  26.001  31.928  1.00  0.00     0.002 A 
ATOM     85  C   UNL A   1      48.603  24.729  33.661  1.00  0.00     0.091 A 
ATOM     86  F   UNL A   1      46.220  24.768  33.773  1.00  0.00    -0.205 F 
ATOM     87  C   UNL A   1      49.784  25.134  33.017  1.00  0.00     0.022 A 
BRANCH  85  88
ATOM     88  S   UNL A   1      48.777  23.683  35.112  1.00  0.00     0.127 S 
ATOM     89  O   UNL A   1      48.741  22.346  34.521  1.00  0.00    -0.237 OA
ATOM     90  O   UNL A   1      50.085  24.084  35.632  1.00  0.00    -0.237 OA
ATOM     91  O   UNL A   1      47.656  24.015  35.981  1.00  0.00    -0.744 OA
ENDBRANCH  85  88
ENDBRANCH  58  81
ENDBRANCH  32  33
ENDBRANCH  24  27
ENDBRANCH  22  23
ENDBRANCH   1  22
TORSDOF 17
ENDMDL
