MODEL 1
REMARK VINA RESULT:     -11.3      0.000      0.000
REMARK SMILES CCc1nc(COC)cc(N2CCCC[C@H]2C(=O)NCCCNC(=O)c2ccc(-c3c4nc(c(-c5cccc(S(=O)(=O)[O-])c5F)c5ccc([nH]5)c(-c5cccc(S(=O)(=O)[O-])c5F)c5nc(c(-c6cccc(S(=O)(=O)[O-])c6F)c6ccc3[nH]6)C=C5)C=C4)cc2)n1
REMARK SMILES IDX 21 1 20 2 19 3 17 4 18 5 16 7 11 8 12 9 13 10 15 11 14 12
REMARK SMILES IDX 10 13 3 14 4 15 89 16 5 17 9 18 2 19 1 20 6 21 7 22 8 23
REMARK SMILES IDX 22 24 23 25 24 26 25 28 26 29 27 30 88 31 28 32 87 33 29 34
REMARK SMILES IDX 30 35 31 36 81 37 32 38 86 39 80 40 82 41 33 42 85 43 79 44
REMARK SMILES IDX 78 45 34 47 66 48 46 49 65 50 47 51 50 52 64 53 83 54 48 55
REMARK SMILES IDX 49 56 63 58 84 59 51 60 35 61 36 62 44 63 37 64 39 65 45 66
REMARK SMILES IDX 38 67 40 68 41 69 42 70 43 71 67 72 68 73 76 74 69 75 71 76
REMARK SMILES IDX 77 77 70 78 72 79 73 80 74 81 75 82 52 83 53 84 61 85 54 86
REMARK SMILES IDX 56 87 62 88 55 89 57 90 58 91 59 92 60 93
REMARK H PARENT 19 6 23 27 82 46 50 57
REMARK Flexibility Score: inf
ROOT
ATOM      1  C   UNL A   1      31.724  28.685  26.278  1.00  0.00     0.042 C 
ENDROOT
BRANCH   1   2
ATOM      2  C   UNL A   1      32.249  27.381  26.867  1.00  0.00     0.117 C 
BRANCH   2   3
ATOM      3  N   UNL A   1      31.386  26.257  26.555  1.00  0.00    -0.354 N 
ATOM      4  C   UNL A   1      31.569  25.197  25.714  1.00  0.00     0.242 C 
ATOM      5  O   UNL A   1      30.603  24.446  25.550  1.00  0.00    -0.273 OA
ATOM      6  H   UNL A   1      30.523  26.261  27.028  1.00  0.00     0.163 HD
BRANCH   4   7
ATOM      7  C   UNL A   1      32.949  24.934  25.071  1.00  0.00     0.173 C 
ATOM      8  N   UNL A   1      32.891  23.729  24.228  1.00  0.00    -0.344 N 
ATOM      9  C   UNL A   1      32.244  23.804  22.926  1.00  0.00     0.119 C 
ATOM     10  C   UNL A   1      32.805  24.961  22.108  1.00  0.00     0.022 C 
ATOM     11  C   UNL A   1      33.425  26.141  24.244  1.00  0.00     0.035 C 
ATOM     12  C   UNL A   1      32.743  26.272  22.884  1.00  0.00     0.004 C 
BRANCH   8  13
ATOM     13  C   UNL A   1      33.621  22.608  24.553  1.00  0.00     0.133 A 
ATOM     14  C   UNL A   1      35.620  21.639  25.144  1.00  0.00     0.130 A 
ATOM     15  N   UNL A   1      35.109  20.398  25.188  1.00  0.00    -0.235 NA
ATOM     16  N   UNL A   1      34.932  22.745  24.809  1.00  0.00    -0.216 NA
ATOM     17  C   UNL A   1      33.807  20.270  24.875  1.00  0.00     0.072 A 
ATOM     18  C   UNL A   1      33.020  21.365  24.572  1.00  0.00     0.073 A 
BRANCH  14  19
ATOM     19  C   UNL A   1      37.081  21.793  25.456  1.00  0.00     0.074 C 
ATOM     20  C   UNL A   1      37.484  23.258  25.498  1.00  0.00     0.012 C 
ENDBRANCH  14  19
BRANCH  17  21
ATOM     21  C   UNL A   1      33.229  18.873  24.802  1.00  0.00     0.216 C 
BRANCH  21  22
ATOM     22  O   UNL A   1      33.086  18.382  23.462  1.00  0.00    -0.378 OA
ATOM     23  C   UNL A   1      33.747  17.143  23.245  1.00  0.00     0.195 C 
ENDBRANCH  21  22
ENDBRANCH  17  21
ENDBRANCH   8  13
ENDBRANCH   4   7
ENDBRANCH   2   3
ENDBRANCH   1   2
BRANCH   1  24
ATOM     24  C   UNL A   1      32.813  29.641  25.797  1.00  0.00     0.118 C 
BRANCH  24  25
ATOM     25  N   UNL A   1      32.541  31.027  26.148  1.00  0.00    -0.352 N 
ATOM     26  C   UNL A   1      33.134  31.842  27.079  1.00  0.00     0.251 C 
ATOM     27  H   UNL A   1      31.813  31.447  25.636  1.00  0.00     0.163 HD
ATOM     28  O   UNL A   1      32.614  32.927  27.332  1.00  0.00    -0.269 OA
BRANCH  26  29
ATOM     29  C   UNL A   1      34.372  31.432  27.777  1.00  0.00     0.039 A 
ATOM     30  C   UNL A   1      34.457  30.128  28.278  1.00  0.00     0.014 A 
ATOM     31  C   UNL A   1      35.421  32.328  27.994  1.00  0.00     0.014 A 
ATOM     32  C   UNL A   1      35.606  29.716  28.956  1.00  0.00     0.010 A 
ATOM     33  C   UNL A   1      36.599  31.892  28.599  1.00  0.00     0.010 A 
ATOM     34  C   UNL A   1      36.697  30.589  29.106  1.00  0.00    -0.014 A 
BRANCH  34  35
ATOM     35  C   UNL A   1      37.934  30.154  29.805  1.00  0.00     0.031 A 
ATOM     36  C   UNL A   1      38.236  30.643  31.198  1.00  0.00     0.074 A 
ATOM     37  C   UNL A   1      38.818  29.365  29.164  1.00  0.00     0.049 A 
ATOM     38  N   UNL A   1      39.263  30.372  31.961  1.00  0.00    -0.248 NA
ATOM     39  C   UNL A   1      37.274  31.579  31.804  1.00  0.00     0.031 C 
ATOM     40  C   UNL A   1      38.687  28.896  27.783  1.00  0.00     0.029 A 
ATOM     41  N   UNL A   1      40.012  28.832  29.583  1.00  0.00    -0.354 N 
ATOM     42  C   UNL A   1      39.091  31.127  33.115  1.00  0.00     0.074 A 
ATOM     43  C   UNL A   1      37.880  31.898  32.938  1.00  0.00     0.031 C 
ATOM     44  C   UNL A   1      39.751  28.139  27.473  1.00  0.00     0.029 A 
ATOM     45  C   UNL A   1      40.649  28.081  28.622  1.00  0.00     0.049 A 
ATOM     46  H   UNL A   1      40.377  28.975  30.486  1.00  0.00     0.167 HD
ATOM     47  C   UNL A   1      39.851  31.154  34.237  1.00  0.00     0.034 A 
ATOM     48  C   UNL A   1      41.818  27.414  28.667  1.00  0.00     0.034 A 
ATOM     49  C   UNL A   1      41.026  30.348  34.432  1.00  0.00     0.049 A 
ATOM     50  C   UNL A   1      42.602  27.398  29.951  1.00  0.00     0.074 A 
ATOM     51  C   UNL A   1      41.816  30.238  35.563  1.00  0.00     0.029 A 
ATOM     52  N   UNL A   1      41.580  29.514  33.476  1.00  0.00    -0.354 N 
ATOM     53  N   UNL A   1      42.333  27.988  31.090  1.00  0.00    -0.248 NA
ATOM     54  C   UNL A   1      43.825  26.582  29.971  1.00  0.00     0.031 C 
ATOM     55  C   UNL A   1      42.857  29.344  35.285  1.00  0.00     0.029 A 
ATOM     56  C   UNL A   1      42.700  28.882  33.988  1.00  0.00     0.049 A 
ATOM     57  H   UNL A   1      41.229  29.388  32.564  1.00  0.00     0.167 HD
ATOM     58  C   UNL A   1      43.327  27.584  31.973  1.00  0.00     0.074 A 
ATOM     59  C   UNL A   1      44.192  26.680  31.242  1.00  0.00     0.031 C 
ATOM     60  C   UNL A   1      43.517  27.939  33.268  1.00  0.00     0.034 A 
BRANCH  47  61
ATOM     61  C   UNL A   1      39.396  32.041  35.369  1.00  0.00     0.023 A 
ATOM     62  C   UNL A   1      38.519  31.524  36.344  1.00  0.00     0.012 A 
ATOM     63  C   UNL A   1      39.874  33.359  35.500  1.00  0.00     0.148 A 
ATOM     64  C   UNL A   1      38.095  32.314  37.411  1.00  0.00     0.002 A 
ATOM     65  C   UNL A   1      39.483  34.127  36.592  1.00  0.00     0.091 A 
ATOM     66  F   UNL A   1      40.690  33.842  34.552  1.00  0.00    -0.205 F 
ATOM     67  C   UNL A   1      38.585  33.611  37.541  1.00  0.00     0.022 A 
BRANCH  65  68
ATOM     68  S   UNL A   1      40.122  35.780  36.891  1.00  0.00     0.127 S 
ATOM     69  O   UNL A   1      41.565  35.542  36.885  1.00  0.00    -0.237 OA
ATOM     70  O   UNL A   1      39.622  36.519  35.731  1.00  0.00    -0.237 OA
ATOM     71  O   UNL A   1      39.561  36.201  38.165  1.00  0.00    -0.744 OA
ENDBRANCH  65  68
ENDBRANCH  47  61
BRANCH  48  72
ATOM     72  C   UNL A   1      42.271  26.629  27.483  1.00  0.00     0.023 A 
ATOM     73  C   UNL A   1      43.026  27.265  26.480  1.00  0.00     0.012 A 
ATOM     74  C   UNL A   1      41.987  25.255  27.361  1.00  0.00     0.148 A 
ATOM     75  C   UNL A   1      43.460  26.559  25.358  1.00  0.00     0.002 A 
ATOM     76  C   UNL A   1      42.470  24.543  26.269  1.00  0.00     0.091 A 
ATOM     77  F   UNL A   1      41.259  24.668  28.322  1.00  0.00    -0.205 F 
ATOM     78  C   UNL A   1      43.190  25.197  25.258  1.00  0.00     0.022 A 
BRANCH  76  79
ATOM     79  S   UNL A   1      42.287  22.762  26.129  1.00  0.00     0.127 S 
ATOM     80  O   UNL A   1      42.899  22.501  24.827  1.00  0.00    -0.237 OA
ATOM     81  O   UNL A   1      43.062  22.286  27.278  1.00  0.00    -0.237 OA
ATOM     82  O   UNL A   1      40.860  22.506  26.223  1.00  0.00    -0.744 OA
ENDBRANCH  76  79
ENDBRANCH  48  72
BRANCH  60  83
ATOM     83  C   UNL A   1      44.679  27.318  33.998  1.00  0.00     0.023 A 
ATOM     84  C   UNL A   1      45.949  27.927  33.945  1.00  0.00     0.012 A 
ATOM     85  C   UNL A   1      44.500  26.161  34.781  1.00  0.00     0.148 A 
ATOM     86  C   UNL A   1      47.031  27.372  34.628  1.00  0.00     0.002 A 
ATOM     87  C   UNL A   1      45.571  25.642  35.500  1.00  0.00     0.091 A 
ATOM     88  F   UNL A   1      43.291  25.581  34.803  1.00  0.00    -0.205 F 
ATOM     89  C   UNL A   1      46.839  26.237  35.413  1.00  0.00     0.022 A 
BRANCH  87  90
ATOM     90  S   UNL A   1      45.383  24.241  36.609  1.00  0.00     0.127 S 
ATOM     91  O   UNL A   1      44.953  23.188  35.691  1.00  0.00    -0.237 OA
ATOM     92  O   UNL A   1      46.739  24.074  37.136  1.00  0.00    -0.237 OA
ATOM     93  O   UNL A   1      44.401  24.654  37.602  1.00  0.00    -0.744 OA
ENDBRANCH  87  90
ENDBRANCH  60  83
ENDBRANCH  34  35
ENDBRANCH  26  29
ENDBRANCH  24  25
ENDBRANCH   1  24
TORSDOF 17
ENDMDL
MODEL 2
REMARK VINA RESULT:     -11.3      5.013     10.323
REMARK SMILES CCc1nc(COC)cc(N2CCCC[C@H]2C(=O)NCCCNC(=O)c2ccc(-c3c4nc(c(-c5cccc(S(=O)(=O)[O-])c5F)c5ccc([nH]5)c(-c5cccc(S(=O)(=O)[O-])c5F)c5nc(c(-c6cccc(S(=O)(=O)[O-])c6F)c6ccc3[nH]6)C=C5)C=C4)cc2)n1
REMARK SMILES IDX 21 1 20 2 19 3 17 4 18 5 16 7 11 8 12 9 13 10 15 11 14 12
REMARK SMILES IDX 10 13 3 14 4 15 89 16 5 17 9 18 2 19 1 20 6 21 7 22 8 23
REMARK SMILES IDX 22 24 23 25 24 26 25 28 26 29 27 30 88 31 28 32 87 33 29 34
REMARK SMILES IDX 30 35 31 36 81 37 32 38 86 39 80 40 82 41 33 42 85 43 79 44
REMARK SMILES IDX 78 45 34 47 66 48 46 49 65 50 47 51 50 52 64 53 83 54 48 55
REMARK SMILES IDX 49 56 63 58 84 59 51 60 35 61 36 62 44 63 37 64 39 65 45 66
REMARK SMILES IDX 38 67 40 68 41 69 42 70 43 71 67 72 68 73 76 74 69 75 71 76
REMARK SMILES IDX 77 77 70 78 72 79 73 80 74 81 75 82 52 83 53 84 61 85 54 86
REMARK SMILES IDX 56 87 62 88 55 89 57 90 58 91 59 92 60 93
REMARK H PARENT 19 6 23 27 82 46 50 57
REMARK Flexibility Score: inf
ROOT
ATOM      1  C   UNL A   1      36.000  22.238  26.064  1.00  0.00     0.042 C 
ENDROOT
BRANCH   1   2
ATOM      2  C   UNL A   1      35.491  23.672  25.984  1.00  0.00     0.117 C 
BRANCH   2   3
ATOM      3  N   UNL A   1      35.325  24.114  24.612  1.00  0.00    -0.354 N 
ATOM      4  C   UNL A   1      34.240  24.634  23.966  1.00  0.00     0.242 C 
ATOM      5  O   UNL A   1      34.349  24.809  22.749  1.00  0.00    -0.273 OA
ATOM      6  H   UNL A   1      36.130  24.023  24.053  1.00  0.00     0.163 HD
BRANCH   4   7
ATOM      7  C   UNL A   1      32.975  25.039  24.757  1.00  0.00     0.173 C 
ATOM      8  N   UNL A   1      32.153  25.960  23.955  1.00  0.00    -0.344 N 
ATOM      9  C   UNL A   1      31.356  25.428  22.859  1.00  0.00     0.119 C 
ATOM     10  C   UNL A   1      30.491  24.266  23.332  1.00  0.00     0.022 C 
ATOM     11  C   UNL A   1      32.150  23.808  25.170  1.00  0.00     0.035 C 
ATOM     12  C   UNL A   1      31.325  23.202  24.036  1.00  0.00     0.004 C 
BRANCH   8  13
ATOM     13  C   UNL A   1      31.958  27.261  24.360  1.00  0.00     0.133 A 
ATOM     14  C   UNL A   1      30.796  29.238  24.206  1.00  0.00     0.130 A 
ATOM     15  N   UNL A   1      31.550  29.858  25.129  1.00  0.00    -0.235 NA
ATOM     16  N   UNL A   1      30.981  27.977  23.780  1.00  0.00    -0.216 NA
ATOM     17  C   UNL A   1      32.560  29.145  25.661  1.00  0.00     0.072 A 
ATOM     18  C   UNL A   1      32.781  27.826  25.314  1.00  0.00     0.073 A 
BRANCH  14  19
ATOM     19  C   UNL A   1      29.688  30.034  23.578  1.00  0.00     0.074 C 
ATOM     20  C   UNL A   1      29.069  29.285  22.408  1.00  0.00     0.012 C 
ENDBRANCH  14  19
BRANCH  17  21
ATOM     21  C   UNL A   1      33.498  29.849  26.617  1.00  0.00     0.216 C 
BRANCH  21  22
ATOM     22  O   UNL A   1      34.297  28.952  27.400  1.00  0.00    -0.378 OA
ATOM     23  C   UNL A   1      35.654  29.360  27.512  1.00  0.00     0.195 C 
ENDBRANCH  21  22
ENDBRANCH  17  21
ENDBRANCH   8  13
ENDBRANCH   4   7
ENDBRANCH   2   3
ENDBRANCH   1   2
BRANCH   1  24
ATOM     24  C   UNL A   1      37.111  21.910  25.068  1.00  0.00     0.118 C 
BRANCH  24  25
ATOM     25  N   UNL A   1      38.031  20.898  25.566  1.00  0.00    -0.352 N 
ATOM     26  C   UNL A   1      39.274  21.028  26.133  1.00  0.00     0.251 C 
ATOM     27  H   UNL A   1      37.711  19.972  25.483  1.00  0.00     0.163 HD
ATOM     28  O   UNL A   1      39.951  20.017  26.312  1.00  0.00    -0.269 OA
BRANCH  26  29
ATOM     29  C   UNL A   1      39.804  22.354  26.520  1.00  0.00     0.039 A 
ATOM     30  C   UNL A   1      40.718  22.426  27.577  1.00  0.00     0.014 A 
ATOM     31  C   UNL A   1      39.372  23.526  25.896  1.00  0.00     0.014 A 
ATOM     32  C   UNL A   1      41.224  23.665  27.977  1.00  0.00     0.010 A 
ATOM     33  C   UNL A   1      39.938  24.752  26.241  1.00  0.00     0.010 A 
ATOM     34  C   UNL A   1      40.854  24.838  27.300  1.00  0.00    -0.014 A 
BRANCH  34  35
ATOM     35  C   UNL A   1      41.404  26.159  27.701  1.00  0.00     0.031 A 
ATOM     36  C   UNL A   1      42.817  26.538  27.340  1.00  0.00     0.074 A 
ATOM     37  C   UNL A   1      40.653  26.995  28.444  1.00  0.00     0.049 A 
ATOM     38  N   UNL A   1      43.466  27.642  27.605  1.00  0.00    -0.248 NA
ATOM     39  C   UNL A   1      43.614  25.539  26.609  1.00  0.00     0.031 C 
ATOM     40  C   UNL A   1      39.304  26.709  28.936  1.00  0.00     0.029 A 
ATOM     41  N   UNL A   1      40.924  28.249  28.932  1.00  0.00    -0.354 N 
ATOM     42  C   UNL A   1      44.752  27.458  27.109  1.00  0.00     0.074 A 
ATOM     43  C   UNL A   1      44.803  26.121  26.560  1.00  0.00     0.031 C 
ATOM     44  C   UNL A   1      38.862  27.760  29.645  1.00  0.00     0.029 A 
ATOM     45  C   UNL A   1      39.900  28.786  29.676  1.00  0.00     0.049 A 
ATOM     46  H   UNL A   1      41.773  28.719  28.765  1.00  0.00     0.167 HD
ATOM     47  C   UNL A   1      45.787  28.331  27.080  1.00  0.00     0.034 A 
ATOM     48  C   UNL A   1      39.803  29.975  30.302  1.00  0.00     0.034 A 
ATOM     49  C   UNL A   1      45.718  29.678  27.580  1.00  0.00     0.049 A 
ATOM     50  C   UNL A   1      40.938  30.955  30.187  1.00  0.00     0.074 A 
ATOM     51  C   UNL A   1      46.682  30.670  27.520  1.00  0.00     0.029 A 
ATOM     52  N   UNL A   1      44.623  30.225  28.229  1.00  0.00    -0.354 N 
ATOM     53  N   UNL A   1      42.086  30.822  29.568  1.00  0.00    -0.248 NA
ATOM     54  C   UNL A   1      40.745  32.271  30.815  1.00  0.00     0.031 C 
ATOM     55  C   UNL A   1      46.173  31.813  28.146  1.00  0.00     0.029 A 
ATOM     56  C   UNL A   1      44.884  31.540  28.575  1.00  0.00     0.049 A 
ATOM     57  H   UNL A   1      43.783  29.748  28.418  1.00  0.00     0.167 HD
ATOM     58  C   UNL A   1      42.733  32.045  29.695  1.00  0.00     0.074 A 
ATOM     59  C   UNL A   1      41.840  32.915  30.433  1.00  0.00     0.031 C 
ATOM     60  C   UNL A   1      43.962  32.413  29.256  1.00  0.00     0.034 A 
BRANCH  47  61
ATOM     61  C   UNL A   1      47.068  27.876  26.429  1.00  0.00     0.023 A 
ATOM     62  C   UNL A   1      48.079  27.293  27.221  1.00  0.00     0.012 A 
ATOM     63  C   UNL A   1      47.253  27.970  25.036  1.00  0.00     0.148 A 
ATOM     64  C   UNL A   1      49.267  26.847  26.645  1.00  0.00     0.002 A 
ATOM     65  C   UNL A   1      48.422  27.482  24.462  1.00  0.00     0.091 A 
ATOM     66  F   UNL A   1      46.292  28.546  24.300  1.00  0.00    -0.205 F 
ATOM     67  C   UNL A   1      49.434  26.931  25.265  1.00  0.00     0.022 A 
BRANCH  65  68
ATOM     68  S   UNL A   1      48.698  27.471  22.687  1.00  0.00     0.127 S 
ATOM     69  O   UNL A   1      48.660  26.038  22.392  1.00  0.00    -0.237 OA
ATOM     70  O   UNL A   1      47.545  28.224  22.190  1.00  0.00    -0.237 OA
ATOM     71  O   UNL A   1      49.982  28.121  22.476  1.00  0.00    -0.744 OA
ENDBRANCH  65  68
ENDBRANCH  47  61
BRANCH  48  72
ATOM     72  C   UNL A   1      38.547  30.338  31.016  1.00  0.00     0.023 A 
ATOM     73  C   UNL A   1      38.349  29.890  32.337  1.00  0.00     0.012 A 
ATOM     74  C   UNL A   1      37.566  31.147  30.412  1.00  0.00     0.148 A 
ATOM     75  C   UNL A   1      37.181  30.210  33.029  1.00  0.00     0.002 A 
ATOM     76  C   UNL A   1      36.430  31.508  31.127  1.00  0.00     0.091 A 
ATOM     77  F   UNL A   1      37.767  31.556  29.151  1.00  0.00    -0.205 F 
ATOM     78  C   UNL A   1      36.227  31.026  32.429  1.00  0.00     0.022 A 
BRANCH  76  79
ATOM     79  S   UNL A   1      35.218  32.666  30.480  1.00  0.00     0.127 S 
ATOM     80  O   UNL A   1      34.680  31.927  29.339  1.00  0.00    -0.237 OA
ATOM     81  O   UNL A   1      34.297  32.805  31.612  1.00  0.00    -0.237 OA
ATOM     82  O   UNL A   1      35.960  33.874  30.162  1.00  0.00    -0.744 OA
ENDBRANCH  76  79
ENDBRANCH  48  72
BRANCH  60  83
ATOM     83  C   UNL A   1      44.401  33.829  29.518  1.00  0.00     0.023 A 
ATOM     84  C   UNL A   1      44.968  34.171  30.762  1.00  0.00     0.012 A 
ATOM     85  C   UNL A   1      44.304  34.810  28.511  1.00  0.00     0.148 A 
ATOM     86  C   UNL A   1      45.393  35.475  31.013  1.00  0.00     0.002 A 
ATOM     87  C   UNL A   1      44.776  36.095  28.751  1.00  0.00     0.091 A 
ATOM     88  F   UNL A   1      43.742  34.474  27.340  1.00  0.00    -0.205 F 
ATOM     89  C   UNL A   1      45.307  36.433  30.006  1.00  0.00     0.022 A 
BRANCH  87  90
ATOM     90  S   UNL A   1      44.789  37.358  27.475  1.00  0.00     0.127 S 
ATOM     91  O   UNL A   1      45.299  38.517  28.205  1.00  0.00    -0.237 OA
ATOM     92  O   UNL A   1      45.719  36.801  26.491  1.00  0.00    -0.237 OA
ATOM     93  O   UNL A   1      43.413  37.461  27.007  1.00  0.00    -0.744 OA
ENDBRANCH  87  90
ENDBRANCH  60  83
ENDBRANCH  34  35
ENDBRANCH  26  29
ENDBRANCH  24  25
ENDBRANCH   1  24
TORSDOF 17
ENDMDL
MODEL 3
REMARK VINA RESULT:     -11.2      4.726     10.199
REMARK SMILES CCc1nc(COC)cc(N2CCCC[C@H]2C(=O)NCCCNC(=O)c2ccc(-c3c4nc(c(-c5cccc(S(=O)(=O)[O-])c5F)c5ccc([nH]5)c(-c5cccc(S(=O)(=O)[O-])c5F)c5nc(c(-c6cccc(S(=O)(=O)[O-])c6F)c6ccc3[nH]6)C=C5)C=C4)cc2)n1
REMARK SMILES IDX 21 1 20 2 19 3 17 4 18 5 16 7 11 8 12 9 13 10 15 11 14 12
REMARK SMILES IDX 10 13 3 14 4 15 89 16 5 17 9 18 2 19 1 20 6 21 7 22 8 23
REMARK SMILES IDX 22 24 23 25 24 26 25 28 26 29 27 30 88 31 28 32 87 33 29 34
REMARK SMILES IDX 30 35 31 36 81 37 32 38 86 39 80 40 82 41 33 42 85 43 79 44
REMARK SMILES IDX 78 45 34 47 66 48 46 49 65 50 47 51 50 52 64 53 83 54 48 55
REMARK SMILES IDX 49 56 63 58 84 59 51 60 35 61 36 62 44 63 37 64 39 65 45 66
REMARK SMILES IDX 38 67 40 68 41 69 42 70 43 71 67 72 68 73 76 74 69 75 71 76
REMARK SMILES IDX 77 77 70 78 72 79 73 80 74 81 75 82 52 83 53 84 61 85 54 86
REMARK SMILES IDX 56 87 62 88 55 89 57 90 58 91 59 92 60 93
REMARK H PARENT 19 6 23 27 82 46 50 57
REMARK Flexibility Score: inf
ROOT
ATOM      1  C   UNL A   1      36.431  22.192  23.916  1.00  0.00     0.042 C 
ENDROOT
BRANCH   1   2
ATOM      2  C   UNL A   1      35.776  23.513  23.528  1.00  0.00     0.117 C 
BRANCH   2   3
ATOM      3  N   UNL A   1      34.438  23.322  23.000  1.00  0.00    -0.354 N 
ATOM      4  C   UNL A   1      33.216  23.597  23.543  1.00  0.00     0.242 C 
ATOM      5  O   UNL A   1      32.228  23.211  22.912  1.00  0.00    -0.273 OA
ATOM      6  H   UNL A   1      34.407  22.925  22.100  1.00  0.00     0.163 HD
BRANCH   4   7
ATOM      7  C   UNL A   1      33.103  24.415  24.850  1.00  0.00     0.173 C 
ATOM      8  N   UNL A   1      31.781  25.055  24.931  1.00  0.00    -0.344 N 
ATOM      9  C   UNL A   1      30.621  24.246  25.282  1.00  0.00     0.119 C 
ATOM     10  C   UNL A   1      30.878  23.458  26.560  1.00  0.00     0.022 C 
ATOM     11  C   UNL A   1      33.350  23.537  26.088  1.00  0.00     0.035 C 
ATOM     12  C   UNL A   1      32.166  22.649  26.467  1.00  0.00     0.004 C 
BRANCH   8  13
ATOM     13  C   UNL A   1      31.659  26.426  24.899  1.00  0.00     0.133 A 
ATOM     14  C   UNL A   1      31.732  28.455  25.977  1.00  0.00     0.130 A 
ATOM     15  N   UNL A   1      31.411  29.153  24.876  1.00  0.00    -0.235 NA
ATOM     16  N   UNL A   1      31.836  27.115  26.037  1.00  0.00    -0.216 NA
ATOM     17  C   UNL A   1      31.183  28.443  23.755  1.00  0.00     0.072 A 
ATOM     18  C   UNL A   1      31.321  27.069  23.724  1.00  0.00     0.073 A 
BRANCH  14  19
ATOM     19  C   UNL A   1      31.955  29.231  27.243  1.00  0.00     0.074 C 
ATOM     20  C   UNL A   1      32.769  30.487  26.981  1.00  0.00     0.012 C 
ENDBRANCH  14  19
BRANCH  17  21
ATOM     21  C   UNL A   1      30.706  29.189  22.528  1.00  0.00     0.216 C 
BRANCH  21  22
ATOM     22  O   UNL A   1      29.466  28.695  22.004  1.00  0.00    -0.378 OA
ATOM     23  C   UNL A   1      28.332  29.407  22.480  1.00  0.00     0.195 C 
ENDBRANCH  21  22
ENDBRANCH  17  21
ENDBRANCH   8  13
ENDBRANCH   4   7
ENDBRANCH   2   3
ENDBRANCH   1   2
BRANCH   1  24
ATOM     24  C   UNL A   1      36.645  22.015  25.417  1.00  0.00     0.118 C 
BRANCH  24  25
ATOM     25  N   UNL A   1      37.610  20.970  25.728  1.00  0.00    -0.352 N 
ATOM     26  C   UNL A   1      38.924  21.058  26.112  1.00  0.00     0.251 C 
ATOM     27  H   UNL A   1      37.263  20.053  25.651  1.00  0.00     0.163 HD
ATOM     28  O   UNL A   1      39.601  20.032  26.143  1.00  0.00    -0.269 OA
BRANCH  26  29
ATOM     29  C   UNL A   1      39.529  22.358  26.477  1.00  0.00     0.039 A 
ATOM     30  C   UNL A   1      40.549  22.375  27.435  1.00  0.00     0.014 A 
ATOM     31  C   UNL A   1      39.069  23.559  25.932  1.00  0.00     0.014 A 
ATOM     32  C   UNL A   1      41.129  23.588  27.812  1.00  0.00     0.010 A 
ATOM     33  C   UNL A   1      39.703  24.759  26.249  1.00  0.00     0.010 A 
ATOM     34  C   UNL A   1      40.725  24.790  27.209  1.00  0.00    -0.014 A 
BRANCH  34  35
ATOM     35  C   UNL A   1      41.352  26.083  27.585  1.00  0.00     0.031 A 
ATOM     36  C   UNL A   1      42.765  26.398  27.166  1.00  0.00     0.074 A 
ATOM     37  C   UNL A   1      40.672  26.953  28.358  1.00  0.00     0.049 A 
ATOM     38  N   UNL A   1      43.475  27.470  27.403  1.00  0.00    -0.248 NA
ATOM     39  C   UNL A   1      43.484  25.364  26.404  1.00  0.00     0.031 C 
ATOM     40  C   UNL A   1      39.333  26.729  28.906  1.00  0.00     0.029 A 
ATOM     41  N   UNL A   1      41.021  28.193  28.833  1.00  0.00    -0.354 N 
ATOM     42  C   UNL A   1      44.729  27.227  26.854  1.00  0.00     0.074 A 
ATOM     43  C   UNL A   1      44.696  25.890  26.305  1.00  0.00     0.031 C 
ATOM     44  C   UNL A   1      38.970  27.798  29.632  1.00  0.00     0.029 A 
ATOM     45  C   UNL A   1      40.054  28.776  29.618  1.00  0.00     0.049 A 
ATOM     46  H   UNL A   1      41.883  28.623  28.630  1.00  0.00     0.167 HD
ATOM     47  C   UNL A   1      45.801  28.052  26.781  1.00  0.00     0.034 A 
ATOM     48  C   UNL A   1      40.038  29.967  30.247  1.00  0.00     0.034 A 
ATOM     49  C   UNL A   1      45.815  29.400  27.282  1.00  0.00     0.049 A 
ATOM     50  C   UNL A   1      41.212  30.894  30.084  1.00  0.00     0.074 A 
ATOM     51  C   UNL A   1      46.821  30.346  27.182  1.00  0.00     0.029 A 
ATOM     52  N   UNL A   1      44.775  29.996  27.975  1.00  0.00    -0.354 N 
ATOM     53  N   UNL A   1      42.325  30.708  29.418  1.00  0.00    -0.248 NA
ATOM     54  C   UNL A   1      41.106  32.217  30.718  1.00  0.00     0.031 C 
ATOM     55  C   UNL A   1      46.392  31.511  27.827  1.00  0.00     0.029 A 
ATOM     56  C   UNL A   1      45.111  31.297  28.309  1.00  0.00     0.049 A 
ATOM     57  H   UNL A   1      43.922  29.559  28.200  1.00  0.00     0.167 HD
ATOM     58  C   UNL A   1      43.033  31.900  29.517  1.00  0.00     0.074 A 
ATOM     59  C   UNL A   1      42.212  32.810  30.290  1.00  0.00     0.031 C 
ATOM     60  C   UNL A   1      44.259  32.211  29.026  1.00  0.00     0.034 A 
BRANCH  47  61
ATOM     61  C   UNL A   1      47.032  27.538  26.078  1.00  0.00     0.023 A 
ATOM     62  C   UNL A   1      47.215  27.820  24.708  1.00  0.00     0.012 A 
ATOM     63  C   UNL A   1      48.029  26.830  26.776  1.00  0.00     0.148 A 
ATOM     64  C   UNL A   1      48.351  27.373  24.035  1.00  0.00     0.002 A 
ATOM     65  C   UNL A   1      49.181  26.426  26.108  1.00  0.00     0.091 A 
ATOM     66  F   UNL A   1      47.830  26.552  28.072  1.00  0.00    -0.205 F 
ATOM     67  C   UNL A   1      49.339  26.686  24.737  1.00  0.00     0.022 A 
BRANCH  65  68
ATOM     68  S   UNL A   1      50.546  25.607  26.942  1.00  0.00     0.127 S 
ATOM     69  O   UNL A   1      51.433  25.298  25.820  1.00  0.00    -0.237 OA
ATOM     70  O   UNL A   1      51.038  26.658  27.834  1.00  0.00    -0.237 OA
ATOM     71  O   UNL A   1      49.969  24.457  27.621  1.00  0.00    -0.744 OA
ENDBRANCH  65  68
ENDBRANCH  47  61
BRANCH  48  72
ATOM     72  C   UNL A   1      38.831  30.388  31.012  1.00  0.00     0.023 A 
ATOM     73  C   UNL A   1      38.749  30.097  32.387  1.00  0.00     0.012 A 
ATOM     74  C   UNL A   1      37.782  31.098  30.397  1.00  0.00     0.148 A 
ATOM     75  C   UNL A   1      37.629  30.473  33.130  1.00  0.00     0.002 A 
ATOM     76  C   UNL A   1      36.695  31.519  31.154  1.00  0.00     0.091 A 
ATOM     77  F   UNL A   1      37.873  31.357  29.085  1.00  0.00    -0.205 F 
ATOM     78  C   UNL A   1      36.608  31.192  32.516  1.00  0.00     0.022 A 
BRANCH  76  79
ATOM     79  S   UNL A   1      35.403  32.565  30.475  1.00  0.00     0.127 S 
ATOM     80  O   UNL A   1      36.144  33.784  30.154  1.00  0.00    -0.237 OA
ATOM     81  O   UNL A   1      34.963  31.789  29.312  1.00  0.00    -0.237 OA
ATOM     82  O   UNL A   1      34.405  32.687  31.523  1.00  0.00    -0.744 OA
ENDBRANCH  76  79
ENDBRANCH  48  72
BRANCH  60  83
ATOM     83  C   UNL A   1      44.773  33.606  29.268  1.00  0.00     0.023 A 
ATOM     84  C   UNL A   1      45.464  33.903  30.460  1.00  0.00     0.012 A 
ATOM     85  C   UNL A   1      44.622  34.608  28.290  1.00  0.00     0.148 A 
ATOM     86  C   UNL A   1      45.959  35.186  30.692  1.00  0.00     0.002 A 
ATOM     87  C   UNL A   1      45.162  35.870  28.506  1.00  0.00     0.091 A 
ATOM     88  F   UNL A   1      43.943  34.315  27.171  1.00  0.00    -0.205 F 
ATOM     89  C   UNL A   1      45.818  36.165  29.711  1.00  0.00     0.022 A 
BRANCH  87  90
ATOM     90  S   UNL A   1      45.106  37.156  27.253  1.00  0.00     0.127 S 
ATOM     91  O   UNL A   1      45.674  38.297  27.969  1.00  0.00    -0.237 OA
ATOM     92  O   UNL A   1      45.966  36.608  26.202  1.00  0.00    -0.237 OA
ATOM     93  O   UNL A   1      43.704  37.279  26.876  1.00  0.00    -0.744 OA
ENDBRANCH  87  90
ENDBRANCH  60  83
ENDBRANCH  34  35
ENDBRANCH  26  29
ENDBRANCH  24  25
ENDBRANCH   1  24
TORSDOF 17
ENDMDL
