MODEL 1
REMARK VINA RESULT:     -10.9      0.000      0.000
REMARK SMILES CC(C)[C@@H](CCC(=O)NCCCNC(=O)c1ccc(-c2c3nc(c(-c4cccc(S(=O)(=O)[O-])c4F)c4ccc([nH]4)c(-c4cccc(S(=O)(=O)[O-])c4F)c4nc(c(-c5cccc(S(=O)(=O)[O-])c5F)c5ccc2[nH]5)C=C4)C=C3)cc1)CC[NH+]1CC2(CC2)C1
REMARK SMILES IDX 10 1 9 2 7 3 8 4 6 6 5 7 4 8 2 9 1 10 3 11 79 12 80 13 81 14
REMARK SMILES IDX 82 15 86 16 83 18 84 19 85 20 11 21 12 22 13 23 14 24 15 26
REMARK SMILES IDX 16 27 17 28 78 29 18 30 77 31 19 32 20 33 21 34 71 35 22 36
REMARK SMILES IDX 76 37 70 38 72 39 23 40 75 41 69 42 68 43 24 45 56 46 36 47
REMARK SMILES IDX 55 48 37 49 40 50 54 51 73 52 38 53 39 54 53 56 74 57 41 58
REMARK SMILES IDX 25 59 26 60 34 61 27 62 29 63 35 64 28 65 30 66 31 67 32 68
REMARK SMILES IDX 33 69 57 70 58 71 66 72 59 73 61 74 67 75 60 76 62 77 63 78
REMARK SMILES IDX 64 79 65 80 42 81 43 82 51 83 44 84 46 85 52 86 45 87 47 88
REMARK SMILES IDX 48 89 49 90 50 91
REMARK H PARENT 9 5 81 17 13 25 72 44 40 55
REMARK Flexibility Score: inf
ROOT
ATOM      1  C   UNL A   1      31.254  27.562  24.080  1.00  0.00     0.117 C 
ENDROOT
BRANCH   1   2
ATOM      2  N   UNL A   1      32.334  27.013  23.278  1.00  0.00    -0.356 N 
ATOM      3  C   UNL A   1      33.090  25.885  23.388  1.00  0.00     0.220 C 
ATOM      4  O   UNL A   1      33.916  25.672  22.498  1.00  0.00    -0.275 OA
ATOM      5  H   UNL A   1      32.567  27.568  22.500  1.00  0.00     0.163 HD
BRANCH   3   6
ATOM      6  C   UNL A   1      32.925  24.900  24.528  1.00  0.00     0.100 C 
BRANCH   6   7
ATOM      7  C   UNL A   1      34.241  24.452  25.208  1.00  0.00     0.014 C 
BRANCH   7   8
ATOM      8  C   UNL A   1      34.616  22.917  25.177  1.00  0.00    -0.003 C 
BRANCH   8   9
ATOM      9  C   UNL A   1      36.151  22.781  24.871  1.00  0.00    -0.014 C 
ATOM     10  C   UNL A   1      36.383  22.782  23.343  1.00  0.00     0.007 C 
ATOM     11  C   UNL A   1      37.154  23.736  25.505  1.00  0.00     0.007 C 
ENDBRANCH   8   9
BRANCH   8  12
ATOM     12  C   UNL A   1      33.479  22.219  24.370  1.00  0.00     0.065 C 
BRANCH  12  13
ATOM     13  C   UNL A   1      33.217  20.702  24.283  1.00  0.00     0.262 C 
BRANCH  13  14
ATOM     14  N   UNL A   1      33.754  19.692  25.188  1.00  0.00    -0.334 N 
ATOM     15  C   UNL A   1      32.953  18.455  25.185  1.00  0.00     0.275 C 
ATOM     16  C   UNL A   1      34.945  18.955  24.763  1.00  0.00     0.275 C 
ATOM     17  H   UNL A   1      33.841  20.281  26.016  1.00  0.00     0.348 HD
ATOM     18  C   UNL A   1      34.053  17.826  24.430  1.00  0.00     0.068 C 
ATOM     19  C   UNL A   1      34.026  17.039  23.161  1.00  0.00     0.020 C 
ATOM     20  C   UNL A   1      34.390  16.367  24.453  1.00  0.00     0.020 C 
ENDBRANCH  13  14
ENDBRANCH  12  13
ENDBRANCH   8  12
ENDBRANCH   7   8
ENDBRANCH   6   7
ENDBRANCH   3   6
ENDBRANCH   1   2
BRANCH   1  21
ATOM     21  C   UNL A   1      31.451  29.031  24.466  1.00  0.00     0.042 C 
BRANCH  21  22
ATOM     22  C   UNL A   1      32.678  29.357  25.329  1.00  0.00     0.118 C 
BRANCH  22  23
ATOM     23  N   UNL A   1      32.569  30.708  25.854  1.00  0.00    -0.352 N 
ATOM     24  C   UNL A   1      33.168  31.343  26.911  1.00  0.00     0.251 C 
ATOM     25  H   UNL A   1      31.942  31.279  25.352  1.00  0.00     0.163 HD
ATOM     26  O   UNL A   1      32.546  32.289  27.403  1.00  0.00    -0.269 OA
BRANCH  24  27
ATOM     27  C   UNL A   1      34.520  31.014  27.453  1.00  0.00     0.039 A 
ATOM     28  C   UNL A   1      34.766  29.668  27.776  1.00  0.00     0.014 A 
ATOM     29  C   UNL A   1      35.466  31.968  27.835  1.00  0.00     0.014 A 
ATOM     30  C   UNL A   1      35.908  29.289  28.497  1.00  0.00     0.010 A 
ATOM     31  C   UNL A   1      36.640  31.578  28.514  1.00  0.00     0.010 A 
ATOM     32  C   UNL A   1      36.861  30.240  28.886  1.00  0.00    -0.014 A 
BRANCH  32  33
ATOM     33  C   UNL A   1      38.055  29.830  29.691  1.00  0.00     0.031 A 
ATOM     34  C   UNL A   1      38.266  30.341  31.099  1.00  0.00     0.074 A 
ATOM     35  C   UNL A   1      38.977  29.000  29.160  1.00  0.00     0.049 A 
ATOM     36  N   UNL A   1      39.245  30.088  31.934  1.00  0.00    -0.248 NA
ATOM     37  C   UNL A   1      37.254  31.263  31.637  1.00  0.00     0.031 C 
ATOM     38  C   UNL A   1      38.938  28.458  27.802  1.00  0.00     0.029 A 
ATOM     39  N   UNL A   1      40.138  28.485  29.689  1.00  0.00    -0.354 N 
ATOM     40  C   UNL A   1      38.996  30.849  33.071  1.00  0.00     0.074 A 
ATOM     41  C   UNL A   1      37.771  31.579  32.818  1.00  0.00     0.031 C 
ATOM     42  C   UNL A   1      40.028  27.699  27.600  1.00  0.00     0.029 A 
ATOM     43  C   UNL A   1      40.862  27.724  28.799  1.00  0.00     0.049 A 
ATOM     44  H   UNL A   1      40.426  28.646  30.617  1.00  0.00     0.167 HD
ATOM     45  C   UNL A   1      39.705  30.928  34.224  1.00  0.00     0.034 A 
ATOM     46  C   UNL A   1      42.068  27.130  28.916  1.00  0.00     0.034 A 
ATOM     47  C   UNL A   1      40.897  30.169  34.507  1.00  0.00     0.049 A 
ATOM     48  C   UNL A   1      42.818  27.208  30.220  1.00  0.00     0.074 A 
ATOM     49  C   UNL A   1      41.616  30.112  35.691  1.00  0.00     0.029 A 
ATOM     50  N   UNL A   1      41.556  29.353  33.605  1.00  0.00    -0.354 N 
ATOM     51  N   UNL A   1      42.473  27.799  31.337  1.00  0.00    -0.248 NA
ATOM     52  C   UNL A   1      44.111  26.508  30.290  1.00  0.00     0.031 C 
ATOM     53  C   UNL A   1      42.730  29.291  35.491  1.00  0.00     0.029 A 
ATOM     54  C   UNL A   1      42.685  28.806  34.196  1.00  0.00     0.049 A 
ATOM     55  H   UNL A   1      41.266  29.185  32.678  1.00  0.00     0.167 HD
ATOM     56  C   UNL A   1      43.486  27.514  32.250  1.00  0.00     0.074 A 
ATOM     57  C   UNL A   1      44.444  26.676  31.562  1.00  0.00     0.031 C 
ATOM     58  C   UNL A   1      43.613  27.924  33.535  1.00  0.00     0.034 A 
BRANCH  45  59
ATOM     59  C   UNL A   1      39.204  31.849  35.309  1.00  0.00     0.023 A 
ATOM     60  C   UNL A   1      38.303  31.365  36.278  1.00  0.00     0.012 A 
ATOM     61  C   UNL A   1      39.712  33.159  35.433  1.00  0.00     0.148 A 
ATOM     62  C   UNL A   1      37.893  32.177  37.337  1.00  0.00     0.002 A 
ATOM     63  C   UNL A   1      39.334  33.947  36.515  1.00  0.00     0.091 A 
ATOM     64  F   UNL A   1      40.562  33.606  34.497  1.00  0.00    -0.205 F 
ATOM     65  C   UNL A   1      38.417  33.461  37.461  1.00  0.00     0.022 A 
BRANCH  63  66
ATOM     66  S   UNL A   1      40.015  35.583  36.815  1.00  0.00     0.127 S 
ATOM     67  O   UNL A   1      41.450  35.321  36.756  1.00  0.00    -0.237 OA
ATOM     68  O   UNL A   1      39.485  36.349  35.689  1.00  0.00    -0.237 OA
ATOM     69  O   UNL A   1      39.509  35.995  38.122  1.00  0.00    -0.744 OA
ENDBRANCH  63  66
ENDBRANCH  45  59
BRANCH  46  70
ATOM     70  C   UNL A   1      42.639  26.372  27.765  1.00  0.00     0.023 A 
ATOM     71  C   UNL A   1      43.594  26.984  26.930  1.00  0.00     0.012 A 
ATOM     72  C   UNL A   1      42.243  25.047  27.497  1.00  0.00     0.148 A 
ATOM     73  C   UNL A   1      44.114  26.306  25.828  1.00  0.00     0.002 A 
ATOM     74  C   UNL A   1      42.813  24.354  26.435  1.00  0.00     0.091 A 
ATOM     75  F   UNL A   1      41.319  24.486  28.290  1.00  0.00    -0.205 F 
ATOM     76  C   UNL A   1      43.732  24.988  25.586  1.00  0.00     0.022 A 
BRANCH  74  77
ATOM     77  S   UNL A   1      42.484  22.615  26.131  1.00  0.00     0.127 S 
ATOM     78  O   UNL A   1      41.028  22.583  26.109  1.00  0.00    -0.237 OA
ATOM     79  O   UNL A   1      43.128  22.407  24.834  1.00  0.00    -0.237 OA
ATOM     80  O   UNL A   1      43.120  21.898  27.234  1.00  0.00    -0.744 OA
ENDBRANCH  74  77
ENDBRANCH  46  70
BRANCH  58  81
ATOM     81  C   UNL A   1      44.812  27.447  34.315  1.00  0.00     0.023 A 
ATOM     82  C   UNL A   1      45.986  28.226  34.350  1.00  0.00     0.012 A 
ATOM     83  C   UNL A   1      44.752  26.259  35.073  1.00  0.00     0.148 A 
ATOM     84  C   UNL A   1      47.091  27.814  35.096  1.00  0.00     0.002 A 
ATOM     85  C   UNL A   1      45.839  25.881  35.854  1.00  0.00     0.091 A 
ATOM     86  F   UNL A   1      43.634  25.520  35.016  1.00  0.00    -0.205 F 
ATOM     87  C   UNL A   1      47.013  26.649  35.856  1.00  0.00     0.022 A 
BRANCH  85  88
ATOM     88  S   UNL A   1      45.797  24.448  36.938  1.00  0.00     0.127 S 
ATOM     89  O   UNL A   1      47.122  24.498  37.552  1.00  0.00    -0.237 OA
ATOM     90  O   UNL A   1      44.693  24.773  37.840  1.00  0.00    -0.237 OA
ATOM     91  O   UNL A   1      45.551  23.299  36.075  1.00  0.00    -0.744 OA
ENDBRANCH  85  88
ENDBRANCH  58  81
ENDBRANCH  32  33
ENDBRANCH  24  27
ENDBRANCH  22  23
ENDBRANCH  21  22
ENDBRANCH   1  21
TORSDOF 19
ENDMDL
MODEL 2
REMARK VINA RESULT:     -10.5      5.506      8.643
REMARK SMILES CC(C)[C@@H](CCC(=O)NCCCNC(=O)c1ccc(-c2c3nc(c(-c4cccc(S(=O)(=O)[O-])c4F)c4ccc([nH]4)c(-c4cccc(S(=O)(=O)[O-])c4F)c4nc(c(-c5cccc(S(=O)(=O)[O-])c5F)c5ccc2[nH]5)C=C4)C=C3)cc1)CC[NH+]1CC2(CC2)C1
REMARK SMILES IDX 10 1 9 2 7 3 8 4 6 6 5 7 4 8 2 9 1 10 3 11 79 12 80 13 81 14
REMARK SMILES IDX 82 15 86 16 83 18 84 19 85 20 11 21 12 22 13 23 14 24 15 26
REMARK SMILES IDX 16 27 17 28 78 29 18 30 77 31 19 32 20 33 21 34 71 35 22 36
REMARK SMILES IDX 76 37 70 38 72 39 23 40 75 41 69 42 68 43 24 45 56 46 36 47
REMARK SMILES IDX 55 48 37 49 40 50 54 51 73 52 38 53 39 54 53 56 74 57 41 58
REMARK SMILES IDX 25 59 26 60 34 61 27 62 29 63 35 64 28 65 30 66 31 67 32 68
REMARK SMILES IDX 33 69 57 70 58 71 66 72 59 73 61 74 67 75 60 76 62 77 63 78
REMARK SMILES IDX 64 79 65 80 42 81 43 82 51 83 44 84 46 85 52 86 45 87 47 88
REMARK SMILES IDX 48 89 49 90 50 91
REMARK H PARENT 9 5 81 17 13 25 72 44 40 55
REMARK Flexibility Score: inf
ROOT
ATOM      1  C   UNL A   1      37.887  22.350  25.867  1.00  0.00     0.117 C 
ENDROOT
BRANCH   1   2
ATOM      2  N   UNL A   1      37.569  22.477  24.455  1.00  0.00    -0.356 N 
ATOM      3  C   UNL A   1      36.517  23.027  23.787  1.00  0.00     0.220 C 
ATOM      4  O   UNL A   1      36.565  23.018  22.554  1.00  0.00    -0.275 OA
ATOM      5  H   UNL A   1      38.250  22.085  23.861  1.00  0.00     0.163 HD
BRANCH   3   6
ATOM      6  C   UNL A   1      35.338  23.659  24.499  1.00  0.00     0.100 C 
BRANCH   6   7
ATOM      7  C   UNL A   1      34.002  23.627  23.720  1.00  0.00     0.014 C 
BRANCH   7   8
ATOM      8  C   UNL A   1      32.655  23.557  24.544  1.00  0.00    -0.003 C 
BRANCH   8   9
ATOM      9  C   UNL A   1      32.126  25.019  24.765  1.00  0.00    -0.014 C 
ATOM     10  C   UNL A   1      31.747  25.221  26.250  1.00  0.00     0.007 C 
ATOM     11  C   UNL A   1      32.954  26.218  24.319  1.00  0.00     0.007 C 
ENDBRANCH   8   9
BRANCH   8  12
ATOM     12  C   UNL A   1      32.905  22.516  25.677  1.00  0.00     0.065 C 
BRANCH  12  13
ATOM     13  C   UNL A   1      32.519  21.024  25.649  1.00  0.00     0.262 C 
BRANCH  13  14
ATOM     14  N   UNL A   1      33.449  19.902  25.717  1.00  0.00    -0.334 N 
ATOM     15  C   UNL A   1      32.766  18.601  25.613  1.00  0.00     0.275 C 
ATOM     16  C   UNL A   1      34.252  19.606  24.530  1.00  0.00     0.275 C 
ATOM     17  H   UNL A   1      33.949  20.188  26.559  1.00  0.00     0.348 HD
ATOM     18  C   UNL A   1      33.320  18.494  24.251  1.00  0.00     0.068 C 
ATOM     19  C   UNL A   1      32.646  18.184  22.956  1.00  0.00     0.020 C 
ATOM     20  C   UNL A   1      33.626  17.211  23.543  1.00  0.00     0.020 C 
ENDBRANCH  13  14
ENDBRANCH  12  13
ENDBRANCH   8  12
ENDBRANCH   7   8
ENDBRANCH   6   7
ENDBRANCH   3   6
ENDBRANCH   1   2
BRANCH   1  21
ATOM     21  C   UNL A   1      39.088  21.444  26.154  1.00  0.00     0.042 C 
BRANCH  21  22
ATOM     22  C   UNL A   1      39.187  20.152  25.331  1.00  0.00     0.118 C 
BRANCH  22  23
ATOM     23  N   UNL A   1      40.159  19.255  25.934  1.00  0.00    -0.352 N 
ATOM     24  C   UNL A   1      41.514  19.351  26.128  1.00  0.00     0.251 C 
ATOM     25  H   UNL A   1      39.769  18.415  26.269  1.00  0.00     0.163 HD
ATOM     26  O   UNL A   1      42.130  18.285  26.209  1.00  0.00    -0.269 OA
BRANCH  24  27
ATOM     27  C   UNL A   1      42.265  20.629  26.306  1.00  0.00     0.039 A 
ATOM     28  C   UNL A   1      42.402  21.110  27.619  1.00  0.00     0.014 A 
ATOM     29  C   UNL A   1      42.661  21.459  25.254  1.00  0.00     0.014 A 
ATOM     30  C   UNL A   1      42.884  22.401  27.876  1.00  0.00     0.010 A 
ATOM     31  C   UNL A   1      43.194  22.739  25.517  1.00  0.00     0.010 A 
ATOM     32  C   UNL A   1      43.281  23.242  26.827  1.00  0.00    -0.014 A 
BRANCH  32  33
ATOM     33  C   UNL A   1      43.755  24.634  27.110  1.00  0.00     0.031 A 
ATOM     34  C   UNL A   1      42.814  25.690  27.646  1.00  0.00     0.074 A 
ATOM     35  C   UNL A   1      45.039  24.973  26.874  1.00  0.00     0.049 A 
ATOM     36  N   UNL A   1      43.059  26.944  27.943  1.00  0.00    -0.248 NA
ATOM     37  C   UNL A   1      41.415  25.293  27.868  1.00  0.00     0.031 C 
ATOM     38  C   UNL A   1      46.056  24.081  26.317  1.00  0.00     0.029 A 
ATOM     39  N   UNL A   1      45.705  26.164  27.051  1.00  0.00    -0.354 N 
ATOM     40  C   UNL A   1      41.845  27.495  28.340  1.00  0.00     0.074 A 
ATOM     41  C   UNL A   1      40.860  26.438  28.243  1.00  0.00     0.031 C 
ATOM     42  C   UNL A   1      47.210  24.756  26.186  1.00  0.00     0.029 A 
ATOM     43  C   UNL A   1      47.011  26.138  26.618  1.00  0.00     0.049 A 
ATOM     44  H   UNL A   1      45.287  26.962  27.450  1.00  0.00     0.167 HD
ATOM     45  C   UNL A   1      41.572  28.756  28.761  1.00  0.00     0.034 A 
ATOM     46  C   UNL A   1      47.943  27.112  26.550  1.00  0.00     0.034 A 
ATOM     47  C   UNL A   1      42.552  29.801  28.911  1.00  0.00     0.049 A 
ATOM     48  C   UNL A   1      47.620  28.494  27.053  1.00  0.00     0.074 A 
ATOM     49  C   UNL A   1      42.375  31.074  29.431  1.00  0.00     0.029 A 
ATOM     50  N   UNL A   1      43.880  29.710  28.530  1.00  0.00    -0.354 N 
ATOM     51  N   UNL A   1      46.508  28.941  27.582  1.00  0.00    -0.248 NA
ATOM     52  C   UNL A   1      48.693  29.499  26.982  1.00  0.00     0.031 C 
ATOM     53  C   UNL A   1      43.587  31.764  29.329  1.00  0.00     0.029 A 
ATOM     54  C   UNL A   1      44.529  30.910  28.782  1.00  0.00     0.049 A 
ATOM     55  H   UNL A   1      44.302  28.911  28.138  1.00  0.00     0.167 HD
ATOM     56  C   UNL A   1      46.758  30.264  27.937  1.00  0.00     0.074 A 
ATOM     57  C   UNL A   1      48.134  30.538  27.587  1.00  0.00     0.031 C 
ATOM     58  C   UNL A   1      45.915  31.171  28.488  1.00  0.00     0.034 A 
BRANCH  45  59
ATOM     59  C   UNL A   1      40.148  29.091  29.132  1.00  0.00     0.023 A 
ATOM     60  C   UNL A   1      39.190  29.295  28.119  1.00  0.00     0.012 A 
ATOM     61  C   UNL A   1      39.737  29.093  30.481  1.00  0.00     0.148 A 
ATOM     62  C   UNL A   1      37.852  29.524  28.442  1.00  0.00     0.002 A 
ATOM     63  C   UNL A   1      38.395  29.277  30.793  1.00  0.00     0.091 A 
ATOM     64  F   UNL A   1      40.664  28.905  31.432  1.00  0.00    -0.205 F 
ATOM     65  C   UNL A   1      37.453  29.503  29.777  1.00  0.00     0.022 A 
BRANCH  63  66
ATOM     66  S   UNL A   1      37.763  29.183  32.473  1.00  0.00     0.127 S 
ATOM     67  O   UNL A   1      37.834  27.748  32.736  1.00  0.00    -0.237 OA
ATOM     68  O   UNL A   1      38.730  29.990  33.212  1.00  0.00    -0.237 OA
ATOM     69  O   UNL A   1      36.414  29.743  32.427  1.00  0.00    -0.744 OA
ENDBRANCH  63  66
ENDBRANCH  45  59
BRANCH  46  70
ATOM     70  C   UNL A   1      49.298  26.809  26.004  1.00  0.00     0.023 A 
ATOM     71  C   UNL A   1      50.230  26.109  26.795  1.00  0.00     0.012 A 
ATOM     72  C   UNL A   1      49.666  27.207  24.704  1.00  0.00     0.148 A 
ATOM     73  C   UNL A   1      51.514  25.847  26.318  1.00  0.00     0.002 A 
ATOM     74  C   UNL A   1      50.924  26.887  24.210  1.00  0.00     0.091 A 
ATOM     75  F   UNL A   1      48.774  27.889  23.972  1.00  0.00    -0.205 F 
ATOM     76  C   UNL A   1      51.858  26.226  25.022  1.00  0.00     0.022 A 
BRANCH  74  77
ATOM     77  S   UNL A   1      51.406  27.214  22.511  1.00  0.00     0.127 S 
ATOM     78  O   UNL A   1      52.649  26.463  22.400  1.00  0.00    -0.237 OA
ATOM     79  O   UNL A   1      50.277  26.660  21.764  1.00  0.00    -0.237 OA
ATOM     80  O   UNL A   1      51.529  28.667  22.413  1.00  0.00    -0.744 OA
ENDBRANCH  74  77
ENDBRANCH  46  70
BRANCH  58  81
ATOM     81  C   UNL A   1      46.455  32.546  28.794  1.00  0.00     0.023 A 
ATOM     82  C   UNL A   1      46.973  32.832  30.073  1.00  0.00     0.012 A 
ATOM     83  C   UNL A   1      46.515  33.535  27.790  1.00  0.00     0.148 A 
ATOM     84  C   UNL A   1      47.507  34.089  30.358  1.00  0.00     0.002 A 
ATOM     85  C   UNL A   1      47.094  34.768  28.067  1.00  0.00     0.091 A 
ATOM     86  F   UNL A   1      46.002  33.253  26.583  1.00  0.00    -0.205 F 
ATOM     87  C   UNL A   1      47.578  35.052  29.354  1.00  0.00     0.022 A 
BRANCH  85  88
ATOM     88  S   UNL A   1      47.316  36.036  26.812  1.00  0.00     0.127 S 
ATOM     89  O   UNL A   1      48.061  37.056  27.547  1.00  0.00    -0.237 OA
ATOM     90  O   UNL A   1      48.090  35.330  25.792  1.00  0.00    -0.237 OA
ATOM     91  O   UNL A   1      45.974  36.422  26.392  1.00  0.00    -0.744 OA
ENDBRANCH  85  88
ENDBRANCH  58  81
ENDBRANCH  32  33
ENDBRANCH  24  27
ENDBRANCH  22  23
ENDBRANCH  21  22
ENDBRANCH   1  21
TORSDOF 19
ENDMDL
MODEL 3
REMARK VINA RESULT:     -10.4      3.253      8.893
REMARK SMILES CC(C)[C@@H](CCC(=O)NCCCNC(=O)c1ccc(-c2c3nc(c(-c4cccc(S(=O)(=O)[O-])c4F)c4ccc([nH]4)c(-c4cccc(S(=O)(=O)[O-])c4F)c4nc(c(-c5cccc(S(=O)(=O)[O-])c5F)c5ccc2[nH]5)C=C4)C=C3)cc1)CC[NH+]1CC2(CC2)C1
REMARK SMILES IDX 10 1 9 2 7 3 8 4 6 6 5 7 4 8 2 9 1 10 3 11 79 12 80 13 81 14
REMARK SMILES IDX 82 15 86 16 83 18 84 19 85 20 11 21 12 22 13 23 14 24 15 26
REMARK SMILES IDX 16 27 17 28 78 29 18 30 77 31 19 32 20 33 21 34 71 35 22 36
REMARK SMILES IDX 76 37 70 38 72 39 23 40 75 41 69 42 68 43 24 45 56 46 36 47
REMARK SMILES IDX 55 48 37 49 40 50 54 51 73 52 38 53 39 54 53 56 74 57 41 58
REMARK SMILES IDX 25 59 26 60 34 61 27 62 29 63 35 64 28 65 30 66 31 67 32 68
REMARK SMILES IDX 33 69 57 70 58 71 66 72 59 73 61 74 67 75 60 76 62 77 63 78
REMARK SMILES IDX 64 79 65 80 42 81 43 82 51 83 44 84 46 85 52 86 45 87 47 88
REMARK SMILES IDX 48 89 49 90 50 91
REMARK H PARENT 9 5 81 17 13 25 72 44 40 55
REMARK Flexibility Score: inf
ROOT
ATOM      1  C   UNL A   1      31.795  30.581  26.954  1.00  0.00     0.117 C 
ENDROOT
BRANCH   1   2
ATOM      2  N   UNL A   1      33.088  30.250  27.529  1.00  0.00    -0.356 N 
ATOM      3  C   UNL A   1      34.081  29.398  27.151  1.00  0.00     0.220 C 
ATOM      4  O   UNL A   1      35.101  29.380  27.843  1.00  0.00    -0.275 OA
ATOM      5  H   UNL A   1      33.285  30.739  28.360  1.00  0.00     0.163 HD
BRANCH   3   6
ATOM      6  C   UNL A   1      33.978  28.520  25.919  1.00  0.00     0.100 C 
BRANCH   6   7
ATOM      7  C   UNL A   1      32.657  27.726  25.784  1.00  0.00     0.014 C 
BRANCH   7   8
ATOM      8  C   UNL A   1      32.196  27.279  24.340  1.00  0.00    -0.003 C 
BRANCH   8   9
ATOM      9  C   UNL A   1      33.463  27.170  23.419  1.00  0.00    -0.014 C 
ATOM     10  C   UNL A   1      33.515  25.773  22.761  1.00  0.00     0.007 C 
ATOM     11  C   UNL A   1      33.729  28.214  22.342  1.00  0.00     0.007 C 
ENDBRANCH   8   9
BRANCH   8  12
ATOM     12  C   UNL A   1      30.928  28.128  24.019  1.00  0.00     0.065 C 
BRANCH  12  13
ATOM     13  C   UNL A   1      29.867  27.818  22.944  1.00  0.00     0.262 C 
BRANCH  13  14
ATOM     14  N   UNL A   1      29.084  28.805  22.210  1.00  0.00    -0.334 N 
ATOM     15  C   UNL A   1      28.045  29.430  23.046  1.00  0.00     0.275 C 
ATOM     16  C   UNL A   1      29.696  30.108  21.949  1.00  0.00     0.275 C 
ATOM     17  H   UNL A   1      28.856  28.227  21.401  1.00  0.00     0.348 HD
ATOM     18  C   UNL A   1      28.878  30.646  23.054  1.00  0.00     0.068 C 
ATOM     19  C   UNL A   1      29.342  31.491  24.195  1.00  0.00     0.020 C 
ATOM     20  C   UNL A   1      28.361  32.044  23.202  1.00  0.00     0.020 C 
ENDBRANCH  13  14
ENDBRANCH  12  13
ENDBRANCH   8  12
ENDBRANCH   7   8
ENDBRANCH   6   7
ENDBRANCH   3   6
ENDBRANCH   1   2
BRANCH   1  21
ATOM     21  C   UNL A   1      31.397  32.049  27.122  1.00  0.00     0.042 C 
BRANCH  21  22
ATOM     22  C   UNL A   1      32.371  33.095  26.560  1.00  0.00     0.118 C 
BRANCH  22  23
ATOM     23  N   UNL A   1      32.494  34.206  27.489  1.00  0.00    -0.352 N 
ATOM     24  C   UNL A   1      33.185  34.360  28.664  1.00  0.00     0.251 C 
ATOM     25  H   UNL A   1      31.983  35.005  27.223  1.00  0.00     0.163 HD
ATOM     26  O   UNL A   1      32.733  35.190  29.458  1.00  0.00    -0.269 OA
BRANCH  24  27
ATOM     27  C   UNL A   1      34.452  33.651  29.011  1.00  0.00     0.039 A 
ATOM     28  C   UNL A   1      34.334  32.443  29.720  1.00  0.00     0.014 A 
ATOM     29  C   UNL A   1      35.727  34.200  28.850  1.00  0.00     0.014 A 
ATOM     30  C   UNL A   1      35.453  31.819  30.289  1.00  0.00     0.010 A 
ATOM     31  C   UNL A   1      36.859  33.544  29.379  1.00  0.00     0.010 A 
ATOM     32  C   UNL A   1      36.736  32.365  30.134  1.00  0.00    -0.014 A 
BRANCH  32  33
ATOM     33  C   UNL A   1      37.918  31.712  30.781  1.00  0.00     0.031 A 
ATOM     34  C   UNL A   1      38.747  30.682  30.047  1.00  0.00     0.074 A 
ATOM     35  C   UNL A   1      38.257  32.029  32.048  1.00  0.00     0.049 A 
ATOM     36  N   UNL A   1      39.800  30.019  30.459  1.00  0.00    -0.248 NA
ATOM     37  C   UNL A   1      38.335  30.343  28.676  1.00  0.00     0.031 C 
ATOM     38  C   UNL A   1      37.532  32.970  32.903  1.00  0.00     0.029 A 
ATOM     39  N   UNL A   1      39.282  31.578  32.848  1.00  0.00    -0.354 N 
ATOM     40  C   UNL A   1      40.148  29.156  29.425  1.00  0.00     0.074 A 
ATOM     41  C   UNL A   1      39.189  29.377  28.363  1.00  0.00     0.031 C 
ATOM     42  C   UNL A   1      38.125  33.017  34.107  1.00  0.00     0.029 A 
ATOM     43  C   UNL A   1      39.253  32.088  34.126  1.00  0.00     0.049 A 
ATOM     44  H   UNL A   1      39.973  30.949  32.536  1.00  0.00     0.167 HD
ATOM     45  C   UNL A   1      41.175  28.272  29.353  1.00  0.00     0.034 A 
ATOM     46  C   UNL A   1      40.024  31.827  35.203  1.00  0.00     0.034 A 
ATOM     47  C   UNL A   1      42.165  28.080  30.382  1.00  0.00     0.049 A 
ATOM     48  C   UNL A   1      41.176  30.864  35.084  1.00  0.00     0.074 A 
ATOM     49  C   UNL A   1      43.297  27.281  30.344  1.00  0.00     0.029 A 
ATOM     50  N   UNL A   1      42.140  28.671  31.633  1.00  0.00    -0.354 N 
ATOM     51  N   UNL A   1      41.583  30.189  34.038  1.00  0.00    -0.248 NA
ATOM     52  C   UNL A   1      41.997  30.654  36.287  1.00  0.00     0.031 C 
ATOM     53  C   UNL A   1      43.935  27.360  31.586  1.00  0.00     0.029 A 
ATOM     54  C   UNL A   1      43.223  28.238  32.384  1.00  0.00     0.049 A 
ATOM     55  H   UNL A   1      41.455  29.306  31.945  1.00  0.00     0.167 HD
ATOM     56  C   UNL A   1      42.724  29.502  34.446  1.00  0.00     0.074 A 
ATOM     57  C   UNL A   1      42.958  29.864  35.827  1.00  0.00     0.031 C 
ATOM     58  C   UNL A   1      43.494  28.639  33.741  1.00  0.00     0.034 A 
BRANCH  45  59
ATOM     59  C   UNL A   1      41.320  27.447  28.098  1.00  0.00     0.023 A 
ATOM     60  C   UNL A   1      41.971  27.992  26.973  1.00  0.00     0.012 A 
ATOM     61  C   UNL A   1      40.912  26.098  28.072  1.00  0.00     0.148 A 
ATOM     62  C   UNL A   1      42.188  27.218  25.833  1.00  0.00     0.002 A 
ATOM     63  C   UNL A   1      41.172  25.319  26.950  1.00  0.00     0.091 A 
ATOM     64  F   UNL A   1      40.286  25.598  29.148  1.00  0.00    -0.205 F 
ATOM     65  C   UNL A   1      41.800  25.880  25.826  1.00  0.00     0.022 A 
BRANCH  63  66
ATOM     66  S   UNL A   1      40.790  23.565  26.870  1.00  0.00     0.127 S 
ATOM     67  O   UNL A   1      41.611  23.135  25.741  1.00  0.00    -0.237 OA
ATOM     68  O   UNL A   1      41.245  23.090  28.174  1.00  0.00    -0.237 OA
ATOM     69  O   UNL A   1      39.347  23.477  26.661  1.00  0.00    -0.744 OA
ENDBRANCH  63  66
ENDBRANCH  45  59
BRANCH  46  70
ATOM     70  C   UNL A   1      39.751  32.517  36.498  1.00  0.00     0.023 A 
ATOM     71  C   UNL A   1      40.537  33.621  36.881  1.00  0.00     0.012 A 
ATOM     72  C   UNL A   1      38.715  32.084  37.349  1.00  0.00     0.148 A 
ATOM     73  C   UNL A   1      40.321  34.257  38.103  1.00  0.00     0.002 A 
ATOM     74  C   UNL A   1      38.464  32.762  38.536  1.00  0.00     0.091 A 
ATOM     75  F   UNL A   1      37.990  31.020  36.978  1.00  0.00    -0.205 F 
ATOM     76  C   UNL A   1      39.279  33.835  38.926  1.00  0.00     0.022 A 
BRANCH  74  77
ATOM     77  S   UNL A   1      37.062  32.376  39.589  1.00  0.00     0.127 S 
ATOM     78  O   UNL A   1      35.938  32.605  38.692  1.00  0.00    -0.237 OA
ATOM     79  O   UNL A   1      37.312  30.975  39.926  1.00  0.00    -0.237 OA
ATOM     80  O   UNL A   1      37.165  33.289  40.727  1.00  0.00    -0.744 OA
ENDBRANCH  74  77
ENDBRANCH  46  70
BRANCH  58  81
ATOM     81  C   UNL A   1      44.699  28.043  34.426  1.00  0.00     0.023 A 
ATOM     82  C   UNL A   1      45.933  28.723  34.399  1.00  0.00     0.012 A 
ATOM     83  C   UNL A   1      44.591  26.843  35.159  1.00  0.00     0.148 A 
ATOM     84  C   UNL A   1      47.047  28.201  35.058  1.00  0.00     0.002 A 
ATOM     85  C   UNL A   1      45.691  26.355  35.855  1.00  0.00     0.091 A 
ATOM     86  F   UNL A   1      43.414  26.199  35.162  1.00  0.00    -0.205 F 
ATOM     87  C   UNL A   1      46.923  27.025  35.794  1.00  0.00     0.022 A 
BRANCH  85  88
ATOM     88  S   UNL A   1      45.602  24.900  36.906  1.00  0.00     0.127 S 
ATOM     89  O   UNL A   1      45.463  23.828  35.922  1.00  0.00    -0.237 OA
ATOM     90  O   UNL A   1      46.892  24.935  37.594  1.00  0.00    -0.237 OA
ATOM     91  O   UNL A   1      44.449  25.104  37.775  1.00  0.00    -0.744 OA
ENDBRANCH  85  88
ENDBRANCH  58  81
ENDBRANCH  32  33
ENDBRANCH  24  27
ENDBRANCH  22  23
ENDBRANCH  21  22
ENDBRANCH   1  21
TORSDOF 19
ENDMDL
