MODEL 1
REMARK VINA RESULT:     -13.5      0.000      0.000
REMARK SMILES CN1C(=O)/C(=C\c2ccc(-c3ccccc3C(=O)NCCCNC(=O)c3ccc(-c4c5nc(c(-c6cccc(S(=O)(=O)[O-])c6F)c6ccc([nH]6)c(-c6cccc(S(=O)(=O)[O-])c6F)c6nc(c(-c7cccc(S(=O)(=O)[O-])c7F)c7ccc4[nH]7)C=C6)C=C5)cc3)o2)C(=O)[NH+]=C1S
REMARK SMILES IDX 21 1 20 2 19 3 17 4 18 5 16 7 11 8 12 9 13 10 15 11 14 12
REMARK SMILES IDX 10 13 7 14 8 15 89 16 9 17 6 18 1 19 2 20 3 21 93 22 4 23
REMARK SMILES IDX 5 24 92 25 90 26 91 28 94 29 22 31 23 32 24 33 25 35 26 36
REMARK SMILES IDX 27 37 88 38 28 39 87 40 29 41 30 42 31 43 81 44 32 45 86 46
REMARK SMILES IDX 80 47 82 48 33 49 85 50 79 51 78 52 34 54 66 55 46 56 65 57
REMARK SMILES IDX 47 58 50 59 64 60 83 61 48 62 49 63 63 65 84 66 51 67 35 68
REMARK SMILES IDX 36 69 44 70 37 71 39 72 45 73 38 74 40 75 41 76 42 77 43 78
REMARK SMILES IDX 67 79 68 80 76 81 69 82 71 83 77 84 70 85 72 86 73 87 74 88
REMARK SMILES IDX 75 89 52 90 53 91 61 92 54 93 56 94 62 95 55 96 57 97 58 98
REMARK SMILES IDX 59 99 60 100
REMARK H PARENT 19 6 92 27 94 30 23 34 82 53 50 64
REMARK Flexibility Score: inf
ROOT
ATOM      1  C   UNL A   1      32.868  29.430  25.018  1.00  0.00     0.042 C 
ENDROOT
BRANCH   1   2
ATOM      2  C   UNL A   1      33.798  28.244  25.165  1.00  0.00     0.118 C 
BRANCH   2   3
ATOM      3  N   UNL A   1      33.630  27.254  24.144  1.00  0.00    -0.352 N 
ATOM      4  C   UNL A   1      32.630  26.826  23.333  1.00  0.00     0.252 C 
ATOM      5  O   UNL A   1      33.077  26.225  22.343  1.00  0.00    -0.269 OA
ATOM      6  H   UNL A   1      34.462  26.749  23.991  1.00  0.00     0.163 HD
BRANCH   4   7
ATOM      7  C   UNL A   1      31.130  26.920  23.483  1.00  0.00     0.050 A 
ATOM      8  C   UNL A   1      30.168  26.151  24.172  1.00  0.00     0.030 A 
ATOM      9  C   UNL A   1      28.796  26.514  24.080  1.00  0.00     0.013 A 
ATOM     10  C   UNL A   1      28.357  27.618  23.355  1.00  0.00     0.001 A 
ATOM     11  C   UNL A   1      30.631  28.035  22.744  1.00  0.00     0.014 A 
ATOM     12  C   UNL A   1      29.283  28.388  22.685  1.00  0.00     0.001 A 
BRANCH   8  13
ATOM     13  C   UNL A   1      30.395  25.040  25.076  1.00  0.00     0.135 A 
ATOM     14  C   UNL A   1      31.145  22.982  25.535  1.00  0.00     0.128 A 
ATOM     15  C   UNL A   1      30.520  23.496  26.669  1.00  0.00     0.051 A 
ATOM     16  O   UNL A   1      31.070  23.971  24.566  1.00  0.00    -0.457 OA
ATOM     17  C   UNL A   1      29.951  24.747  26.343  1.00  0.00     0.051 A 
BRANCH  14  18
ATOM     18  C   UNL A   1      31.865  21.768  25.316  1.00  0.00     0.071 C 
ATOM     19  C   UNL A   1      36.294  23.595  25.784  1.00  0.00     0.301 C 
ATOM     20  N   UNL A   1      35.434  22.439  25.581  1.00  0.00    -0.189 N 
ATOM     21  C   UNL A   1      34.136  22.566  26.019  1.00  0.00     0.349 C 
ATOM     22  C   UNL A   1      35.871  21.200  25.195  1.00  0.00     0.318 C 
ATOM     23  O   UNL A   1      33.810  23.396  26.865  1.00  0.00    -0.240 OA
ATOM     24  C   UNL A   1      33.194  21.581  25.460  1.00  0.00     0.157 C 
ATOM     25  N   UNL A   1      35.118  20.191  24.947  1.00  0.00    -0.200 N 
ATOM     26  C   UNL A   1      33.756  20.299  24.964  1.00  0.00     0.347 C 
ATOM     27  H   UNL A   1      35.530  19.322  24.739  1.00  0.00     0.316 HD
ATOM     28  O   UNL A   1      33.031  19.407  24.543  1.00  0.00    -0.241 OA
BRANCH  22  29
ATOM     29  S   UNL A   1      37.592  20.928  25.073  1.00  0.00    -0.055 SA
ATOM     30  H   UNL A   1      38.064  20.461  26.260  1.00  0.00     0.116 HD
ENDBRANCH  22  29
ENDBRANCH  14  18
ENDBRANCH   8  13
ENDBRANCH   4   7
ENDBRANCH   2   3
ENDBRANCH   1   2
BRANCH   1  31
ATOM     31  C   UNL A   1      32.238  29.815  26.349  1.00  0.00     0.118 C 
BRANCH  31  32
ATOM     32  N   UNL A   1      32.261  31.253  26.623  1.00  0.00    -0.352 N 
ATOM     33  C   UNL A   1      33.167  32.037  27.292  1.00  0.00     0.251 C 
ATOM     34  H   UNL A   1      31.488  31.745  26.264  1.00  0.00     0.163 HD
ATOM     35  O   UNL A   1      32.892  33.218  27.500  1.00  0.00    -0.269 OA
BRANCH  33  36
ATOM     36  C   UNL A   1      34.433  31.472  27.810  1.00  0.00     0.039 A 
ATOM     37  C   UNL A   1      35.519  32.328  28.020  1.00  0.00     0.014 A 
ATOM     38  C   UNL A   1      34.554  30.119  28.118  1.00  0.00     0.014 A 
ATOM     39  C   UNL A   1      36.677  31.843  28.630  1.00  0.00     0.010 A 
ATOM     40  C   UNL A   1      35.637  29.678  28.860  1.00  0.00     0.010 A 
ATOM     41  C   UNL A   1      36.724  30.526  29.110  1.00  0.00    -0.014 A 
BRANCH  41  42
ATOM     42  C   UNL A   1      37.886  29.987  29.861  1.00  0.00     0.031 A 
ATOM     43  C   UNL A   1      38.147  30.458  31.268  1.00  0.00     0.074 A 
ATOM     44  C   UNL A   1      38.774  29.186  29.236  1.00  0.00     0.049 A 
ATOM     45  N   UNL A   1      39.183  30.242  32.033  1.00  0.00    -0.248 NA
ATOM     46  C   UNL A   1      37.128  31.331  31.882  1.00  0.00     0.031 C 
ATOM     47  C   UNL A   1      38.676  28.734  27.848  1.00  0.00     0.029 A 
ATOM     48  N   UNL A   1      39.957  28.646  29.675  1.00  0.00    -0.354 N 
ATOM     49  C   UNL A   1      38.969  30.992  33.183  1.00  0.00     0.074 A 
ATOM     50  C   UNL A   1      37.729  31.710  32.998  1.00  0.00     0.031 C 
ATOM     51  C   UNL A   1      39.747  27.985  27.547  1.00  0.00     0.029 A 
ATOM     52  C   UNL A   1      40.631  27.938  28.704  1.00  0.00     0.049 A 
ATOM     53  H   UNL A   1      40.292  28.754  30.594  1.00  0.00     0.167 HD
ATOM     54  C   UNL A   1      39.717  31.051  34.309  1.00  0.00     0.034 A 
ATOM     55  C   UNL A   1      41.834  27.335  28.739  1.00  0.00     0.034 A 
ATOM     56  C   UNL A   1      40.917  30.286  34.505  1.00  0.00     0.049 A 
ATOM     57  C   UNL A   1      42.622  27.372  30.020  1.00  0.00     0.074 A 
ATOM     58  C   UNL A   1      41.697  30.187  35.642  1.00  0.00     0.029 A 
ATOM     59  N   UNL A   1      41.512  29.491  33.538  1.00  0.00    -0.354 N 
ATOM     60  N   UNL A   1      42.327  27.966  31.152  1.00  0.00    -0.248 NA
ATOM     61  C   UNL A   1      43.887  26.626  30.042  1.00  0.00     0.031 C 
ATOM     62  C   UNL A   1      42.782  29.355  35.353  1.00  0.00     0.029 A 
ATOM     63  C   UNL A   1      42.654  28.903  34.048  1.00  0.00     0.049 A 
ATOM     64  H   UNL A   1      41.171  29.363  32.624  1.00  0.00     0.167 HD
ATOM     65  C   UNL A   1      43.346  27.628  32.034  1.00  0.00     0.074 A 
ATOM     66  C   UNL A   1      44.256  26.765  31.308  1.00  0.00     0.031 C 
ATOM     67  C   UNL A   1      43.518  28.004  33.326  1.00  0.00     0.034 A 
BRANCH  54  68
ATOM     68  C   UNL A   1      39.230  31.932  35.431  1.00  0.00     0.023 A 
ATOM     69  C   UNL A   1      39.435  33.326  35.367  1.00  0.00     0.012 A 
ATOM     70  C   UNL A   1      38.532  31.389  36.526  1.00  0.00     0.148 A 
ATOM     71  C   UNL A   1      38.993  34.159  36.394  1.00  0.00     0.002 A 
ATOM     72  C   UNL A   1      38.048  32.231  37.520  1.00  0.00     0.091 A 
ATOM     73  F   UNL A   1      38.364  30.060  36.583  1.00  0.00    -0.205 F 
ATOM     74  C   UNL A   1      38.291  33.613  37.463  1.00  0.00     0.022 A 
BRANCH  72  75
ATOM     75  S   UNL A   1      37.059  31.641  38.898  1.00  0.00     0.127 S 
ATOM     76  O   UNL A   1      36.790  30.260  38.497  1.00  0.00    -0.237 OA
ATOM     77  O   UNL A   1      37.986  31.779  40.021  1.00  0.00    -0.237 OA
ATOM     78  O   UNL A   1      35.893  32.510  38.959  1.00  0.00    -0.744 OA
ENDBRANCH  72  75
ENDBRANCH  54  68
BRANCH  55  79
ATOM     79  C   UNL A   1      42.331  26.585  27.549  1.00  0.00     0.023 A 
ATOM     80  C   UNL A   1      43.085  27.267  26.573  1.00  0.00     0.012 A 
ATOM     81  C   UNL A   1      42.087  25.207  27.389  1.00  0.00     0.148 A 
ATOM     82  C   UNL A   1      43.553  26.602  25.439  1.00  0.00     0.002 A 
ATOM     83  C   UNL A   1      42.601  24.538  26.283  1.00  0.00     0.091 A 
ATOM     84  F   UNL A   1      41.364  24.577  28.324  1.00  0.00    -0.205 F 
ATOM     85  C   UNL A   1      43.318  25.237  25.299  1.00  0.00     0.022 A 
BRANCH  83  86
ATOM     86  S   UNL A   1      42.448  22.762  26.063  1.00  0.00     0.127 S 
ATOM     87  O   UNL A   1      42.950  22.585  24.703  1.00  0.00    -0.237 OA
ATOM     88  O   UNL A   1      43.328  22.251  27.115  1.00  0.00    -0.237 OA
ATOM     89  O   UNL A   1      41.036  22.457  26.254  1.00  0.00    -0.744 OA
ENDBRANCH  83  86
ENDBRANCH  55  79
BRANCH  67  90
ATOM     90  C   UNL A   1      44.703  27.442  34.064  1.00  0.00     0.023 A 
ATOM     91  C   UNL A   1      45.932  28.130  34.058  1.00  0.00     0.012 A 
ATOM     92  C   UNL A   1      44.568  26.268  34.831  1.00  0.00     0.148 A 
ATOM     93  C   UNL A   1      47.020  27.637  34.778  1.00  0.00     0.002 A 
ATOM     94  C   UNL A   1      45.639  25.814  35.589  1.00  0.00     0.091 A 
ATOM     95  F   UNL A   1      43.394  25.620  34.808  1.00  0.00    -0.205 F 
ATOM     96  C   UNL A   1      46.870  26.489  35.552  1.00  0.00     0.022 A 
BRANCH  94  97
ATOM     97  S   UNL A   1      45.506  24.407  36.697  1.00  0.00     0.127 S 
ATOM     98  O   UNL A   1      46.851  24.350  37.267  1.00  0.00    -0.237 OA
ATOM     99  O   UNL A   1      44.467  24.845  37.629  1.00  0.00    -0.237 OA
ATOM    100  O   UNL A   1      45.133  23.271  35.865  1.00  0.00    -0.744 OA
ENDBRANCH  94  97
ENDBRANCH  67  90
ENDBRANCH  41  42
ENDBRANCH  33  36
ENDBRANCH  31  32
ENDBRANCH   1  31
TORSDOF 16
ENDMDL
MODEL 2
REMARK VINA RESULT:     -13.5      2.146      7.891
REMARK SMILES CN1C(=O)/C(=C\c2ccc(-c3ccccc3C(=O)NCCCNC(=O)c3ccc(-c4c5nc(c(-c6cccc(S(=O)(=O)[O-])c6F)c6ccc([nH]6)c(-c6cccc(S(=O)(=O)[O-])c6F)c6nc(c(-c7cccc(S(=O)(=O)[O-])c7F)c7ccc4[nH]7)C=C6)C=C5)cc3)o2)C(=O)[NH+]=C1S
REMARK SMILES IDX 21 1 20 2 19 3 17 4 18 5 16 7 11 8 12 9 13 10 15 11 14 12
REMARK SMILES IDX 10 13 7 14 8 15 89 16 9 17 6 18 1 19 2 20 3 21 93 22 4 23
REMARK SMILES IDX 5 24 92 25 90 26 91 28 94 29 22 31 23 32 24 33 25 35 26 36
REMARK SMILES IDX 27 37 88 38 28 39 87 40 29 41 30 42 31 43 81 44 32 45 86 46
REMARK SMILES IDX 80 47 82 48 33 49 85 50 79 51 78 52 34 54 66 55 46 56 65 57
REMARK SMILES IDX 47 58 50 59 64 60 83 61 48 62 49 63 63 65 84 66 51 67 35 68
REMARK SMILES IDX 36 69 44 70 37 71 39 72 45 73 38 74 40 75 41 76 42 77 43 78
REMARK SMILES IDX 67 79 68 80 76 81 69 82 71 83 77 84 70 85 72 86 73 87 74 88
REMARK SMILES IDX 75 89 52 90 53 91 61 92 54 93 56 94 62 95 55 96 57 97 58 98
REMARK SMILES IDX 59 99 60 100
REMARK H PARENT 19 6 92 27 94 30 23 34 82 53 50 64
REMARK Flexibility Score: inf
ROOT
ATOM      1  C   UNL A   1      31.848  31.343  26.787  1.00  0.00     0.042 C 
ENDROOT
BRANCH   1   2
ATOM      2  C   UNL A   1      32.157  29.866  26.920  1.00  0.00     0.118 C 
BRANCH   2   3
ATOM      3  N   UNL A   1      32.684  29.281  25.724  1.00  0.00    -0.352 N 
ATOM      4  C   UNL A   1      32.222  28.965  24.488  1.00  0.00     0.252 C 
ATOM      5  O   UNL A   1      33.153  28.853  23.672  1.00  0.00    -0.269 OA
ATOM      6  H   UNL A   1      33.635  29.044  25.826  1.00  0.00     0.163 HD
BRANCH   4   7
ATOM      7  C   UNL A   1      30.820  28.691  23.999  1.00  0.00     0.050 A 
ATOM      8  C   UNL A   1      30.100  27.511  23.716  1.00  0.00     0.030 A 
ATOM      9  C   UNL A   1      28.764  27.613  23.236  1.00  0.00     0.013 A 
ATOM     10  C   UNL A   1      28.122  28.834  23.054  1.00  0.00     0.001 A 
ATOM     11  C   UNL A   1      30.123  29.919  23.787  1.00  0.00     0.014 A 
ATOM     12  C   UNL A   1      28.806  29.997  23.336  1.00  0.00     0.001 A 
BRANCH   8  13
ATOM     13  C   UNL A   1      30.513  26.139  23.937  1.00  0.00     0.135 A 
ATOM     14  C   UNL A   1      31.728  24.581  24.989  1.00  0.00     0.128 A 
ATOM     15  C   UNL A   1      30.996  23.969  23.974  1.00  0.00     0.051 A 
ATOM     16  O   UNL A   1      31.393  25.926  24.956  1.00  0.00    -0.457 OA
ATOM     17  C   UNL A   1      30.317  24.969  23.241  1.00  0.00     0.051 A 
BRANCH  14  18
ATOM     18  C   UNL A   1      32.577  24.043  26.003  1.00  0.00     0.071 C 
ATOM     19  C   UNL A   1      36.343  23.043  23.176  1.00  0.00     0.301 C 
ATOM     20  N   UNL A   1      35.753  23.079  24.507  1.00  0.00    -0.189 N 
ATOM     21  C   UNL A   1      34.705  23.953  24.680  1.00  0.00     0.349 C 
ATOM     22  C   UNL A   1      36.292  22.483  25.615  1.00  0.00     0.318 C 
ATOM     23  O   UNL A   1      34.525  24.913  23.934  1.00  0.00    -0.240 OA
ATOM     24  C   UNL A   1      33.875  23.697  25.870  1.00  0.00     0.157 C 
ATOM     25  N   UNL A   1      35.749  22.448  26.777  1.00  0.00    -0.200 N 
ATOM     26  C   UNL A   1      34.497  22.951  26.992  1.00  0.00     0.347 C 
ATOM     27  H   UNL A   1      36.245  22.051  27.529  1.00  0.00     0.316 HD
ATOM     28  O   UNL A   1      33.891  22.753  28.038  1.00  0.00    -0.241 OA
BRANCH  22  29
ATOM     29  S   UNL A   1      37.869  21.744  25.477  1.00  0.00    -0.055 SA
ATOM     30  H   UNL A   1      38.630  22.096  26.548  1.00  0.00     0.116 HD
ENDBRANCH  22  29
ENDBRANCH  14  18
ENDBRANCH   8  13
ENDBRANCH   4   7
ENDBRANCH   2   3
ENDBRANCH   1   2
BRANCH   1  31
ATOM     31  C   UNL A   1      33.018  32.202  27.242  1.00  0.00     0.118 C 
BRANCH  31  32
ATOM     32  N   UNL A   1      32.647  33.578  27.580  1.00  0.00    -0.352 N 
ATOM     33  C   UNL A   1      33.137  34.448  28.522  1.00  0.00     0.251 C 
ATOM     34  H   UNL A   1      31.914  33.945  27.034  1.00  0.00     0.163 HD
ATOM     35  O   UNL A   1      32.561  35.520  28.697  1.00  0.00    -0.269 OA
BRANCH  33  36
ATOM     36  C   UNL A   1      34.302  34.090  29.360  1.00  0.00     0.039 A 
ATOM     37  C   UNL A   1      34.092  33.359  30.534  1.00  0.00     0.014 A 
ATOM     38  C   UNL A   1      35.599  34.438  28.991  1.00  0.00     0.014 A 
ATOM     39  C   UNL A   1      35.184  32.897  31.270  1.00  0.00     0.010 A 
ATOM     40  C   UNL A   1      36.678  33.851  29.632  1.00  0.00     0.010 A 
ATOM     41  C   UNL A   1      36.489  33.089  30.792  1.00  0.00    -0.014 A 
BRANCH  41  42
ATOM     42  C   UNL A   1      37.683  32.530  31.475  1.00  0.00     0.031 A 
ATOM     43  C   UNL A   1      38.439  31.392  30.840  1.00  0.00     0.074 A 
ATOM     44  C   UNL A   1      38.002  32.949  32.717  1.00  0.00     0.049 A 
ATOM     45  N   UNL A   1      39.398  30.657  31.336  1.00  0.00    -0.248 NA
ATOM     46  C   UNL A   1      38.029  30.992  29.480  1.00  0.00     0.031 C 
ATOM     47  C   UNL A   1      37.291  33.981  33.471  1.00  0.00     0.029 A 
ATOM     48  N   UNL A   1      38.982  32.527  33.581  1.00  0.00    -0.354 N 
ATOM     49  C   UNL A   1      39.663  29.682  30.382  1.00  0.00     0.074 A 
ATOM     50  C   UNL A   1      38.730  29.885  29.297  1.00  0.00     0.031 C 
ATOM     51  C   UNL A   1      37.855  34.117  34.681  1.00  0.00     0.029 A 
ATOM     52  C   UNL A   1      38.939  33.153  34.808  1.00  0.00     0.049 A 
ATOM     53  H   UNL A   1      39.651  31.844  33.347  1.00  0.00     0.167 HD
ATOM     54  C   UNL A   1      40.620  28.725  30.389  1.00  0.00     0.034 A 
ATOM     55  C   UNL A   1      39.680  32.957  35.915  1.00  0.00     0.034 A 
ATOM     56  C   UNL A   1      41.579  28.572  31.446  1.00  0.00     0.049 A 
ATOM     57  C   UNL A   1      40.771  31.923  35.878  1.00  0.00     0.074 A 
ATOM     58  C   UNL A   1      42.657  27.707  31.511  1.00  0.00     0.029 A 
ATOM     59  N   UNL A   1      41.576  29.299  32.628  1.00  0.00    -0.354 N 
ATOM     60  N   UNL A   1      41.104  31.110  34.904  1.00  0.00    -0.248 NA
ATOM     61  C   UNL A   1      41.613  31.805  37.075  1.00  0.00     0.031 C 
ATOM     62  C   UNL A   1      43.286  27.890  32.745  1.00  0.00     0.029 A 
ATOM     63  C   UNL A   1      42.626  28.898  33.431  1.00  0.00     0.049 A 
ATOM     64  H   UNL A   1      40.921  29.997  32.858  1.00  0.00     0.167 HD
ATOM     65  C   UNL A   1      42.221  30.416  35.353  1.00  0.00     0.074 A 
ATOM     66  C   UNL A   1      42.516  30.916  36.681  1.00  0.00     0.031 C 
ATOM     67  C   UNL A   1      42.934  29.447  34.727  1.00  0.00     0.034 A 
BRANCH  54  68
ATOM     68  C   UNL A   1      40.706  27.809  29.196  1.00  0.00     0.023 A 
ATOM     69  C   UNL A   1      39.884  26.665  29.130  1.00  0.00     0.012 A 
ATOM     70  C   UNL A   1      41.567  28.101  28.120  1.00  0.00     0.148 A 
ATOM     71  C   UNL A   1      39.948  25.803  28.035  1.00  0.00     0.002 A 
ATOM     72  C   UNL A   1      41.587  27.266  27.009  1.00  0.00     0.091 A 
ATOM     73  F   UNL A   1      42.357  29.180  28.208  1.00  0.00    -0.205 F 
ATOM     74  C   UNL A   1      40.790  26.110  26.972  1.00  0.00     0.022 A 
BRANCH  72  75
ATOM     75  S   UNL A   1      42.574  27.616  25.550  1.00  0.00     0.127 S 
ATOM     76  O   UNL A   1      43.926  27.643  26.107  1.00  0.00    -0.237 OA
ATOM     77  O   UNL A   1      42.287  26.458  24.702  1.00  0.00    -0.237 OA
ATOM     78  O   UNL A   1      42.089  28.886  25.030  1.00  0.00    -0.744 OA
ENDBRANCH  72  75
ENDBRANCH  54  68
BRANCH  55  79
ATOM     79  C   UNL A   1      39.462  33.806  37.121  1.00  0.00     0.023 A 
ATOM     80  C   UNL A   1      39.914  35.141  37.113  1.00  0.00     0.012 A 
ATOM     81  C   UNL A   1      38.795  33.315  38.261  1.00  0.00     0.148 A 
ATOM     82  C   UNL A   1      39.742  35.959  38.230  1.00  0.00     0.002 A 
ATOM     83  C   UNL A   1      38.580  34.152  39.350  1.00  0.00     0.091 A 
ATOM     84  F   UNL A   1      38.378  32.042  38.253  1.00  0.00    -0.205 F 
ATOM     85  C   UNL A   1      39.068  35.468  39.344  1.00  0.00     0.022 A 
BRANCH  83  86
ATOM     86  S   UNL A   1      37.629  33.650  40.790  1.00  0.00     0.127 S 
ATOM     87  O   UNL A   1      37.523  34.904  41.531  1.00  0.00    -0.237 OA
ATOM     88  O   UNL A   1      36.381  33.188  40.181  1.00  0.00    -0.237 OA
ATOM     89  O   UNL A   1      38.409  32.603  41.437  1.00  0.00    -0.744 OA
ENDBRANCH  83  86
ENDBRANCH  55  79
BRANCH  67  90
ATOM     90  C   UNL A   1      44.140  28.898  35.441  1.00  0.00     0.023 A 
ATOM     91  C   UNL A   1      45.404  29.487  35.250  1.00  0.00     0.012 A 
ATOM     92  C   UNL A   1      43.997  27.844  36.365  1.00  0.00     0.148 A 
ATOM     93  C   UNL A   1      46.517  29.012  35.945  1.00  0.00     0.002 A 
ATOM     94  C   UNL A   1      45.099  27.413  37.093  1.00  0.00     0.091 A 
ATOM     95  F   UNL A   1      42.788  27.286  36.518  1.00  0.00    -0.205 F 
ATOM     96  C   UNL A   1      46.362  27.986  36.874  1.00  0.00     0.022 A 
BRANCH  94  97
ATOM     97  S   UNL A   1      44.972  26.172  38.385  1.00  0.00     0.127 S 
ATOM     98  O   UNL A   1      46.352  26.101  38.864  1.00  0.00    -0.237 OA
ATOM     99  O   UNL A   1      44.033  26.792  39.319  1.00  0.00    -0.237 OA
ATOM    100  O   UNL A   1      44.475  24.965  37.739  1.00  0.00    -0.744 OA
ENDBRANCH  94  97
ENDBRANCH  67  90
ENDBRANCH  41  42
ENDBRANCH  33  36
ENDBRANCH  31  32
ENDBRANCH   1  31
TORSDOF 16
ENDMDL
MODEL 3
REMARK VINA RESULT:     -13.4      5.152      8.062
REMARK SMILES CN1C(=O)/C(=C\c2ccc(-c3ccccc3C(=O)NCCCNC(=O)c3ccc(-c4c5nc(c(-c6cccc(S(=O)(=O)[O-])c6F)c6ccc([nH]6)c(-c6cccc(S(=O)(=O)[O-])c6F)c6nc(c(-c7cccc(S(=O)(=O)[O-])c7F)c7ccc4[nH]7)C=C6)C=C5)cc3)o2)C(=O)[NH+]=C1S
REMARK SMILES IDX 21 1 20 2 19 3 17 4 18 5 16 7 11 8 12 9 13 10 15 11 14 12
REMARK SMILES IDX 10 13 7 14 8 15 89 16 9 17 6 18 1 19 2 20 3 21 93 22 4 23
REMARK SMILES IDX 5 24 92 25 90 26 91 28 94 29 22 31 23 32 24 33 25 35 26 36
REMARK SMILES IDX 27 37 88 38 28 39 87 40 29 41 30 42 31 43 81 44 32 45 86 46
REMARK SMILES IDX 80 47 82 48 33 49 85 50 79 51 78 52 34 54 66 55 46 56 65 57
REMARK SMILES IDX 47 58 50 59 64 60 83 61 48 62 49 63 63 65 84 66 51 67 35 68
REMARK SMILES IDX 36 69 44 70 37 71 39 72 45 73 38 74 40 75 41 76 42 77 43 78
REMARK SMILES IDX 67 79 68 80 76 81 69 82 71 83 77 84 70 85 72 86 73 87 74 88
REMARK SMILES IDX 75 89 52 90 53 91 61 92 54 93 56 94 62 95 55 96 57 97 58 98
REMARK SMILES IDX 59 99 60 100
REMARK H PARENT 19 6 92 27 94 30 23 34 82 53 50 64
REMARK Flexibility Score: inf
ROOT
ATOM      1  C   UNL A   1      36.070  22.200  25.774  1.00  0.00     0.042 C 
ENDROOT
BRANCH   1   2
ATOM      2  C   UNL A   1      35.695  23.667  25.817  1.00  0.00     0.118 C 
BRANCH   2   3
ATOM      3  N   UNL A   1      34.302  23.896  26.056  1.00  0.00    -0.352 N 
ATOM      4  C   UNL A   1      33.128  23.299  25.727  1.00  0.00     0.252 C 
ATOM      5  O   UNL A   1      32.217  23.637  26.501  1.00  0.00    -0.269 OA
ATOM      6  H   UNL A   1      34.157  24.702  26.603  1.00  0.00     0.163 HD
BRANCH   4   7
ATOM      7  C   UNL A   1      32.777  22.377  24.584  1.00  0.00     0.050 A 
ATOM      8  C   UNL A   1      32.467  22.585  23.223  1.00  0.00     0.030 A 
ATOM      9  C   UNL A   1      32.152  21.464  22.405  1.00  0.00     0.013 A 
ATOM     10  C   UNL A   1      32.158  20.158  22.885  1.00  0.00     0.001 A 
ATOM     11  C   UNL A   1      32.760  21.022  25.032  1.00  0.00     0.014 A 
ATOM     12  C   UNL A   1      32.470  19.934  24.209  1.00  0.00     0.001 A 
BRANCH   8  13
ATOM     13  C   UNL A   1      32.511  23.828  22.478  1.00  0.00     0.135 A 
ATOM     14  C   UNL A   1      31.792  25.903  22.042  1.00  0.00     0.128 A 
ATOM     15  C   UNL A   1      32.766  25.559  21.107  1.00  0.00     0.051 A 
ATOM     16  O   UNL A   1      31.669  24.815  22.894  1.00  0.00    -0.457 OA
ATOM     17  C   UNL A   1      33.136  24.211  21.315  1.00  0.00     0.051 A 
BRANCH  14  18
ATOM     18  C   UNL A   1      31.087  27.123  22.273  1.00  0.00     0.071 C 
ATOM     19  C   UNL A   1      33.623  28.575  26.098  1.00  0.00     0.301 C 
ATOM     20  N   UNL A   1      32.571  28.831  25.125  1.00  0.00    -0.189 N 
ATOM     21  C   UNL A   1      32.661  28.137  23.941  1.00  0.00     0.349 C 
ATOM     22  C   UNL A   1      31.653  29.843  25.216  1.00  0.00     0.318 C 
ATOM     23  O   UNL A   1      33.720  27.654  23.546  1.00  0.00    -0.240 OA
ATOM     24  C   UNL A   1      31.417  28.091  23.153  1.00  0.00     0.157 C 
ATOM     25  N   UNL A   1      30.680  30.039  24.403  1.00  0.00    -0.200 N 
ATOM     26  C   UNL A   1      30.420  29.166  23.384  1.00  0.00     0.347 C 
ATOM     27  H   UNL A   1      30.110  30.833  24.515  1.00  0.00     0.316 HD
ATOM     28  O   UNL A   1      29.390  29.231  22.725  1.00  0.00    -0.241 OA
BRANCH  22  29
ATOM     29  S   UNL A   1      31.825  31.006  26.508  1.00  0.00    -0.055 SA
ATOM     30  H   UNL A   1      30.637  31.143  27.157  1.00  0.00     0.116 HD
ENDBRANCH  22  29
ENDBRANCH  14  18
ENDBRANCH   8  13
ENDBRANCH   4   7
ENDBRANCH   2   3
ENDBRANCH   1   2
BRANCH   1  31
ATOM     31  C   UNL A   1      37.262  21.954  24.862  1.00  0.00     0.118 C 
BRANCH  31  32
ATOM     32  N   UNL A   1      38.153  20.888  25.325  1.00  0.00    -0.352 N 
ATOM     33  C   UNL A   1      39.308  20.925  26.065  1.00  0.00     0.251 C 
ATOM     34  H   UNL A   1      37.874  19.983  25.056  1.00  0.00     0.163 HD
ATOM     35  O   UNL A   1      39.951  19.886  26.215  1.00  0.00    -0.269 OA
BRANCH  33  36
ATOM     36  C   UNL A   1      39.815  22.195  26.630  1.00  0.00     0.039 A 
ATOM     37  C   UNL A   1      40.795  22.147  27.627  1.00  0.00     0.014 A 
ATOM     38  C   UNL A   1      39.359  23.428  26.173  1.00  0.00     0.014 A 
ATOM     39  C   UNL A   1      41.382  23.329  28.081  1.00  0.00     0.010 A 
ATOM     40  C   UNL A   1      40.047  24.583  26.510  1.00  0.00     0.010 A 
ATOM     41  C   UNL A   1      41.054  24.555  27.483  1.00  0.00    -0.014 A 
BRANCH  41  42
ATOM     42  C   UNL A   1      41.721  25.830  27.849  1.00  0.00     0.031 A 
ATOM     43  C   UNL A   1      40.945  26.893  28.582  1.00  0.00     0.074 A 
ATOM     44  C   UNL A   1      42.970  26.083  27.407  1.00  0.00     0.049 A 
ATOM     45  N   UNL A   1      41.282  28.126  28.850  1.00  0.00    -0.248 NA
ATOM     46  C   UNL A   1      39.586  26.538  29.033  1.00  0.00     0.031 C 
ATOM     47  C   UNL A   1      43.790  25.167  26.613  1.00  0.00     0.029 A 
ATOM     48  N   UNL A   1      43.754  27.204  27.527  1.00  0.00    -0.354 N 
ATOM     49  C   UNL A   1      40.166  28.705  29.442  1.00  0.00     0.074 A 
ATOM     50  C   UNL A   1      39.123  27.706  29.450  1.00  0.00     0.031 C 
ATOM     51  C   UNL A   1      44.958  25.756  26.318  1.00  0.00     0.029 A 
ATOM     52  C   UNL A   1      44.957  27.107  26.862  1.00  0.00     0.049 A 
ATOM     53  H   UNL A   1      43.483  28.000  28.038  1.00  0.00     0.167 HD
ATOM     54  C   UNL A   1      40.032  29.946  29.965  1.00  0.00     0.034 A 
ATOM     55  C   UNL A   1      45.939  28.012  26.697  1.00  0.00     0.034 A 
ATOM     56  C   UNL A   1      41.095  30.910  30.005  1.00  0.00     0.049 A 
ATOM     57  C   UNL A   1      45.785  29.366  27.333  1.00  0.00     0.074 A 
ATOM     58  C   UNL A   1      41.104  32.156  30.603  1.00  0.00     0.029 A 
ATOM     59  N   UNL A   1      42.340  30.736  29.419  1.00  0.00    -0.354 N 
ATOM     60  N   UNL A   1      44.777  29.844  28.023  1.00  0.00    -0.248 NA
ATOM     61  C   UNL A   1      46.919  30.292  27.205  1.00  0.00     0.031 C 
ATOM     62  C   UNL A   1      42.344  32.749  30.352  1.00  0.00     0.029 A 
ATOM     63  C   UNL A   1      43.123  31.855  29.634  1.00  0.00     0.049 A 
ATOM     64  H   UNL A   1      42.624  29.934  28.924  1.00  0.00     0.167 HD
ATOM     65  C   UNL A   1      45.171  31.106  28.448  1.00  0.00     0.074 A 
ATOM     66  C   UNL A   1      46.516  31.312  27.950  1.00  0.00     0.031 C 
ATOM     67  C   UNL A   1      44.479  32.017  29.176  1.00  0.00     0.034 A 
BRANCH  54  68
ATOM     68  C   UNL A   1      38.705  30.307  30.583  1.00  0.00     0.023 A 
ATOM     69  C   UNL A   1      38.420  29.918  31.909  1.00  0.00     0.012 A 
ATOM     70  C   UNL A   1      37.758  31.067  29.870  1.00  0.00     0.148 A 
ATOM     71  C   UNL A   1      37.198  30.242  32.499  1.00  0.00     0.002 A 
ATOM     72  C   UNL A   1      36.565  31.430  30.483  1.00  0.00     0.091 A 
ATOM     73  F   UNL A   1      38.035  31.410  28.603  1.00  0.00    -0.205 F 
ATOM     74  C   UNL A   1      36.278  31.006  31.790  1.00  0.00     0.022 A 
BRANCH  72  75
ATOM     75  S   UNL A   1      35.346  32.484  29.689  1.00  0.00     0.127 S 
ATOM     76  O   UNL A   1      34.855  31.614  28.620  1.00  0.00    -0.237 OA
ATOM     77  O   UNL A   1      34.391  32.717  30.772  1.00  0.00    -0.237 OA
ATOM     78  O   UNL A   1      36.065  33.669  29.245  1.00  0.00    -0.744 OA
ENDBRANCH  72  75
ENDBRANCH  54  68
BRANCH  55  79
ATOM     79  C   UNL A   1      47.181  27.644  25.958  1.00  0.00     0.023 A 
ATOM     80  C   UNL A   1      48.259  27.077  26.667  1.00  0.00     0.012 A 
ATOM     81  C   UNL A   1      47.295  27.826  24.566  1.00  0.00     0.148 A 
ATOM     82  C   UNL A   1      49.442  26.734  26.011  1.00  0.00     0.002 A 
ATOM     83  C   UNL A   1      48.458  27.434  23.910  1.00  0.00     0.091 A 
ATOM     84  F   UNL A   1      46.262  28.373  23.910  1.00  0.00    -0.205 F 
ATOM     85  C   UNL A   1      49.538  26.905  24.633  1.00  0.00     0.022 A 
BRANCH  83  86
ATOM     86  S   UNL A   1      48.641  27.512  22.125  1.00  0.00     0.127 S 
ATOM     87  O   UNL A   1      49.926  28.191  21.986  1.00  0.00    -0.237 OA
ATOM     88  O   UNL A   1      48.652  26.094  21.761  1.00  0.00    -0.237 OA
ATOM     89  O   UNL A   1      47.484  28.252  21.638  1.00  0.00    -0.744 OA
ENDBRANCH  83  86
ENDBRANCH  55  79
BRANCH  67  90
ATOM     90  C   UNL A   1      45.179  33.301  29.535  1.00  0.00     0.023 A 
ATOM     91  C   UNL A   1      45.965  33.377  30.701  1.00  0.00     0.012 A 
ATOM     92  C   UNL A   1      45.119  34.407  28.664  1.00  0.00     0.148 A 
ATOM     93  C   UNL A   1      46.653  34.549  31.013  1.00  0.00     0.002 A 
ATOM     94  C   UNL A   1      45.852  35.551  28.954  1.00  0.00     0.091 A 
ATOM     95  F   UNL A   1      44.352  34.318  27.568  1.00  0.00    -0.205 F 
ATOM     96  C   UNL A   1      46.607  35.629  30.135  1.00  0.00     0.022 A 
BRANCH  94  97
ATOM     97  S   UNL A   1      45.937  36.949  27.830  1.00  0.00     0.127 S 
ATOM     98  O   UNL A   1      44.543  37.387  27.794  1.00  0.00    -0.237 OA
ATOM     99  O   UNL A   1      46.844  37.856  28.533  1.00  0.00    -0.237 OA
ATOM    100  O   UNL A   1      46.458  36.427  26.574  1.00  0.00    -0.744 OA
ENDBRANCH  94  97
ENDBRANCH  67  90
ENDBRANCH  41  42
ENDBRANCH  33  36
ENDBRANCH  31  32
ENDBRANCH   1  31
TORSDOF 16
ENDMDL
