MODEL 1
REMARK VINA RESULT:     -11.2      0.000      0.000
REMARK SMILES CC[NH+](CC)[C@@H](C(=O)NCCCNC(=O)c1ccc(-c2c3nc(c(-c4cccc(S(=O)(=O)[O-])c4F)c4ccc([nH]4)c(-c4cccc(S(=O)(=O)[O-])c4F)c4nc(c(-c5cccc(S(=O)(=O)[O-])c5F)c5ccc2[nH]5)C=C4)C=C3)cc1)c1ccc(C2CC2)cc1
REMARK SMILES IDX 11 1 10 2 9 3 7 4 8 5 6 7 3 8 2 10 1 11 4 12 5 13 79 14
REMARK SMILES IDX 80 15 87 16 81 17 86 18 82 19 83 20 84 21 85 22 12 23 13 24
REMARK SMILES IDX 14 25 15 27 16 28 17 29 78 30 18 31 77 32 19 33 20 34 21 35
REMARK SMILES IDX 71 36 22 37 76 38 70 39 72 40 23 41 75 42 69 43 68 44 24 46
REMARK SMILES IDX 56 47 36 48 55 49 37 50 40 51 54 52 73 53 38 54 39 55 53 57
REMARK SMILES IDX 74 58 41 59 25 60 26 61 34 62 27 63 29 64 35 65 28 66 30 67
REMARK SMILES IDX 31 68 32 69 33 70 57 71 58 72 66 73 59 74 61 75 67 76 60 77
REMARK SMILES IDX 62 78 63 79 64 80 65 81 42 82 43 83 51 84 44 85 46 86 52 87
REMARK SMILES IDX 45 88 47 89 48 90 49 91 50 92
REMARK H PARENT 9 6 3 9 13 26 72 45 40 56
REMARK Flexibility Score: inf
ROOT
ATOM      1  C   UNL A   1      33.980  27.905  26.146  1.00  0.00     0.042 C 
ENDROOT
BRANCH   1   2
ATOM      2  C   UNL A   1      33.519  26.454  25.900  1.00  0.00     0.118 C 
BRANCH   2   3
ATOM      3  N   UNL A   1      32.158  26.162  26.326  1.00  0.00    -0.351 N 
ATOM      4  C   UNL A   1      30.943  26.076  25.698  1.00  0.00     0.283 C 
ATOM      5  O   UNL A   1      29.999  25.870  26.473  1.00  0.00    -0.268 OA
ATOM      6  H   UNL A   1      32.095  25.985  27.292  1.00  0.00     0.163 HD
BRANCH   4   7
ATOM      7  C   UNL A   1      30.764  26.234  24.150  1.00  0.00     0.305 C 
BRANCH   7   8
ATOM      8  N   UNL A   1      31.935  25.735  23.353  1.00  0.00    -0.321 N 
ATOM      9  H   UNL A   1      32.664  25.965  24.027  1.00  0.00     0.349 HD
BRANCH   8  10
ATOM     10  C   UNL A   1      32.096  24.287  23.174  1.00  0.00     0.259 C 
ATOM     11  C   UNL A   1      30.772  23.526  23.238  1.00  0.00     0.071 C 
ENDBRANCH   8  10
BRANCH   8  12
ATOM     12  C   UNL A   1      32.231  26.473  22.126  1.00  0.00     0.259 C 
ATOM     13  C   UNL A   1      33.579  27.199  22.076  1.00  0.00     0.071 C 
ENDBRANCH   8  12
ENDBRANCH   7   8
BRANCH   7  14
ATOM     14  C   UNL A   1      30.352  27.656  23.695  1.00  0.00     0.019 A 
ATOM     15  C   UNL A   1      30.928  28.777  24.317  1.00  0.00     0.011 A 
ATOM     16  C   UNL A   1      29.259  27.890  22.846  1.00  0.00     0.011 A 
ATOM     17  C   UNL A   1      30.344  30.050  24.191  1.00  0.00     0.004 A 
ATOM     18  C   UNL A   1      28.691  29.164  22.716  1.00  0.00     0.004 A 
ATOM     19  C   UNL A   1      29.171  30.258  23.445  1.00  0.00    -0.045 A 
BRANCH  19  20
ATOM     20  C   UNL A   1      28.431  31.579  23.516  1.00  0.00     0.019 C 
ATOM     21  C   UNL A   1      29.050  32.892  23.085  1.00  0.00     0.009 C 
ATOM     22  C   UNL A   1      28.046  32.226  22.197  1.00  0.00     0.009 C 
ENDBRANCH  19  20
ENDBRANCH   7  14
ENDBRANCH   4   7
ENDBRANCH   2   3
ENDBRANCH   1   2
BRANCH   1  23
ATOM     23  C   UNL A   1      33.401  28.632  27.364  1.00  0.00     0.118 C 
BRANCH  23  24
ATOM     24  N   UNL A   1      33.498  30.076  27.239  1.00  0.00    -0.352 N 
ATOM     25  C   UNL A   1      34.455  30.927  27.740  1.00  0.00     0.251 C 
ATOM     26  H   UNL A   1      32.777  30.506  26.724  1.00  0.00     0.163 HD
ATOM     27  O   UNL A   1      34.236  32.138  27.738  1.00  0.00    -0.269 OA
BRANCH  25  28
ATOM     28  C   UNL A   1      35.741  30.418  28.287  1.00  0.00     0.039 A 
ATOM     29  C   UNL A   1      36.872  30.433  27.463  1.00  0.00     0.014 A 
ATOM     30  C   UNL A   1      35.825  29.845  29.560  1.00  0.00     0.014 A 
ATOM     31  C   UNL A   1      38.085  29.900  27.919  1.00  0.00     0.010 A 
ATOM     32  C   UNL A   1      37.050  29.348  30.028  1.00  0.00     0.010 A 
ATOM     33  C   UNL A   1      38.191  29.358  29.210  1.00  0.00    -0.014 A 
BRANCH  33  34
ATOM     34  C   UNL A   1      39.487  28.808  29.704  1.00  0.00     0.031 A 
ATOM     35  C   UNL A   1      40.242  29.490  30.818  1.00  0.00     0.074 A 
ATOM     36  C   UNL A   1      40.025  27.722  29.112  1.00  0.00     0.049 A 
ATOM     37  N   UNL A   1      41.387  29.159  31.361  1.00  0.00    -0.248 NA
ATOM     38  C   UNL A   1      39.645  30.709  31.387  1.00  0.00     0.031 C 
ATOM     39  C   UNL A   1      39.442  27.007  27.976  1.00  0.00     0.029 A 
ATOM     40  N   UNL A   1      41.198  27.050  29.361  1.00  0.00    -0.354 N 
ATOM     41  C   UNL A   1      41.667  30.144  32.303  1.00  0.00     0.074 A 
ATOM     42  C   UNL A   1      40.576  31.094  32.251  1.00  0.00     0.031 C 
ATOM     43  C   UNL A   1      40.266  26.008  27.616  1.00  0.00     0.029 A 
ATOM     44  C   UNL A   1      41.444  26.021  28.479  1.00  0.00     0.049 A 
ATOM     45  H   UNL A   1      41.806  27.282  30.100  1.00  0.00     0.167 HD
ATOM     46  C   UNL A   1      42.722  30.240  33.148  1.00  0.00     0.034 A 
ATOM     47  C   UNL A   1      42.500  25.189  28.367  1.00  0.00     0.034 A 
ATOM     48  C   UNL A   1      43.781  29.269  33.243  1.00  0.00     0.049 A 
ATOM     49  C   UNL A   1      43.630  25.288  29.358  1.00  0.00     0.074 A 
ATOM     50  C   UNL A   1      44.825  29.225  34.153  1.00  0.00     0.029 A 
ATOM     51  N   UNL A   1      43.942  28.183  32.400  1.00  0.00    -0.354 N 
ATOM     52  N   UNL A   1      43.773  26.111  30.367  1.00  0.00    -0.248 NA
ATOM     53  C   UNL A   1      44.727  24.317  29.219  1.00  0.00     0.031 C 
ATOM     54  C   UNL A   1      45.633  28.128  33.842  1.00  0.00     0.029 A 
ATOM     55  C   UNL A   1      45.078  27.474  32.754  1.00  0.00     0.049 A 
ATOM     56  H   UNL A   1      43.340  27.950  31.657  1.00  0.00     0.167 HD
ATOM     57  C   UNL A   1      44.953  25.737  31.000  1.00  0.00     0.074 A 
ATOM     58  C   UNL A   1      45.473  24.596  30.278  1.00  0.00     0.031 C 
ATOM     59  C   UNL A   1      45.560  26.302  32.073  1.00  0.00     0.034 A 
BRANCH  46  60
ATOM     60  C   UNL A   1      42.775  31.411  34.095  1.00  0.00     0.023 A 
ATOM     61  C   UNL A   1      43.360  32.621  33.669  1.00  0.00     0.012 A 
ATOM     62  C   UNL A   1      42.144  31.352  35.353  1.00  0.00     0.148 A 
ATOM     63  C   UNL A   1      43.333  33.748  34.489  1.00  0.00     0.002 A 
ATOM     64  C   UNL A   1      42.086  32.492  36.148  1.00  0.00     0.091 A 
ATOM     65  F   UNL A   1      41.605  30.188  35.744  1.00  0.00    -0.205 F 
ATOM     66  C   UNL A   1      42.687  33.687  35.721  1.00  0.00     0.022 A 
BRANCH  64  67
ATOM     67  S   UNL A   1      41.208  32.542  37.715  1.00  0.00     0.127 S 
ATOM     68  O   UNL A   1      39.894  32.022  37.334  1.00  0.00    -0.237 OA
ATOM     69  O   UNL A   1      42.004  31.636  38.543  1.00  0.00    -0.237 OA
ATOM     70  O   UNL A   1      41.224  33.933  38.143  1.00  0.00    -0.744 OA
ENDBRANCH  64  67
ENDBRANCH  46  60
BRANCH  47  71
ATOM     71  C   UNL A   1      42.521  24.150  27.297  1.00  0.00     0.023 A 
ATOM     72  C   UNL A   1      43.367  24.314  26.183  1.00  0.00     0.012 A 
ATOM     73  C   UNL A   1      41.712  23.001  27.381  1.00  0.00     0.148 A 
ATOM     74  C   UNL A   1      43.377  23.373  25.153  1.00  0.00     0.002 A 
ATOM     75  C   UNL A   1      41.771  22.038  26.380  1.00  0.00     0.091 A 
ATOM     76  F   UNL A   1      40.897  22.870  28.438  1.00  0.00    -0.205 F 
ATOM     77  C   UNL A   1      42.588  22.230  25.256  1.00  0.00     0.022 A 
BRANCH  75  78
ATOM     78  S   UNL A   1      40.893  20.476  26.514  1.00  0.00     0.127 S 
ATOM     79  O   UNL A   1      39.563  20.838  26.029  1.00  0.00    -0.237 OA
ATOM     80  O   UNL A   1      41.662  19.613  25.615  1.00  0.00    -0.237 OA
ATOM     81  O   UNL A   1      40.984  20.103  27.917  1.00  0.00    -0.744 OA
ENDBRANCH  75  78
ENDBRANCH  47  71
BRANCH  59  82
ATOM     82  C   UNL A   1      46.843  25.683  32.564  1.00  0.00     0.023 A 
ATOM     83  C   UNL A   1      48.077  26.117  32.037  1.00  0.00     0.012 A 
ATOM     84  C   UNL A   1      46.834  24.729  33.601  1.00  0.00     0.148 A 
ATOM     85  C   UNL A   1      49.276  25.591  32.512  1.00  0.00     0.002 A 
ATOM     86  C   UNL A   1      48.036  24.242  34.103  1.00  0.00     0.091 A 
ATOM     87  F   UNL A   1      45.651  24.313  34.077  1.00  0.00    -0.205 F 
ATOM     88  C   UNL A   1      49.258  24.664  33.552  1.00  0.00     0.022 A 
BRANCH  86  89
ATOM     89  S   UNL A   1      48.110  23.118  35.503  1.00  0.00     0.127 S 
ATOM     90  O   UNL A   1      47.422  23.886  36.538  1.00  0.00    -0.237 OA
ATOM     91  O   UNL A   1      47.369  21.957  35.011  1.00  0.00    -0.237 OA
ATOM     92  O   UNL A   1      49.526  22.872  35.743  1.00  0.00    -0.744 OA
ENDBRANCH  86  89
ENDBRANCH  59  82
ENDBRANCH  33  34
ENDBRANCH  25  28
ENDBRANCH  23  24
ENDBRANCH   1  23
TORSDOF 18
ENDMDL
MODEL 2
REMARK VINA RESULT:     -11.0      4.812      9.376
REMARK SMILES CC[NH+](CC)[C@@H](C(=O)NCCCNC(=O)c1ccc(-c2c3nc(c(-c4cccc(S(=O)(=O)[O-])c4F)c4ccc([nH]4)c(-c4cccc(S(=O)(=O)[O-])c4F)c4nc(c(-c5cccc(S(=O)(=O)[O-])c5F)c5ccc2[nH]5)C=C4)C=C3)cc1)c1ccc(C2CC2)cc1
REMARK SMILES IDX 11 1 10 2 9 3 7 4 8 5 6 7 3 8 2 10 1 11 4 12 5 13 79 14
REMARK SMILES IDX 80 15 87 16 81 17 86 18 82 19 83 20 84 21 85 22 12 23 13 24
REMARK SMILES IDX 14 25 15 27 16 28 17 29 78 30 18 31 77 32 19 33 20 34 21 35
REMARK SMILES IDX 71 36 22 37 76 38 70 39 72 40 23 41 75 42 69 43 68 44 24 46
REMARK SMILES IDX 56 47 36 48 55 49 37 50 40 51 54 52 73 53 38 54 39 55 53 57
REMARK SMILES IDX 74 58 41 59 25 60 26 61 34 62 27 63 29 64 35 65 28 66 30 67
REMARK SMILES IDX 31 68 32 69 33 70 57 71 58 72 66 73 59 74 61 75 67 76 60 77
REMARK SMILES IDX 62 78 63 79 64 80 65 81 42 82 43 83 51 84 44 85 46 86 52 87
REMARK SMILES IDX 45 88 47 89 48 90 49 91 50 92
REMARK H PARENT 9 6 3 9 13 26 72 45 40 56
REMARK Flexibility Score: inf
ROOT
ATOM      1  C   UNL A   1      35.401  23.213  25.316  1.00  0.00     0.042 C 
ENDROOT
BRANCH   1   2
ATOM      2  C   UNL A   1      34.320  24.217  25.765  1.00  0.00     0.118 C 
BRANCH   2   3
ATOM      3  N   UNL A   1      34.373  25.512  25.104  1.00  0.00    -0.351 N 
ATOM      4  C   UNL A   1      33.464  26.311  24.460  1.00  0.00     0.283 C 
ATOM      5  O   UNL A   1      33.963  27.330  23.966  1.00  0.00    -0.268 OA
ATOM      6  H   UNL A   1      35.274  25.908  25.124  1.00  0.00     0.163 HD
BRANCH   4   7
ATOM      7  C   UNL A   1      31.941  25.960  24.350  1.00  0.00     0.305 C 
BRANCH   7   8
ATOM      8  N   UNL A   1      31.627  24.965  23.270  1.00  0.00    -0.321 N 
ATOM      9  H   UNL A   1      30.852  25.471  22.842  1.00  0.00     0.349 HD
BRANCH   8  10
ATOM     10  C   UNL A   1      32.576  24.811  22.160  1.00  0.00     0.259 C 
ATOM     11  C   UNL A   1      32.341  25.812  21.030  1.00  0.00     0.071 C 
ENDBRANCH   8  10
BRANCH   8  12
ATOM     12  C   UNL A   1      31.105  23.677  23.724  1.00  0.00     0.259 C 
ATOM     13  C   UNL A   1      31.926  22.439  23.349  1.00  0.00     0.071 C 
ENDBRANCH   8  12
ENDBRANCH   7   8
BRANCH   7  14
ATOM     14  C   UNL A   1      31.006  27.191  24.257  1.00  0.00     0.019 A 
ATOM     15  C   UNL A   1      29.868  27.137  23.435  1.00  0.00     0.011 A 
ATOM     16  C   UNL A   1      31.358  28.447  24.776  1.00  0.00     0.011 A 
ATOM     17  C   UNL A   1      29.201  28.314  23.050  1.00  0.00     0.004 A 
ATOM     18  C   UNL A   1      30.680  29.614  24.397  1.00  0.00     0.004 A 
ATOM     19  C   UNL A   1      29.637  29.584  23.466  1.00  0.00    -0.045 A 
BRANCH  19  20
ATOM     20  C   UNL A   1      29.054  30.842  22.853  1.00  0.00     0.019 C 
ATOM     21  C   UNL A   1      27.861  30.826  21.921  1.00  0.00     0.009 C 
ATOM     22  C   UNL A   1      27.681  31.274  23.337  1.00  0.00     0.009 C 
ENDBRANCH  19  20
ENDBRANCH   7  14
ENDBRANCH   4   7
ENDBRANCH   2   3
ENDBRANCH   1   2
BRANCH   1  23
ATOM     23  C   UNL A   1      36.859  23.683  25.351  1.00  0.00     0.118 C 
BRANCH  23  24
ATOM     24  N   UNL A   1      37.761  22.646  25.819  1.00  0.00    -0.352 N 
ATOM     25  C   UNL A   1      39.002  22.772  26.400  1.00  0.00     0.251 C 
ATOM     26  H   UNL A   1      37.439  21.722  25.705  1.00  0.00     0.163 HD
ATOM     27  O   UNL A   1      39.714  21.775  26.505  1.00  0.00    -0.269 OA
BRANCH  25  28
ATOM     28  C   UNL A   1      39.499  24.082  26.896  1.00  0.00     0.039 A 
ATOM     29  C   UNL A   1      39.250  24.433  28.228  1.00  0.00     0.014 A 
ATOM     30  C   UNL A   1      40.123  25.003  26.048  1.00  0.00     0.014 A 
ATOM     31  C   UNL A   1      39.644  25.686  28.714  1.00  0.00     0.010 A 
ATOM     32  C   UNL A   1      40.551  26.241  26.547  1.00  0.00     0.010 A 
ATOM     33  C   UNL A   1      40.306  26.603  27.882  1.00  0.00    -0.014 A 
BRANCH  33  34
ATOM     34  C   UNL A   1      40.745  27.931  28.403  1.00  0.00     0.031 A 
ATOM     35  C   UNL A   1      42.208  28.240  28.601  1.00  0.00     0.074 A 
ATOM     36  C   UNL A   1      39.824  28.849  28.760  1.00  0.00     0.049 A 
ATOM     37  N   UNL A   1      42.765  29.334  29.057  1.00  0.00    -0.248 NA
ATOM     38  C   UNL A   1      43.171  27.180  28.258  1.00  0.00     0.031 C 
ATOM     39  C   UNL A   1      38.373  28.658  28.694  1.00  0.00     0.029 A 
ATOM     40  N   UNL A   1      39.967  30.114  29.281  1.00  0.00    -0.354 N 
ATOM     41  C   UNL A   1      44.133  29.084  29.094  1.00  0.00     0.074 A 
ATOM     42  C   UNL A   1      44.323  27.728  28.623  1.00  0.00     0.031 C 
ATOM     43  C   UNL A   1      37.763  29.756  29.170  1.00  0.00     0.029 A 
ATOM     44  C   UNL A   1      38.773  30.722  29.594  1.00  0.00     0.049 A 
ATOM     45  H   UNL A   1      40.842  30.544  29.416  1.00  0.00     0.167 HD
ATOM     46  C   UNL A   1      45.141  29.911  29.463  1.00  0.00     0.034 A 
ATOM     47  C   UNL A   1      38.515  31.915  30.169  1.00  0.00     0.034 A 
ATOM     48  C   UNL A   1      44.963  31.278  29.878  1.00  0.00     0.049 A 
ATOM     49  C   UNL A   1      39.657  32.832  30.517  1.00  0.00     0.074 A 
ATOM     50  C   UNL A   1      45.936  32.224  30.156  1.00  0.00     0.029 A 
ATOM     51  N   UNL A   1      43.740  31.893  30.087  1.00  0.00    -0.354 N 
ATOM     52  N   UNL A   1      40.944  32.645  30.356  1.00  0.00    -0.248 NA
ATOM     53  C   UNL A   1      39.311  34.144  31.089  1.00  0.00     0.031 C 
ATOM     54  C   UNL A   1      45.301  33.403  30.559  1.00  0.00     0.029 A 
ATOM     55  C   UNL A   1      43.932  33.198  30.508  1.00  0.00     0.049 A 
ATOM     56  H   UNL A   1      42.863  31.465  29.957  1.00  0.00     0.167 HD
ATOM     57  C   UNL A   1      41.556  33.822  30.774  1.00  0.00     0.074 A 
ATOM     58  C   UNL A   1      40.498  34.728  31.169  1.00  0.00     0.031 C 
ATOM     59  C   UNL A   1      42.877  34.118  30.842  1.00  0.00     0.034 A 
BRANCH  46  60
ATOM     60  C   UNL A   1      46.554  29.393  29.390  1.00  0.00     0.023 A 
ATOM     61  C   UNL A   1      47.068  28.629  30.457  1.00  0.00     0.012 A 
ATOM     62  C   UNL A   1      47.325  29.561  28.223  1.00  0.00     0.148 A 
ATOM     63  C   UNL A   1      48.336  28.054  30.371  1.00  0.00     0.002 A 
ATOM     64  C   UNL A   1      48.572  28.951  28.129  1.00  0.00     0.091 A 
ATOM     65  F   UNL A   1      46.822  30.302  27.225  1.00  0.00    -0.205 F 
ATOM     66  C   UNL A   1      49.081  28.206  29.204  1.00  0.00     0.022 A 
BRANCH  64  67
ATOM     67  S   UNL A   1      49.577  29.016  26.641  1.00  0.00     0.127 S 
ATOM     68  O   UNL A   1      50.694  28.142  27.000  1.00  0.00    -0.237 OA
ATOM     69  O   UNL A   1      48.671  28.463  25.634  1.00  0.00    -0.237 OA
ATOM     70  O   UNL A   1      49.923  30.417  26.446  1.00  0.00    -0.744 OA
ENDBRANCH  64  67
ENDBRANCH  46  60
BRANCH  47  71
ATOM     71  C   UNL A   1      37.105  32.337  30.412  1.00  0.00     0.023 A 
ATOM     72  C   UNL A   1      36.516  32.106  31.670  1.00  0.00     0.012 A 
ATOM     73  C   UNL A   1      36.350  32.970  29.407  1.00  0.00     0.148 A 
ATOM     74  C   UNL A   1      35.187  32.459  31.909  1.00  0.00     0.002 A 
ATOM     75  C   UNL A   1      35.046  33.374  29.670  1.00  0.00     0.091 A 
ATOM     76  F   UNL A   1      36.919  33.164  28.208  1.00  0.00    -0.205 F 
ATOM     77  C   UNL A   1      34.456  33.103  30.914  1.00  0.00     0.022 A 
BRANCH  75  78
ATOM     78  S   UNL A   1      34.093  34.333  28.488  1.00  0.00     0.127 S 
ATOM     79  O   UNL A   1      32.783  34.386  29.131  1.00  0.00    -0.237 OA
ATOM     80  O   UNL A   1      34.820  35.605  28.467  1.00  0.00    -0.237 OA
ATOM     81  O   UNL A   1      34.166  33.589  27.241  1.00  0.00    -0.744 OA
ENDBRANCH  75  78
ENDBRANCH  47  71
BRANCH  59  82
ATOM     82  C   UNL A   1      43.270  35.488  31.331  1.00  0.00     0.023 A 
ATOM     83  C   UNL A   1      43.468  35.709  32.709  1.00  0.00     0.012 A 
ATOM     84  C   UNL A   1      43.517  36.535  30.422  1.00  0.00     0.148 A 
ATOM     85  C   UNL A   1      43.877  36.957  33.176  1.00  0.00     0.002 A 
ATOM     86  C   UNL A   1      43.970  37.764  30.890  1.00  0.00     0.091 A 
ATOM     87  F   UNL A   1      43.305  36.314  29.116  1.00  0.00    -0.205 F 
ATOM     88  C   UNL A   1      44.140  37.980  32.268  1.00  0.00     0.022 A 
BRANCH  86  89
ATOM     89  S   UNL A   1      44.424  39.108  29.786  1.00  0.00     0.127 S 
ATOM     90  O   UNL A   1      43.150  39.398  29.131  1.00  0.00    -0.237 OA
ATOM     91  O   UNL A   1      44.878  40.139  30.720  1.00  0.00    -0.237 OA
ATOM     92  O   UNL A   1      45.468  38.578  28.919  1.00  0.00    -0.744 OA
ENDBRANCH  86  89
ENDBRANCH  59  82
ENDBRANCH  33  34
ENDBRANCH  25  28
ENDBRANCH  23  24
ENDBRANCH   1  23
TORSDOF 18
ENDMDL
MODEL 3
REMARK VINA RESULT:     -10.9      2.426      4.487
REMARK SMILES CC[NH+](CC)[C@@H](C(=O)NCCCNC(=O)c1ccc(-c2c3nc(c(-c4cccc(S(=O)(=O)[O-])c4F)c4ccc([nH]4)c(-c4cccc(S(=O)(=O)[O-])c4F)c4nc(c(-c5cccc(S(=O)(=O)[O-])c5F)c5ccc2[nH]5)C=C4)C=C3)cc1)c1ccc(C2CC2)cc1
REMARK SMILES IDX 11 1 10 2 9 3 7 4 8 5 6 7 3 8 2 10 1 11 4 12 5 13 79 14
REMARK SMILES IDX 80 15 87 16 81 17 86 18 82 19 83 20 84 21 85 22 12 23 13 24
REMARK SMILES IDX 14 25 15 27 16 28 17 29 78 30 18 31 77 32 19 33 20 34 21 35
REMARK SMILES IDX 71 36 22 37 76 38 70 39 72 40 23 41 75 42 69 43 68 44 24 46
REMARK SMILES IDX 56 47 36 48 55 49 37 50 40 51 54 52 73 53 38 54 39 55 53 57
REMARK SMILES IDX 74 58 41 59 25 60 26 61 34 62 27 63 29 64 35 65 28 66 30 67
REMARK SMILES IDX 31 68 32 69 33 70 57 71 58 72 66 73 59 74 61 75 67 76 60 77
REMARK SMILES IDX 62 78 63 79 64 80 65 81 42 82 43 83 51 84 44 85 46 86 52 87
REMARK SMILES IDX 45 88 47 89 48 90 49 91 50 92
REMARK H PARENT 9 6 3 9 13 26 72 45 40 56
REMARK Flexibility Score: inf
ROOT
ATOM      1  C   UNL A   1      31.711  28.542  26.202  1.00  0.00     0.042 C 
ENDROOT
BRANCH   1   2
ATOM      2  C   UNL A   1      32.269  27.206  26.732  1.00  0.00     0.118 C 
BRANCH   2   3
ATOM      3  N   UNL A   1      31.283  26.147  26.885  1.00  0.00    -0.351 N 
ATOM      4  C   UNL A   1      30.876  25.083  26.122  1.00  0.00     0.283 C 
ATOM      5  O   UNL A   1      29.927  24.457  26.612  1.00  0.00    -0.268 OA
ATOM      6  H   UNL A   1      30.793  26.208  27.736  1.00  0.00     0.163 HD
BRANCH   4   7
ATOM      7  C   UNL A   1      31.541  24.703  24.755  1.00  0.00     0.305 C 
BRANCH   7   8
ATOM      8  N   UNL A   1      30.938  25.408  23.574  1.00  0.00    -0.321 N 
ATOM      9  H   UNL A   1      30.673  24.579  23.043  1.00  0.00     0.349 HD
BRANCH   8  10
ATOM     10  C   UNL A   1      29.661  26.110  23.752  1.00  0.00     0.259 C 
ATOM     11  C   UNL A   1      29.684  27.539  23.213  1.00  0.00     0.071 C 
ENDBRANCH   8  10
BRANCH   8  12
ATOM     12  C   UNL A   1      31.870  26.173  22.746  1.00  0.00     0.259 C 
ATOM     13  C   UNL A   1      33.290  26.341  23.297  1.00  0.00     0.071 C 
ENDBRANCH   8  12
ENDBRANCH   7   8
BRANCH   7  14
ATOM     14  C   UNL A   1      31.646  23.180  24.496  1.00  0.00     0.019 A 
ATOM     15  C   UNL A   1      31.972  22.317  25.556  1.00  0.00     0.011 A 
ATOM     16  C   UNL A   1      31.656  22.633  23.203  1.00  0.00     0.011 A 
ATOM     17  C   UNL A   1      32.416  21.006  25.307  1.00  0.00     0.004 A 
ATOM     18  C   UNL A   1      32.088  21.322  22.965  1.00  0.00     0.004 A 
ATOM     19  C   UNL A   1      32.551  20.504  24.001  1.00  0.00    -0.045 A 
BRANCH  19  20
ATOM     20  C   UNL A   1      33.251  19.183  23.748  1.00  0.00     0.019 C 
ATOM     21  C   UNL A   1      33.398  18.114  24.810  1.00  0.00     0.009 C 
ATOM     22  C   UNL A   1      32.384  17.936  23.724  1.00  0.00     0.009 C 
ENDBRANCH  19  20
ENDBRANCH   7  14
ENDBRANCH   4   7
ENDBRANCH   2   3
ENDBRANCH   1   2
BRANCH   1  23
ATOM     23  C   UNL A   1      32.711  29.534  25.597  1.00  0.00     0.118 C 
BRANCH  23  24
ATOM     24  N   UNL A   1      32.403  30.909  25.950  1.00  0.00    -0.352 N 
ATOM     25  C   UNL A   1      32.960  31.697  26.931  1.00  0.00     0.251 C 
ATOM     26  H   UNL A   1      31.698  31.337  25.412  1.00  0.00     0.163 HD
ATOM     27  O   UNL A   1      32.401  32.749  27.237  1.00  0.00    -0.269 OA
BRANCH  25  28
ATOM     28  C   UNL A   1      34.212  31.304  27.628  1.00  0.00     0.039 A 
ATOM     29  C   UNL A   1      34.418  29.952  27.926  1.00  0.00     0.014 A 
ATOM     30  C   UNL A   1      35.138  32.254  28.074  1.00  0.00     0.014 A 
ATOM     31  C   UNL A   1      35.554  29.550  28.641  1.00  0.00     0.010 A 
ATOM     32  C   UNL A   1      36.293  31.846  28.756  1.00  0.00     0.010 A 
ATOM     33  C   UNL A   1      36.509  30.492  29.059  1.00  0.00    -0.014 A 
BRANCH  33  34
ATOM     34  C   UNL A   1      37.730  30.064  29.803  1.00  0.00     0.031 A 
ATOM     35  C   UNL A   1      38.011  30.583  31.192  1.00  0.00     0.074 A 
ATOM     36  C   UNL A   1      38.627  29.251  29.209  1.00  0.00     0.049 A 
ATOM     37  N   UNL A   1      39.028  30.328  31.976  1.00  0.00    -0.248 NA
ATOM     38  C   UNL A   1      37.034  31.520  31.769  1.00  0.00     0.031 C 
ATOM     39  C   UNL A   1      38.521  28.733  27.844  1.00  0.00     0.029 A 
ATOM     40  N   UNL A   1      39.821  28.742  29.665  1.00  0.00    -0.354 N 
ATOM     41  C   UNL A   1      38.837  31.099  33.118  1.00  0.00     0.074 A 
ATOM     42  C   UNL A   1      37.610  31.840  32.921  1.00  0.00     0.031 C 
ATOM     43  C   UNL A   1      39.610  27.996  27.567  1.00  0.00     0.029 A 
ATOM     44  C   UNL A   1      40.501  28.003  28.724  1.00  0.00     0.049 A 
ATOM     45  H   UNL A   1      40.157  28.893  30.577  1.00  0.00     0.167 HD
ATOM     46  C   UNL A   1      39.599  31.168  34.237  1.00  0.00     0.034 A 
ATOM     47  C   UNL A   1      41.710  27.406  28.778  1.00  0.00     0.034 A 
ATOM     48  C   UNL A   1      40.790  30.391  34.462  1.00  0.00     0.049 A 
ATOM     49  C   UNL A   1      42.506  27.457  30.055  1.00  0.00     0.074 A 
ATOM     50  C   UNL A   1      41.557  30.309  35.612  1.00  0.00     0.029 A 
ATOM     51  N   UNL A   1      41.395  29.574  33.522  1.00  0.00    -0.354 N 
ATOM     52  N   UNL A   1      42.205  28.034  31.192  1.00  0.00    -0.248 NA
ATOM     53  C   UNL A   1      43.791  26.740  30.071  1.00  0.00     0.031 C 
ATOM     54  C   UNL A   1      42.641  29.464  35.360  1.00  0.00     0.029 A 
ATOM     55  C   UNL A   1      42.535  28.999  34.059  1.00  0.00     0.049 A 
ATOM     56  H   UNL A   1      41.064  29.423  32.607  1.00  0.00     0.167 HD
ATOM     57  C   UNL A   1      43.242  27.723  32.064  1.00  0.00     0.074 A 
ATOM     58  C   UNL A   1      44.168  26.883  31.334  1.00  0.00     0.031 C 
ATOM     59  C   UNL A   1      43.421  28.114  33.350  1.00  0.00     0.034 A 
BRANCH  46  60
ATOM     60  C   UNL A   1      39.151  32.079  35.351  1.00  0.00     0.023 A 
ATOM     61  C   UNL A   1      38.295  31.580  36.353  1.00  0.00     0.012 A 
ATOM     62  C   UNL A   1      39.670  33.383  35.470  1.00  0.00     0.148 A 
ATOM     63  C   UNL A   1      37.946  32.372  37.446  1.00  0.00     0.002 A 
ATOM     64  C   UNL A   1      39.350  34.152  36.583  1.00  0.00     0.091 A 
ATOM     65  F   UNL A   1      40.473  33.843  34.499  1.00  0.00    -0.205 F 
ATOM     66  C   UNL A   1      38.482  33.651  37.567  1.00  0.00     0.022 A 
BRANCH  64  67
ATOM     67  S   UNL A   1      40.051  35.781  36.876  1.00  0.00     0.127 S 
ATOM     68  O   UNL A   1      39.571  36.523  35.710  1.00  0.00    -0.237 OA
ATOM     69  O   UNL A   1      39.423  36.163  38.141  1.00  0.00    -0.237 OA
ATOM     70  O   UNL A   1      41.493  35.595  36.942  1.00  0.00    -0.744 OA
ENDBRANCH  64  67
ENDBRANCH  46  60
BRANCH  47  71
ATOM     71  C   UNL A   1      42.230  26.663  27.593  1.00  0.00     0.023 A 
ATOM     72  C   UNL A   1      43.008  27.338  26.633  1.00  0.00     0.012 A 
ATOM     73  C   UNL A   1      41.959  25.293  27.416  1.00  0.00     0.148 A 
ATOM     74  C   UNL A   1      43.474  26.673  25.499  1.00  0.00     0.002 A 
ATOM     75  C   UNL A   1      42.476  24.621  26.314  1.00  0.00     0.091 A 
ATOM     76  F   UNL A   1      41.198  24.669  28.327  1.00  0.00    -0.205 F 
ATOM     77  C   UNL A   1      43.218  25.313  25.345  1.00  0.00     0.022 A 
BRANCH  75  78
ATOM     78  S   UNL A   1      42.308  22.843  26.123  1.00  0.00     0.127 S 
ATOM     79  O   UNL A   1      42.916  22.624  24.812  1.00  0.00    -0.237 OA
ATOM     80  O   UNL A   1      43.088  22.337  27.255  1.00  0.00    -0.237 OA
ATOM     81  O   UNL A   1      40.882  22.578  26.220  1.00  0.00    -0.744 OA
ENDBRANCH  75  78
ENDBRANCH  47  71
BRANCH  59  82
ATOM     82  C   UNL A   1      44.646  27.620  34.075  1.00  0.00     0.023 A 
ATOM     83  C   UNL A   1      45.839  28.367  34.025  1.00  0.00     0.012 A 
ATOM     84  C   UNL A   1      44.594  26.456  34.869  1.00  0.00     0.148 A 
ATOM     85  C   UNL A   1      46.969  27.950  34.727  1.00  0.00     0.002 A 
ATOM     86  C   UNL A   1      45.709  26.071  35.604  1.00  0.00     0.091 A 
ATOM     87  F   UNL A   1      43.456  25.746  34.891  1.00  0.00    -0.205 F 
ATOM     88  C   UNL A   1      46.901  26.811  35.526  1.00  0.00     0.022 A 
BRANCH  86  89
ATOM     89  S   UNL A   1      45.683  24.672  36.732  1.00  0.00     0.127 S 
ATOM     90  O   UNL A   1      45.020  23.651  35.925  1.00  0.00    -0.237 OA
ATOM     91  O   UNL A   1      47.108  24.434  36.966  1.00  0.00    -0.237 OA
ATOM     92  O   UNL A   1      44.946  25.120  37.907  1.00  0.00    -0.744 OA
ENDBRANCH  86  89
ENDBRANCH  59  82
ENDBRANCH  33  34
ENDBRANCH  25  28
ENDBRANCH  23  24
ENDBRANCH   1  23
TORSDOF 18
ENDMDL
