MODEL 1
REMARK VINA RESULT:     -12.0      0.000      0.000
REMARK SMILES NS(=O)(=O)c1ccc(N2CCSCC2)c(C(=O)NCCCNC(=O)c2ccc(-c3c4nc(c(-c5cccc(S(=O)(=O)[O-])c5F)c5ccc([nH]5)c(-c5cccc(S(=O)(=O)[O-])c5F)c5nc(c(-c6cccc(S(=O)(=O)[O-])c6F)c6ccc3[nH]6)C=C5)C=C4)cc2)c1
REMARK SMILES IDX 20 1 19 2 18 3 16 4 17 5 15 7 5 8 6 9 88 10 7 11 8 12 2 13
REMARK SMILES IDX 3 14 4 15 1 16 9 19 10 20 14 21 11 22 13 23 12 24 21 25
REMARK SMILES IDX 22 26 23 27 24 29 25 30 26 31 87 32 27 33 86 34 28 35 29 36
REMARK SMILES IDX 30 37 80 38 31 39 85 40 79 41 81 42 32 43 84 44 78 45 77 46
REMARK SMILES IDX 33 48 65 49 45 50 64 51 46 52 49 53 63 54 82 55 47 56 48 57
REMARK SMILES IDX 62 59 83 60 50 61 34 62 35 63 43 64 36 65 38 66 44 67 37 68
REMARK SMILES IDX 39 69 40 70 41 71 42 72 66 73 67 74 75 75 68 76 70 77 76 78
REMARK SMILES IDX 69 79 71 80 72 81 73 82 74 83 51 84 52 85 60 86 53 87 55 88
REMARK SMILES IDX 61 89 54 90 56 91 57 92 58 93 59 94
REMARK H PARENT 18 6 1 17 1 18 22 28 81 47 49 58
REMARK Flexibility Score: inf
ROOT
ATOM      1  C   UNL A   1      33.660  28.093  26.122  1.00  0.00     0.042 C 
ENDROOT
BRANCH   1   2
ATOM      2  C   UNL A   1      33.498  28.858  24.817  1.00  0.00     0.118 C 
BRANCH   2   3
ATOM      3  N   UNL A   1      33.719  28.080  23.596  1.00  0.00    -0.352 N 
ATOM      4  C   UNL A   1      32.884  27.476  22.668  1.00  0.00     0.253 C 
ATOM      5  O   UNL A   1      33.420  27.045  21.648  1.00  0.00    -0.269 OA
ATOM      6  H   UNL A   1      34.672  27.959  23.387  1.00  0.00     0.163 HD
BRANCH   4   7
ATOM      7  C   UNL A   1      31.408  27.319  22.880  1.00  0.00     0.064 A 
ATOM      8  C   UNL A   1      29.210  28.353  22.756  1.00  0.00     0.083 A 
ATOM      9  C   UNL A   1      28.654  27.336  23.515  1.00  0.00     0.024 A 
ATOM     10  C   UNL A   1      30.545  28.290  22.357  1.00  0.00     0.037 A 
ATOM     11  C   UNL A   1      29.457  26.256  23.869  1.00  0.00     0.028 A 
ATOM     12  C   UNL A   1      30.843  26.226  23.584  1.00  0.00     0.050 A 
BRANCH   8  13
ATOM     13  S   UNL A   1      28.300  29.845  22.484  1.00  0.00     0.238 S 
ATOM     14  O   UNL A   1      27.225  29.921  23.445  1.00  0.00    -0.207 OA
ATOM     15  O   UNL A   1      28.096  30.003  21.064  1.00  0.00    -0.207 OA
BRANCH  13  16
ATOM     16  N   UNL A   1      29.386  31.042  22.930  1.00  0.00    -0.225 NA
ATOM     17  H   UNL A   1      29.616  31.612  22.116  1.00  0.00     0.137 HD
ATOM     18  H   UNL A   1      30.236  30.612  23.296  1.00  0.00     0.137 HD
ENDBRANCH  13  16
ENDBRANCH   8  13
BRANCH  12  19
ATOM     19  N   UNL A   1      31.501  25.083  24.006  1.00  0.00    -0.369 N 
ATOM     20  C   UNL A   1      31.468  23.841  23.234  1.00  0.00     0.127 C 
ATOM     21  C   UNL A   1      31.849  24.975  25.425  1.00  0.00     0.127 C 
ATOM     22  C   UNL A   1      32.882  23.243  23.155  1.00  0.00     0.091 C 
ATOM     23  C   UNL A   1      33.302  24.512  25.580  1.00  0.00     0.091 C 
ATOM     24  S   UNL A   1      33.611  22.885  24.801  1.00  0.00    -0.158 SA
ENDBRANCH  12  19
ENDBRANCH   4   7
ENDBRANCH   2   3
ENDBRANCH   1   2
BRANCH   1  25
ATOM     25  C   UNL A   1      33.135  28.786  27.367  1.00  0.00     0.118 C 
BRANCH  25  26
ATOM     26  N   UNL A   1      33.377  30.224  27.381  1.00  0.00    -0.352 N 
ATOM     27  C   UNL A   1      34.443  30.972  27.823  1.00  0.00     0.251 C 
ATOM     28  H   UNL A   1      32.638  30.758  27.006  1.00  0.00     0.163 HD
ATOM     29  O   UNL A   1      34.331  32.197  27.858  1.00  0.00    -0.269 OA
BRANCH  27  30
ATOM     30  C   UNL A   1      35.707  30.344  28.274  1.00  0.00     0.039 A 
ATOM     31  C   UNL A   1      36.814  30.360  27.416  1.00  0.00     0.014 A 
ATOM     32  C   UNL A   1      35.808  29.696  29.504  1.00  0.00     0.014 A 
ATOM     33  C   UNL A   1      38.030  29.799  27.824  1.00  0.00     0.010 A 
ATOM     34  C   UNL A   1      37.042  29.231  29.951  1.00  0.00     0.010 A 
ATOM     35  C   UNL A   1      38.166  29.265  29.114  1.00  0.00    -0.014 A 
BRANCH  35  36
ATOM     36  C   UNL A   1      39.463  28.737  29.617  1.00  0.00     0.031 A 
ATOM     37  C   UNL A   1      40.195  29.450  30.725  1.00  0.00     0.074 A 
ATOM     38  C   UNL A   1      40.042  27.688  29.000  1.00  0.00     0.049 A 
ATOM     39  N   UNL A   1      41.382  29.209  31.221  1.00  0.00    -0.248 NA
ATOM     40  C   UNL A   1      39.521  30.612  31.328  1.00  0.00     0.031 C 
ATOM     41  C   UNL A   1      39.484  26.968  27.853  1.00  0.00     0.029 A 
ATOM     42  N   UNL A   1      41.246  27.069  29.224  1.00  0.00    -0.354 N 
ATOM     43  C   UNL A   1      41.617  30.216  32.150  1.00  0.00     0.074 A 
ATOM     44  C   UNL A   1      40.466  31.090  32.125  1.00  0.00     0.031 C 
ATOM     45  C   UNL A   1      40.341  26.006  27.476  1.00  0.00     0.029 A 
ATOM     46  C   UNL A   1      41.522  26.058  28.332  1.00  0.00     0.049 A 
ATOM     47  H   UNL A   1      41.855  27.323  29.955  1.00  0.00     0.167 HD
ATOM     48  C   UNL A   1      42.680  30.383  32.974  1.00  0.00     0.034 A 
ATOM     49  C   UNL A   1      42.605  25.265  28.212  1.00  0.00     0.034 A 
ATOM     50  C   UNL A   1      43.790  29.472  33.046  1.00  0.00     0.049 A 
ATOM     51  C   UNL A   1      43.736  25.416  29.191  1.00  0.00     0.074 A 
ATOM     52  C   UNL A   1      44.859  29.485  33.926  1.00  0.00     0.029 A 
ATOM     53  N   UNL A   1      43.978  28.387  32.205  1.00  0.00    -0.354 N 
ATOM     54  N   UNL A   1      43.863  26.271  30.177  1.00  0.00    -0.248 NA
ATOM     55  C   UNL A   1      44.856  24.472  29.066  1.00  0.00     0.031 C 
ATOM     56  C   UNL A   1      45.699  28.412  33.608  1.00  0.00     0.029 A 
ATOM     57  C   UNL A   1      45.146  27.723  32.540  1.00  0.00     0.049 A 
ATOM     58  H   UNL A   1      43.370  28.126  31.477  1.00  0.00     0.167 HD
ATOM     59  C   UNL A   1      45.059  25.950  30.809  1.00  0.00     0.074 A 
ATOM     60  C   UNL A   1      45.608  24.808  30.107  1.00  0.00     0.031 C 
ATOM     61  C   UNL A   1      45.656  26.556  31.865  1.00  0.00     0.034 A 
BRANCH  48  62
ATOM     62  C   UNL A   1      42.655  31.562  33.913  1.00  0.00     0.023 A 
ATOM     63  C   UNL A   1      43.164  32.804  33.480  1.00  0.00     0.012 A 
ATOM     64  C   UNL A   1      42.103  31.456  35.205  1.00  0.00     0.148 A 
ATOM     65  C   UNL A   1      43.166  33.909  34.330  1.00  0.00     0.002 A 
ATOM     66  C   UNL A   1      42.067  32.574  36.031  1.00  0.00     0.091 A 
ATOM     67  F   UNL A   1      41.645  30.264  35.611  1.00  0.00    -0.205 F 
ATOM     68  C   UNL A   1      42.609  33.797  35.602  1.00  0.00     0.022 A 
BRANCH  66  69
ATOM     69  S   UNL A   1      41.299  32.546  37.655  1.00  0.00     0.127 S 
ATOM     70  O   UNL A   1      41.331  33.960  38.024  1.00  0.00    -0.237 OA
ATOM     71  O   UNL A   1      39.964  32.023  37.360  1.00  0.00    -0.237 OA
ATOM     72  O   UNL A   1      42.125  31.663  38.467  1.00  0.00    -0.744 OA
ENDBRANCH  66  69
ENDBRANCH  48  62
BRANCH  49  73
ATOM     73  C   UNL A   1      42.622  24.199  27.169  1.00  0.00     0.023 A 
ATOM     74  C   UNL A   1      43.303  24.435  25.959  1.00  0.00     0.012 A 
ATOM     75  C   UNL A   1      42.028  22.942  27.392  1.00  0.00     0.148 A 
ATOM     76  C   UNL A   1      43.375  23.444  24.980  1.00  0.00     0.002 A 
ATOM     77  C   UNL A   1      42.147  21.942  26.432  1.00  0.00     0.091 A 
ATOM     78  F   UNL A   1      41.377  22.743  28.546  1.00  0.00    -0.205 F 
ATOM     79  C   UNL A   1      42.808  22.196  25.220  1.00  0.00     0.022 A 
BRANCH  77  80
ATOM     80  S   UNL A   1      41.565  20.264  26.707  1.00  0.00     0.127 S 
ATOM     81  O   UNL A   1      40.127  20.469  26.861  1.00  0.00    -0.237 OA
ATOM     82  O   UNL A   1      41.963  19.601  25.464  1.00  0.00    -0.237 OA
ATOM     83  O   UNL A   1      42.268  19.793  27.892  1.00  0.00    -0.744 OA
ENDBRANCH  77  80
ENDBRANCH  49  73
BRANCH  61  84
ATOM     84  C   UNL A   1      46.963  25.988  32.349  1.00  0.00     0.023 A 
ATOM     85  C   UNL A   1      48.175  26.499  31.841  1.00  0.00     0.012 A 
ATOM     86  C   UNL A   1      46.995  25.012  33.364  1.00  0.00     0.148 A 
ATOM     87  C   UNL A   1      49.397  26.026  32.317  1.00  0.00     0.002 A 
ATOM     88  C   UNL A   1      48.217  24.579  33.866  1.00  0.00     0.091 A 
ATOM     89  F   UNL A   1      45.832  24.525  33.820  1.00  0.00    -0.205 F 
ATOM     90  C   UNL A   1      49.419  25.076  33.336  1.00  0.00     0.022 A 
BRANCH  88  91
ATOM     91  S   UNL A   1      48.337  23.429  35.242  1.00  0.00     0.127 S 
ATOM     92  O   UNL A   1      49.777  23.414  35.493  1.00  0.00    -0.237 OA
ATOM     93  O   UNL A   1      47.544  24.094  36.275  1.00  0.00    -0.237 OA
ATOM     94  O   UNL A   1      47.770  22.176  34.762  1.00  0.00    -0.744 OA
ENDBRANCH  88  91
ENDBRANCH  61  84
ENDBRANCH  35  36
ENDBRANCH  27  30
ENDBRANCH  25  26
ENDBRANCH   1  25
TORSDOF 16
ENDMDL
MODEL 2
REMARK VINA RESULT:     -11.9      5.303     10.100
REMARK SMILES NS(=O)(=O)c1ccc(N2CCSCC2)c(C(=O)NCCCNC(=O)c2ccc(-c3c4nc(c(-c5cccc(S(=O)(=O)[O-])c5F)c5ccc([nH]5)c(-c5cccc(S(=O)(=O)[O-])c5F)c5nc(c(-c6cccc(S(=O)(=O)[O-])c6F)c6ccc3[nH]6)C=C5)C=C4)cc2)c1
REMARK SMILES IDX 20 1 19 2 18 3 16 4 17 5 15 7 5 8 6 9 88 10 7 11 8 12 2 13
REMARK SMILES IDX 3 14 4 15 1 16 9 19 10 20 14 21 11 22 13 23 12 24 21 25
REMARK SMILES IDX 22 26 23 27 24 29 25 30 26 31 87 32 27 33 86 34 28 35 29 36
REMARK SMILES IDX 30 37 80 38 31 39 85 40 79 41 81 42 32 43 84 44 78 45 77 46
REMARK SMILES IDX 33 48 65 49 45 50 64 51 46 52 49 53 63 54 82 55 47 56 48 57
REMARK SMILES IDX 62 59 83 60 50 61 34 62 35 63 43 64 36 65 38 66 44 67 37 68
REMARK SMILES IDX 39 69 40 70 41 71 42 72 66 73 67 74 75 75 68 76 70 77 76 78
REMARK SMILES IDX 69 79 71 80 72 81 73 82 74 83 51 84 52 85 60 86 53 87 55 88
REMARK SMILES IDX 61 89 54 90 56 91 57 92 58 93 59 94
REMARK H PARENT 18 6 1 17 1 18 22 28 81 47 49 58
REMARK Flexibility Score: inf
ROOT
ATOM      1  C   UNL A   1      36.252  21.977  25.754  1.00  0.00     0.042 C 
ENDROOT
BRANCH   1   2
ATOM      2  C   UNL A   1      35.516  23.299  25.599  1.00  0.00     0.118 C 
BRANCH   2   3
ATOM      3  N   UNL A   1      34.252  23.410  26.332  1.00  0.00    -0.352 N 
ATOM      4  C   UNL A   1      32.997  22.839  26.190  1.00  0.00     0.253 C 
ATOM      5  O   UNL A   1      32.202  23.028  27.110  1.00  0.00    -0.269 OA
ATOM      6  H   UNL A   1      34.307  24.027  27.096  1.00  0.00     0.163 HD
BRANCH   4   7
ATOM      7  C   UNL A   1      32.592  22.050  24.982  1.00  0.00     0.064 A 
ATOM      8  C   UNL A   1      32.419  19.856  23.944  1.00  0.00     0.083 A 
ATOM      9  C   UNL A   1      32.198  20.428  22.700  1.00  0.00     0.024 A 
ATOM     10  C   UNL A   1      32.510  20.656  25.083  1.00  0.00     0.037 A 
ATOM     11  C   UNL A   1      32.072  21.811  22.618  1.00  0.00     0.028 A 
ATOM     12  C   UNL A   1      32.283  22.652  23.736  1.00  0.00     0.050 A 
BRANCH   8  13
ATOM     13  S   UNL A   1      32.816  18.138  24.064  1.00  0.00     0.238 S 
ATOM     14  O   UNL A   1      31.947  17.522  25.040  1.00  0.00    -0.207 OA
ATOM     15  O   UNL A   1      34.252  18.002  24.095  1.00  0.00    -0.207 OA
BRANCH  13  16
ATOM     16  N   UNL A   1      32.327  17.528  22.581  1.00  0.00    -0.225 NA
ATOM     17  H   UNL A   1      32.589  16.544  22.514  1.00  0.00     0.137 HD
ATOM     18  H   UNL A   1      32.779  18.052  21.831  1.00  0.00     0.137 HD
ENDBRANCH  13  16
ENDBRANCH   8  13
BRANCH  12  19
ATOM     19  N   UNL A   1      32.124  24.005  23.487  1.00  0.00    -0.369 N 
ATOM     20  C   UNL A   1      30.812  24.649  23.521  1.00  0.00     0.127 C 
ATOM     21  C   UNL A   1      33.185  24.699  22.753  1.00  0.00     0.127 C 
ATOM     22  C   UNL A   1      30.903  25.972  24.300  1.00  0.00     0.091 C 
ATOM     23  C   UNL A   1      33.540  26.015  23.453  1.00  0.00     0.091 C 
ATOM     24  S   UNL A   1      32.112  27.153  23.582  1.00  0.00    -0.158 SA
ENDBRANCH  12  19
ENDBRANCH   4   7
ENDBRANCH   2   3
ENDBRANCH   1   2
BRANCH   1  25
ATOM     25  C   UNL A   1      37.592  21.878  25.047  1.00  0.00     0.118 C 
BRANCH  25  26
ATOM     26  N   UNL A   1      38.535  20.982  25.706  1.00  0.00    -0.352 N 
ATOM     27  C   UNL A   1      39.678  21.224  26.431  1.00  0.00     0.251 C 
ATOM     28  H   UNL A   1      38.314  20.026  25.611  1.00  0.00     0.163 HD
ATOM     29  O   UNL A   1      40.384  20.270  26.756  1.00  0.00    -0.269 OA
BRANCH  27  30
ATOM     30  C   UNL A   1      40.087  22.596  26.813  1.00  0.00     0.039 A 
ATOM     31  C   UNL A   1      41.017  22.762  27.848  1.00  0.00     0.014 A 
ATOM     32  C   UNL A   1      39.537  23.723  26.205  1.00  0.00     0.014 A 
ATOM     33  C   UNL A   1      41.443  24.045  28.212  1.00  0.00     0.010 A 
ATOM     34  C   UNL A   1      40.036  24.990  26.495  1.00  0.00     0.010 A 
ATOM     35  C   UNL A   1      40.986  25.170  27.510  1.00  0.00    -0.014 A 
BRANCH  35  36
ATOM     36  C   UNL A   1      41.480  26.541  27.809  1.00  0.00     0.031 A 
ATOM     37  C   UNL A   1      42.904  26.922  27.492  1.00  0.00     0.074 A 
ATOM     38  C   UNL A   1      40.689  27.406  28.473  1.00  0.00     0.049 A 
ATOM     39  N   UNL A   1      43.548  28.025  27.776  1.00  0.00    -0.248 NA
ATOM     40  C   UNL A   1      43.725  25.914  26.800  1.00  0.00     0.031 C 
ATOM     41  C   UNL A   1      39.323  27.129  28.923  1.00  0.00     0.029 A 
ATOM     42  N   UNL A   1      40.931  28.681  28.920  1.00  0.00    -0.354 N 
ATOM     43  C   UNL A   1      44.855  27.823  27.349  1.00  0.00     0.074 A 
ATOM     44  C   UNL A   1      44.923  26.480  26.818  1.00  0.00     0.031 C 
ATOM     45  C   UNL A   1      38.849  28.199  29.580  1.00  0.00     0.029 A 
ATOM     46  C   UNL A   1      39.883  29.228  29.624  1.00  0.00     0.049 A 
ATOM     47  H   UNL A   1      41.775  29.160  28.753  1.00  0.00     0.167 HD
ATOM     48  C   UNL A   1      45.900  28.686  27.367  1.00  0.00     0.034 A 
ATOM     49  C   UNL A   1      39.768  30.421  30.242  1.00  0.00     0.034 A 
ATOM     50  C   UNL A   1      45.811  30.044  27.831  1.00  0.00     0.049 A 
ATOM     51  C   UNL A   1      40.912  31.393  30.176  1.00  0.00     0.074 A 
ATOM     52  C   UNL A   1      46.776  31.036  27.783  1.00  0.00     0.029 A 
ATOM     53  N   UNL A   1      44.693  30.603  28.430  1.00  0.00    -0.354 N 
ATOM     54  N   UNL A   1      42.088  31.245  29.615  1.00  0.00    -0.248 NA
ATOM     55  C   UNL A   1      40.703  32.710  30.794  1.00  0.00     0.031 C 
ATOM     56  C   UNL A   1      46.243  32.192  28.365  1.00  0.00     0.029 A 
ATOM     57  C   UNL A   1      44.942  31.924  28.761  1.00  0.00     0.049 A 
ATOM     58  H   UNL A   1      43.846  30.130  28.595  1.00  0.00     0.167 HD
ATOM     59  C   UNL A   1      42.748  32.456  29.785  1.00  0.00     0.074 A 
ATOM     60  C   UNL A   1      41.832  33.336  30.483  1.00  0.00     0.031 C 
ATOM     61  C   UNL A   1      44.004  32.804  29.411  1.00  0.00     0.034 A 
BRANCH  48  62
ATOM     62  C   UNL A   1      47.212  28.204  26.803  1.00  0.00     0.023 A 
ATOM     63  C   UNL A   1      48.274  27.901  27.680  1.00  0.00     0.012 A 
ATOM     64  C   UNL A   1      47.388  28.017  25.418  1.00  0.00     0.148 A 
ATOM     65  C   UNL A   1      49.503  27.464  27.188  1.00  0.00     0.002 A 
ATOM     66  C   UNL A   1      48.602  27.538  24.937  1.00  0.00     0.091 A 
ATOM     67  F   UNL A   1      46.378  28.332  24.595  1.00  0.00    -0.205 F 
ATOM     68  C   UNL A   1      49.664  27.274  25.818  1.00  0.00     0.022 A 
BRANCH  66  69
ATOM     69  S   UNL A   1      48.877  27.188  23.197  1.00  0.00     0.127 S 
ATOM     70  O   UNL A   1      50.332  27.052  23.147  1.00  0.00    -0.237 OA
ATOM     71  O   UNL A   1      48.142  25.936  23.010  1.00  0.00    -0.237 OA
ATOM     72  O   UNL A   1      48.324  28.324  22.473  1.00  0.00    -0.744 OA
ENDBRANCH  66  69
ENDBRANCH  48  62
BRANCH  49  73
ATOM     73  C   UNL A   1      38.480  30.785  30.900  1.00  0.00     0.023 A 
ATOM     74  C   UNL A   1      38.308  30.509  32.270  1.00  0.00     0.012 A 
ATOM     75  C   UNL A   1      37.458  31.454  30.199  1.00  0.00     0.148 A 
ATOM     76  C   UNL A   1      37.134  30.874  32.927  1.00  0.00     0.002 A 
ATOM     77  C   UNL A   1      36.311  31.861  30.872  1.00  0.00     0.091 A 
ATOM     78  F   UNL A   1      37.639  31.698  28.894  1.00  0.00    -0.205 F 
ATOM     79  C   UNL A   1      36.141  31.560  32.232  1.00  0.00     0.022 A 
BRANCH  77  80
ATOM     80  S   UNL A   1      35.038  32.862  30.094  1.00  0.00     0.127 S 
ATOM     81  O   UNL A   1      34.494  31.938  29.103  1.00  0.00    -0.237 OA
ATOM     82  O   UNL A   1      34.150  33.150  31.222  1.00  0.00    -0.237 OA
ATOM     83  O   UNL A   1      35.727  34.029  29.560  1.00  0.00    -0.744 OA
ENDBRANCH  77  80
ENDBRANCH  49  73
BRANCH  61  84
ATOM     84  C   UNL A   1      44.465  34.203  29.724  1.00  0.00     0.023 A 
ATOM     85  C   UNL A   1      45.100  34.467  30.955  1.00  0.00     0.012 A 
ATOM     86  C   UNL A   1      44.345  35.233  28.772  1.00  0.00     0.148 A 
ATOM     87  C   UNL A   1      45.584  35.743  31.241  1.00  0.00     0.002 A 
ATOM     88  C   UNL A   1      44.870  36.490  29.046  1.00  0.00     0.091 A 
ATOM     89  F   UNL A   1      43.719  34.966  27.616  1.00  0.00    -0.205 F 
ATOM     90  C   UNL A   1      45.480  36.750  30.285  1.00  0.00     0.022 A 
BRANCH  88  91
ATOM     91  S   UNL A   1      44.865  37.819  27.836  1.00  0.00     0.127 S 
ATOM     92  O   UNL A   1      45.672  37.245  26.760  1.00  0.00    -0.237 OA
ATOM     93  O   UNL A   1      43.443  37.953  27.525  1.00  0.00    -0.237 OA
ATOM     94  O   UNL A   1      45.446  38.972  28.510  1.00  0.00    -0.744 OA
ENDBRANCH  88  91
ENDBRANCH  61  84
ENDBRANCH  35  36
ENDBRANCH  27  30
ENDBRANCH  25  26
ENDBRANCH   1  25
TORSDOF 16
ENDMDL
MODEL 3
REMARK VINA RESULT:     -11.9      2.114      2.862
REMARK SMILES NS(=O)(=O)c1ccc(N2CCSCC2)c(C(=O)NCCCNC(=O)c2ccc(-c3c4nc(c(-c5cccc(S(=O)(=O)[O-])c5F)c5ccc([nH]5)c(-c5cccc(S(=O)(=O)[O-])c5F)c5nc(c(-c6cccc(S(=O)(=O)[O-])c6F)c6ccc3[nH]6)C=C5)C=C4)cc2)c1
REMARK SMILES IDX 20 1 19 2 18 3 16 4 17 5 15 7 5 8 6 9 88 10 7 11 8 12 2 13
REMARK SMILES IDX 3 14 4 15 1 16 9 19 10 20 14 21 11 22 13 23 12 24 21 25
REMARK SMILES IDX 22 26 23 27 24 29 25 30 26 31 87 32 27 33 86 34 28 35 29 36
REMARK SMILES IDX 30 37 80 38 31 39 85 40 79 41 81 42 32 43 84 44 78 45 77 46
REMARK SMILES IDX 33 48 65 49 45 50 64 51 46 52 49 53 63 54 82 55 47 56 48 57
REMARK SMILES IDX 62 59 83 60 50 61 34 62 35 63 43 64 36 65 38 66 44 67 37 68
REMARK SMILES IDX 39 69 40 70 41 71 42 72 66 73 67 74 75 75 68 76 70 77 76 78
REMARK SMILES IDX 69 79 71 80 72 81 73 82 74 83 51 84 52 85 60 86 53 87 55 88
REMARK SMILES IDX 61 89 54 90 56 91 57 92 58 93 59 94
REMARK H PARENT 18 6 1 17 1 18 22 28 81 47 49 58
REMARK Flexibility Score: inf
ROOT
ATOM      1  C   UNL A   1      31.949  29.022  26.570  1.00  0.00     0.042 C 
ENDROOT
BRANCH   1   2
ATOM      2  C   UNL A   1      32.519  27.620  26.417  1.00  0.00     0.118 C 
BRANCH   2   3
ATOM      3  N   UNL A   1      33.017  27.282  25.081  1.00  0.00    -0.352 N 
ATOM      4  C   UNL A   1      32.433  27.163  23.831  1.00  0.00     0.253 C 
ATOM      5  O   UNL A   1      33.199  27.031  22.877  1.00  0.00    -0.269 OA
ATOM      6  H   UNL A   1      33.983  27.097  25.070  1.00  0.00     0.163 HD
BRANCH   4   7
ATOM      7  C   UNL A   1      30.948  27.166  23.622  1.00  0.00     0.064 A 
ATOM      8  C   UNL A   1      28.971  28.469  23.060  1.00  0.00     0.083 A 
ATOM      9  C   UNL A   1      28.138  27.453  23.502  1.00  0.00     0.024 A 
ATOM     10  C   UNL A   1      30.354  28.285  23.025  1.00  0.00     0.037 A 
ATOM     11  C   UNL A   1      28.713  26.253  23.907  1.00  0.00     0.028 A 
ATOM     12  C   UNL A   1      30.114  26.083  23.997  1.00  0.00     0.050 A 
BRANCH   8  13
ATOM     13  S   UNL A   1      28.310  30.081  22.760  1.00  0.00     0.238 S 
ATOM     14  O   UNL A   1      29.348  31.062  22.972  1.00  0.00    -0.207 OA
ATOM     15  O   UNL A   1      27.011  30.165  23.383  1.00  0.00    -0.207 OA
BRANCH  13  16
ATOM     16  N   UNL A   1      28.029  30.077  21.107  1.00  0.00    -0.225 NA
ATOM     17  H   UNL A   1      27.026  30.008  20.933  1.00  0.00     0.137 HD
ATOM     18  H   UNL A   1      28.504  29.281  20.682  1.00  0.00     0.137 HD
ENDBRANCH  13  16
ENDBRANCH   8  13
BRANCH  12  19
ATOM     19  N   UNL A   1      30.524  24.830  24.421  1.00  0.00    -0.369 N 
ATOM     20  C   UNL A   1      30.654  23.705  23.497  1.00  0.00     0.127 C 
ATOM     21  C   UNL A   1      30.395  24.509  25.845  1.00  0.00     0.127 C 
ATOM     22  C   UNL A   1      31.976  22.965  23.762  1.00  0.00     0.091 C 
ATOM     23  C   UNL A   1      31.688  23.871  26.363  1.00  0.00     0.091 C 
ATOM     24  S   UNL A   1      32.118  22.328  25.478  1.00  0.00    -0.158 SA
ENDBRANCH  12  19
ENDBRANCH   4   7
ENDBRANCH   2   3
ENDBRANCH   1   2
BRANCH   1  25
ATOM     25  C   UNL A   1      32.600  30.098  25.720  1.00  0.00     0.118 C 
BRANCH  25  26
ATOM     26  N   UNL A   1      32.450  31.443  26.263  1.00  0.00    -0.352 N 
ATOM     27  C   UNL A   1      33.131  32.115  27.251  1.00  0.00     0.251 C 
ATOM     28  H   UNL A   1      31.727  31.966  25.846  1.00  0.00     0.163 HD
ATOM     29  O   UNL A   1      32.703  33.206  27.626  1.00  0.00    -0.269 OA
BRANCH  27  30
ATOM     30  C   UNL A   1      34.347  31.554  27.885  1.00  0.00     0.039 A 
ATOM     31  C   UNL A   1      35.474  32.374  28.033  1.00  0.00     0.014 A 
ATOM     32  C   UNL A   1      34.416  30.222  28.291  1.00  0.00     0.014 A 
ATOM     33  C   UNL A   1      36.628  31.880  28.652  1.00  0.00     0.010 A 
ATOM     34  C   UNL A   1      35.525  29.762  28.998  1.00  0.00     0.010 A 
ATOM     35  C   UNL A   1      36.649  30.580  29.178  1.00  0.00    -0.014 A 
BRANCH  35  36
ATOM     36  C   UNL A   1      37.825  30.047  29.919  1.00  0.00     0.031 A 
ATOM     37  C   UNL A   1      38.108  30.508  31.325  1.00  0.00     0.074 A 
ATOM     38  C   UNL A   1      38.702  29.242  29.289  1.00  0.00     0.049 A 
ATOM     39  N   UNL A   1      39.137  30.245  32.090  1.00  0.00    -0.248 NA
ATOM     40  C   UNL A   1      37.127  31.418  31.939  1.00  0.00     0.031 C 
ATOM     41  C   UNL A   1      38.595  28.798  27.897  1.00  0.00     0.029 A 
ATOM     42  N   UNL A   1      39.879  28.685  29.723  1.00  0.00    -0.354 N 
ATOM     43  C   UNL A   1      38.954  30.995  33.246  1.00  0.00     0.074 A 
ATOM     44  C   UNL A   1      37.734  31.751  33.069  1.00  0.00     0.031 C 
ATOM     45  C   UNL A   1      39.658  28.037  27.593  1.00  0.00     0.029 A 
ATOM     46  C   UNL A   1      40.538  27.963  28.755  1.00  0.00     0.049 A 
ATOM     47  H   UNL A   1      40.220  28.791  30.640  1.00  0.00     0.167 HD
ATOM     48  C   UNL A   1      39.714  31.030  34.368  1.00  0.00     0.034 A 
ATOM     49  C   UNL A   1      41.721  27.317  28.794  1.00  0.00     0.034 A 
ATOM     50  C   UNL A   1      40.887  30.225  34.568  1.00  0.00     0.049 A 
ATOM     51  C   UNL A   1      42.505  27.303  30.077  1.00  0.00     0.074 A 
ATOM     52  C   UNL A   1      41.660  30.097  35.709  1.00  0.00     0.029 A 
ATOM     53  N   UNL A   1      41.461  29.410  33.604  1.00  0.00    -0.354 N 
ATOM     54  N   UNL A   1      42.227  27.883  31.219  1.00  0.00    -0.248 NA
ATOM     55  C   UNL A   1      43.747  26.515  30.090  1.00  0.00     0.031 C 
ATOM     56  C   UNL A   1      42.709  29.212  35.430  1.00  0.00     0.029 A 
ATOM     57  C   UNL A   1      42.580  28.778  34.120  1.00  0.00     0.049 A 
ATOM     58  H   UNL A   1      41.121  29.296  32.687  1.00  0.00     0.167 HD
ATOM     59  C   UNL A   1      43.239  27.509  32.095  1.00  0.00     0.074 A 
ATOM     60  C   UNL A   1      44.126  26.633  31.356  1.00  0.00     0.031 C 
ATOM     61  C   UNL A   1      43.426  27.869  33.389  1.00  0.00     0.034 A 
BRANCH  48  62
ATOM     62  C   UNL A   1      39.254  31.923  35.492  1.00  0.00     0.023 A 
ATOM     63  C   UNL A   1      38.322  31.434  36.430  1.00  0.00     0.012 A 
ATOM     64  C   UNL A   1      39.764  33.227  35.644  1.00  0.00     0.148 A 
ATOM     65  C   UNL A   1      37.869  32.240  37.473  1.00  0.00     0.002 A 
ATOM     66  C   UNL A   1      39.343  34.011  36.714  1.00  0.00     0.091 A 
ATOM     67  F   UNL A   1      40.631  33.688  34.731  1.00  0.00    -0.205 F 
ATOM     68  C   UNL A   1      38.386  33.525  37.620  1.00  0.00     0.022 A 
BRANCH  66  69
ATOM     69  S   UNL A   1      40.011  35.648  37.028  1.00  0.00     0.127 S 
ATOM     70  O   UNL A   1      39.342  36.006  38.278  1.00  0.00    -0.237 OA
ATOM     71  O   UNL A   1      41.444  35.380  37.160  1.00  0.00    -0.237 OA
ATOM     72  O   UNL A   1      39.653  36.452  35.868  1.00  0.00    -0.744 OA
ENDBRANCH  66  69
ENDBRANCH  48  62
BRANCH  49  73
ATOM     73  C   UNL A   1      42.184  26.560  27.597  1.00  0.00     0.023 A 
ATOM     74  C   UNL A   1      42.966  27.219  26.629  1.00  0.00     0.012 A 
ATOM     75  C   UNL A   1      41.910  25.187  27.442  1.00  0.00     0.148 A 
ATOM     76  C   UNL A   1      43.452  26.530  25.518  1.00  0.00     0.002 A 
ATOM     77  C   UNL A   1      42.440  24.495  26.358  1.00  0.00     0.091 A 
ATOM     78  F   UNL A   1      41.156  24.582  28.370  1.00  0.00    -0.205 F 
ATOM     79  C   UNL A   1      43.199  25.167  25.388  1.00  0.00     0.022 A 
BRANCH  77  80
ATOM     80  S   UNL A   1      42.278  22.714  26.176  1.00  0.00     0.127 S 
ATOM     81  O   UNL A   1      42.926  22.229  27.392  1.00  0.00    -0.237 OA
ATOM     82  O   UNL A   1      40.824  22.546  26.143  1.00  0.00    -0.237 OA
ATOM     83  O   UNL A   1      42.950  22.384  24.927  1.00  0.00    -0.744 OA
ENDBRANCH  77  80
ENDBRANCH  49  73
BRANCH  61  84
ATOM     84  C   UNL A   1      44.622  27.304  34.106  1.00  0.00     0.023 A 
ATOM     85  C   UNL A   1      45.844  28.005  34.083  1.00  0.00     0.012 A 
ATOM     86  C   UNL A   1      44.515  26.125  34.870  1.00  0.00     0.148 A 
ATOM     87  C   UNL A   1      46.948  27.527  34.787  1.00  0.00     0.002 A 
ATOM     88  C   UNL A   1      45.607  25.680  35.607  1.00  0.00     0.091 A 
ATOM     89  F   UNL A   1      43.350  25.461  34.863  1.00  0.00    -0.205 F 
ATOM     90  C   UNL A   1      46.827  26.373  35.557  1.00  0.00     0.022 A 
BRANCH  88  91
ATOM     91  S   UNL A   1      45.512  24.256  36.699  1.00  0.00     0.127 S 
ATOM     92  O   UNL A   1      44.459  24.663  37.628  1.00  0.00    -0.237 OA
ATOM     93  O   UNL A   1      45.134  23.182  35.782  1.00  0.00    -0.237 OA
ATOM     94  O   UNL A   1      46.840  24.111  37.279  1.00  0.00    -0.744 OA
ENDBRANCH  88  91
ENDBRANCH  61  84
ENDBRANCH  35  36
ENDBRANCH  27  30
ENDBRANCH  25  26
ENDBRANCH   1  25
TORSDOF 16
ENDMDL
