MODEL 1
REMARK VINA RESULT:     -12.6      0.000      0.000
REMARK SMILES C[C@@H](C(=O)NCc1ccc(F)cc1)n1cc(C(=O)NCCCNC(=O)c2ccc(-c3c4nc(c(-c5cccc(S(=O)(=O)[O-])c5F)c5ccc([nH]5)c(-c5cccc(S(=O)(=O)[O-])c5F)c5nc(c(-c6cccc(S(=O)(=O)[O-])c6F)c6ccc3[nH]6)C=C5)C=C4)cc2)cn1
REMARK SMILES IDX 20 1 19 2 17 3 18 4 16 6 14 7 15 8 90 9 89 10 2 11 1 12 3 13
REMARK SMILES IDX 4 14 5 15 6 17 7 18 8 19 13 20 9 21 12 22 10 23 11 24 21 25
REMARK SMILES IDX 22 26 23 27 24 28 25 30 26 31 27 32 88 33 28 34 87 35 29 36
REMARK SMILES IDX 30 37 31 38 81 39 32 40 86 41 80 42 82 43 33 44 85 45 79 46
REMARK SMILES IDX 78 47 34 49 66 50 46 51 65 52 47 53 50 54 64 55 83 56 48 57
REMARK SMILES IDX 49 58 63 60 84 61 51 62 35 63 36 64 44 65 37 66 39 67 45 68
REMARK SMILES IDX 38 69 40 70 41 71 42 72 43 73 67 74 68 75 76 76 69 77 71 78
REMARK SMILES IDX 77 79 70 80 72 81 73 82 74 83 75 84 52 85 53 86 61 87 54 88
REMARK SMILES IDX 56 89 62 90 55 91 57 92 58 93 59 94 60 95
REMARK H PARENT 19 5 5 16 23 29 82 48 50 59
REMARK Flexibility Score: inf
ROOT
ATOM      1  C   UNL A   1      36.288  20.529  25.123  1.00  0.00     0.118 C 
ENDROOT
BRANCH   1   2
ATOM      2  N   UNL A   1      35.169  19.614  25.013  1.00  0.00    -0.352 N 
ATOM      3  C   UNL A   1      33.862  19.832  24.638  1.00  0.00     0.254 C 
ATOM      4  O   UNL A   1      33.173  18.860  24.375  1.00  0.00    -0.269 OA
ATOM      5  H   UNL A   1      35.380  18.681  25.244  1.00  0.00     0.163 HD
BRANCH   3   6
ATOM      6  C   UNL A   1      33.342  21.179  24.493  1.00  0.00     0.077 A 
ATOM      7  N   UNL A   1      32.639  23.157  23.812  1.00  0.00    -0.260 N 
ATOM      8  C   UNL A   1      33.317  22.039  23.418  1.00  0.00     0.123 A 
ATOM      9  N   UNL A   1      32.276  23.121  25.110  1.00  0.00    -0.180 NA
ATOM     10  C   UNL A   1      32.742  21.941  25.529  1.00  0.00     0.149 A 
BRANCH   7  11
ATOM     11  C   UNL A   1      32.176  24.220  22.914  1.00  0.00     0.193 C 
ATOM     12  C   UNL A   1      30.739  24.617  23.242  1.00  0.00     0.044 C 
BRANCH  11  13
ATOM     13  C   UNL A   1      33.194  25.367  22.895  1.00  0.00     0.244 C 
ATOM     14  O   UNL A   1      33.900  25.623  21.917  1.00  0.00    -0.273 OA
ATOM     15  N   UNL A   1      33.306  26.243  23.932  1.00  0.00    -0.350 N 
ATOM     16  H   UNL A   1      33.932  26.985  23.764  1.00  0.00     0.163 HD
BRANCH  15  17
ATOM     17  C   UNL A   1      32.678  26.288  25.230  1.00  0.00     0.151 C 
BRANCH  17  18
ATOM     18  C   UNL A   1      32.774  27.679  25.811  1.00  0.00    -0.029 A 
ATOM     19  C   UNL A   1      33.896  28.076  26.559  1.00  0.00     0.008 A 
ATOM     20  C   UNL A   1      31.754  28.617  25.592  1.00  0.00     0.008 A 
ATOM     21  C   UNL A   1      33.989  29.356  27.100  1.00  0.00     0.039 A 
ATOM     22  C   UNL A   1      31.852  29.907  26.124  1.00  0.00     0.039 A 
ATOM     23  C   UNL A   1      32.964  30.262  26.879  1.00  0.00     0.123 A 
ATOM     24  F   UNL A   1      33.051  31.495  27.393  1.00  0.00    -0.207 F 
ENDBRANCH  17  18
ENDBRANCH  15  17
ENDBRANCH  11  13
ENDBRANCH   7  11
ENDBRANCH   3   6
ENDBRANCH   1   2
BRANCH   1  25
ATOM     25  C   UNL A   1      37.623  19.913  24.687  1.00  0.00     0.042 C 
BRANCH  25  26
ATOM     26  C   UNL A   1      38.771  20.349  25.581  1.00  0.00     0.118 C 
BRANCH  26  27
ATOM     27  N   UNL A   1      39.770  19.279  25.756  1.00  0.00    -0.352 N 
ATOM     28  C   UNL A   1      41.125  19.380  26.020  1.00  0.00     0.251 C 
ATOM     29  H   UNL A   1      39.424  18.362  25.674  1.00  0.00     0.163 HD
ATOM     30  O   UNL A   1      41.875  18.430  25.822  1.00  0.00    -0.269 OA
BRANCH  28  31
ATOM     31  C   UNL A   1      41.643  20.647  26.555  1.00  0.00     0.039 A 
ATOM     32  C   UNL A   1      42.340  21.574  25.772  1.00  0.00     0.014 A 
ATOM     33  C   UNL A   1      41.350  20.916  27.883  1.00  0.00     0.014 A 
ATOM     34  C   UNL A   1      42.663  22.809  26.332  1.00  0.00     0.010 A 
ATOM     35  C   UNL A   1      41.423  22.199  28.330  1.00  0.00     0.010 A 
ATOM     36  C   UNL A   1      42.184  23.110  27.613  1.00  0.00    -0.014 A 
BRANCH  36  37
ATOM     37  C   UNL A   1      42.385  24.398  28.256  1.00  0.00     0.031 A 
ATOM     38  C   UNL A   1      41.284  25.371  28.045  1.00  0.00     0.074 A 
ATOM     39  C   UNL A   1      43.330  24.551  29.212  1.00  0.00     0.049 A 
ATOM     40  N   UNL A   1      41.335  26.494  27.411  1.00  0.00    -0.248 NA
ATOM     41  C   UNL A   1      39.928  24.983  28.466  1.00  0.00     0.031 C 
ATOM     42  C   UNL A   1      44.234  23.526  29.767  1.00  0.00     0.029 A 
ATOM     43  N   UNL A   1      43.560  25.612  30.026  1.00  0.00    -0.354 N 
ATOM     44  C   UNL A   1      40.075  27.061  27.565  1.00  0.00     0.074 A 
ATOM     45  C   UNL A   1      39.204  26.004  28.007  1.00  0.00     0.031 C 
ATOM     46  C   UNL A   1      44.694  23.934  30.969  1.00  0.00     0.029 A 
ATOM     47  C   UNL A   1      44.276  25.304  31.181  1.00  0.00     0.049 A 
ATOM     48  H   UNL A   1      43.246  26.522  29.818  1.00  0.00     0.167 HD
ATOM     49  C   UNL A   1      39.895  28.410  27.581  1.00  0.00     0.034 A 
ATOM     50  C   UNL A   1      44.453  26.111  32.256  1.00  0.00     0.034 A 
ATOM     51  C   UNL A   1      41.075  29.108  27.138  1.00  0.00     0.049 A 
ATOM     52  C   UNL A   1      44.175  27.492  31.800  1.00  0.00     0.074 A 
ATOM     53  C   UNL A   1      41.823  29.111  25.977  1.00  0.00     0.029 A 
ATOM     54  N   UNL A   1      41.892  29.623  28.116  1.00  0.00    -0.354 N 
ATOM     55  N   UNL A   1      44.899  28.120  30.918  1.00  0.00    -0.248 NA
ATOM     56  C   UNL A   1      42.832  28.010  31.995  1.00  0.00     0.031 C 
ATOM     57  C   UNL A   1      43.179  29.170  26.416  1.00  0.00     0.029 A 
ATOM     58  C   UNL A   1      43.184  29.277  27.809  1.00  0.00     0.049 A 
ATOM     59  H   UNL A   1      41.601  30.148  28.897  1.00  0.00     0.167 HD
ATOM     60  C   UNL A   1      43.973  28.786  30.125  1.00  0.00     0.074 A 
ATOM     61  C   UNL A   1      42.736  28.780  30.907  1.00  0.00     0.031 C 
ATOM     62  C   UNL A   1      44.210  29.008  28.797  1.00  0.00     0.034 A 
BRANCH  49  63
ATOM     63  C   UNL A   1      38.774  29.115  28.302  1.00  0.00     0.023 A 
ATOM     64  C   UNL A   1      37.875  29.884  27.537  1.00  0.00     0.012 A 
ATOM     65  C   UNL A   1      38.683  29.230  29.710  1.00  0.00     0.148 A 
ATOM     66  C   UNL A   1      36.930  30.722  28.143  1.00  0.00     0.002 A 
ATOM     67  C   UNL A   1      37.679  29.983  30.306  1.00  0.00     0.091 A 
ATOM     68  F   UNL A   1      39.648  28.723  30.483  1.00  0.00    -0.205 F 
ATOM     69  C   UNL A   1      36.816  30.755  29.527  1.00  0.00     0.022 A 
BRANCH  67  70
ATOM     70  S   UNL A   1      37.434  29.980  32.086  1.00  0.00     0.127 S 
ATOM     71  O   UNL A   1      36.206  30.757  32.216  1.00  0.00    -0.237 OA
ATOM     72  O   UNL A   1      37.297  28.550  32.366  1.00  0.00    -0.237 OA
ATOM     73  O   UNL A   1      38.641  30.580  32.640  1.00  0.00    -0.744 OA
ENDBRANCH  67  70
ENDBRANCH  49  63
BRANCH  50  74
ATOM     74  C   UNL A   1      44.547  25.778  33.697  1.00  0.00     0.023 A 
ATOM     75  C   UNL A   1      45.816  25.740  34.313  1.00  0.00     0.012 A 
ATOM     76  C   UNL A   1      43.405  25.821  34.525  1.00  0.00     0.148 A 
ATOM     77  C   UNL A   1      45.944  25.805  35.706  1.00  0.00     0.002 A 
ATOM     78  C   UNL A   1      43.539  25.889  35.909  1.00  0.00     0.091 A 
ATOM     79  F   UNL A   1      42.196  25.895  33.954  1.00  0.00    -0.205 F 
ATOM     80  C   UNL A   1      44.808  25.897  36.503  1.00  0.00     0.022 A 
BRANCH  78  81
ATOM     81  S   UNL A   1      42.122  26.069  37.002  1.00  0.00     0.127 S 
ATOM     82  O   UNL A   1      41.452  27.239  36.437  1.00  0.00    -0.237 OA
ATOM     83  O   UNL A   1      41.426  24.802  36.795  1.00  0.00    -0.237 OA
ATOM     84  O   UNL A   1      42.680  26.275  38.332  1.00  0.00    -0.744 OA
ENDBRANCH  78  81
ENDBRANCH  50  74
BRANCH  62  85
ATOM     85  C   UNL A   1      45.596  28.702  28.266  1.00  0.00     0.023 A 
ATOM     86  C   UNL A   1      46.693  29.571  28.457  1.00  0.00     0.012 A 
ATOM     87  C   UNL A   1      45.838  27.436  27.708  1.00  0.00     0.148 A 
ATOM     88  C   UNL A   1      47.988  29.201  28.080  1.00  0.00     0.002 A 
ATOM     89  C   UNL A   1      47.134  27.051  27.380  1.00  0.00     0.091 A 
ATOM     90  F   UNL A   1      44.794  26.613  27.528  1.00  0.00    -0.205 F 
ATOM     91  C   UNL A   1      48.212  27.933  27.554  1.00  0.00     0.022 A 
BRANCH  89  92
ATOM     92  S   UNL A   1      47.500  25.386  26.821  1.00  0.00     0.127 S 
ATOM     93  O   UNL A   1      46.984  24.574  27.920  1.00  0.00    -0.237 OA
ATOM     94  O   UNL A   1      46.732  25.292  25.578  1.00  0.00    -0.237 OA
ATOM     95  O   UNL A   1      48.945  25.340  26.628  1.00  0.00    -0.744 OA
ENDBRANCH  89  92
ENDBRANCH  62  85
ENDBRANCH  36  37
ENDBRANCH  28  31
ENDBRANCH  26  27
ENDBRANCH  25  26
ENDBRANCH   1  25
TORSDOF 17
ENDMDL
MODEL 2
REMARK VINA RESULT:     -12.6      1.728      2.160
REMARK SMILES C[C@@H](C(=O)NCc1ccc(F)cc1)n1cc(C(=O)NCCCNC(=O)c2ccc(-c3c4nc(c(-c5cccc(S(=O)(=O)[O-])c5F)c5ccc([nH]5)c(-c5cccc(S(=O)(=O)[O-])c5F)c5nc(c(-c6cccc(S(=O)(=O)[O-])c6F)c6ccc3[nH]6)C=C5)C=C4)cc2)cn1
REMARK SMILES IDX 20 1 19 2 17 3 18 4 16 6 14 7 15 8 90 9 89 10 2 11 1 12 3 13
REMARK SMILES IDX 4 14 5 15 6 17 7 18 8 19 13 20 9 21 12 22 10 23 11 24 21 25
REMARK SMILES IDX 22 26 23 27 24 28 25 30 26 31 27 32 88 33 28 34 87 35 29 36
REMARK SMILES IDX 30 37 31 38 81 39 32 40 86 41 80 42 82 43 33 44 85 45 79 46
REMARK SMILES IDX 78 47 34 49 66 50 46 51 65 52 47 53 50 54 64 55 83 56 48 57
REMARK SMILES IDX 49 58 63 60 84 61 51 62 35 63 36 64 44 65 37 66 39 67 45 68
REMARK SMILES IDX 38 69 40 70 41 71 42 72 43 73 67 74 68 75 76 76 69 77 71 78
REMARK SMILES IDX 77 79 70 80 72 81 73 82 74 83 75 84 52 85 53 86 61 87 54 88
REMARK SMILES IDX 56 89 62 90 55 91 57 92 58 93 59 94 60 95
REMARK H PARENT 19 5 5 16 23 29 82 48 50 59
REMARK Flexibility Score: inf
ROOT
ATOM      1  C   UNL A   1      36.755  20.625  24.917  1.00  0.00     0.118 C 
ENDROOT
BRANCH   1   2
ATOM      2  N   UNL A   1      37.018  21.601  23.878  1.00  0.00    -0.352 N 
ATOM      3  C   UNL A   1      36.431  22.819  23.618  1.00  0.00     0.254 C 
ATOM      4  O   UNL A   1      36.997  23.574  22.844  1.00  0.00    -0.269 OA
ATOM      5  H   UNL A   1      37.737  21.351  23.255  1.00  0.00     0.163 HD
BRANCH   3   6
ATOM      6  C   UNL A   1      35.213  23.221  24.298  1.00  0.00     0.077 A 
ATOM      7  N   UNL A   1      33.155  23.524  25.033  1.00  0.00    -0.260 N 
ATOM      8  C   UNL A   1      33.887  22.965  24.026  1.00  0.00     0.123 A 
ATOM      9  N   UNL A   1      33.911  24.200  25.920  1.00  0.00    -0.180 NA
ATOM     10  C   UNL A   1      35.152  24.051  25.447  1.00  0.00     0.149 A 
BRANCH   7  11
ATOM     11  C   UNL A   1      31.726  23.288  25.265  1.00  0.00     0.193 C 
ATOM     12  C   UNL A   1      31.416  21.793  25.256  1.00  0.00     0.044 C 
BRANCH  11  13
ATOM     13  C   UNL A   1      31.265  24.054  26.510  1.00  0.00     0.244 C 
ATOM     14  O   UNL A   1      31.062  23.510  27.598  1.00  0.00    -0.273 OA
ATOM     15  N   UNL A   1      31.149  25.412  26.515  1.00  0.00    -0.350 N 
ATOM     16  H   UNL A   1      30.929  25.793  27.396  1.00  0.00     0.163 HD
BRANCH  15  17
ATOM     17  C   UNL A   1      31.289  26.396  25.469  1.00  0.00     0.151 C 
BRANCH  17  18
ATOM     18  C   UNL A   1      32.061  27.592  25.975  1.00  0.00    -0.029 A 
ATOM     19  C   UNL A   1      33.428  27.747  25.685  1.00  0.00     0.008 A 
ATOM     20  C   UNL A   1      31.422  28.592  26.723  1.00  0.00     0.008 A 
ATOM     21  C   UNL A   1      34.147  28.846  26.150  1.00  0.00     0.039 A 
ATOM     22  C   UNL A   1      32.139  29.702  27.180  1.00  0.00     0.039 A 
ATOM     23  C   UNL A   1      33.495  29.814  26.897  1.00  0.00     0.123 A 
ATOM     24  F   UNL A   1      34.180  30.875  27.343  1.00  0.00    -0.207 F 
ENDBRANCH  17  18
ENDBRANCH  15  17
ENDBRANCH  11  13
ENDBRANCH   7  11
ENDBRANCH   3   6
ENDBRANCH   1   2
BRANCH   1  25
ATOM     25  C   UNL A   1      37.864  19.576  25.059  1.00  0.00     0.042 C 
BRANCH  25  26
ATOM     26  C   UNL A   1      39.132  20.165  25.653  1.00  0.00     0.118 C 
BRANCH  26  27
ATOM     27  N   UNL A   1      40.211  19.165  25.750  1.00  0.00    -0.352 N 
ATOM     28  C   UNL A   1      41.567  19.355  25.959  1.00  0.00     0.251 C 
ATOM     29  H   UNL A   1      39.928  18.228  25.654  1.00  0.00     0.163 HD
ATOM     30  O   UNL A   1      42.372  18.467  25.699  1.00  0.00    -0.269 OA
BRANCH  28  31
ATOM     31  C   UNL A   1      42.017  20.640  26.512  1.00  0.00     0.039 A 
ATOM     32  C   UNL A   1      42.536  21.669  25.718  1.00  0.00     0.014 A 
ATOM     33  C   UNL A   1      41.843  20.814  27.877  1.00  0.00     0.014 A 
ATOM     34  C   UNL A   1      42.800  22.901  26.314  1.00  0.00     0.010 A 
ATOM     35  C   UNL A   1      41.844  22.074  28.388  1.00  0.00     0.010 A 
ATOM     36  C   UNL A   1      42.435  23.091  27.653  1.00  0.00    -0.014 A 
BRANCH  36  37
ATOM     37  C   UNL A   1      42.581  24.359  28.346  1.00  0.00     0.031 A 
ATOM     38  C   UNL A   1      41.470  25.317  28.122  1.00  0.00     0.074 A 
ATOM     39  C   UNL A   1      43.482  24.498  29.346  1.00  0.00     0.049 A 
ATOM     40  N   UNL A   1      41.523  26.462  27.528  1.00  0.00    -0.248 NA
ATOM     41  C   UNL A   1      40.105  24.887  28.471  1.00  0.00     0.031 C 
ATOM     42  C   UNL A   1      44.383  23.473  29.904  1.00  0.00     0.029 A 
ATOM     43  N   UNL A   1      43.655  25.534  30.204  1.00  0.00    -0.354 N 
ATOM     44  C   UNL A   1      40.246  26.998  27.648  1.00  0.00     0.074 A 
ATOM     45  C   UNL A   1      39.379  25.909  28.016  1.00  0.00     0.031 C 
ATOM     46  C   UNL A   1      44.784  23.848  31.138  1.00  0.00     0.029 A 
ATOM     47  C   UNL A   1      44.329  25.201  31.378  1.00  0.00     0.049 A 
ATOM     48  H   UNL A   1      43.331  26.444  30.014  1.00  0.00     0.167 HD
ATOM     49  C   UNL A   1      40.037  28.342  27.701  1.00  0.00     0.034 A 
ATOM     50  C   UNL A   1      44.443  25.974  32.485  1.00  0.00     0.034 A 
ATOM     51  C   UNL A   1      41.220  29.078  27.332  1.00  0.00     0.049 A 
ATOM     52  C   UNL A   1      44.155  27.364  32.065  1.00  0.00     0.074 A 
ATOM     53  C   UNL A   1      42.015  29.136  26.205  1.00  0.00     0.029 A 
ATOM     54  N   UNL A   1      41.983  29.575  28.361  1.00  0.00    -0.354 N 
ATOM     55  N   UNL A   1      44.903  28.036  31.235  1.00  0.00    -0.248 NA
ATOM     56  C   UNL A   1      42.795  27.849  32.220  1.00  0.00     0.031 C 
ATOM     57  C   UNL A   1      43.350  29.206  26.703  1.00  0.00     0.029 A 
ATOM     58  C   UNL A   1      43.294  29.265  28.097  1.00  0.00     0.049 A 
ATOM     59  H   UNL A   1      41.650  30.067  29.146  1.00  0.00     0.167 HD
ATOM     60  C   UNL A   1      43.996  28.710  30.427  1.00  0.00     0.074 A 
ATOM     61  C   UNL A   1      42.728  28.653  31.155  1.00  0.00     0.031 C 
ATOM     62  C   UNL A   1      44.284  28.983  29.119  1.00  0.00     0.034 A 
BRANCH  49  63
ATOM     63  C   UNL A   1      38.872  28.999  28.397  1.00  0.00     0.023 A 
ATOM     64  C   UNL A   1      37.982  29.766  27.618  1.00  0.00     0.012 A 
ATOM     65  C   UNL A   1      38.726  29.075  29.803  1.00  0.00     0.148 A 
ATOM     66  C   UNL A   1      36.995  30.563  28.209  1.00  0.00     0.002 A 
ATOM     67  C   UNL A   1      37.682  29.787  30.379  1.00  0.00     0.091 A 
ATOM     68  F   UNL A   1      39.675  28.572  30.599  1.00  0.00    -0.205 F 
ATOM     69  C   UNL A   1      36.828  30.557  29.589  1.00  0.00     0.022 A 
BRANCH  67  70
ATOM     70  S   UNL A   1      37.371  29.730  32.148  1.00  0.00     0.127 S 
ATOM     71  O   UNL A   1      38.474  30.533  32.667  1.00  0.00    -0.237 OA
ATOM     72  O   UNL A   1      36.052  30.356  32.241  1.00  0.00    -0.237 OA
ATOM     73  O   UNL A   1      37.382  28.314  32.494  1.00  0.00    -0.744 OA
ENDBRANCH  67  70
ENDBRANCH  49  63
BRANCH  50  74
ATOM     74  C   UNL A   1      44.485  25.593  33.917  1.00  0.00     0.023 A 
ATOM     75  C   UNL A   1      43.506  24.713  34.424  1.00  0.00     0.012 A 
ATOM     76  C   UNL A   1      45.642  25.821  34.692  1.00  0.00     0.148 A 
ATOM     77  C   UNL A   1      43.701  24.035  35.634  1.00  0.00     0.002 A 
ATOM     78  C   UNL A   1      45.833  25.141  35.892  1.00  0.00     0.091 A 
ATOM     79  F   UNL A   1      46.596  26.624  34.206  1.00  0.00    -0.205 F 
ATOM     80  C   UNL A   1      44.871  24.236  36.359  1.00  0.00     0.022 A 
BRANCH  78  81
ATOM     81  S   UNL A   1      47.342  25.301  36.857  1.00  0.00     0.127 S 
ATOM     82  O   UNL A   1      47.367  26.736  37.139  1.00  0.00    -0.237 OA
ATOM     83  O   UNL A   1      47.048  24.453  38.009  1.00  0.00    -0.237 OA
ATOM     84  O   UNL A   1      48.413  24.838  35.984  1.00  0.00    -0.744 OA
ENDBRANCH  78  81
ENDBRANCH  50  74
BRANCH  62  85
ATOM     85  C   UNL A   1      45.697  28.723  28.637  1.00  0.00     0.023 A 
ATOM     86  C   UNL A   1      46.770  29.598  28.918  1.00  0.00     0.012 A 
ATOM     87  C   UNL A   1      45.984  27.489  28.031  1.00  0.00     0.148 A 
ATOM     88  C   UNL A   1      48.086  29.265  28.583  1.00  0.00     0.002 A 
ATOM     89  C   UNL A   1      47.300  27.138  27.744  1.00  0.00     0.091 A 
ATOM     90  F   UNL A   1      44.964  26.660  27.766  1.00  0.00    -0.205 F 
ATOM     91  C   UNL A   1      48.354  28.027  28.009  1.00  0.00     0.022 A 
BRANCH  89  92
ATOM     92  S   UNL A   1      47.719  25.507  27.125  1.00  0.00     0.127 S 
ATOM     93  O   UNL A   1      49.178  25.553  27.104  1.00  0.00    -0.237 OA
ATOM     94  O   UNL A   1      47.149  24.625  28.145  1.00  0.00    -0.237 OA
ATOM     95  O   UNL A   1      47.073  25.399  25.822  1.00  0.00    -0.744 OA
ENDBRANCH  89  92
ENDBRANCH  62  85
ENDBRANCH  36  37
ENDBRANCH  28  31
ENDBRANCH  26  27
ENDBRANCH  25  26
ENDBRANCH   1  25
TORSDOF 17
ENDMDL
MODEL 3
REMARK VINA RESULT:     -12.5      2.087      2.826
REMARK SMILES C[C@@H](C(=O)NCc1ccc(F)cc1)n1cc(C(=O)NCCCNC(=O)c2ccc(-c3c4nc(c(-c5cccc(S(=O)(=O)[O-])c5F)c5ccc([nH]5)c(-c5cccc(S(=O)(=O)[O-])c5F)c5nc(c(-c6cccc(S(=O)(=O)[O-])c6F)c6ccc3[nH]6)C=C5)C=C4)cc2)cn1
REMARK SMILES IDX 20 1 19 2 17 3 18 4 16 6 14 7 15 8 90 9 89 10 2 11 1 12 3 13
REMARK SMILES IDX 4 14 5 15 6 17 7 18 8 19 13 20 9 21 12 22 10 23 11 24 21 25
REMARK SMILES IDX 22 26 23 27 24 28 25 30 26 31 27 32 88 33 28 34 87 35 29 36
REMARK SMILES IDX 30 37 31 38 81 39 32 40 86 41 80 42 82 43 33 44 85 45 79 46
REMARK SMILES IDX 78 47 34 49 66 50 46 51 65 52 47 53 50 54 64 55 83 56 48 57
REMARK SMILES IDX 49 58 63 60 84 61 51 62 35 63 36 64 44 65 37 66 39 67 45 68
REMARK SMILES IDX 38 69 40 70 41 71 42 72 43 73 67 74 68 75 76 76 69 77 71 78
REMARK SMILES IDX 77 79 70 80 72 81 73 82 74 83 75 84 52 85 53 86 61 87 54 88
REMARK SMILES IDX 56 89 62 90 55 91 57 92 58 93 59 94 60 95
REMARK H PARENT 19 5 5 16 23 29 82 48 50 59
REMARK Flexibility Score: inf
ROOT
ATOM      1  C   UNL A   1      36.295  20.275  24.890  1.00  0.00     0.118 C 
ENDROOT
BRANCH   1   2
ATOM      2  N   UNL A   1      35.311  19.214  24.989  1.00  0.00    -0.352 N 
ATOM      3  C   UNL A   1      33.959  19.261  25.248  1.00  0.00     0.254 C 
ATOM      4  O   UNL A   1      33.299  18.260  25.025  1.00  0.00    -0.269 OA
ATOM      5  H   UNL A   1      35.671  18.309  24.847  1.00  0.00     0.163 HD
BRANCH   3   6
ATOM      6  C   UNL A   1      33.329  20.486  25.705  1.00  0.00     0.077 A 
ATOM      7  N   UNL A   1      32.067  22.263  26.046  1.00  0.00    -0.260 N 
ATOM      8  C   UNL A   1      32.325  21.256  25.162  1.00  0.00     0.123 A 
ATOM      9  N   UNL A   1      32.892  22.252  27.111  1.00  0.00    -0.180 NA
ATOM     10  C   UNL A   1      33.683  21.200  26.879  1.00  0.00     0.149 A 
BRANCH   7  11
ATOM     11  C   UNL A   1      30.915  23.169  25.976  1.00  0.00     0.193 C 
ATOM     12  C   UNL A   1      29.846  22.762  26.988  1.00  0.00     0.044 C 
BRANCH  11  13
ATOM     13  C   UNL A   1      31.389  24.625  26.060  1.00  0.00     0.244 C 
ATOM     14  O   UNL A   1      31.052  25.391  26.964  1.00  0.00    -0.273 OA
ATOM     15  N   UNL A   1      32.302  25.132  25.185  1.00  0.00    -0.350 N 
ATOM     16  H   UNL A   1      32.591  26.050  25.394  1.00  0.00     0.163 HD
BRANCH  15  17
ATOM     17  C   UNL A   1      32.926  24.575  24.009  1.00  0.00     0.151 C 
BRANCH  17  18
ATOM     18  C   UNL A   1      34.373  24.244  24.290  1.00  0.00    -0.029 A 
ATOM     19  C   UNL A   1      34.948  24.516  25.544  1.00  0.00     0.008 A 
ATOM     20  C   UNL A   1      35.170  23.630  23.311  1.00  0.00     0.008 A 
ATOM     21  C   UNL A   1      36.283  24.215  25.809  1.00  0.00     0.039 A 
ATOM     22  C   UNL A   1      36.506  23.316  23.580  1.00  0.00     0.039 A 
ATOM     23  C   UNL A   1      37.051  23.619  24.822  1.00  0.00     0.123 A 
ATOM     24  F   UNL A   1      38.333  23.325  25.073  1.00  0.00    -0.207 F 
ENDBRANCH  17  18
ENDBRANCH  15  17
ENDBRANCH  11  13
ENDBRANCH   7  11
ENDBRANCH   3   6
ENDBRANCH   1   2
BRANCH   1  25
ATOM     25  C   UNL A   1      37.708  19.767  24.582  1.00  0.00     0.042 C 
BRANCH  25  26
ATOM     26  C   UNL A   1      38.676  20.055  25.716  1.00  0.00     0.118 C 
BRANCH  26  27
ATOM     27  N   UNL A   1      39.743  19.040  25.802  1.00  0.00    -0.352 N 
ATOM     28  C   UNL A   1      41.108  19.214  25.954  1.00  0.00     0.251 C 
ATOM     29  H   UNL A   1      39.441  18.106  25.743  1.00  0.00     0.163 HD
ATOM     30  O   UNL A   1      41.888  18.306  25.690  1.00  0.00    -0.269 OA
BRANCH  28  31
ATOM     31  C   UNL A   1      41.599  20.507  26.452  1.00  0.00     0.039 A 
ATOM     32  C   UNL A   1      42.016  21.539  25.605  1.00  0.00     0.014 A 
ATOM     33  C   UNL A   1      41.571  20.683  27.828  1.00  0.00     0.014 A 
ATOM     34  C   UNL A   1      42.327  22.776  26.166  1.00  0.00     0.010 A 
ATOM     35  C   UNL A   1      41.611  21.945  28.333  1.00  0.00     0.010 A 
ATOM     36  C   UNL A   1      42.106  22.966  27.536  1.00  0.00    -0.014 A 
BRANCH  36  37
ATOM     37  C   UNL A   1      42.310  24.239  28.206  1.00  0.00     0.031 A 
ATOM     38  C   UNL A   1      41.199  25.208  28.041  1.00  0.00     0.074 A 
ATOM     39  C   UNL A   1      43.273  24.375  29.147  1.00  0.00     0.049 A 
ATOM     40  N   UNL A   1      41.230  26.348  27.434  1.00  0.00    -0.248 NA
ATOM     41  C   UNL A   1      39.854  24.800  28.478  1.00  0.00     0.031 C 
ATOM     42  C   UNL A   1      44.194  23.344  29.659  1.00  0.00     0.029 A 
ATOM     43  N   UNL A   1      43.511  25.417  29.983  1.00  0.00    -0.354 N 
ATOM     44  C   UNL A   1      39.968  26.901  27.627  1.00  0.00     0.074 A 
ATOM     45  C   UNL A   1      39.113  25.827  28.059  1.00  0.00     0.031 C 
ATOM     46  C   UNL A   1      44.675  23.725  30.862  1.00  0.00     0.029 A 
ATOM     47  C   UNL A   1      44.252  25.086  31.116  1.00  0.00     0.049 A 
ATOM     48  H   UNL A   1      43.187  26.329  29.804  1.00  0.00     0.167 HD
ATOM     49  C   UNL A   1      39.779  28.248  27.680  1.00  0.00     0.034 A 
ATOM     50  C   UNL A   1      44.444  25.867  32.207  1.00  0.00     0.034 A 
ATOM     51  C   UNL A   1      40.946  28.965  27.232  1.00  0.00     0.049 A 
ATOM     52  C   UNL A   1      44.147  27.257  31.791  1.00  0.00     0.074 A 
ATOM     53  C   UNL A   1      41.671  29.003  26.057  1.00  0.00     0.029 A 
ATOM     54  N   UNL A   1      41.778  29.462  28.207  1.00  0.00    -0.354 N 
ATOM     55  N   UNL A   1      44.850  27.912  30.911  1.00  0.00    -0.248 NA
ATOM     56  C   UNL A   1      42.805  27.760  32.026  1.00  0.00     0.031 C 
ATOM     57  C   UNL A   1      43.035  29.061  26.472  1.00  0.00     0.029 A 
ATOM     58  C   UNL A   1      43.066  29.133  27.866  1.00  0.00     0.049 A 
ATOM     59  H   UNL A   1      41.499  29.965  29.006  1.00  0.00     0.167 HD
ATOM     60  C   UNL A   1      43.904  28.590  30.154  1.00  0.00     0.074 A 
ATOM     61  C   UNL A   1      42.682  28.556  30.959  1.00  0.00     0.031 C 
ATOM     62  C   UNL A   1      44.113  28.848  28.827  1.00  0.00     0.034 A 
BRANCH  49  63
ATOM     63  C   UNL A   1      38.668  28.926  28.441  1.00  0.00     0.023 A 
ATOM     64  C   UNL A   1      37.723  29.672  27.707  1.00  0.00     0.012 A 
ATOM     65  C   UNL A   1      38.624  29.041  29.850  1.00  0.00     0.148 A 
ATOM     66  C   UNL A   1      36.781  30.487  28.345  1.00  0.00     0.002 A 
ATOM     67  C   UNL A   1      37.624  29.771  30.481  1.00  0.00     0.091 A 
ATOM     68  F   UNL A   1      39.629  28.560  30.589  1.00  0.00    -0.205 F 
ATOM     69  C   UNL A   1      36.715  30.519  29.733  1.00  0.00     0.022 A 
BRANCH  67  70
ATOM     70  S   UNL A   1      37.443  29.764  32.268  1.00  0.00     0.127 S 
ATOM     71  O   UNL A   1      37.379  28.334  32.553  1.00  0.00    -0.237 OA
ATOM     72  O   UNL A   1      38.674  30.428  32.697  1.00  0.00    -0.237 OA
ATOM     73  O   UNL A   1      36.232  30.531  32.534  1.00  0.00    -0.744 OA
ENDBRANCH  67  70
ENDBRANCH  49  63
BRANCH  50  74
ATOM     74  C   UNL A   1      44.569  25.499  33.637  1.00  0.00     0.023 A 
ATOM     75  C   UNL A   1      43.405  25.408  34.429  1.00  0.00     0.012 A 
ATOM     76  C   UNL A   1      45.760  24.929  34.136  1.00  0.00     0.148 A 
ATOM     77  C   UNL A   1      43.412  24.718  35.648  1.00  0.00     0.002 A 
ATOM     78  C   UNL A   1      45.761  24.241  35.346  1.00  0.00     0.091 A 
ATOM     79  F   UNL A   1      46.863  24.975  33.379  1.00  0.00    -0.205 F 
ATOM     80  C   UNL A   1      44.585  24.121  36.099  1.00  0.00     0.022 A 
BRANCH  78  81
ATOM     81  S   UNL A   1      47.220  23.393  35.967  1.00  0.00     0.127 S 
ATOM     82  O   UNL A   1      47.509  22.457  34.881  1.00  0.00    -0.237 OA
ATOM     83  O   UNL A   1      48.169  24.495  36.098  1.00  0.00    -0.237 OA
ATOM     84  O   UNL A   1      46.804  22.763  37.213  1.00  0.00    -0.744 OA
ENDBRANCH  78  81
ENDBRANCH  50  74
BRANCH  62  85
ATOM     85  C   UNL A   1      45.491  28.565  28.262  1.00  0.00     0.023 A 
ATOM     86  C   UNL A   1      46.589  29.429  28.467  1.00  0.00     0.012 A 
ATOM     87  C   UNL A   1      45.726  27.322  27.653  1.00  0.00     0.148 A 
ATOM     88  C   UNL A   1      47.879  29.077  28.055  1.00  0.00     0.002 A 
ATOM     89  C   UNL A   1      47.017  26.952  27.289  1.00  0.00     0.091 A 
ATOM     90  F   UNL A   1      44.681  26.503  27.460  1.00  0.00    -0.205 F 
ATOM     91  C   UNL A   1      48.096  27.830  27.478  1.00  0.00     0.022 A 
BRANCH  89  92
ATOM     92  S   UNL A   1      47.377  25.310  26.662  1.00  0.00     0.127 S 
ATOM     93  O   UNL A   1      46.581  25.268  25.438  1.00  0.00    -0.237 OA
ATOM     94  O   UNL A   1      48.825  25.362  26.449  1.00  0.00    -0.237 OA
ATOM     95  O   UNL A   1      46.967  24.385  27.712  1.00  0.00    -0.744 OA
ENDBRANCH  89  92
ENDBRANCH  62  85
ENDBRANCH  36  37
ENDBRANCH  28  31
ENDBRANCH  26  27
ENDBRANCH  25  26
ENDBRANCH   1  25
TORSDOF 17
ENDMDL
