MODEL 1
REMARK VINA RESULT:     -13.9      0.000      0.000
REMARK SMILES NS(=O)(=O)c1ccc(-n2nc(C(=O)NCCCNC(=O)c3ccc(-c4c5nc(c(-c6cccc(S(=O)(=O)[O-])c6F)c6ccc([nH]6)c(-c6cccc(S(=O)(=O)[O-])c6F)c6nc(c(-c7cccc(S(=O)(=O)[O-])c7F)c7ccc4[nH]7)C=C6)C=C5)cc3)cc2-c2ccc(Cl)s2)cc1
REMARK SMILES IDX 16 1 15 2 14 3 12 4 13 5 11 7 9 8 10 9 85 10 84 11 8 12 5 13
REMARK SMILES IDX 6 14 93 15 7 16 92 17 2 18 3 19 4 20 1 21 86 24 87 25 91 26
REMARK SMILES IDX 88 27 89 28 90 29 17 30 18 31 19 32 20 34 21 35 22 36 83 37
REMARK SMILES IDX 23 38 82 39 24 40 25 41 26 42 76 43 27 44 81 45 75 46 77 47
REMARK SMILES IDX 28 48 80 49 74 50 73 51 29 53 61 54 41 55 60 56 42 57 45 58
REMARK SMILES IDX 59 59 78 60 43 61 44 62 58 64 79 65 46 66 30 67 31 68 39 69
REMARK SMILES IDX 32 70 34 71 40 72 33 73 35 74 36 75 37 76 38 77 62 78 63 79
REMARK SMILES IDX 71 80 64 81 66 82 72 83 65 84 67 85 68 86 69 87 70 88 47 89
REMARK SMILES IDX 48 90 56 91 49 92 51 93 57 94 50 95 52 96 53 97 54 98 55 99
REMARK H PARENT 14 6 1 22 1 23 18 33 77 52 45 63
REMARK Flexibility Score: inf
ROOT
ATOM      1  C   UNL A   1      36.440  22.673  23.486  1.00  0.00     0.042 C 
ENDROOT
BRANCH   1   2
ATOM      2  C   UNL A   1      35.056  23.263  23.182  1.00  0.00     0.118 C 
BRANCH   2   3
ATOM      3  N   UNL A   1      33.971  22.431  23.668  1.00  0.00    -0.351 N 
ATOM      4  C   UNL A   1      32.738  22.745  24.204  1.00  0.00     0.271 C 
ATOM      5  O   UNL A   1      31.954  21.808  24.357  1.00  0.00    -0.267 OA
ATOM      6  H   UNL A   1      34.146  21.463  23.604  1.00  0.00     0.163 HD
BRANCH   4   7
ATOM      7  C   UNL A   1      32.373  24.142  24.520  1.00  0.00     0.151 A 
ATOM      8  N   UNL A   1      31.463  26.071  24.230  1.00  0.00    -0.231 N 
ATOM      9  N   UNL A   1      31.451  24.797  23.786  1.00  0.00    -0.162 NA
ATOM     10  C   UNL A   1      32.301  26.232  25.314  1.00  0.00     0.085 A 
ATOM     11  C   UNL A   1      32.835  24.990  25.554  1.00  0.00     0.066 A 
BRANCH   8  12
ATOM     12  C   UNL A   1      30.696  27.062  23.579  1.00  0.00     0.065 A 
ATOM     13  C   UNL A   1      29.195  29.133  22.506  1.00  0.00     0.082 A 
ATOM     14  C   UNL A   1      30.579  29.115  22.312  1.00  0.00     0.024 A 
ATOM     15  C   UNL A   1      28.552  28.099  23.198  1.00  0.00     0.024 A 
ATOM     16  C   UNL A   1      31.335  28.085  22.867  1.00  0.00     0.030 A 
ATOM     17  C   UNL A   1      29.303  27.037  23.707  1.00  0.00     0.030 A 
BRANCH  13  18
ATOM     18  S   UNL A   1      28.232  30.503  21.946  1.00  0.00     0.238 S 
ATOM     19  O   UNL A   1      27.259  30.839  22.969  1.00  0.00    -0.207 OA
ATOM     20  O   UNL A   1      27.881  30.301  20.568  1.00  0.00    -0.207 OA
BRANCH  18  21
ATOM     21  N   UNL A   1      29.311  31.799  21.955  1.00  0.00    -0.225 NA
ATOM     22  H   UNL A   1      29.336  32.225  21.029  1.00  0.00     0.137 HD
ATOM     23  H   UNL A   1      30.243  31.463  22.200  1.00  0.00     0.137 HD
ENDBRANCH  18  21
ENDBRANCH  13  18
ENDBRANCH   8  12
BRANCH  10  24
ATOM     24  C   UNL A   1      32.502  27.414  26.091  1.00  0.00     0.054 A 
ATOM     25  C   UNL A   1      31.627  27.935  27.025  1.00  0.00     0.024 A 
ATOM     26  S   UNL A   1      33.870  28.420  25.869  1.00  0.00    -0.122 S 
ATOM     27  C   UNL A   1      32.094  29.168  27.567  1.00  0.00     0.033 A 
ATOM     28  C   UNL A   1      33.293  29.529  27.008  1.00  0.00     0.094 A 
ATOM     29  Cl  UNL A   1      34.196  30.949  27.350  1.00  0.00    -0.072 Cl
ENDBRANCH  10  24
ENDBRANCH   4   7
ENDBRANCH   2   3
ENDBRANCH   1   2
BRANCH   1  30
ATOM     30  C   UNL A   1      36.520  22.134  24.903  1.00  0.00     0.118 C 
BRANCH  30  31
ATOM     31  N   UNL A   1      37.135  20.798  24.951  1.00  0.00    -0.352 N 
ATOM     32  C   UNL A   1      38.407  20.439  25.357  1.00  0.00     0.251 C 
ATOM     33  H   UNL A   1      36.561  20.056  24.651  1.00  0.00     0.163 HD
ATOM     34  O   UNL A   1      38.884  19.358  25.026  1.00  0.00    -0.269 OA
BRANCH  32  35
ATOM     35  C   UNL A   1      39.172  21.375  26.197  1.00  0.00     0.039 A 
ATOM     36  C   UNL A   1      40.344  21.001  26.860  1.00  0.00     0.014 A 
ATOM     37  C   UNL A   1      38.698  22.678  26.276  1.00  0.00     0.014 A 
ATOM     38  C   UNL A   1      41.059  21.981  27.543  1.00  0.00     0.010 A 
ATOM     39  C   UNL A   1      39.520  23.670  26.719  1.00  0.00     0.010 A 
ATOM     40  C   UNL A   1      40.641  23.318  27.448  1.00  0.00    -0.014 A 
BRANCH  40  41
ATOM     41  C   UNL A   1      41.408  24.413  28.013  1.00  0.00     0.031 A 
ATOM     42  C   UNL A   1      40.623  25.660  28.153  1.00  0.00     0.074 A 
ATOM     43  C   UNL A   1      42.629  24.238  28.568  1.00  0.00     0.049 A 
ATOM     44  N   UNL A   1      40.674  26.694  27.383  1.00  0.00    -0.248 NA
ATOM     45  C   UNL A   1      39.504  25.682  29.107  1.00  0.00     0.031 C 
ATOM     46  C   UNL A   1      43.359  22.982  28.802  1.00  0.00     0.029 A 
ATOM     47  N   UNL A   1      43.425  25.153  29.175  1.00  0.00    -0.354 N 
ATOM     48  C   UNL A   1      39.803  27.615  27.955  1.00  0.00     0.074 A 
ATOM     49  C   UNL A   1      38.932  26.851  28.805  1.00  0.00     0.031 C 
ATOM     50  C   UNL A   1      44.342  23.191  29.706  1.00  0.00     0.029 A 
ATOM     51  C   UNL A   1      44.428  24.612  29.977  1.00  0.00     0.049 A 
ATOM     52  H   UNL A   1      43.305  26.124  29.058  1.00  0.00     0.167 HD
ATOM     53  C   UNL A   1      40.093  28.946  27.927  1.00  0.00     0.034 A 
ATOM     54  C   UNL A   1      45.234  25.296  30.828  1.00  0.00     0.034 A 
ATOM     55  C   UNL A   1      41.171  29.214  26.999  1.00  0.00     0.049 A 
ATOM     56  C   UNL A   1      45.213  26.711  30.392  1.00  0.00     0.074 A 
ATOM     57  C   UNL A   1      41.391  28.967  25.658  1.00  0.00     0.029 A 
ATOM     58  N   UNL A   1      42.412  29.437  27.549  1.00  0.00    -0.354 N 
ATOM     59  N   UNL A   1      45.701  27.113  29.252  1.00  0.00    -0.248 NA
ATOM     60  C   UNL A   1      44.232  27.592  31.002  1.00  0.00     0.031 C 
ATOM     61  C   UNL A   1      42.762  28.573  25.580  1.00  0.00     0.029 A 
ATOM     62  C   UNL A   1      43.324  28.693  26.851  1.00  0.00     0.049 A 
ATOM     63  H   UNL A   1      42.609  30.028  28.311  1.00  0.00     0.167 HD
ATOM     64  C   UNL A   1      44.755  28.012  28.777  1.00  0.00     0.074 A 
ATOM     65  C   UNL A   1      43.935  28.349  29.941  1.00  0.00     0.031 C 
ATOM     66  C   UNL A   1      44.534  28.156  27.437  1.00  0.00     0.034 A 
BRANCH  53  67
ATOM     67  C   UNL A   1      39.735  29.947  29.010  1.00  0.00     0.023 A 
ATOM     68  C   UNL A   1      40.519  29.909  30.187  1.00  0.00     0.012 A 
ATOM     69  C   UNL A   1      38.542  30.704  29.069  1.00  0.00     0.148 A 
ATOM     70  C   UNL A   1      40.097  30.511  31.375  1.00  0.00     0.002 A 
ATOM     71  C   UNL A   1      38.162  31.364  30.232  1.00  0.00     0.091 A 
ATOM     72  F   UNL A   1      37.688  30.705  28.046  1.00  0.00    -0.205 F 
ATOM     73  C   UNL A   1      38.916  31.240  31.399  1.00  0.00     0.022 A 
BRANCH  71  74
ATOM     74  S   UNL A   1      36.665  32.358  30.309  1.00  0.00     0.127 S 
ATOM     75  O   UNL A   1      36.878  33.108  31.543  1.00  0.00    -0.237 OA
ATOM     76  O   UNL A   1      36.768  33.142  29.078  1.00  0.00    -0.237 OA
ATOM     77  O   UNL A   1      35.559  31.408  30.321  1.00  0.00    -0.744 OA
ENDBRANCH  71  74
ENDBRANCH  53  67
BRANCH  54  78
ATOM     78  C   UNL A   1      45.813  24.902  32.136  1.00  0.00     0.023 A 
ATOM     79  C   UNL A   1      47.023  25.488  32.566  1.00  0.00     0.012 A 
ATOM     80  C   UNL A   1      45.033  24.211  33.089  1.00  0.00     0.148 A 
ATOM     81  C   UNL A   1      47.418  25.430  33.909  1.00  0.00     0.002 A 
ATOM     82  C   UNL A   1      45.430  24.160  34.423  1.00  0.00     0.091 A 
ATOM     83  F   UNL A   1      43.861  23.692  32.705  1.00  0.00    -0.205 F 
ATOM     84  C   UNL A   1      46.615  24.780  34.840  1.00  0.00     0.022 A 
BRANCH  82  85
ATOM     85  S   UNL A   1      44.424  23.381  35.694  1.00  0.00     0.127 S 
ATOM     86  O   UNL A   1      43.198  24.178  35.639  1.00  0.00    -0.237 OA
ATOM     87  O   UNL A   1      44.293  22.020  35.181  1.00  0.00    -0.237 OA
ATOM     88  O   UNL A   1      45.178  23.521  36.933  1.00  0.00    -0.744 OA
ENDBRANCH  82  85
ENDBRANCH  54  78
BRANCH  66  89
ATOM     89  C   UNL A   1      45.512  27.516  26.481  1.00  0.00     0.023 A 
ATOM     90  C   UNL A   1      46.757  28.093  26.152  1.00  0.00     0.012 A 
ATOM     91  C   UNL A   1      45.230  26.215  26.033  1.00  0.00     0.148 A 
ATOM     92  C   UNL A   1      47.689  27.395  25.375  1.00  0.00     0.002 A 
ATOM     93  C   UNL A   1      46.175  25.507  25.302  1.00  0.00     0.091 A 
ATOM     94  F   UNL A   1      44.043  25.679  26.355  1.00  0.00    -0.205 F 
ATOM     95  C   UNL A   1      47.402  26.096  24.962  1.00  0.00     0.022 A 
BRANCH  93  96
ATOM     96  S   UNL A   1      45.907  23.792  24.852  1.00  0.00     0.127 S 
ATOM     97  O   UNL A   1      44.550  23.828  24.310  1.00  0.00    -0.237 OA
ATOM     98  O   UNL A   1      46.958  23.559  23.860  1.00  0.00    -0.237 OA
ATOM     99  O   UNL A   1      46.072  23.026  26.081  1.00  0.00    -0.744 OA
ENDBRANCH  93  96
ENDBRANCH  66  89
ENDBRANCH  40  41
ENDBRANCH  32  35
ENDBRANCH  30  31
ENDBRANCH   1  30
TORSDOF 17
ENDMDL
MODEL 2
REMARK VINA RESULT:     -13.6      3.665      7.932
REMARK SMILES NS(=O)(=O)c1ccc(-n2nc(C(=O)NCCCNC(=O)c3ccc(-c4c5nc(c(-c6cccc(S(=O)(=O)[O-])c6F)c6ccc([nH]6)c(-c6cccc(S(=O)(=O)[O-])c6F)c6nc(c(-c7cccc(S(=O)(=O)[O-])c7F)c7ccc4[nH]7)C=C6)C=C5)cc3)cc2-c2ccc(Cl)s2)cc1
REMARK SMILES IDX 16 1 15 2 14 3 12 4 13 5 11 7 9 8 10 9 85 10 84 11 8 12 5 13
REMARK SMILES IDX 6 14 93 15 7 16 92 17 2 18 3 19 4 20 1 21 86 24 87 25 91 26
REMARK SMILES IDX 88 27 89 28 90 29 17 30 18 31 19 32 20 34 21 35 22 36 83 37
REMARK SMILES IDX 23 38 82 39 24 40 25 41 26 42 76 43 27 44 81 45 75 46 77 47
REMARK SMILES IDX 28 48 80 49 74 50 73 51 29 53 61 54 41 55 60 56 42 57 45 58
REMARK SMILES IDX 59 59 78 60 43 61 44 62 58 64 79 65 46 66 30 67 31 68 39 69
REMARK SMILES IDX 32 70 34 71 40 72 33 73 35 74 36 75 37 76 38 77 62 78 63 79
REMARK SMILES IDX 71 80 64 81 66 82 72 83 65 84 67 85 68 86 69 87 70 88 47 89
REMARK SMILES IDX 48 90 56 91 49 92 51 93 57 94 50 95 52 96 53 97 54 98 55 99
REMARK H PARENT 14 6 1 22 1 23 18 33 77 52 45 63
REMARK Flexibility Score: inf
ROOT
ATOM      1  C   UNL A   1      31.984  28.609  27.229  1.00  0.00     0.042 C 
ENDROOT
BRANCH   1   2
ATOM      2  C   UNL A   1      31.795  27.127  26.877  1.00  0.00     0.118 C 
BRANCH   2   3
ATOM      3  N   UNL A   1      30.841  26.922  25.801  1.00  0.00    -0.351 N 
ATOM      4  C   UNL A   1      30.726  25.928  24.851  1.00  0.00     0.271 C 
ATOM      5  O   UNL A   1      29.694  25.933  24.178  1.00  0.00    -0.267 OA
ATOM      6  H   UNL A   1      30.149  27.620  25.739  1.00  0.00     0.163 HD
BRANCH   4   7
ATOM      7  C   UNL A   1      31.766  24.889  24.696  1.00  0.00     0.151 A 
ATOM      8  N   UNL A   1      32.591  22.903  24.598  1.00  0.00    -0.231 N 
ATOM      9  N   UNL A   1      31.429  23.590  24.563  1.00  0.00    -0.162 NA
ATOM     10  C   UNL A   1      33.685  23.740  24.644  1.00  0.00     0.085 A 
ATOM     11  C   UNL A   1      33.174  25.015  24.636  1.00  0.00     0.066 A 
BRANCH   8  12
ATOM     12  C   UNL A   1      32.584  21.491  24.612  1.00  0.00     0.065 A 
ATOM     13  C   UNL A   1      32.804  18.726  24.575  1.00  0.00     0.082 A 
ATOM     14  C   UNL A   1      32.963  19.412  25.782  1.00  0.00     0.024 A 
ATOM     15  C   UNL A   1      32.495  19.412  23.393  1.00  0.00     0.024 A 
ATOM     16  C   UNL A   1      32.870  20.802  25.797  1.00  0.00     0.030 A 
ATOM     17  C   UNL A   1      32.347  20.800  23.418  1.00  0.00     0.030 A 
BRANCH  13  18
ATOM     18  S   UNL A   1      33.066  16.981  24.497  1.00  0.00     0.238 S 
ATOM     19  O   UNL A   1      33.246  16.598  23.109  1.00  0.00    -0.207 OA
ATOM     20  O   UNL A   1      32.138  16.326  25.376  1.00  0.00    -0.207 OA
BRANCH  18  21
ATOM     21  N   UNL A   1      34.586  16.760  25.193  1.00  0.00    -0.225 NA
ATOM     22  H   UNL A   1      34.597  17.179  26.123  1.00  0.00     0.137 HD
ATOM     23  H   UNL A   1      35.295  17.205  24.610  1.00  0.00     0.137 HD
ENDBRANCH  18  21
ENDBRANCH  13  18
ENDBRANCH   8  12
BRANCH  10  24
ATOM     24  C   UNL A   1      35.066  23.372  24.608  1.00  0.00     0.054 A 
ATOM     25  C   UNL A   1      35.772  22.964  23.494  1.00  0.00     0.024 A 
ATOM     26  S   UNL A   1      36.018  23.296  26.029  1.00  0.00    -0.122 S 
ATOM     27  C   UNL A   1      37.111  22.594  23.814  1.00  0.00     0.033 A 
ATOM     28  C   UNL A   1      37.350  22.727  25.158  1.00  0.00     0.094 A 
ATOM     29  Cl  UNL A   1      38.816  22.369  25.977  1.00  0.00    -0.072 Cl
ENDBRANCH  10  24
ENDBRANCH   4   7
ENDBRANCH   2   3
ENDBRANCH   1   2
BRANCH   1  30
ATOM     30  C   UNL A   1      33.453  28.986  27.297  1.00  0.00     0.118 C 
BRANCH  30  31
ATOM     31  N   UNL A   1      33.644  30.402  27.647  1.00  0.00    -0.352 N 
ATOM     32  C   UNL A   1      34.666  30.992  28.367  1.00  0.00     0.251 C 
ATOM     33  H   UNL A   1      32.944  31.017  27.325  1.00  0.00     0.163 HD
ATOM     34  O   UNL A   1      34.518  32.105  28.860  1.00  0.00    -0.269 OA
BRANCH  32  35
ATOM     35  C   UNL A   1      35.935  30.261  28.520  1.00  0.00     0.039 A 
ATOM     36  C   UNL A   1      36.848  30.117  27.472  1.00  0.00     0.014 A 
ATOM     37  C   UNL A   1      36.213  29.745  29.779  1.00  0.00     0.014 A 
ATOM     38  C   UNL A   1      38.070  29.506  27.740  1.00  0.00     0.010 A 
ATOM     39  C   UNL A   1      37.489  29.386  30.095  1.00  0.00     0.010 A 
ATOM     40  C   UNL A   1      38.382  29.160  29.064  1.00  0.00    -0.014 A 
BRANCH  40  41
ATOM     41  C   UNL A   1      39.686  28.648  29.446  1.00  0.00     0.031 A 
ATOM     42  C   UNL A   1      39.963  28.789  30.893  1.00  0.00     0.074 A 
ATOM     43  C   UNL A   1      40.453  27.911  28.611  1.00  0.00     0.049 A 
ATOM     44  N   UNL A   1      40.714  29.677  31.451  1.00  0.00    -0.248 NA
ATOM     45  C   UNL A   1      39.153  28.010  31.842  1.00  0.00     0.031 C 
ATOM     46  C   UNL A   1      40.126  27.409  27.267  1.00  0.00     0.029 A 
ATOM     47  N   UNL A   1      41.654  27.329  28.853  1.00  0.00    -0.354 N 
ATOM     48  C   UNL A   1      40.702  29.363  32.805  1.00  0.00     0.074 A 
ATOM     49  C   UNL A   1      39.536  28.545  33.005  1.00  0.00     0.031 C 
ATOM     50  C   UNL A   1      40.979  26.415  26.934  1.00  0.00     0.029 A 
ATOM     51  C   UNL A   1      42.011  26.330  27.949  1.00  0.00     0.049 A 
ATOM     52  H   UNL A   1      42.230  27.592  29.607  1.00  0.00     0.167 HD
ATOM     53  C   UNL A   1      41.823  29.531  33.562  1.00  0.00     0.034 A 
ATOM     54  C   UNL A   1      43.059  25.476  28.065  1.00  0.00     0.034 A 
ATOM     55  C   UNL A   1      42.802  30.328  32.852  1.00  0.00     0.049 A 
ATOM     56  C   UNL A   1      44.014  26.100  29.010  1.00  0.00     0.074 A 
ATOM     57  C   UNL A   1      42.805  31.579  32.268  1.00  0.00     0.029 A 
ATOM     58  N   UNL A   1      43.855  29.647  32.289  1.00  0.00    -0.354 N 
ATOM     59  N   UNL A   1      44.655  27.205  28.751  1.00  0.00    -0.248 NA
ATOM     60  C   UNL A   1      43.894  25.756  30.417  1.00  0.00     0.031 C 
ATOM     61  C   UNL A   1      43.537  31.412  31.054  1.00  0.00     0.029 A 
ATOM     62  C   UNL A   1      44.019  30.104  31.009  1.00  0.00     0.049 A 
ATOM     63  H   UNL A   1      44.397  28.952  32.729  1.00  0.00     0.167 HD
ATOM     64  C   UNL A   1      44.582  27.924  29.936  1.00  0.00     0.074 A 
ATOM     65  C   UNL A   1      44.203  26.941  30.953  1.00  0.00     0.031 C 
ATOM     66  C   UNL A   1      44.530  29.288  29.928  1.00  0.00     0.034 A 
BRANCH  53  67
ATOM     67  C   UNL A   1      42.237  28.653  34.729  1.00  0.00     0.023 A 
ATOM     68  C   UNL A   1      42.668  29.322  35.898  1.00  0.00     0.012 A 
ATOM     69  C   UNL A   1      42.495  27.265  34.663  1.00  0.00     0.148 A 
ATOM     70  C   UNL A   1      43.393  28.668  36.899  1.00  0.00     0.002 A 
ATOM     71  C   UNL A   1      43.151  26.602  35.694  1.00  0.00     0.091 A 
ATOM     72  F   UNL A   1      42.225  26.576  33.554  1.00  0.00    -0.205 F 
ATOM     73  C   UNL A   1      43.635  27.306  36.797  1.00  0.00     0.022 A 
BRANCH  71  74
ATOM     74  S   UNL A   1      43.455  24.830  35.637  1.00  0.00     0.127 S 
ATOM     75  O   UNL A   1      44.294  24.718  34.449  1.00  0.00    -0.237 OA
ATOM     76  O   UNL A   1      44.143  24.608  36.909  1.00  0.00    -0.237 OA
ATOM     77  O   UNL A   1      42.140  24.205  35.552  1.00  0.00    -0.744 OA
ENDBRANCH  71  74
ENDBRANCH  53  67
BRANCH  54  78
ATOM     78  C   UNL A   1      43.202  24.060  27.649  1.00  0.00     0.023 A 
ATOM     79  C   UNL A   1      42.220  23.120  28.028  1.00  0.00     0.012 A 
ATOM     80  C   UNL A   1      44.108  23.698  26.628  1.00  0.00     0.148 A 
ATOM     81  C   UNL A   1      42.113  21.882  27.380  1.00  0.00     0.002 A 
ATOM     82  C   UNL A   1      43.995  22.468  25.986  1.00  0.00     0.091 A 
ATOM     83  F   UNL A   1      45.014  24.598  26.224  1.00  0.00    -0.205 F 
ATOM     84  C   UNL A   1      42.991  21.562  26.349  1.00  0.00     0.022 A 
BRANCH  82  85
ATOM     85  S   UNL A   1      45.059  22.001  24.613  1.00  0.00     0.127 S 
ATOM     86  O   UNL A   1      46.376  21.968  25.249  1.00  0.00    -0.237 OA
ATOM     87  O   UNL A   1      44.522  20.693  24.249  1.00  0.00    -0.237 OA
ATOM     88  O   UNL A   1      44.898  23.051  23.615  1.00  0.00    -0.744 OA
ENDBRANCH  82  85
ENDBRANCH  54  78
BRANCH  66  89
ATOM     89  C   UNL A   1      44.815  30.003  28.629  1.00  0.00     0.023 A 
ATOM     90  C   UNL A   1      43.805  30.379  27.719  1.00  0.00     0.012 A 
ATOM     91  C   UNL A   1      46.127  30.451  28.405  1.00  0.00     0.148 A 
ATOM     92  C   UNL A   1      44.102  31.165  26.600  1.00  0.00     0.002 A 
ATOM     93  C   UNL A   1      46.411  31.269  27.320  1.00  0.00     0.091 A 
ATOM     94  F   UNL A   1      47.078  30.087  29.279  1.00  0.00    -0.205 F 
ATOM     95  C   UNL A   1      45.404  31.621  26.408  1.00  0.00     0.022 A 
BRANCH  93  96
ATOM     96  S   UNL A   1      48.041  31.983  27.095  1.00  0.00     0.127 S 
ATOM     97  O   UNL A   1      48.819  30.830  26.647  1.00  0.00    -0.237 OA
ATOM     98  O   UNL A   1      47.801  32.998  26.068  1.00  0.00    -0.237 OA
ATOM     99  O   UNL A   1      48.419  32.530  28.393  1.00  0.00    -0.744 OA
ENDBRANCH  93  96
ENDBRANCH  66  89
ENDBRANCH  40  41
ENDBRANCH  32  35
ENDBRANCH  30  31
ENDBRANCH   1  30
TORSDOF 17
ENDMDL
MODEL 3
REMARK VINA RESULT:     -13.5      3.216      7.387
REMARK SMILES NS(=O)(=O)c1ccc(-n2nc(C(=O)NCCCNC(=O)c3ccc(-c4c5nc(c(-c6cccc(S(=O)(=O)[O-])c6F)c6ccc([nH]6)c(-c6cccc(S(=O)(=O)[O-])c6F)c6nc(c(-c7cccc(S(=O)(=O)[O-])c7F)c7ccc4[nH]7)C=C6)C=C5)cc3)cc2-c2ccc(Cl)s2)cc1
REMARK SMILES IDX 16 1 15 2 14 3 12 4 13 5 11 7 9 8 10 9 85 10 84 11 8 12 5 13
REMARK SMILES IDX 6 14 93 15 7 16 92 17 2 18 3 19 4 20 1 21 86 24 87 25 91 26
REMARK SMILES IDX 88 27 89 28 90 29 17 30 18 31 19 32 20 34 21 35 22 36 83 37
REMARK SMILES IDX 23 38 82 39 24 40 25 41 26 42 76 43 27 44 81 45 75 46 77 47
REMARK SMILES IDX 28 48 80 49 74 50 73 51 29 53 61 54 41 55 60 56 42 57 45 58
REMARK SMILES IDX 59 59 78 60 43 61 44 62 58 64 79 65 46 66 30 67 31 68 39 69
REMARK SMILES IDX 32 70 34 71 40 72 33 73 35 74 36 75 37 76 38 77 62 78 63 79
REMARK SMILES IDX 71 80 64 81 66 82 72 83 65 84 67 85 68 86 69 87 70 88 47 89
REMARK SMILES IDX 48 90 56 91 49 92 51 93 57 94 50 95 52 96 53 97 54 98 55 99
REMARK H PARENT 14 6 1 22 1 23 18 33 77 52 45 63
REMARK Flexibility Score: inf
ROOT
ATOM      1  C   UNL A   1      36.332  23.089  26.147  1.00  0.00     0.042 C 
ENDROOT
BRANCH   1   2
ATOM      2  C   UNL A   1      35.133  22.281  25.632  1.00  0.00     0.118 C 
BRANCH   2   3
ATOM      3  N   UNL A   1      34.991  22.344  24.189  1.00  0.00    -0.351 N 
ATOM      4  C   UNL A   1      34.458  23.308  23.357  1.00  0.00     0.271 C 
ATOM      5  O   UNL A   1      34.647  23.153  22.150  1.00  0.00    -0.267 OA
ATOM      6  H   UNL A   1      35.338  21.553  23.716  1.00  0.00     0.163 HD
BRANCH   4   7
ATOM      7  C   UNL A   1      33.751  24.486  23.902  1.00  0.00     0.151 A 
ATOM      8  N   UNL A   1      32.336  26.108  23.947  1.00  0.00    -0.231 N 
ATOM      9  N   UNL A   1      32.638  24.960  23.305  1.00  0.00    -0.162 NA
ATOM     10  C   UNL A   1      33.171  26.335  25.020  1.00  0.00     0.085 A 
ATOM     11  C   UNL A   1      34.036  25.269  25.046  1.00  0.00     0.066 A 
BRANCH   8  12
ATOM     12  C   UNL A   1      31.286  26.930  23.481  1.00  0.00     0.065 A 
ATOM     13  C   UNL A   1      29.239  28.665  22.778  1.00  0.00     0.082 A 
ATOM     14  C   UNL A   1      30.547  28.945  22.373  1.00  0.00     0.024 A 
ATOM     15  C   UNL A   1      28.943  27.500  23.498  1.00  0.00     0.024 A 
ATOM     16  C   UNL A   1      31.578  28.084  22.742  1.00  0.00     0.030 A 
ATOM     17  C   UNL A   1      29.967  26.608  23.820  1.00  0.00     0.030 A 
BRANCH  13  18
ATOM     18  S   UNL A   1      27.938  29.814  22.456  1.00  0.00     0.238 S 
ATOM     19  O   UNL A   1      27.899  30.089  21.033  1.00  0.00    -0.207 OA
ATOM     20  O   UNL A   1      27.965  30.848  23.453  1.00  0.00    -0.207 OA
BRANCH  18  21
ATOM     21  N   UNL A   1      26.528  28.936  22.752  1.00  0.00    -0.225 NA
ATOM     22  H   UNL A   1      26.316  28.961  23.749  1.00  0.00     0.137 HD
ATOM     23  H   UNL A   1      26.662  27.969  22.456  1.00  0.00     0.137 HD
ENDBRANCH  18  21
ENDBRANCH  13  18
ENDBRANCH   8  12
BRANCH  10  24
ATOM     24  C   UNL A   1      33.097  27.399  25.972  1.00  0.00     0.054 A 
ATOM     25  C   UNL A   1      32.075  27.616  26.876  1.00  0.00     0.024 A 
ATOM     26  S   UNL A   1      34.275  28.640  26.032  1.00  0.00    -0.122 S 
ATOM     27  C   UNL A   1      32.271  28.811  27.628  1.00  0.00     0.033 A 
ATOM     28  C   UNL A   1      33.424  29.448  27.250  1.00  0.00     0.094 A 
ATOM     29  Cl  UNL A   1      34.030  30.927  27.876  1.00  0.00    -0.072 Cl
ENDBRANCH  10  24
ENDBRANCH   4   7
ENDBRANCH   2   3
ENDBRANCH   1   2
BRANCH   1  30
ATOM     30  C   UNL A   1      37.616  22.698  25.438  1.00  0.00     0.118 C 
BRANCH  30  31
ATOM     31  N   UNL A   1      38.444  21.795  26.253  1.00  0.00    -0.352 N 
ATOM     32  C   UNL A   1      39.652  22.045  26.876  1.00  0.00     0.251 C 
ATOM     33  H   UNL A   1      38.087  20.884  26.371  1.00  0.00     0.163 HD
ATOM     34  O   UNL A   1      40.375  21.118  27.227  1.00  0.00    -0.269 OA
BRANCH  32  35
ATOM     35  C   UNL A   1      40.049  23.442  27.115  1.00  0.00     0.039 A 
ATOM     36  C   UNL A   1      39.262  24.523  26.710  1.00  0.00     0.014 A 
ATOM     37  C   UNL A   1      41.236  23.648  27.806  1.00  0.00     0.014 A 
ATOM     38  C   UNL A   1      39.663  25.806  27.076  1.00  0.00     0.010 A 
ATOM     39  C   UNL A   1      41.484  24.860  28.375  1.00  0.00     0.010 A 
ATOM     40  C   UNL A   1      40.771  25.956  27.926  1.00  0.00    -0.014 A 
BRANCH  40  41
ATOM     41  C   UNL A   1      41.167  27.244  28.464  1.00  0.00     0.031 A 
ATOM     42  C   UNL A   1      42.440  27.744  27.896  1.00  0.00     0.074 A 
ATOM     43  C   UNL A   1      40.341  28.005  29.217  1.00  0.00     0.049 A 
ATOM     44  N   UNL A   1      43.598  27.722  28.464  1.00  0.00    -0.248 NA
ATOM     45  C   UNL A   1      42.482  28.097  26.469  1.00  0.00     0.031 C 
ATOM     46  C   UNL A   1      38.928  27.771  29.552  1.00  0.00     0.029 A 
ATOM     47  N   UNL A   1      40.560  29.241  29.733  1.00  0.00    -0.354 N 
ATOM     48  C   UNL A   1      44.454  28.348  27.565  1.00  0.00     0.074 A 
ATOM     49  C   UNL A   1      43.792  28.288  26.291  1.00  0.00     0.031 C 
ATOM     50  C   UNL A   1      38.367  28.922  29.985  1.00  0.00     0.029 A 
ATOM     51  C   UNL A   1      39.409  29.920  30.127  1.00  0.00     0.049 A 
ATOM     52  H   UNL A   1      41.461  29.627  29.825  1.00  0.00     0.167 HD
ATOM     53  C   UNL A   1      45.468  29.139  28.016  1.00  0.00     0.034 A 
ATOM     54  C   UNL A   1      39.330  31.223  30.500  1.00  0.00     0.034 A 
ATOM     55  C   UNL A   1      45.672  28.947  29.436  1.00  0.00     0.049 A 
ATOM     56  C   UNL A   1      40.697  31.635  30.895  1.00  0.00     0.074 A 
ATOM     57  C   UNL A   1      45.934  27.860  30.248  1.00  0.00     0.029 A 
ATOM     58  N   UNL A   1      45.172  29.923  30.265  1.00  0.00    -0.354 N 
ATOM     59  N   UNL A   1      41.318  31.145  31.931  1.00  0.00    -0.248 NA
ATOM     60  C   UNL A   1      41.545  32.232  29.877  1.00  0.00     0.031 C 
ATOM     61  C   UNL A   1      45.130  28.070  31.409  1.00  0.00     0.029 A 
ATOM     62  C   UNL A   1      44.500  29.309  31.287  1.00  0.00     0.049 A 
ATOM     63  H   UNL A   1      45.279  30.895  30.145  1.00  0.00     0.167 HD
ATOM     64  C   UNL A   1      42.612  30.928  31.477  1.00  0.00     0.074 A 
ATOM     65  C   UNL A   1      42.720  31.716  30.249  1.00  0.00     0.031 C 
ATOM     66  C   UNL A   1      43.363  29.896  31.964  1.00  0.00     0.034 A 
BRANCH  53  67
ATOM     67  C   UNL A   1      45.990  30.382  27.319  1.00  0.00     0.023 A 
ATOM     68  C   UNL A   1      47.362  30.678  27.503  1.00  0.00     0.012 A 
ATOM     69  C   UNL A   1      45.193  31.402  26.750  1.00  0.00     0.148 A 
ATOM     70  C   UNL A   1      47.888  31.942  27.223  1.00  0.00     0.002 A 
ATOM     71  C   UNL A   1      45.736  32.634  26.404  1.00  0.00     0.091 A 
ATOM     72  F   UNL A   1      43.873  31.253  26.645  1.00  0.00    -0.205 F 
ATOM     73  C   UNL A   1      47.075  32.923  26.673  1.00  0.00     0.022 A 
BRANCH  71  74
ATOM     74  S   UNL A   1      44.740  33.928  25.648  1.00  0.00     0.127 S 
ATOM     75  O   UNL A   1      43.808  34.242  26.725  1.00  0.00    -0.237 OA
ATOM     76  O   UNL A   1      45.747  34.954  25.376  1.00  0.00    -0.237 OA
ATOM     77  O   UNL A   1      44.158  33.331  24.452  1.00  0.00    -0.744 OA
ENDBRANCH  71  74
ENDBRANCH  53  67
BRANCH  54  78
ATOM     78  C   UNL A   1      38.252  32.221  30.301  1.00  0.00     0.023 A 
ATOM     79  C   UNL A   1      37.745  32.450  29.005  1.00  0.00     0.012 A 
ATOM     80  C   UNL A   1      37.508  32.704  31.401  1.00  0.00     0.148 A 
ATOM     81  C   UNL A   1      36.516  33.095  28.811  1.00  0.00     0.002 A 
ATOM     82  C   UNL A   1      36.287  33.342  31.202  1.00  0.00     0.091 A 
ATOM     83  F   UNL A   1      37.953  32.453  32.638  1.00  0.00    -0.205 F 
ATOM     84  C   UNL A   1      35.780  33.527  29.909  1.00  0.00     0.022 A 
BRANCH  82  85
ATOM     85  S   UNL A   1      35.254  33.886  32.570  1.00  0.00     0.127 S 
ATOM     86  O   UNL A   1      35.248  32.703  33.432  1.00  0.00    -0.237 OA
ATOM     87  O   UNL A   1      36.016  35.018  33.090  1.00  0.00    -0.237 OA
ATOM     88  O   UNL A   1      33.960  34.209  31.982  1.00  0.00    -0.744 OA
ENDBRANCH  82  85
ENDBRANCH  54  78
BRANCH  66  89
ATOM     89  C   UNL A   1      42.859  29.162  33.183  1.00  0.00     0.023 A 
ATOM     90  C   UNL A   1      41.859  28.168  33.125  1.00  0.00     0.012 A 
ATOM     91  C   UNL A   1      43.534  29.371  34.397  1.00  0.00     0.148 A 
ATOM     92  C   UNL A   1      41.527  27.416  34.257  1.00  0.00     0.002 A 
ATOM     93  C   UNL A   1      43.236  28.592  35.506  1.00  0.00     0.091 A 
ATOM     94  F   UNL A   1      44.484  30.319  34.437  1.00  0.00    -0.205 F 
ATOM     95  C   UNL A   1      42.226  27.619  35.445  1.00  0.00     0.022 A 
BRANCH  93  96
ATOM     96  S   UNL A   1      44.187  28.728  37.020  1.00  0.00     0.127 S 
ATOM     97  O   UNL A   1      43.769  27.533  37.751  1.00  0.00    -0.237 OA
ATOM     98  O   UNL A   1      45.566  28.696  36.530  1.00  0.00    -0.237 OA
ATOM     99  O   UNL A   1      43.801  29.999  37.621  1.00  0.00    -0.744 OA
ENDBRANCH  93  96
ENDBRANCH  66  89
ENDBRANCH  40  41
ENDBRANCH  32  35
ENDBRANCH  30  31
ENDBRANCH   1  30
TORSDOF 17
ENDMDL
