MODEL 1
REMARK VINA RESULT:     -12.1      0.000      0.000
REMARK SMILES [NH3+][C@H](C(=O)NCCCNC(=O)c1ccc(-c2c3nc(c(-c4cccc(S(=O)(=O)[O-])c4F)c4ccc([nH]4)c(-c4cccc(S(=O)(=O)[O-])c4F)c4nc(c(-c5cccc(S(=O)(=O)[O-])c5F)c5ccc2[nH]5)C=C4)C=C3)cc1)c1cc2c(cc1Br)OCO2
REMARK SMILES IDX 8 1 7 2 6 3 5 4 3 5 4 6 2 8 1 9 75 13 76 14 80 15 77 16
REMARK SMILES IDX 79 17 81 18 78 19 84 20 82 21 83 22 9 23 10 24 11 26 12 27
REMARK SMILES IDX 13 28 74 29 14 30 73 31 15 32 16 33 17 34 67 35 18 36 72 37
REMARK SMILES IDX 66 38 68 39 19 40 71 41 65 42 64 43 20 45 52 46 32 47 51 48
REMARK SMILES IDX 33 49 36 50 50 51 69 52 34 53 35 54 49 56 70 57 37 58 21 59
REMARK SMILES IDX 22 60 30 61 23 62 25 63 31 64 24 65 26 66 27 67 28 68 29 69
REMARK SMILES IDX 53 70 54 71 62 72 55 73 57 74 63 75 56 76 58 77 59 78 60 79
REMARK SMILES IDX 61 80 38 81 39 82 47 83 40 84 42 85 48 86 41 87 43 88 44 89
REMARK SMILES IDX 45 90 46 91
REMARK H PARENT 5 7 1 10 1 11 1 12 9 25 68 44 36 55
REMARK Flexibility Score: inf
ROOT
ATOM      1  C   UNL A   1      32.729  29.746  25.855  1.00  0.00     0.118 C 
ENDROOT
BRANCH   1   2
ATOM      2  C   UNL A   1      31.644  28.720  26.146  1.00  0.00     0.042 C 
BRANCH   2   3
ATOM      3  C   UNL A   1      32.156  27.376  26.638  1.00  0.00     0.118 C 
BRANCH   3   4
ATOM      4  N   UNL A   1      31.133  26.365  26.848  1.00  0.00    -0.351 N 
ATOM      5  C   UNL A   1      30.636  25.413  26.007  1.00  0.00     0.283 C 
ATOM      6  O   UNL A   1      29.856  24.595  26.522  1.00  0.00    -0.268 OA
ATOM      7  H   UNL A   1      30.731  26.368  27.747  1.00  0.00     0.163 HD
BRANCH   5   8
ATOM      8  C   UNL A   1      30.848  25.377  24.457  1.00  0.00     0.303 C 
BRANCH   8   9
ATOM      9  N   UNL A   1      30.276  24.088  23.983  1.00  0.00    -0.343 N 
ATOM     10  H   UNL A   1      30.263  23.418  24.753  1.00  0.00     0.345 HD
ATOM     11  H   UNL A   1      30.849  23.721  23.223  1.00  0.00     0.345 HD
ATOM     12  H   UNL A   1      29.325  24.240  23.649  1.00  0.00     0.345 HD
ENDBRANCH   8   9
BRANCH   8  13
ATOM     13  C   UNL A   1      30.383  26.583  23.654  1.00  0.00     0.037 A 
ATOM     14  C   UNL A   1      29.017  26.946  23.641  1.00  0.00     0.062 A 
ATOM     15  C   UNL A   1      31.307  27.438  22.992  1.00  0.00     0.031 A 
ATOM     16  C   UNL A   1      28.657  28.171  23.121  1.00  0.00     0.166 A 
ATOM     17  C   UNL A   1      30.909  28.681  22.477  1.00  0.00     0.066 A 
ATOM     18  Br  UNL A   1      33.154  27.003  22.835  1.00  0.00    -0.050 Br
ATOM     19  C   UNL A   1      29.582  29.028  22.585  1.00  0.00     0.166 A 
ATOM     20  O   UNL A   1      27.403  28.692  23.130  1.00  0.00    -0.454 OA
ATOM     21  O   UNL A   1      29.030  30.213  22.211  1.00  0.00    -0.454 OA
ATOM     22  C   UNL A   1      27.652  30.013  22.607  1.00  0.00     0.468 C 
ENDBRANCH   8  13
ENDBRANCH   5   8
ENDBRANCH   3   4
ENDBRANCH   2   3
ENDBRANCH   1   2
BRANCH   1  23
ATOM     23  N   UNL A   1      32.492  31.059  26.446  1.00  0.00    -0.352 N 
ATOM     24  C   UNL A   1      33.260  31.863  27.266  1.00  0.00     0.251 C 
ATOM     25  H   UNL A   1      31.617  31.446  26.217  1.00  0.00     0.163 HD
ATOM     26  O   UNL A   1      32.781  32.905  27.692  1.00  0.00    -0.269 OA
BRANCH  24  27
ATOM     27  C   UNL A   1      34.625  31.458  27.684  1.00  0.00     0.039 A 
ATOM     28  C   UNL A   1      35.582  32.454  27.913  1.00  0.00     0.014 A 
ATOM     29  C   UNL A   1      34.976  30.124  27.862  1.00  0.00     0.014 A 
ATOM     30  C   UNL A   1      36.831  32.117  28.450  1.00  0.00     0.010 A 
ATOM     31  C   UNL A   1      36.167  29.800  28.505  1.00  0.00     0.010 A 
ATOM     32  C   UNL A   1      37.103  30.792  28.828  1.00  0.00    -0.014 A 
BRANCH  32  33
ATOM     33  C   UNL A   1      38.312  30.419  29.616  1.00  0.00     0.031 A 
ATOM     34  C   UNL A   1      39.303  29.424  29.067  1.00  0.00     0.074 A 
ATOM     35  C   UNL A   1      38.430  30.846  30.892  1.00  0.00     0.049 A 
ATOM     36  N   UNL A   1      40.305  28.840  29.673  1.00  0.00    -0.248 NA
ATOM     37  C   UNL A   1      39.121  28.995  27.669  1.00  0.00     0.031 C 
ATOM     38  C   UNL A   1      37.489  31.734  31.581  1.00  0.00     0.029 A 
ATOM     39  N   UNL A   1      39.364  30.550  31.857  1.00  0.00    -0.354 N 
ATOM     40  C   UNL A   1      40.824  27.929  28.759  1.00  0.00     0.074 A 
ATOM     41  C   UNL A   1      40.021  28.027  27.560  1.00  0.00     0.031 C 
ATOM     42  C   UNL A   1      37.888  31.906  32.851  1.00  0.00     0.029 A 
ATOM     43  C   UNL A   1      39.084  31.106  33.087  1.00  0.00     0.049 A 
ATOM     44  H   UNL A   1      40.158  29.994  31.686  1.00  0.00     0.167 HD
ATOM     45  C   UNL A   1      41.888  27.103  28.897  1.00  0.00     0.034 A 
ATOM     46  C   UNL A   1      39.698  30.968  34.279  1.00  0.00     0.034 A 
ATOM     47  C   UNL A   1      42.741  27.074  30.053  1.00  0.00     0.049 A 
ATOM     48  C   UNL A   1      40.918  30.092  34.377  1.00  0.00     0.074 A 
ATOM     49  C   UNL A   1      43.936  26.396  30.218  1.00  0.00     0.029 A 
ATOM     50  N   UNL A   1      42.490  27.742  31.239  1.00  0.00    -0.354 N 
ATOM     51  N   UNL A   1      41.512  29.399  33.437  1.00  0.00    -0.248 NA
ATOM     52  C   UNL A   1      41.567  29.997  35.694  1.00  0.00     0.031 C 
ATOM     53  C   UNL A   1      44.394  26.632  31.518  1.00  0.00     0.029 A 
ATOM     54  C   UNL A   1      43.493  27.470  32.154  1.00  0.00     0.049 A 
ATOM     55  H   UNL A   1      41.714  28.323  31.408  1.00  0.00     0.167 HD
ATOM     56  C   UNL A   1      42.616  28.808  34.041  1.00  0.00     0.074 A 
ATOM     57  C   UNL A   1      42.627  29.248  35.419  1.00  0.00     0.031 C 
ATOM     58  C   UNL A   1      43.526  27.958  33.506  1.00  0.00     0.034 A 
BRANCH  45  59
ATOM     59  C   UNL A   1      42.243  26.196  27.749  1.00  0.00     0.023 A 
ATOM     60  C   UNL A   1      43.199  26.612  26.803  1.00  0.00     0.012 A 
ATOM     61  C   UNL A   1      41.712  24.893  27.671  1.00  0.00     0.148 A 
ATOM     62  C   UNL A   1      43.607  25.753  25.782  1.00  0.00     0.002 A 
ATOM     63  C   UNL A   1      42.153  24.029  26.677  1.00  0.00     0.091 A 
ATOM     64  F   UNL A   1      40.790  24.524  28.573  1.00  0.00    -0.205 F 
ATOM     65  C   UNL A   1      43.095  24.460  25.727  1.00  0.00     0.022 A 
BRANCH  63  66
ATOM     66  S   UNL A   1      41.616  22.318  26.564  1.00  0.00     0.127 S 
ATOM     67  O   UNL A   1      42.347  21.858  25.385  1.00  0.00    -0.237 OA
ATOM     68  O   UNL A   1      42.091  21.764  27.831  1.00  0.00    -0.237 OA
ATOM     69  O   UNL A   1      40.168  22.359  26.419  1.00  0.00    -0.744 OA
ENDBRANCH  63  66
ENDBRANCH  45  59
BRANCH  46  70
ATOM     70  C   UNL A   1      39.196  31.703  35.475  1.00  0.00     0.023 A 
ATOM     71  C   UNL A   1      38.290  31.066  36.345  1.00  0.00     0.012 A 
ATOM     72  C   UNL A   1      39.608  33.019  35.761  1.00  0.00     0.148 A 
ATOM     73  C   UNL A   1      37.774  31.738  37.454  1.00  0.00     0.002 A 
ATOM     74  C   UNL A   1      39.135  33.662  36.900  1.00  0.00     0.091 A 
ATOM     75  F   UNL A   1      40.457  33.621  34.914  1.00  0.00    -0.205 F 
ATOM     76  C   UNL A   1      38.204  33.032  37.738  1.00  0.00     0.022 A 
BRANCH  74  77
ATOM     77  S   UNL A   1      39.755  35.270  37.410  1.00  0.00     0.127 S 
ATOM     78  O   UNL A   1      39.333  36.121  36.301  1.00  0.00    -0.237 OA
ATOM     79  O   UNL A   1      39.037  35.492  38.667  1.00  0.00    -0.237 OA
ATOM     80  O   UNL A   1      41.192  35.094  37.574  1.00  0.00    -0.744 OA
ENDBRANCH  74  77
ENDBRANCH  46  70
BRANCH  58  81
ATOM     81  C   UNL A   1      44.627  27.454  34.399  1.00  0.00     0.023 A 
ATOM     82  C   UNL A   1      45.797  28.221  34.560  1.00  0.00     0.012 A 
ATOM     83  C   UNL A   1      44.461  26.275  35.153  1.00  0.00     0.148 A 
ATOM     84  C   UNL A   1      46.796  27.813  35.442  1.00  0.00     0.002 A 
ATOM     85  C   UNL A   1      45.440  25.898  36.064  1.00  0.00     0.091 A 
ATOM     86  F   UNL A   1      43.346  25.553  34.972  1.00  0.00    -0.205 F 
ATOM     87  C   UNL A   1      46.612  26.660  36.202  1.00  0.00     0.022 A 
BRANCH  85  88
ATOM     88  S   UNL A   1      45.251  24.485  37.157  1.00  0.00     0.127 S 
ATOM     89  O   UNL A   1      46.523  24.494  37.877  1.00  0.00    -0.237 OA
ATOM     90  O   UNL A   1      44.091  24.871  37.962  1.00  0.00    -0.237 OA
ATOM     91  O   UNL A   1      45.033  23.333  36.293  1.00  0.00    -0.744 OA
ENDBRANCH  85  88
ENDBRANCH  58  81
ENDBRANCH  32  33
ENDBRANCH  24  27
ENDBRANCH   1  23
TORSDOF 15
ENDMDL
MODEL 2
REMARK VINA RESULT:     -12.0      2.210      3.275
REMARK SMILES [NH3+][C@H](C(=O)NCCCNC(=O)c1ccc(-c2c3nc(c(-c4cccc(S(=O)(=O)[O-])c4F)c4ccc([nH]4)c(-c4cccc(S(=O)(=O)[O-])c4F)c4nc(c(-c5cccc(S(=O)(=O)[O-])c5F)c5ccc2[nH]5)C=C4)C=C3)cc1)c1cc2c(cc1Br)OCO2
REMARK SMILES IDX 8 1 7 2 6 3 5 4 3 5 4 6 2 8 1 9 75 13 76 14 80 15 77 16
REMARK SMILES IDX 79 17 81 18 78 19 84 20 82 21 83 22 9 23 10 24 11 26 12 27
REMARK SMILES IDX 13 28 74 29 14 30 73 31 15 32 16 33 17 34 67 35 18 36 72 37
REMARK SMILES IDX 66 38 68 39 19 40 71 41 65 42 64 43 20 45 52 46 32 47 51 48
REMARK SMILES IDX 33 49 36 50 50 51 69 52 34 53 35 54 49 56 70 57 37 58 21 59
REMARK SMILES IDX 22 60 30 61 23 62 25 63 31 64 24 65 26 66 27 67 28 68 29 69
REMARK SMILES IDX 53 70 54 71 62 72 55 73 57 74 63 75 56 76 58 77 59 78 60 79
REMARK SMILES IDX 61 80 38 81 39 82 47 83 40 84 42 85 48 86 41 87 43 88 44 89
REMARK SMILES IDX 45 90 46 91
REMARK H PARENT 5 7 1 10 1 11 1 12 9 25 68 44 36 55
REMARK Flexibility Score: inf
ROOT
ATOM      1  C   UNL A   1      32.038  31.092  26.409  1.00  0.00     0.118 C 
ENDROOT
BRANCH   1   2
ATOM      2  C   UNL A   1      30.882  30.799  25.464  1.00  0.00     0.042 C 
BRANCH   2   3
ATOM      3  C   UNL A   1      31.109  29.624  24.527  1.00  0.00     0.118 C 
BRANCH   3   4
ATOM      4  N   UNL A   1      32.489  29.420  24.117  1.00  0.00    -0.351 N 
ATOM      5  C   UNL A   1      33.078  28.383  23.456  1.00  0.00     0.283 C 
ATOM      6  O   UNL A   1      34.260  28.561  23.120  1.00  0.00    -0.268 OA
ATOM      7  H   UNL A   1      33.101  30.155  24.355  1.00  0.00     0.163 HD
BRANCH   5   8
ATOM      8  C   UNL A   1      32.439  26.971  23.239  1.00  0.00     0.303 C 
BRANCH   8   9
ATOM      9  N   UNL A   1      32.138  26.862  21.786  1.00  0.00    -0.343 N 
ATOM     10  H   UNL A   1      31.174  27.148  21.616  1.00  0.00     0.345 HD
ATOM     11  H   UNL A   1      32.265  25.896  21.484  1.00  0.00     0.345 HD
ATOM     12  H   UNL A   1      32.770  27.468  21.262  1.00  0.00     0.345 HD
ENDBRANCH   8   9
BRANCH   8  13
ATOM     13  C   UNL A   1      33.182  25.767  23.800  1.00  0.00     0.037 A 
ATOM     14  C   UNL A   1      33.986  24.969  22.955  1.00  0.00     0.062 A 
ATOM     15  C   UNL A   1      33.183  25.476  25.193  1.00  0.00     0.031 A 
ATOM     16  C   UNL A   1      34.841  24.047  23.522  1.00  0.00     0.166 A 
ATOM     17  C   UNL A   1      34.068  24.534  25.739  1.00  0.00     0.066 A 
ATOM     18  Br  UNL A   1      32.055  26.397  26.420  1.00  0.00    -0.050 Br
ATOM     19  C   UNL A   1      34.903  23.859  24.878  1.00  0.00     0.166 A 
ATOM     20  O   UNL A   1      35.736  23.284  22.846  1.00  0.00    -0.454 OA
ATOM     21  O   UNL A   1      35.869  22.970  25.231  1.00  0.00    -0.454 OA
ATOM     22  C   UNL A   1      36.431  22.645  23.936  1.00  0.00     0.468 C 
ENDBRANCH   8  13
ENDBRANCH   5   8
ENDBRANCH   3   4
ENDBRANCH   2   3
ENDBRANCH   1   2
BRANCH   1  23
ATOM     23  N   UNL A   1      32.036  32.441  26.966  1.00  0.00    -0.352 N 
ATOM     24  C   UNL A   1      32.964  33.142  27.710  1.00  0.00     0.251 C 
ATOM     25  H   UNL A   1      31.214  32.948  26.776  1.00  0.00     0.163 HD
ATOM     26  O   UNL A   1      32.673  34.254  28.127  1.00  0.00    -0.269 OA
BRANCH  24  27
ATOM     27  C   UNL A   1      34.279  32.549  28.059  1.00  0.00     0.039 A 
ATOM     28  C   UNL A   1      35.420  33.359  28.001  1.00  0.00     0.014 A 
ATOM     29  C   UNL A   1      34.409  31.220  28.448  1.00  0.00     0.014 A 
ATOM     30  C   UNL A   1      36.649  32.874  28.465  1.00  0.00     0.010 A 
ATOM     31  C   UNL A   1      35.598  30.777  29.020  1.00  0.00     0.010 A 
ATOM     32  C   UNL A   1      36.730  31.603  29.056  1.00  0.00    -0.014 A 
BRANCH  32  33
ATOM     33  C   UNL A   1      37.947  31.133  29.776  1.00  0.00     0.031 A 
ATOM     34  C   UNL A   1      38.845  30.091  29.158  1.00  0.00     0.074 A 
ATOM     35  C   UNL A   1      38.151  31.518  31.054  1.00  0.00     0.049 A 
ATOM     36  N   UNL A   1      39.833  29.428  29.701  1.00  0.00    -0.248 NA
ATOM     37  C   UNL A   1      38.571  29.711  27.761  1.00  0.00     0.031 C 
ATOM     38  C   UNL A   1      37.303  32.447  31.808  1.00  0.00     0.029 A 
ATOM     39  N   UNL A   1      39.108  31.138  31.967  1.00  0.00    -0.354 N 
ATOM     40  C   UNL A   1      40.249  28.511  28.743  1.00  0.00     0.074 A 
ATOM     41  C   UNL A   1      39.400  28.691  27.587  1.00  0.00     0.031 C 
ATOM     42  C   UNL A   1      37.771  32.560  33.061  1.00  0.00     0.029 A 
ATOM     43  C   UNL A   1      38.922  31.678  33.221  1.00  0.00     0.049 A 
ATOM     44  H   UNL A   1      39.855  30.537  31.745  1.00  0.00     0.167 HD
ATOM     45  C   UNL A   1      41.262  27.614  28.811  1.00  0.00     0.034 A 
ATOM     46  C   UNL A   1      39.581  31.470  34.379  1.00  0.00     0.034 A 
ATOM     47  C   UNL A   1      42.164  27.502  29.924  1.00  0.00     0.049 A 
ATOM     48  C   UNL A   1      40.744  30.516  34.398  1.00  0.00     0.074 A 
ATOM     49  C   UNL A   1      43.319  26.744  30.016  1.00  0.00     0.029 A 
ATOM     50  N   UNL A   1      42.013  28.152  31.136  1.00  0.00    -0.354 N 
ATOM     51  N   UNL A   1      41.248  29.811  33.415  1.00  0.00    -0.248 NA
ATOM     52  C   UNL A   1      41.446  30.345  35.680  1.00  0.00     0.031 C 
ATOM     53  C   UNL A   1      43.851  26.916  31.297  1.00  0.00     0.029 A 
ATOM     54  C   UNL A   1      43.037  27.794  31.994  1.00  0.00     0.049 A 
ATOM     55  H   UNL A   1      41.284  28.778  31.354  1.00  0.00     0.167 HD
ATOM     56  C   UNL A   1      42.338  29.135  33.952  1.00  0.00     0.074 A 
ATOM     57  C   UNL A   1      42.441  29.538  35.338  1.00  0.00     0.031 C 
ATOM     58  C   UNL A   1      43.165  28.243  33.354  1.00  0.00     0.034 A 
BRANCH  45  59
ATOM     59  C   UNL A   1      41.504  26.717  27.627  1.00  0.00     0.023 A 
ATOM     60  C   UNL A   1      42.215  27.208  26.515  1.00  0.00     0.012 A 
ATOM     61  C   UNL A   1      41.123  25.360  27.663  1.00  0.00     0.148 A 
ATOM     62  C   UNL A   1      42.526  26.368  25.445  1.00  0.00     0.002 A 
ATOM     63  C   UNL A   1      41.472  24.521  26.613  1.00  0.00     0.091 A 
ATOM     64  F   UNL A   1      40.432  24.920  28.724  1.00  0.00    -0.205 F 
ATOM     65  C   UNL A   1      42.166  25.024  25.501  1.00  0.00     0.022 A 
BRANCH  63  66
ATOM     66  S   UNL A   1      41.126  22.757  26.621  1.00  0.00     0.127 S 
ATOM     67  O   UNL A   1      41.900  22.301  25.467  1.00  0.00    -0.237 OA
ATOM     68  O   UNL A   1      41.663  22.345  27.917  1.00  0.00    -0.237 OA
ATOM     69  O   UNL A   1      39.682  22.629  26.489  1.00  0.00    -0.744 OA
ENDBRANCH  63  66
ENDBRANCH  45  59
BRANCH  46  70
ATOM     70  C   UNL A   1      39.183  32.205  35.614  1.00  0.00     0.023 A 
ATOM     71  C   UNL A   1      39.560  33.554  35.765  1.00  0.00     0.012 A 
ATOM     72  C   UNL A   1      38.435  31.586  36.634  1.00  0.00     0.148 A 
ATOM     73  C   UNL A   1      39.234  34.260  36.925  1.00  0.00     0.002 A 
ATOM     74  C   UNL A   1      38.062  32.313  37.760  1.00  0.00     0.091 A 
ATOM     75  F   UNL A   1      38.098  30.296  36.485  1.00  0.00    -0.205 F 
ATOM     76  C   UNL A   1      38.476  33.643  37.917  1.00  0.00     0.022 A 
BRANCH  74  77
ATOM     77  S   UNL A   1      36.965  31.633  39.009  1.00  0.00     0.127 S 
ATOM     78  O   UNL A   1      35.823  32.539  38.933  1.00  0.00    -0.237 OA
ATOM     79  O   UNL A   1      36.717  30.283  38.500  1.00  0.00    -0.237 OA
ATOM     80  O   UNL A   1      37.728  31.665  40.251  1.00  0.00    -0.744 OA
ENDBRANCH  74  77
ENDBRANCH  46  70
BRANCH  58  81
ATOM     81  C   UNL A   1      44.270  27.646  34.182  1.00  0.00     0.023 A 
ATOM     82  C   UNL A   1      45.493  28.334  34.306  1.00  0.00     0.012 A 
ATOM     83  C   UNL A   1      44.064  26.460  34.913  1.00  0.00     0.148 A 
ATOM     84  C   UNL A   1      46.503  27.840  35.129  1.00  0.00     0.002 A 
ATOM     85  C   UNL A   1      45.057  25.998  35.769  1.00  0.00     0.091 A 
ATOM     86  F   UNL A   1      42.897  25.815  34.768  1.00  0.00    -0.205 F 
ATOM     87  C   UNL A   1      46.280  26.680  35.869  1.00  0.00     0.022 A 
BRANCH  85  88
ATOM     88  S   UNL A   1      44.828  24.570  36.834  1.00  0.00     0.127 S 
ATOM     89  O   UNL A   1      43.865  25.079  37.809  1.00  0.00    -0.237 OA
ATOM     90  O   UNL A   1      44.288  23.576  35.906  1.00  0.00    -0.237 OA
ATOM     91  O   UNL A   1      46.144  24.249  37.369  1.00  0.00    -0.744 OA
ENDBRANCH  85  88
ENDBRANCH  58  81
ENDBRANCH  32  33
ENDBRANCH  24  27
ENDBRANCH   1  23
TORSDOF 15
ENDMDL
MODEL 3
REMARK VINA RESULT:     -12.0      5.581     10.516
REMARK SMILES [NH3+][C@H](C(=O)NCCCNC(=O)c1ccc(-c2c3nc(c(-c4cccc(S(=O)(=O)[O-])c4F)c4ccc([nH]4)c(-c4cccc(S(=O)(=O)[O-])c4F)c4nc(c(-c5cccc(S(=O)(=O)[O-])c5F)c5ccc2[nH]5)C=C4)C=C3)cc1)c1cc2c(cc1Br)OCO2
REMARK SMILES IDX 8 1 7 2 6 3 5 4 3 5 4 6 2 8 1 9 75 13 76 14 80 15 77 16
REMARK SMILES IDX 79 17 81 18 78 19 84 20 82 21 83 22 9 23 10 24 11 26 12 27
REMARK SMILES IDX 13 28 74 29 14 30 73 31 15 32 16 33 17 34 67 35 18 36 72 37
REMARK SMILES IDX 66 38 68 39 19 40 71 41 65 42 64 43 20 45 52 46 32 47 51 48
REMARK SMILES IDX 33 49 36 50 50 51 69 52 34 53 35 54 49 56 70 57 37 58 21 59
REMARK SMILES IDX 22 60 30 61 23 62 25 63 31 64 24 65 26 66 27 67 28 68 29 69
REMARK SMILES IDX 53 70 54 71 62 72 55 73 57 74 63 75 56 76 58 77 59 78 60 79
REMARK SMILES IDX 61 80 38 81 39 82 47 83 40 84 42 85 48 86 41 87 43 88 44 89
REMARK SMILES IDX 45 90 46 91
REMARK H PARENT 5 7 1 10 1 11 1 12 9 25 68 44 36 55
REMARK Flexibility Score: inf
ROOT
ATOM      1  C   UNL A   1      36.560  21.667  25.436  1.00  0.00     0.118 C 
ENDROOT
BRANCH   1   2
ATOM      2  C   UNL A   1      36.197  22.219  24.066  1.00  0.00     0.042 C 
BRANCH   2   3
ATOM      3  C   UNL A   1      35.435  23.535  24.093  1.00  0.00     0.118 C 
BRANCH   3   4
ATOM      4  N   UNL A   1      34.706  23.850  22.876  1.00  0.00    -0.351 N 
ATOM      5  C   UNL A   1      33.366  23.926  22.634  1.00  0.00     0.283 C 
ATOM      6  O   UNL A   1      33.045  24.359  21.516  1.00  0.00    -0.268 OA
ATOM      7  H   UNL A   1      35.275  24.043  22.095  1.00  0.00     0.163 HD
BRANCH   5   8
ATOM      8  C   UNL A   1      32.246  23.372  23.577  1.00  0.00     0.303 C 
BRANCH   8   9
ATOM      9  N   UNL A   1      30.948  23.768  22.967  1.00  0.00    -0.343 N 
ATOM     10  H   UNL A   1      30.198  23.634  23.646  1.00  0.00     0.345 HD
ATOM     11  H   UNL A   1      30.769  23.192  22.145  1.00  0.00     0.345 HD
ATOM     12  H   UNL A   1      30.986  24.750  22.693  1.00  0.00     0.345 HD
ENDBRANCH   8   9
BRANCH   8  13
ATOM     13  C   UNL A   1      32.314  21.902  23.965  1.00  0.00     0.037 A 
ATOM     14  C   UNL A   1      32.121  20.898  22.989  1.00  0.00     0.062 A 
ATOM     15  C   UNL A   1      32.681  21.495  25.278  1.00  0.00     0.031 A 
ATOM     16  C   UNL A   1      32.433  19.592  23.303  1.00  0.00     0.166 A 
ATOM     17  C   UNL A   1      32.997  20.159  25.564  1.00  0.00     0.066 A 
ATOM     18  Br  UNL A   1      32.856  22.737  26.710  1.00  0.00    -0.050 Br
ATOM     19  C   UNL A   1      32.890  19.238  24.546  1.00  0.00     0.166 A 
ATOM     20  O   UNL A   1      32.390  18.544  22.443  1.00  0.00    -0.454 OA
ATOM     21  O   UNL A   1      33.220  17.922  24.617  1.00  0.00    -0.454 OA
ATOM     22  C   UNL A   1      32.948  17.495  23.261  1.00  0.00     0.468 C 
ENDBRANCH   8  13
ENDBRANCH   5   8
ENDBRANCH   3   4
ENDBRANCH   2   3
ENDBRANCH   1   2
BRANCH   1  23
ATOM     23  N   UNL A   1      37.717  20.777  25.441  1.00  0.00    -0.352 N 
ATOM     24  C   UNL A   1      39.009  20.933  25.901  1.00  0.00     0.251 C 
ATOM     25  H   UNL A   1      37.542  19.897  25.036  1.00  0.00     0.163 HD
ATOM     26  O   UNL A   1      39.821  20.039  25.705  1.00  0.00    -0.269 OA
BRANCH  24  27
ATOM     27  C   UNL A   1      39.443  22.182  26.575  1.00  0.00     0.039 A 
ATOM     28  C   UNL A   1      40.394  22.100  27.599  1.00  0.00     0.014 A 
ATOM     29  C   UNL A   1      38.939  23.427  26.214  1.00  0.00     0.014 A 
ATOM     30  C   UNL A   1      40.933  23.269  28.152  1.00  0.00     0.010 A 
ATOM     31  C   UNL A   1      39.557  24.586  26.674  1.00  0.00     0.010 A 
ATOM     32  C   UNL A   1      40.577  24.524  27.634  1.00  0.00    -0.014 A 
BRANCH  32  33
ATOM     33  C   UNL A   1      41.288  25.777  28.016  1.00  0.00     0.031 A 
ATOM     34  C   UNL A   1      40.562  26.873  28.755  1.00  0.00     0.074 A 
ATOM     35  C   UNL A   1      42.538  25.997  27.553  1.00  0.00     0.049 A 
ATOM     36  N   UNL A   1      40.952  28.095  29.007  1.00  0.00    -0.248 NA
ATOM     37  C   UNL A   1      39.201  26.572  29.234  1.00  0.00     0.031 C 
ATOM     38  C   UNL A   1      43.322  25.060  26.743  1.00  0.00     0.029 A 
ATOM     39  N   UNL A   1      43.352  27.101  27.652  1.00  0.00    -0.354 N 
ATOM     40  C   UNL A   1      39.868  28.726  29.607  1.00  0.00     0.074 A 
ATOM     41  C   UNL A   1      38.797  27.757  29.671  1.00  0.00     0.031 C 
ATOM     42  C   UNL A   1      44.494  25.626  26.416  1.00  0.00     0.029 A 
ATOM     43  C   UNL A   1      44.532  26.983  26.949  1.00  0.00     0.049 A 
ATOM     44  H   UNL A   1      43.116  27.900  28.176  1.00  0.00     0.167 HD
ATOM     45  C   UNL A   1      39.780  29.991  30.082  1.00  0.00     0.034 A 
ATOM     46  C   UNL A   1      45.522  27.872  26.730  1.00  0.00     0.034 A 
ATOM     47  C   UNL A   1      40.875  30.922  30.103  1.00  0.00     0.049 A 
ATOM     48  C   UNL A   1      45.418  29.248  27.331  1.00  0.00     0.074 A 
ATOM     49  C   UNL A   1      40.932  32.163  30.713  1.00  0.00     0.029 A 
ATOM     50  N   UNL A   1      42.095  30.723  29.482  1.00  0.00    -0.354 N 
ATOM     51  N   UNL A   1      44.463  29.752  28.074  1.00  0.00    -0.248 NA
ATOM     52  C   UNL A   1      46.537  30.170  27.084  1.00  0.00     0.031 C 
ATOM     53  C   UNL A   1      42.181  32.726  30.437  1.00  0.00     0.029 A 
ATOM     54  C   UNL A   1      42.905  31.829  29.670  1.00  0.00     0.049 A 
ATOM     55  H   UNL A   1      42.350  29.914  28.981  1.00  0.00     0.167 HD
ATOM     56  C   UNL A   1      44.878  31.037  28.404  1.00  0.00     0.074 A 
ATOM     57  C   UNL A   1      46.182  31.224  27.807  1.00  0.00     0.031 C 
ATOM     58  C   UNL A   1      44.225  31.985  29.120  1.00  0.00     0.034 A 
BRANCH  45  59
ATOM     59  C   UNL A   1      38.475  30.440  30.684  1.00  0.00     0.023 A 
ATOM     60  C   UNL A   1      38.243  30.254  32.061  1.00  0.00     0.012 A 
ATOM     61  C   UNL A   1      37.529  31.141  29.909  1.00  0.00     0.148 A 
ATOM     62  C   UNL A   1      37.078  30.741  32.655  1.00  0.00     0.002 A 
ATOM     63  C   UNL A   1      36.392  31.658  30.515  1.00  0.00     0.091 A 
ATOM     64  F   UNL A   1      37.764  31.290  28.597  1.00  0.00    -0.205 F 
ATOM     65  C   UNL A   1      36.161  31.453  31.886  1.00  0.00     0.022 A 
BRANCH  63  66
ATOM     66  S   UNL A   1      35.187  32.657  29.633  1.00  0.00     0.127 S 
ATOM     67  O   UNL A   1      34.239  32.982  30.698  1.00  0.00    -0.237 OA
ATOM     68  O   UNL A   1      35.999  33.784  29.175  1.00  0.00    -0.237 OA
ATOM     69  O   UNL A   1      34.661  31.811  28.572  1.00  0.00    -0.744 OA
ENDBRANCH  63  66
ENDBRANCH  45  59
BRANCH  46  70
ATOM     70  C   UNL A   1      46.720  27.483  25.932  1.00  0.00     0.023 A 
ATOM     71  C   UNL A   1      46.748  27.761  24.551  1.00  0.00     0.012 A 
ATOM     72  C   UNL A   1      47.829  26.848  26.524  1.00  0.00     0.148 A 
ATOM     73  C   UNL A   1      47.839  27.379  23.769  1.00  0.00     0.002 A 
ATOM     74  C   UNL A   1      48.938  26.524  25.750  1.00  0.00     0.091 A 
ATOM     75  F   UNL A   1      47.781  26.573  27.836  1.00  0.00    -0.205 F 
ATOM     76  C   UNL A   1      48.939  26.770  24.370  1.00  0.00     0.022 A 
BRANCH  74  77
ATOM     77  S   UNL A   1      50.447  25.873  26.477  1.00  0.00     0.127 S 
ATOM     78  O   UNL A   1      51.315  25.750  25.311  1.00  0.00    -0.237 OA
ATOM     79  O   UNL A   1      50.819  26.934  27.415  1.00  0.00    -0.237 OA
ATOM     80  O   UNL A   1      50.056  24.626  27.122  1.00  0.00    -0.744 OA
ENDBRANCH  74  77
ENDBRANCH  46  70
BRANCH  58  81
ATOM     81  C   UNL A   1      44.908  33.310  29.318  1.00  0.00     0.023 A 
ATOM     82  C   UNL A   1      45.729  33.506  30.445  1.00  0.00     0.012 A 
ATOM     83  C   UNL A   1      44.816  34.323  28.342  1.00  0.00     0.148 A 
ATOM     84  C   UNL A   1      46.434  34.697  30.610  1.00  0.00     0.002 A 
ATOM     85  C   UNL A   1      45.558  35.489  28.489  1.00  0.00     0.091 A 
ATOM     86  F   UNL A   1      44.016  34.120  27.285  1.00  0.00    -0.205 F 
ATOM     87  C   UNL A   1      46.358  35.682  29.627  1.00  0.00     0.022 A 
BRANCH  85  88
ATOM     88  S   UNL A   1      45.601  36.771  27.232  1.00  0.00     0.127 S 
ATOM     89  O   UNL A   1      46.478  37.764  27.851  1.00  0.00    -0.237 OA
ATOM     90  O   UNL A   1      46.186  36.066  26.092  1.00  0.00    -0.237 OA
ATOM     91  O   UNL A   1      44.220  37.195  27.040  1.00  0.00    -0.744 OA
ENDBRANCH  85  88
ENDBRANCH  58  81
ENDBRANCH  32  33
ENDBRANCH  24  27
ENDBRANCH   1  23
TORSDOF 15
ENDMDL
