MODEL 1
REMARK VINA RESULT:     -13.0      0.000      0.000
REMARK SMILES O=C(NCCCNC(=O)c1ccc2c(c1)C(=O)O[C@H]2c1ccc(F)cc1)c1ccc(-c2c3nc(c(-c4cccc(S(=O)(=O)[O-])c4F)c4ccc([nH]4)c(-c4cccc(S(=O)(=O)[O-])c4F)c4nc(c(-c5cccc(S(=O)(=O)[O-])c5F)c5ccc2[nH]5)C=C4)C=C3)cc1
REMARK SMILES IDX 4 1 3 2 1 3 2 4 27 6 28 7 89 8 29 9 88 10 30 11 31 12 32 13
REMARK SMILES IDX 82 14 33 15 87 16 81 17 83 18 34 19 86 20 80 21 79 22 35 24
REMARK SMILES IDX 67 25 47 26 66 27 48 28 51 29 65 30 84 31 49 32 50 33 64 35
REMARK SMILES IDX 85 36 52 37 36 38 37 39 45 40 38 41 40 42 46 43 39 44 41 45
REMARK SMILES IDX 42 46 43 47 44 48 68 49 69 50 77 51 70 52 72 53 78 54 71 55
REMARK SMILES IDX 73 56 74 57 75 58 76 59 53 60 54 61 62 62 55 63 57 64 63 65
REMARK SMILES IDX 56 66 58 67 59 68 60 69 61 70 5 71 6 72 7 73 8 74 9 76 10 77
REMARK SMILES IDX 11 78 15 79 12 80 14 81 13 82 16 83 19 84 17 85 18 86 20 87
REMARK SMILES IDX 21 88 26 89 22 90 25 91 23 92 24 93
REMARK H PARENT 3 5 83 23 51 34 7 75
REMARK Flexibility Score: inf
ROOT
ATOM      1  C   UNL A   1      37.246  22.078  25.373  1.00  0.00     0.118 C 
ENDROOT
BRANCH   1   2
ATOM      2  N   UNL A   1      38.182  21.029  25.758  1.00  0.00    -0.352 N 
ATOM      3  O   UNL A   1      40.151  20.107  26.329  1.00  0.00    -0.269 OA
ATOM      4  C   UNL A   1      39.458  21.117  26.263  1.00  0.00     0.251 C 
ATOM      5  H   UNL A   1      37.847  20.110  25.637  1.00  0.00     0.163 HD
BRANCH   4   6
ATOM      6  C   UNL A   1      39.992  22.426  26.697  1.00  0.00     0.039 A 
ATOM      7  C   UNL A   1      39.539  23.604  26.106  1.00  0.00     0.014 A 
ATOM      8  C   UNL A   1      40.952  22.478  27.712  1.00  0.00     0.014 A 
ATOM      9  C   UNL A   1      40.172  24.806  26.387  1.00  0.00     0.010 A 
ATOM     10  C   UNL A   1      41.501  23.709  28.083  1.00  0.00     0.010 A 
ATOM     11  C   UNL A   1      41.140  24.880  27.399  1.00  0.00    -0.014 A 
BRANCH  11  12
ATOM     12  C   UNL A   1      41.679  26.209  27.780  1.00  0.00     0.031 A 
ATOM     13  C   UNL A   1      43.088  26.613  27.448  1.00  0.00     0.074 A 
ATOM     14  C   UNL A   1      40.865  27.063  28.432  1.00  0.00     0.049 A 
ATOM     15  N   UNL A   1      43.692  27.746  27.698  1.00  0.00    -0.248 NA
ATOM     16  C   UNL A   1      43.932  25.628  26.754  1.00  0.00     0.031 C 
ATOM     17  C   UNL A   1      39.488  26.764  28.839  1.00  0.00     0.029 A 
ATOM     18  N   UNL A   1      41.064  28.349  28.865  1.00  0.00    -0.354 N 
ATOM     19  C   UNL A   1      44.992  27.600  27.233  1.00  0.00     0.074 A 
ATOM     20  C   UNL A   1      45.094  26.264  26.687  1.00  0.00     0.031 C 
ATOM     21  C   UNL A   1      38.957  27.842  29.428  1.00  0.00     0.029 A 
ATOM     22  C   UNL A   1      39.974  28.883  29.511  1.00  0.00     0.049 A 
ATOM     23  H   UNL A   1      41.905  28.842  28.727  1.00  0.00     0.167 HD
ATOM     24  C   UNL A   1      46.002  28.503  27.252  1.00  0.00     0.034 A 
ATOM     25  C   UNL A   1      39.810  30.066  30.132  1.00  0.00     0.034 A 
ATOM     26  C   UNL A   1      45.878  29.839  27.774  1.00  0.00     0.049 A 
ATOM     27  C   UNL A   1      40.946  31.045  30.135  1.00  0.00     0.074 A 
ATOM     28  C   UNL A   1      46.827  30.848  27.774  1.00  0.00     0.029 A 
ATOM     29  N   UNL A   1      44.753  30.351  28.400  1.00  0.00    -0.354 N 
ATOM     30  N   UNL A   1      42.130  30.930  29.587  1.00  0.00    -0.248 NA
ATOM     31  C   UNL A   1      40.720  32.326  30.817  1.00  0.00     0.031 C 
ATOM     32  C   UNL A   1      46.291  31.952  28.440  1.00  0.00     0.029 A 
ATOM     33  C   UNL A   1      44.990  31.653  28.810  1.00  0.00     0.049 A 
ATOM     34  H   UNL A   1      43.909  29.862  28.535  1.00  0.00     0.167 HD
ATOM     35  C   UNL A   1      42.784  32.129  29.836  1.00  0.00     0.074 A 
ATOM     36  C   UNL A   1      41.854  32.967  30.565  1.00  0.00     0.031 C 
ATOM     37  C   UNL A   1      44.045  32.494  29.500  1.00  0.00     0.034 A 
BRANCH  24  38
ATOM     38  C   UNL A   1      47.334  28.102  26.670  1.00  0.00     0.023 A 
ATOM     39  C   UNL A   1      48.374  27.687  27.523  1.00  0.00     0.012 A 
ATOM     40  C   UNL A   1      47.512  28.022  25.274  1.00  0.00     0.148 A 
ATOM     41  C   UNL A   1      49.579  27.217  26.999  1.00  0.00     0.002 A 
ATOM     42  C   UNL A   1      48.695  27.507  24.758  1.00  0.00     0.091 A 
ATOM     43  F   UNL A   1      46.516  28.438  24.478  1.00  0.00    -0.205 F 
ATOM     44  C   UNL A   1      49.733  27.114  25.618  1.00  0.00     0.022 A 
BRANCH  42  45
ATOM     45  S   UNL A   1      48.959  27.247  23.000  1.00  0.00     0.127 S 
ATOM     46  O   UNL A   1      50.418  27.176  22.928  1.00  0.00    -0.237 OA
ATOM     47  O   UNL A   1      48.274  25.974  22.774  1.00  0.00    -0.237 OA
ATOM     48  O   UNL A   1      48.358  28.391  22.328  1.00  0.00    -0.744 OA
ENDBRANCH  42  45
ENDBRANCH  24  38
BRANCH  25  49
ATOM     49  C   UNL A   1      38.502  30.380  30.769  1.00  0.00     0.023 A 
ATOM     50  C   UNL A   1      38.274  30.012  32.108  1.00  0.00     0.012 A 
ATOM     51  C   UNL A   1      37.520  31.118  30.080  1.00  0.00     0.148 A 
ATOM     52  C   UNL A   1      37.083  30.363  32.746  1.00  0.00     0.002 A 
ATOM     53  C   UNL A   1      36.366  31.520  30.739  1.00  0.00     0.091 A 
ATOM     54  F   UNL A   1      37.756  31.451  28.802  1.00  0.00    -0.205 F 
ATOM     55  C   UNL A   1      36.138  31.128  32.068  1.00  0.00     0.022 A 
BRANCH  53  56
ATOM     56  S   UNL A   1      35.169  32.635  29.999  1.00  0.00     0.127 S 
ATOM     57  O   UNL A   1      34.647  31.825  28.901  1.00  0.00    -0.237 OA
ATOM     58  O   UNL A   1      34.236  32.849  31.105  1.00  0.00    -0.237 OA
ATOM     59  O   UNL A   1      35.920  33.819  29.605  1.00  0.00    -0.744 OA
ENDBRANCH  53  56
ENDBRANCH  25  49
BRANCH  37  60
ATOM     60  C   UNL A   1      44.505  33.875  29.887  1.00  0.00     0.023 A 
ATOM     61  C   UNL A   1      45.225  34.067  31.082  1.00  0.00     0.012 A 
ATOM     62  C   UNL A   1      44.322  34.960  29.007  1.00  0.00     0.148 A 
ATOM     63  C   UNL A   1      45.736  35.322  31.407  1.00  0.00     0.002 A 
ATOM     64  C   UNL A   1      44.883  36.194  29.309  1.00  0.00     0.091 A 
ATOM     65  F   UNL A   1      43.620  34.759  27.883  1.00  0.00    -0.205 F 
ATOM     66  C   UNL A   1      45.580  36.381  30.514  1.00  0.00     0.022 A 
BRANCH  64  67
ATOM     67  S   UNL A   1      44.827  37.585  28.173  1.00  0.00     0.127 S 
ATOM     68  O   UNL A   1      45.651  38.573  28.871  1.00  0.00    -0.237 OA
ATOM     69  O   UNL A   1      45.437  37.023  26.969  1.00  0.00    -0.237 OA
ATOM     70  O   UNL A   1      43.421  37.939  28.035  1.00  0.00    -0.744 OA
ENDBRANCH  64  67
ENDBRANCH  37  60
ENDBRANCH  11  12
ENDBRANCH   4   6
ENDBRANCH   1   2
BRANCH   1  71
ATOM     71  C   UNL A   1      36.072  21.546  24.570  1.00  0.00     0.042 C 
BRANCH  71  72
ATOM     72  C   UNL A   1      35.115  20.704  25.395  1.00  0.00     0.118 C 
BRANCH  72  73
ATOM     73  N   UNL A   1      34.196  19.933  24.565  1.00  0.00    -0.352 N 
ATOM     74  C   UNL A   1      32.922  20.231  24.154  1.00  0.00     0.251 C 
ATOM     75  H   UNL A   1      34.544  19.067  24.251  1.00  0.00     0.163 HD
ATOM     76  O   UNL A   1      32.223  19.386  23.607  1.00  0.00    -0.269 OA
BRANCH  74  77
ATOM     77  C   UNL A   1      32.380  21.581  24.395  1.00  0.00     0.040 A 
ATOM     78  C   UNL A   1      32.587  22.579  23.423  1.00  0.00     0.014 A 
ATOM     79  C   UNL A   1      31.670  21.854  25.565  1.00  0.00     0.030 A 
ATOM     80  C   UNL A   1      32.018  23.846  23.582  1.00  0.00     0.009 A 
ATOM     81  C   UNL A   1      31.081  23.096  25.665  1.00  0.00     0.068 A 
ATOM     82  C   UNL A   1      31.247  24.078  24.712  1.00  0.00     0.012 A 
ATOM     83  C   UNL A   1      30.209  23.590  26.717  1.00  0.00     0.339 C 
ATOM     84  C   UNL A   1      30.520  25.294  25.157  1.00  0.00     0.238 C 
ATOM     85  O   UNL A   1      29.839  22.968  27.695  1.00  0.00    -0.246 OA
ATOM     86  O   UNL A   1      29.884  24.872  26.388  1.00  0.00    -0.449 OA
BRANCH  84  87
ATOM     87  C   UNL A   1      31.420  26.474  25.445  1.00  0.00    -0.003 A 
ATOM     88  C   UNL A   1      32.667  26.302  26.078  1.00  0.00     0.011 A 
ATOM     89  C   UNL A   1      31.026  27.767  25.065  1.00  0.00     0.011 A 
ATOM     90  C   UNL A   1      33.504  27.391  26.307  1.00  0.00     0.039 A 
ATOM     91  C   UNL A   1      31.866  28.856  25.302  1.00  0.00     0.039 A 
ATOM     92  C   UNL A   1      33.096  28.659  25.915  1.00  0.00     0.123 A 
ATOM     93  F   UNL A   1      33.902  29.706  26.134  1.00  0.00    -0.207 F 
ENDBRANCH  84  87
ENDBRANCH  74  77
ENDBRANCH  72  73
ENDBRANCH  71  72
ENDBRANCH   1  71
TORSDOF 14
ENDMDL
MODEL 2
REMARK VINA RESULT:     -13.0      1.472      7.687
REMARK SMILES O=C(NCCCNC(=O)c1ccc2c(c1)C(=O)O[C@H]2c1ccc(F)cc1)c1ccc(-c2c3nc(c(-c4cccc(S(=O)(=O)[O-])c4F)c4ccc([nH]4)c(-c4cccc(S(=O)(=O)[O-])c4F)c4nc(c(-c5cccc(S(=O)(=O)[O-])c5F)c5ccc2[nH]5)C=C4)C=C3)cc1
REMARK SMILES IDX 4 1 3 2 1 3 2 4 27 6 28 7 89 8 29 9 88 10 30 11 31 12 32 13
REMARK SMILES IDX 82 14 33 15 87 16 81 17 83 18 34 19 86 20 80 21 79 22 35 24
REMARK SMILES IDX 67 25 47 26 66 27 48 28 51 29 65 30 84 31 49 32 50 33 64 35
REMARK SMILES IDX 85 36 52 37 36 38 37 39 45 40 38 41 40 42 46 43 39 44 41 45
REMARK SMILES IDX 42 46 43 47 44 48 68 49 69 50 77 51 70 52 72 53 78 54 71 55
REMARK SMILES IDX 73 56 74 57 75 58 76 59 53 60 54 61 62 62 55 63 57 64 63 65
REMARK SMILES IDX 56 66 58 67 59 68 60 69 61 70 5 71 6 72 7 73 8 74 9 76 10 77
REMARK SMILES IDX 11 78 15 79 12 80 14 81 13 82 16 83 19 84 17 85 18 86 20 87
REMARK SMILES IDX 21 88 26 89 22 90 25 91 23 92 24 93
REMARK H PARENT 3 5 83 23 51 34 7 75
REMARK Flexibility Score: inf
ROOT
ATOM      1  C   UNL A   1      38.476  20.258  25.482  1.00  0.00     0.118 C 
ENDROOT
BRANCH   1   2
ATOM      2  N   UNL A   1      39.563  19.354  25.835  1.00  0.00    -0.352 N 
ATOM      3  O   UNL A   1      41.671  18.714  26.285  1.00  0.00    -0.269 OA
ATOM      4  C   UNL A   1      40.851  19.626  26.232  1.00  0.00     0.251 C 
ATOM      5  H   UNL A   1      39.340  18.397  25.781  1.00  0.00     0.163 HD
BRANCH   4   6
ATOM      6  C   UNL A   1      41.246  21.012  26.564  1.00  0.00     0.039 A 
ATOM      7  C   UNL A   1      40.970  22.055  25.682  1.00  0.00     0.014 A 
ATOM      8  C   UNL A   1      41.894  21.273  27.775  1.00  0.00     0.014 A 
ATOM      9  C   UNL A   1      41.502  23.315  25.914  1.00  0.00     0.010 A 
ATOM     10  C   UNL A   1      42.319  22.573  28.066  1.00  0.00     0.010 A 
ATOM     11  C   UNL A   1      42.158  23.598  27.122  1.00  0.00    -0.014 A 
BRANCH  11  12
ATOM     12  C   UNL A   1      42.572  24.996  27.402  1.00  0.00     0.031 A 
ATOM     13  C   UNL A   1      41.648  25.972  28.072  1.00  0.00     0.074 A 
ATOM     14  C   UNL A   1      43.815  25.375  27.044  1.00  0.00     0.049 A 
ATOM     15  N   UNL A   1      41.876  27.219  28.399  1.00  0.00    -0.248 NA
ATOM     16  C   UNL A   1      40.298  25.503  28.418  1.00  0.00     0.031 C 
ATOM     17  C   UNL A   1      44.786  24.520  26.353  1.00  0.00     0.029 A 
ATOM     18  N   UNL A   1      44.480  26.562  27.209  1.00  0.00    -0.354 N 
ATOM     19  C   UNL A   1      40.693  27.695  28.949  1.00  0.00     0.074 A 
ATOM     20  C   UNL A   1      39.743  26.604  28.909  1.00  0.00     0.031 C 
ATOM     21  C   UNL A   1      45.929  25.197  26.185  1.00  0.00     0.029 A 
ATOM     22  C   UNL A   1      45.752  26.554  26.685  1.00  0.00     0.049 A 
ATOM     23  H   UNL A   1      44.086  27.345  27.658  1.00  0.00     0.167 HD
ATOM     24  C   UNL A   1      40.430  28.926  29.449  1.00  0.00     0.034 A 
ATOM     25  C   UNL A   1      46.670  27.533  26.586  1.00  0.00     0.034 A 
ATOM     26  C   UNL A   1      41.394  29.994  29.507  1.00  0.00     0.049 A 
ATOM     27  C   UNL A   1      46.351  28.885  27.150  1.00  0.00     0.074 A 
ATOM     28  C   UNL A   1      41.240  31.255  30.059  1.00  0.00     0.029 A 
ATOM     29  N   UNL A   1      42.677  29.942  28.987  1.00  0.00    -0.354 N 
ATOM     30  N   UNL A   1      45.266  29.280  27.771  1.00  0.00    -0.248 NA
ATOM     31  C   UNL A   1      47.385  29.920  27.026  1.00  0.00     0.031 C 
ATOM     32  C   UNL A   1      42.412  31.978  29.831  1.00  0.00     0.029 A 
ATOM     33  C   UNL A   1      43.319  31.154  29.185  1.00  0.00     0.049 A 
ATOM     34  H   UNL A   1      43.075  29.159  28.542  1.00  0.00     0.167 HD
ATOM     35  C   UNL A   1      45.494  30.601  28.132  1.00  0.00     0.074 A 
ATOM     36  C   UNL A   1      46.830  30.933  27.681  1.00  0.00     0.031 C 
ATOM     37  C   UNL A   1      44.664  31.462  28.768  1.00  0.00     0.034 A 
BRANCH  24  38
ATOM     38  C   UNL A   1      39.055  29.197  30.004  1.00  0.00     0.023 A 
ATOM     39  C   UNL A   1      38.741  28.801  31.319  1.00  0.00     0.012 A 
ATOM     40  C   UNL A   1      38.118  29.949  29.267  1.00  0.00     0.148 A 
ATOM     41  C   UNL A   1      37.509  29.132  31.885  1.00  0.00     0.002 A 
ATOM     42  C   UNL A   1      36.914  30.318  29.854  1.00  0.00     0.091 A 
ATOM     43  F   UNL A   1      38.430  30.302  28.011  1.00  0.00    -0.205 F 
ATOM     44  C   UNL A   1      36.603  29.902  31.159  1.00  0.00     0.022 A 
BRANCH  42  45
ATOM     45  S   UNL A   1      35.719  31.383  29.038  1.00  0.00     0.127 S 
ATOM     46  O   UNL A   1      35.058  30.445  28.132  1.00  0.00    -0.237 OA
ATOM     47  O   UNL A   1      34.894  31.831  30.161  1.00  0.00    -0.237 OA
ATOM     48  O   UNL A   1      36.491  32.434  28.391  1.00  0.00    -0.744 OA
ENDBRANCH  42  45
ENDBRANCH  24  38
BRANCH  25  49
ATOM     49  C   UNL A   1      47.983  27.239  25.948  1.00  0.00     0.023 A 
ATOM     50  C   UNL A   1      49.002  26.630  26.703  1.00  0.00     0.012 A 
ATOM     51  C   UNL A   1      48.191  27.480  24.576  1.00  0.00     0.148 A 
ATOM     52  C   UNL A   1      50.213  26.278  26.104  1.00  0.00     0.002 A 
ATOM     53  C   UNL A   1      49.372  27.069  23.972  1.00  0.00     0.091 A 
ATOM     54  F   UNL A   1      47.208  28.068  23.878  1.00  0.00    -0.205 F 
ATOM     55  C   UNL A   1      50.391  26.483  24.738  1.00  0.00     0.022 A 
BRANCH  53  56
ATOM     56  S   UNL A   1      49.626  27.149  22.196  1.00  0.00     0.127 S 
ATOM     57  O   UNL A   1      48.623  26.206  21.708  1.00  0.00    -0.237 OA
ATOM     58  O   UNL A   1      49.338  28.556  21.916  1.00  0.00    -0.237 OA
ATOM     59  O   UNL A   1      51.013  26.762  21.976  1.00  0.00    -0.744 OA
ENDBRANCH  53  56
ENDBRANCH  25  49
BRANCH  37  60
ATOM     60  C   UNL A   1      45.172  32.851  29.053  1.00  0.00     0.023 A 
ATOM     61  C   UNL A   1      45.876  33.111  30.244  1.00  0.00     0.012 A 
ATOM     62  C   UNL A   1      45.047  33.868  28.086  1.00  0.00     0.148 A 
ATOM     63  C   UNL A   1      46.431  34.368  30.478  1.00  0.00     0.002 A 
ATOM     64  C   UNL A   1      45.651  35.100  28.300  1.00  0.00     0.091 A 
ATOM     65  F   UNL A   1      44.358  33.604  26.967  1.00  0.00    -0.205 F 
ATOM     66  C   UNL A   1      46.333  35.357  29.501  1.00  0.00     0.022 A 
BRANCH  64  67
ATOM     67  S   UNL A   1      45.672  36.396  27.056  1.00  0.00     0.127 S 
ATOM     68  O   UNL A   1      44.255  36.751  26.972  1.00  0.00    -0.237 OA
ATOM     69  O   UNL A   1      46.519  37.410  27.682  1.00  0.00    -0.237 OA
ATOM     70  O   UNL A   1      46.231  35.793  25.853  1.00  0.00    -0.744 OA
ENDBRANCH  64  67
ENDBRANCH  37  60
ENDBRANCH  11  12
ENDBRANCH   4   6
ENDBRANCH   1   2
BRANCH   1  71
ATOM     71  C   UNL A   1      37.333  19.548  24.778  1.00  0.00     0.042 C 
BRANCH  71  72
ATOM     72  C   UNL A   1      35.984  20.206  25.013  1.00  0.00     0.118 C 
BRANCH  72  73
ATOM     73  N   UNL A   1      34.883  19.250  24.962  1.00  0.00    -0.352 N 
ATOM     74  C   UNL A   1      33.532  19.468  24.903  1.00  0.00     0.251 C 
ATOM     75  H   UNL A   1      35.153  18.303  24.971  1.00  0.00     0.163 HD
ATOM     76  O   UNL A   1      32.737  18.546  25.050  1.00  0.00    -0.269 OA
BRANCH  74  77
ATOM     77  C   UNL A   1      33.028  20.836  24.681  1.00  0.00     0.040 A 
ATOM     78  C   UNL A   1      32.991  21.341  23.367  1.00  0.00     0.014 A 
ATOM     79  C   UNL A   1      32.591  21.607  25.760  1.00  0.00     0.030 A 
ATOM     80  C   UNL A   1      32.444  22.603  23.112  1.00  0.00     0.009 A 
ATOM     81  C   UNL A   1      32.012  22.823  25.467  1.00  0.00     0.068 A 
ATOM     82  C   UNL A   1      31.940  23.324  24.185  1.00  0.00     0.012 A 
ATOM     83  C   UNL A   1      31.386  23.759  26.385  1.00  0.00     0.339 C 
ATOM     84  C   UNL A   1      31.304  24.665  24.239  1.00  0.00     0.238 C 
ATOM     85  O   UNL A   1      31.257  23.611  27.585  1.00  0.00    -0.246 OA
ATOM     86  O   UNL A   1      30.968  24.820  25.639  1.00  0.00    -0.449 OA
BRANCH  84  87
ATOM     87  C   UNL A   1      32.220  25.794  23.822  1.00  0.00    -0.003 A 
ATOM     88  C   UNL A   1      32.424  26.101  22.462  1.00  0.00     0.011 A 
ATOM     89  C   UNL A   1      32.869  26.568  24.796  1.00  0.00     0.011 A 
ATOM     90  C   UNL A   1      33.242  27.165  22.089  1.00  0.00     0.039 A 
ATOM     91  C   UNL A   1      33.691  27.630  24.418  1.00  0.00     0.039 A 
ATOM     92  C   UNL A   1      33.867  27.921  23.071  1.00  0.00     0.123 A 
ATOM     93  F   UNL A   1      34.651  28.946  22.713  1.00  0.00    -0.207 F 
ENDBRANCH  84  87
ENDBRANCH  74  77
ENDBRANCH  72  73
ENDBRANCH  71  72
ENDBRANCH   1  71
TORSDOF 14
ENDMDL
MODEL 3
REMARK VINA RESULT:     -12.9      5.593      8.651
REMARK SMILES O=C(NCCCNC(=O)c1ccc2c(c1)C(=O)O[C@H]2c1ccc(F)cc1)c1ccc(-c2c3nc(c(-c4cccc(S(=O)(=O)[O-])c4F)c4ccc([nH]4)c(-c4cccc(S(=O)(=O)[O-])c4F)c4nc(c(-c5cccc(S(=O)(=O)[O-])c5F)c5ccc2[nH]5)C=C4)C=C3)cc1
REMARK SMILES IDX 4 1 3 2 1 3 2 4 27 6 28 7 89 8 29 9 88 10 30 11 31 12 32 13
REMARK SMILES IDX 82 14 33 15 87 16 81 17 83 18 34 19 86 20 80 21 79 22 35 24
REMARK SMILES IDX 67 25 47 26 66 27 48 28 51 29 65 30 84 31 49 32 50 33 64 35
REMARK SMILES IDX 85 36 52 37 36 38 37 39 45 40 38 41 40 42 46 43 39 44 41 45
REMARK SMILES IDX 42 46 43 47 44 48 68 49 69 50 77 51 70 52 72 53 78 54 71 55
REMARK SMILES IDX 73 56 74 57 75 58 76 59 53 60 54 61 62 62 55 63 57 64 63 65
REMARK SMILES IDX 56 66 58 67 59 68 60 69 61 70 5 71 6 72 7 73 8 74 9 76 10 77
REMARK SMILES IDX 11 78 15 79 12 80 14 81 13 82 16 83 19 84 17 85 18 86 20 87
REMARK SMILES IDX 21 88 26 89 22 90 25 91 23 92 24 93
REMARK H PARENT 3 5 83 23 51 34 7 75
REMARK Flexibility Score: inf
ROOT
ATOM      1  C   UNL A   1      32.343  31.951  26.766  1.00  0.00     0.118 C 
ENDROOT
BRANCH   1   2
ATOM      2  N   UNL A   1      32.355  33.357  27.149  1.00  0.00    -0.352 N 
ATOM      3  O   UNL A   1      32.859  35.172  28.375  1.00  0.00    -0.269 OA
ATOM      4  C   UNL A   1      33.149  34.025  28.051  1.00  0.00     0.251 C 
ATOM      5  H   UNL A   1      31.689  33.918  26.689  1.00  0.00     0.163 HD
BRANCH   4   6
ATOM      6  C   UNL A   1      34.326  33.351  28.641  1.00  0.00     0.039 A 
ATOM      7  C   UNL A   1      34.163  32.396  29.643  1.00  0.00     0.014 A 
ATOM      8  C   UNL A   1      35.607  33.673  28.184  1.00  0.00     0.014 A 
ATOM      9  C   UNL A   1      35.272  31.905  30.317  1.00  0.00     0.010 A 
ATOM     10  C   UNL A   1      36.724  33.080  28.781  1.00  0.00     0.010 A 
ATOM     11  C   UNL A   1      36.567  32.217  29.876  1.00  0.00    -0.014 A 
BRANCH  11  12
ATOM     12  C   UNL A   1      37.724  31.548  30.521  1.00  0.00     0.031 A 
ATOM     13  C   UNL A   1      38.540  30.514  29.798  1.00  0.00     0.074 A 
ATOM     14  C   UNL A   1      38.039  31.897  31.784  1.00  0.00     0.049 A 
ATOM     15  N   UNL A   1      39.589  29.858  30.223  1.00  0.00    -0.248 NA
ATOM     16  C   UNL A   1      38.132  30.162  28.429  1.00  0.00     0.031 C 
ATOM     17  C   UNL A   1      37.294  32.864  32.597  1.00  0.00     0.029 A 
ATOM     18  N   UNL A   1      39.057  31.491  32.606  1.00  0.00    -0.354 N 
ATOM     19  C   UNL A   1      39.942  28.991  29.198  1.00  0.00     0.074 A 
ATOM     20  C   UNL A   1      38.992  29.198  28.127  1.00  0.00     0.031 C 
ATOM     21  C   UNL A   1      37.898  33.002  33.783  1.00  0.00     0.029 A 
ATOM     22  C   UNL A   1      39.026  32.082  33.848  1.00  0.00     0.049 A 
ATOM     23  H   UNL A   1      39.744  30.840  32.336  1.00  0.00     0.167 HD
ATOM     24  C   UNL A   1      40.971  28.111  29.155  1.00  0.00     0.034 A 
ATOM     25  C   UNL A   1      39.796  31.889  34.935  1.00  0.00     0.034 A 
ATOM     26  C   UNL A   1      41.925  27.934  30.218  1.00  0.00     0.049 A 
ATOM     27  C   UNL A   1      40.929  30.909  34.856  1.00  0.00     0.074 A 
ATOM     28  C   UNL A   1      43.042  27.115  30.237  1.00  0.00     0.029 A 
ATOM     29  N   UNL A   1      41.874  28.565  31.451  1.00  0.00    -0.354 N 
ATOM     30  N   UNL A   1      41.316  30.183  33.836  1.00  0.00    -0.248 NA
ATOM     31  C   UNL A   1      41.746  30.737  36.063  1.00  0.00     0.031 C 
ATOM     32  C   UNL A   1      43.637  27.216  31.496  1.00  0.00     0.029 A 
ATOM     33  C   UNL A   1      42.925  28.138  32.246  1.00  0.00     0.049 A 
ATOM     34  H   UNL A   1      41.191  29.220  31.722  1.00  0.00     0.167 HD
ATOM     35  C   UNL A   1      42.435  29.485  34.268  1.00  0.00     0.074 A 
ATOM     36  C   UNL A   1      42.678  29.893  35.637  1.00  0.00     0.031 C 
ATOM     37  C   UNL A   1      43.183  28.580  33.594  1.00  0.00     0.034 A 
BRANCH  24  38
ATOM     38  C   UNL A   1      41.152  27.278  27.910  1.00  0.00     0.023 A 
ATOM     39  C   UNL A   1      41.793  27.832  26.785  1.00  0.00     0.012 A 
ATOM     40  C   UNL A   1      40.795  25.915  27.901  1.00  0.00     0.148 A 
ATOM     41  C   UNL A   1      42.060  27.047  25.663  1.00  0.00     0.002 A 
ATOM     42  C   UNL A   1      41.107  25.127  26.799  1.00  0.00     0.091 A 
ATOM     43  F   UNL A   1      40.170  25.411  28.976  1.00  0.00    -0.205 F 
ATOM     44  C   UNL A   1      41.731  25.694  25.675  1.00  0.00     0.022 A 
BRANCH  42  45
ATOM     45  S   UNL A   1      40.809  23.356  26.752  1.00  0.00     0.127 S 
ATOM     46  O   UNL A   1      41.706  22.935  25.677  1.00  0.00    -0.237 OA
ATOM     47  O   UNL A   1      41.226  22.941  28.092  1.00  0.00    -0.237 OA
ATOM     48  O   UNL A   1      39.389  23.193  26.477  1.00  0.00    -0.744 OA
ENDBRANCH  42  45
ENDBRANCH  24  38
BRANCH  25  49
ATOM     49  C   UNL A   1      39.522  32.673  36.171  1.00  0.00     0.023 A 
ATOM     50  C   UNL A   1      40.063  33.964  36.311  1.00  0.00     0.012 A 
ATOM     51  C   UNL A   1      38.655  32.177  37.165  1.00  0.00     0.148 A 
ATOM     52  C   UNL A   1      39.756  34.744  37.427  1.00  0.00     0.002 A 
ATOM     53  C   UNL A   1      38.302  32.982  38.240  1.00  0.00     0.091 A 
ATOM     54  F   UNL A   1      38.156  30.941  37.013  1.00  0.00    -0.205 F 
ATOM     55  C   UNL A   1      38.866  34.260  38.382  1.00  0.00     0.022 A 
BRANCH  53  56
ATOM     56  S   UNL A   1      37.046  32.505  39.431  1.00  0.00     0.127 S 
ATOM     57  O   UNL A   1      37.244  33.496  40.486  1.00  0.00    -0.237 OA
ATOM     58  O   UNL A   1      35.818  32.670  38.653  1.00  0.00    -0.237 OA
ATOM     59  O   UNL A   1      37.348  31.128  39.797  1.00  0.00    -0.744 OA
ENDBRANCH  53  56
ENDBRANCH  25  49
BRANCH  37  60
ATOM     60  C   UNL A   1      44.366  27.974  34.303  1.00  0.00     0.023 A 
ATOM     61  C   UNL A   1      45.607  28.639  34.292  1.00  0.00     0.012 A 
ATOM     62  C   UNL A   1      44.214  26.804  35.072  1.00  0.00     0.148 A 
ATOM     63  C   UNL A   1      46.685  28.138  35.020  1.00  0.00     0.002 A 
ATOM     64  C   UNL A   1      45.275  26.341  35.840  1.00  0.00     0.091 A 
ATOM     65  F   UNL A   1      43.028  26.178  35.054  1.00  0.00    -0.205 F 
ATOM     66  C   UNL A   1      46.515  26.999  35.806  1.00  0.00     0.022 A 
BRANCH  64  67
ATOM     67  S   UNL A   1      45.119  24.949  36.965  1.00  0.00     0.127 S 
ATOM     68  O   UNL A   1      46.362  25.044  37.730  1.00  0.00    -0.237 OA
ATOM     69  O   UNL A   1      43.912  25.295  37.716  1.00  0.00    -0.237 OA
ATOM     70  O   UNL A   1      44.996  23.764  36.127  1.00  0.00    -0.744 OA
ENDBRANCH  64  67
ENDBRANCH  37  60
ENDBRANCH  11  12
ENDBRANCH   4   6
ENDBRANCH   1   2
BRANCH   1  71
ATOM     71  C   UNL A   1      31.032  31.534  26.121  1.00  0.00     0.042 C 
BRANCH  71  72
ATOM     72  C   UNL A   1      31.186  30.380  25.145  1.00  0.00     0.118 C 
BRANCH  72  73
ATOM     73  N   UNL A   1      30.277  30.490  24.009  1.00  0.00    -0.352 N 
ATOM     74  C   UNL A   1      29.945  29.562  23.056  1.00  0.00     0.251 C 
ATOM     75  H   UNL A   1      29.835  31.364  23.911  1.00  0.00     0.163 HD
ATOM     76  O   UNL A   1      29.301  29.880  22.063  1.00  0.00    -0.269 OA
BRANCH  74  77
ATOM     77  C   UNL A   1      30.389  28.165  23.220  1.00  0.00     0.040 A 
ATOM     78  C   UNL A   1      29.737  27.352  24.168  1.00  0.00     0.014 A 
ATOM     79  C   UNL A   1      31.433  27.664  22.440  1.00  0.00     0.030 A 
ATOM     80  C   UNL A   1      30.079  26.002  24.291  1.00  0.00     0.009 A 
ATOM     81  C   UNL A   1      31.708  26.318  22.551  1.00  0.00     0.068 A 
ATOM     82  C   UNL A   1      31.062  25.498  23.453  1.00  0.00     0.012 A 
ATOM     83  C   UNL A   1      32.659  25.533  21.783  1.00  0.00     0.339 C 
ATOM     84  C   UNL A   1      31.634  24.133  23.339  1.00  0.00     0.238 C 
ATOM     85  O   UNL A   1      33.373  25.944  20.889  1.00  0.00    -0.246 OA
ATOM     86  O   UNL A   1      32.586  24.257  22.254  1.00  0.00    -0.449 OA
BRANCH  84  87
ATOM     87  C   UNL A   1      32.359  23.667  24.582  1.00  0.00    -0.003 A 
ATOM     88  C   UNL A   1      33.507  24.337  25.049  1.00  0.00     0.011 A 
ATOM     89  C   UNL A   1      31.881  22.561  25.301  1.00  0.00     0.011 A 
ATOM     90  C   UNL A   1      34.148  23.922  26.214  1.00  0.00     0.039 A 
ATOM     91  C   UNL A   1      32.529  22.145  26.465  1.00  0.00     0.039 A 
ATOM     92  C   UNL A   1      33.651  22.830  26.912  1.00  0.00     0.123 A 
ATOM     93  F   UNL A   1      34.265  22.431  28.034  1.00  0.00    -0.207 F 
ENDBRANCH  84  87
ENDBRANCH  74  77
ENDBRANCH  72  73
ENDBRANCH  71  72
ENDBRANCH   1  71
TORSDOF 14
ENDMDL
