MODEL 1
REMARK VINA RESULT:     -12.5      0.000      0.000
REMARK SMILES CCc1ccc2[nH]c(C(=O)c3cc(C)ccn3)c(CC(=O)NCCCNC(=O)c3ccc(-c4c5nc(c(-c6cccc(S(=O)(=O)[O-])c6F)c6ccc([nH]6)c(-c6cccc(S(=O)(=O)[O-])c6F)c6nc(c(-c7cccc(S(=O)(=O)[O-])c7F)c7ccc4[nH]7)C=C6)C=C5)cc3)c2c1
REMARK SMILES IDX 24 1 23 2 22 3 20 4 21 5 19 7 18 8 3 9 4 10 93 11 5 12 92 13
REMARK SMILES IDX 6 14 7 15 8 16 2 18 1 19 9 20 10 21 11 22 12 23 17 24 13 25
REMARK SMILES IDX 16 26 14 27 15 28 25 29 26 30 27 31 28 33 29 34 30 35 91 36
REMARK SMILES IDX 31 37 90 38 32 39 33 40 34 41 84 42 35 43 89 44 83 45 85 46
REMARK SMILES IDX 36 47 88 48 82 49 81 50 37 52 69 53 49 54 68 55 50 56 53 57
REMARK SMILES IDX 67 58 86 59 51 60 52 61 66 63 87 64 54 65 38 66 39 67 47 68
REMARK SMILES IDX 40 69 42 70 48 71 41 72 43 73 44 74 45 75 46 76 70 77 71 78
REMARK SMILES IDX 79 79 72 80 74 81 80 82 73 83 75 84 76 85 77 86 78 87 55 88
REMARK SMILES IDX 56 89 64 90 57 91 59 92 65 93 58 94 60 95 61 96 62 97 63 98
REMARK H PARENT 22 6 7 17 26 32 85 51 53 62
REMARK Flexibility Score: inf
ROOT
ATOM      1  C   UNL A   1      37.449  19.350  25.001  1.00  0.00     0.042 C 
ENDROOT
BRANCH   1   2
ATOM      2  C   UNL A   1      36.171  20.152  24.782  1.00  0.00     0.117 C 
BRANCH   2   3
ATOM      3  N   UNL A   1      35.845  21.026  25.891  1.00  0.00    -0.356 N 
ATOM      4  C   UNL A   1      35.094  22.167  25.908  1.00  0.00     0.224 C 
ATOM      5  O   UNL A   1      34.755  22.593  27.017  1.00  0.00    -0.275 OA
ATOM      6  H   UNL A   1      36.221  20.758  26.760  1.00  0.00     0.163 HD
BRANCH   4   7
ATOM      7  C   UNL A   1      34.579  22.802  24.620  1.00  0.00     0.138 C 
BRANCH   7   8
ATOM      8  C   UNL A   1      33.108  23.129  24.612  1.00  0.00    -0.002 A 
ATOM      9  C   UNL A   1      32.169  26.510  26.196  1.00  0.00    -0.048 A 
ATOM     10  C   UNL A   1      30.789  26.346  26.034  1.00  0.00     0.006 A 
ATOM     11  C   UNL A   1      33.037  25.505  25.735  1.00  0.00     0.014 A 
ATOM     12  C   UNL A   1      30.251  25.198  25.443  1.00  0.00     0.027 A 
ATOM     13  C   UNL A   1      32.521  24.332  25.136  1.00  0.00     0.004 A 
ATOM     14  C   UNL A   1      31.144  24.214  25.005  1.00  0.00     0.046 A 
ATOM     15  N   UNL A   1      30.896  23.003  24.409  1.00  0.00    -0.352 N 
ATOM     16  C   UNL A   1      32.074  22.372  24.058  1.00  0.00     0.093 A 
ATOM     17  H   UNL A   1      29.997  22.632  24.252  1.00  0.00     0.167 HD
BRANCH   9  18
ATOM     18  C   UNL A   1      32.732  27.758  26.833  1.00  0.00     0.032 C 
ATOM     19  C   UNL A   1      31.689  28.573  27.588  1.00  0.00     0.009 C 
ENDBRANCH   9  18
BRANCH  16  20
ATOM     20  C   UNL A   1      32.161  21.143  23.276  1.00  0.00     0.227 C 
ATOM     21  O   UNL A   1      31.870  21.080  22.081  1.00  0.00    -0.285 OA
BRANCH  20  22
ATOM     22  C   UNL A   1      32.541  19.879  23.960  1.00  0.00     0.113 A 
ATOM     23  C   UNL A   1      33.146  18.859  23.230  1.00  0.00     0.036 A 
ATOM     24  N   UNL A   1      32.265  19.804  25.285  1.00  0.00    -0.253 NA
ATOM     25  C   UNL A   1      33.483  17.679  23.895  1.00  0.00    -0.047 A 
ATOM     26  C   UNL A   1      32.617  18.661  25.907  1.00  0.00     0.112 A 
ATOM     27  C   UNL A   1      34.121  16.532  23.172  1.00  0.00     0.044 C 
ATOM     28  C   UNL A   1      33.215  17.586  25.264  1.00  0.00     0.023 A 
ENDBRANCH  20  22
ENDBRANCH  16  20
ENDBRANCH   7   8
ENDBRANCH   4   7
ENDBRANCH   2   3
ENDBRANCH   1   2
BRANCH   1  29
ATOM     29  C   UNL A   1      38.631  20.164  25.522  1.00  0.00     0.118 C 
BRANCH  29  30
ATOM     30  N   UNL A   1      39.729  19.332  25.999  1.00  0.00    -0.352 N 
ATOM     31  C   UNL A   1      40.979  19.672  26.451  1.00  0.00     0.251 C 
ATOM     32  H   UNL A   1      39.542  18.366  25.995  1.00  0.00     0.163 HD
ATOM     33  O   UNL A   1      41.800  18.780  26.653  1.00  0.00    -0.269 OA
BRANCH  31  34
ATOM     34  C   UNL A   1      41.358  21.086  26.685  1.00  0.00     0.039 A 
ATOM     35  C   UNL A   1      41.652  21.488  27.993  1.00  0.00     0.014 A 
ATOM     36  C   UNL A   1      41.377  22.026  25.652  1.00  0.00     0.014 A 
ATOM     37  C   UNL A   1      42.016  22.812  28.253  1.00  0.00     0.010 A 
ATOM     38  C   UNL A   1      41.807  23.329  25.901  1.00  0.00     0.010 A 
ATOM     39  C   UNL A   1      42.124  23.740  27.203  1.00  0.00    -0.014 A 
BRANCH  39  40
ATOM     40  C   UNL A   1      42.587  25.130  27.455  1.00  0.00     0.031 A 
ATOM     41  C   UNL A   1      41.673  26.141  28.096  1.00  0.00     0.074 A 
ATOM     42  C   UNL A   1      43.811  25.506  27.033  1.00  0.00     0.049 A 
ATOM     43  N   UNL A   1      41.900  27.400  28.368  1.00  0.00    -0.248 NA
ATOM     44  C   UNL A   1      40.318  25.687  28.452  1.00  0.00     0.031 C 
ATOM     45  C   UNL A   1      44.758  24.648  26.318  1.00  0.00     0.029 A 
ATOM     46  N   UNL A   1      44.459  26.712  27.123  1.00  0.00    -0.354 N 
ATOM     47  C   UNL A   1      40.713  27.898  28.893  1.00  0.00     0.074 A 
ATOM     48  C   UNL A   1      39.757  26.811  28.872  1.00  0.00     0.031 C 
ATOM     49  C   UNL A   1      45.866  25.353  26.040  1.00  0.00     0.029 A 
ATOM     50  C   UNL A   1      45.705  26.714  26.538  1.00  0.00     0.049 A 
ATOM     51  H   UNL A   1      44.070  27.502  27.563  1.00  0.00     0.167 HD
ATOM     52  C   UNL A   1      40.450  29.136  29.378  1.00  0.00     0.034 A 
ATOM     53  C   UNL A   1      46.617  27.699  26.423  1.00  0.00     0.034 A 
ATOM     54  C   UNL A   1      41.419  30.197  29.448  1.00  0.00     0.049 A 
ATOM     55  C   UNL A   1      46.331  29.039  27.044  1.00  0.00     0.074 A 
ATOM     56  C   UNL A   1      41.275  31.459  30.001  1.00  0.00     0.029 A 
ATOM     57  N   UNL A   1      42.711  30.125  28.953  1.00  0.00    -0.354 N 
ATOM     58  N   UNL A   1      45.260  29.437  27.687  1.00  0.00    -0.248 NA
ATOM     59  C   UNL A   1      47.395  30.051  26.965  1.00  0.00     0.031 C 
ATOM     60  C   UNL A   1      42.480  32.150  29.834  1.00  0.00     0.029 A 
ATOM     61  C   UNL A   1      43.377  31.314  29.188  1.00  0.00     0.049 A 
ATOM     62  H   UNL A   1      43.098  29.341  28.499  1.00  0.00     0.167 HD
ATOM     63  C   UNL A   1      45.536  30.729  28.123  1.00  0.00     0.074 A 
ATOM     64  C   UNL A   1      46.882  31.037  27.687  1.00  0.00     0.031 C 
ATOM     65  C   UNL A   1      44.740  31.586  28.806  1.00  0.00     0.034 A 
BRANCH  52  66
ATOM     66  C   UNL A   1      39.075  29.390  29.939  1.00  0.00     0.023 A 
ATOM     67  C   UNL A   1      38.784  28.985  31.258  1.00  0.00     0.012 A 
ATOM     68  C   UNL A   1      38.097  30.079  29.196  1.00  0.00     0.148 A 
ATOM     69  C   UNL A   1      37.531  29.232  31.817  1.00  0.00     0.002 A 
ATOM     70  C   UNL A   1      36.864  30.358  29.775  1.00  0.00     0.091 A 
ATOM     71  F   UNL A   1      38.384  30.436  27.936  1.00  0.00    -0.205 F 
ATOM     72  C   UNL A   1      36.575  29.927  31.081  1.00  0.00     0.022 A 
BRANCH  70  73
ATOM     73  S   UNL A   1      35.597  31.316  28.934  1.00  0.00     0.127 S 
ATOM     74  O   UNL A   1      34.852  30.271  28.235  1.00  0.00    -0.237 OA
ATOM     75  O   UNL A   1      34.880  31.932  30.052  1.00  0.00    -0.237 OA
ATOM     76  O   UNL A   1      36.309  32.257  28.082  1.00  0.00    -0.744 OA
ENDBRANCH  70  73
ENDBRANCH  52  66
BRANCH  53  77
ATOM     77  C   UNL A   1      47.929  27.418  25.773  1.00  0.00     0.023 A 
ATOM     78  C   UNL A   1      48.997  26.944  26.559  1.00  0.00     0.012 A 
ATOM     79  C   UNL A   1      48.113  27.574  24.386  1.00  0.00     0.148 A 
ATOM     80  C   UNL A   1      50.234  26.658  25.981  1.00  0.00     0.002 A 
ATOM     81  C   UNL A   1      49.332  27.236  23.808  1.00  0.00     0.091 A 
ATOM     82  F   UNL A   1      47.090  28.040  23.655  1.00  0.00    -0.205 F 
ATOM     83  C   UNL A   1      50.399  26.793  24.605  1.00  0.00     0.022 A 
BRANCH  81  84
ATOM     84  S   UNL A   1      49.581  27.251  22.028  1.00  0.00     0.127 S 
ATOM     85  O   UNL A   1      49.323  28.650  21.700  1.00  0.00    -0.237 OA
ATOM     86  O   UNL A   1      50.981  26.839  21.910  1.00  0.00    -0.237 OA
ATOM     87  O   UNL A   1      48.630  26.285  21.494  1.00  0.00    -0.744 OA
ENDBRANCH  81  84
ENDBRANCH  53  77
BRANCH  65  88
ATOM     88  C   UNL A   1      45.309  32.935  29.160  1.00  0.00     0.023 A 
ATOM     89  C   UNL A   1      45.968  33.113  30.392  1.00  0.00     0.012 A 
ATOM     90  C   UNL A   1      45.250  34.006  28.246  1.00  0.00     0.148 A 
ATOM     91  C   UNL A   1      46.532  34.344  30.723  1.00  0.00     0.002 A 
ATOM     92  C   UNL A   1      45.853  35.218  28.564  1.00  0.00     0.091 A 
ATOM     93  F   UNL A   1      44.599  33.826  27.087  1.00  0.00    -0.205 F 
ATOM     94  C   UNL A   1      46.484  35.392  29.806  1.00  0.00     0.022 A 
BRANCH  92  95
ATOM     95  S   UNL A   1      45.913  36.585  27.400  1.00  0.00     0.127 S 
ATOM     96  O   UNL A   1      44.507  36.978  27.328  1.00  0.00    -0.237 OA
ATOM     97  O   UNL A   1      46.780  37.545  28.085  1.00  0.00    -0.237 OA
ATOM     98  O   UNL A   1      46.480  36.033  26.176  1.00  0.00    -0.744 OA
ENDBRANCH  92  95
ENDBRANCH  65  88
ENDBRANCH  39  40
ENDBRANCH  31  34
ENDBRANCH  29  30
ENDBRANCH   1  29
TORSDOF 17
ENDMDL
MODEL 2
REMARK VINA RESULT:     -12.4      5.170     10.224
REMARK SMILES CCc1ccc2[nH]c(C(=O)c3cc(C)ccn3)c(CC(=O)NCCCNC(=O)c3ccc(-c4c5nc(c(-c6cccc(S(=O)(=O)[O-])c6F)c6ccc([nH]6)c(-c6cccc(S(=O)(=O)[O-])c6F)c6nc(c(-c7cccc(S(=O)(=O)[O-])c7F)c7ccc4[nH]7)C=C6)C=C5)cc3)c2c1
REMARK SMILES IDX 24 1 23 2 22 3 20 4 21 5 19 7 18 8 3 9 4 10 93 11 5 12 92 13
REMARK SMILES IDX 6 14 7 15 8 16 2 18 1 19 9 20 10 21 11 22 12 23 17 24 13 25
REMARK SMILES IDX 16 26 14 27 15 28 25 29 26 30 27 31 28 33 29 34 30 35 91 36
REMARK SMILES IDX 31 37 90 38 32 39 33 40 34 41 84 42 35 43 89 44 83 45 85 46
REMARK SMILES IDX 36 47 88 48 82 49 81 50 37 52 69 53 49 54 68 55 50 56 53 57
REMARK SMILES IDX 67 58 86 59 51 60 52 61 66 63 87 64 54 65 38 66 39 67 47 68
REMARK SMILES IDX 40 69 42 70 48 71 41 72 43 73 44 74 45 75 46 76 70 77 71 78
REMARK SMILES IDX 79 79 72 80 74 81 80 82 73 83 75 84 76 85 77 86 78 87 55 88
REMARK SMILES IDX 56 89 64 90 57 91 59 92 65 93 58 94 60 95 61 96 62 97 63 98
REMARK H PARENT 22 6 7 17 26 32 85 51 53 62
REMARK Flexibility Score: inf
ROOT
ATOM      1  C   UNL A   1      32.046  28.294  26.300  1.00  0.00     0.042 C 
ENDROOT
BRANCH   1   2
ATOM      2  C   UNL A   1      32.796  26.969  26.377  1.00  0.00     0.117 C 
BRANCH   2   3
ATOM      3  N   UNL A   1      31.964  25.861  26.801  1.00  0.00    -0.356 N 
ATOM      4  C   UNL A   1      32.151  24.518  26.636  1.00  0.00     0.224 C 
ATOM      5  O   UNL A   1      31.431  23.770  27.304  1.00  0.00    -0.275 OA
ATOM      6  H   UNL A   1      31.140  26.114  27.276  1.00  0.00     0.163 HD
BRANCH   4   7
ATOM      7  C   UNL A   1      33.291  23.972  25.782  1.00  0.00     0.138 C 
BRANCH   7   8
ATOM      8  C   UNL A   1      32.881  23.429  24.438  1.00  0.00    -0.002 A 
ATOM      9  C   UNL A   1      32.449  19.607  24.273  1.00  0.00    -0.048 A 
ATOM     10  C   UNL A   1      32.158  19.572  22.905  1.00  0.00     0.006 A 
ATOM     11  C   UNL A   1      32.684  20.847  24.892  1.00  0.00     0.014 A 
ATOM     12  C   UNL A   1      32.117  20.738  22.134  1.00  0.00     0.027 A 
ATOM     13  C   UNL A   1      32.651  22.042  24.136  1.00  0.00     0.004 A 
ATOM     14  C   UNL A   1      32.365  21.953  22.780  1.00  0.00     0.046 A 
ATOM     15  N   UNL A   1      32.398  23.229  22.276  1.00  0.00    -0.352 N 
ATOM     16  C   UNL A   1      32.598  24.156  23.280  1.00  0.00     0.093 A 
ATOM     17  H   UNL A   1      32.292  23.454  21.322  1.00  0.00     0.167 HD
BRANCH   9  18
ATOM     18  C   UNL A   1      32.486  18.338  25.090  1.00  0.00     0.032 C 
ATOM     19  C   UNL A   1      33.534  17.341  24.610  1.00  0.00     0.009 C 
ENDBRANCH   9  18
BRANCH  16  20
ATOM     20  C   UNL A   1      32.535  25.603  23.105  1.00  0.00     0.227 C 
ATOM     21  O   UNL A   1      33.530  26.306  22.921  1.00  0.00    -0.285 OA
BRANCH  20  22
ATOM     22  C   UNL A   1      31.222  26.288  23.233  1.00  0.00     0.113 A 
ATOM     23  C   UNL A   1      31.037  27.534  22.640  1.00  0.00     0.036 A 
ATOM     24  N   UNL A   1      30.267  25.633  23.938  1.00  0.00    -0.253 NA
ATOM     25  C   UNL A   1      29.798  28.159  22.785  1.00  0.00    -0.047 A 
ATOM     26  C   UNL A   1      29.073  26.250  24.047  1.00  0.00     0.112 A 
ATOM     27  C   UNL A   1      29.531  29.508  22.190  1.00  0.00     0.044 C 
ATOM     28  C   UNL A   1      28.796  27.495  23.500  1.00  0.00     0.023 A 
ENDBRANCH  20  22
ENDBRANCH  16  20
ENDBRANCH   7   8
ENDBRANCH   4   7
ENDBRANCH   2   3
ENDBRANCH   1   2
BRANCH   1  29
ATOM     29  C   UNL A   1      32.791  29.407  25.567  1.00  0.00     0.118 C 
BRANCH  29  30
ATOM     30  N   UNL A   1      32.422  30.739  26.028  1.00  0.00    -0.352 N 
ATOM     31  C   UNL A   1      32.981  31.539  26.993  1.00  0.00     0.251 C 
ATOM     32  H   UNL A   1      31.642  31.129  25.572  1.00  0.00     0.163 HD
ATOM     33  O   UNL A   1      32.396  32.569  27.322  1.00  0.00    -0.269 OA
BRANCH  31  34
ATOM     34  C   UNL A   1      34.259  31.179  27.650  1.00  0.00     0.039 A 
ATOM     35  C   UNL A   1      35.247  32.165  27.769  1.00  0.00     0.014 A 
ATOM     36  C   UNL A   1      34.519  29.882  28.100  1.00  0.00     0.014 A 
ATOM     37  C   UNL A   1      36.465  31.864  28.385  1.00  0.00     0.010 A 
ATOM     38  C   UNL A   1      35.707  29.603  28.775  1.00  0.00     0.010 A 
ATOM     39  C   UNL A   1      36.696  30.586  28.920  1.00  0.00    -0.014 A 
BRANCH  39  40
ATOM     40  C   UNL A   1      37.954  30.276  29.647  1.00  0.00     0.031 A 
ATOM     41  C   UNL A   1      38.986  29.360  29.044  1.00  0.00     0.074 A 
ATOM     42  C   UNL A   1      38.135  30.760  30.892  1.00  0.00     0.049 A 
ATOM     43  N   UNL A   1      40.127  28.963  29.544  1.00  0.00    -0.248 NA
ATOM     44  C   UNL A   1      38.686  28.796  27.718  1.00  0.00     0.031 C 
ATOM     45  C   UNL A   1      37.171  31.585  31.626  1.00  0.00     0.029 A 
ATOM     46  N   UNL A   1      39.179  30.611  31.771  1.00  0.00    -0.354 N 
ATOM     47  C   UNL A   1      40.665  28.078  28.618  1.00  0.00     0.074 A 
ATOM     48  C   UNL A   1      39.709  27.973  27.535  1.00  0.00     0.031 C 
ATOM     49  C   UNL A   1      37.672  31.872  32.838  1.00  0.00     0.029 A 
ATOM     50  C   UNL A   1      38.980  31.241  32.977  1.00  0.00     0.049 A 
ATOM     51  H   UNL A   1      39.994  30.102  31.558  1.00  0.00     0.167 HD
ATOM     52  C   UNL A   1      41.857  27.435  28.645  1.00  0.00     0.034 A 
ATOM     53  C   UNL A   1      39.764  31.310  34.071  1.00  0.00     0.034 A 
ATOM     54  C   UNL A   1      42.830  27.585  29.695  1.00  0.00     0.049 A 
ATOM     55  C   UNL A   1      41.119  30.657  34.041  1.00  0.00     0.074 A 
ATOM     56  C   UNL A   1      44.103  27.045  29.773  1.00  0.00     0.029 A 
ATOM     57  N   UNL A   1      42.641  28.328  30.850  1.00  0.00    -0.354 N 
ATOM     58  N   UNL A   1      41.678  29.961  33.081  1.00  0.00    -0.248 NA
ATOM     59  C   UNL A   1      41.970  30.835  35.227  1.00  0.00     0.031 C 
ATOM     60  C   UNL A   1      44.680  27.459  30.979  1.00  0.00     0.029 A 
ATOM     61  C   UNL A   1      43.772  28.266  31.645  1.00  0.00     0.049 A 
ATOM     62  H   UNL A   1      41.822  28.827  31.071  1.00  0.00     0.167 HD
ATOM     63  C   UNL A   1      42.958  29.653  33.529  1.00  0.00     0.074 A 
ATOM     64  C   UNL A   1      43.097  30.254  34.839  1.00  0.00     0.031 C 
ATOM     65  C   UNL A   1      43.922  28.923  32.918  1.00  0.00     0.034 A 
BRANCH  52  66
ATOM     66  C   UNL A   1      42.211  26.564  27.468  1.00  0.00     0.023 A 
ATOM     67  C   UNL A   1      42.901  27.128  26.376  1.00  0.00     0.012 A 
ATOM     68  C   UNL A   1      41.922  25.185  27.464  1.00  0.00     0.148 A 
ATOM     69  C   UNL A   1      43.270  26.343  25.284  1.00  0.00     0.002 A 
ATOM     70  C   UNL A   1      42.328  24.400  26.391  1.00  0.00     0.091 A 
ATOM     71  F   UNL A   1      41.245  24.670  28.501  1.00  0.00    -0.205 F 
ATOM     72  C   UNL A   1      42.993  24.979  25.296  1.00  0.00     0.022 A 
BRANCH  70  73
ATOM     73  S   UNL A   1      42.087  22.620  26.351  1.00  0.00     0.127 S 
ATOM     74  O   UNL A   1      40.629  22.519  26.384  1.00  0.00    -0.237 OA
ATOM     75  O   UNL A   1      42.694  22.253  25.071  1.00  0.00    -0.237 OA
ATOM     76  O   UNL A   1      42.780  22.097  27.519  1.00  0.00    -0.744 OA
ENDBRANCH  70  73
ENDBRANCH  52  66
BRANCH  53  77
ATOM     77  C   UNL A   1      39.323  32.112  35.248  1.00  0.00     0.023 A 
ATOM     78  C   UNL A   1      38.483  31.516  36.208  1.00  0.00     0.012 A 
ATOM     79  C   UNL A   1      39.761  33.435  35.443  1.00  0.00     0.148 A 
ATOM     80  C   UNL A   1      38.062  32.233  37.329  1.00  0.00     0.002 A 
ATOM     81  C   UNL A   1      39.382  34.127  36.589  1.00  0.00     0.091 A 
ATOM     82  F   UNL A   1      40.548  33.991  34.511  1.00  0.00    -0.205 F 
ATOM     83  C   UNL A   1      38.520  33.534  37.525  1.00  0.00     0.022 A 
BRANCH  81  84
ATOM     84  S   UNL A   1      40.037  35.752  36.983  1.00  0.00     0.127 S 
ATOM     85  O   UNL A   1      41.470  35.482  37.084  1.00  0.00    -0.237 OA
ATOM     86  O   UNL A   1      39.640  36.537  35.813  1.00  0.00    -0.237 OA
ATOM     87  O   UNL A   1      39.376  36.150  38.219  1.00  0.00    -0.744 OA
ENDBRANCH  81  84
ENDBRANCH  53  77
BRANCH  65  88
ATOM     88  C   UNL A   1      45.234  28.758  33.640  1.00  0.00     0.023 A 
ATOM     89  C   UNL A   1      46.266  29.694  33.434  1.00  0.00     0.012 A 
ATOM     90  C   UNL A   1      45.420  27.716  34.569  1.00  0.00     0.148 A 
ATOM     91  C   UNL A   1      47.475  29.577  34.119  1.00  0.00     0.002 A 
ATOM     92  C   UNL A   1      46.611  27.631  35.281  1.00  0.00     0.091 A 
ATOM     93  F   UNL A   1      44.435  26.820  34.736  1.00  0.00    -0.205 F 
ATOM     94  C   UNL A   1      47.644  28.553  35.049  1.00  0.00     0.022 A 
BRANCH  92  95
ATOM     95  S   UNL A   1      46.869  26.397  36.561  1.00  0.00     0.127 S 
ATOM     96  O   UNL A   1      46.872  25.158  35.786  1.00  0.00    -0.237 OA
ATOM     97  O   UNL A   1      48.173  26.776  37.108  1.00  0.00    -0.237 OA
ATOM     98  O   UNL A   1      45.759  26.559  37.491  1.00  0.00    -0.744 OA
ENDBRANCH  92  95
ENDBRANCH  65  88
ENDBRANCH  39  40
ENDBRANCH  31  34
ENDBRANCH  29  30
ENDBRANCH   1  29
TORSDOF 17
ENDMDL
MODEL 3
REMARK VINA RESULT:     -12.4      3.288      8.252
REMARK SMILES CCc1ccc2[nH]c(C(=O)c3cc(C)ccn3)c(CC(=O)NCCCNC(=O)c3ccc(-c4c5nc(c(-c6cccc(S(=O)(=O)[O-])c6F)c6ccc([nH]6)c(-c6cccc(S(=O)(=O)[O-])c6F)c6nc(c(-c7cccc(S(=O)(=O)[O-])c7F)c7ccc4[nH]7)C=C6)C=C5)cc3)c2c1
REMARK SMILES IDX 24 1 23 2 22 3 20 4 21 5 19 7 18 8 3 9 4 10 93 11 5 12 92 13
REMARK SMILES IDX 6 14 7 15 8 16 2 18 1 19 9 20 10 21 11 22 12 23 17 24 13 25
REMARK SMILES IDX 16 26 14 27 15 28 25 29 26 30 27 31 28 33 29 34 30 35 91 36
REMARK SMILES IDX 31 37 90 38 32 39 33 40 34 41 84 42 35 43 89 44 83 45 85 46
REMARK SMILES IDX 36 47 88 48 82 49 81 50 37 52 69 53 49 54 68 55 50 56 53 57
REMARK SMILES IDX 67 58 86 59 51 60 52 61 66 63 87 64 54 65 38 66 39 67 47 68
REMARK SMILES IDX 40 69 42 70 48 71 41 72 43 73 44 74 45 75 46 76 70 77 71 78
REMARK SMILES IDX 79 79 72 80 74 81 80 82 73 83 75 84 76 85 77 86 78 87 55 88
REMARK SMILES IDX 56 89 64 90 57 91 59 92 65 93 58 94 60 95 61 96 62 97 63 98
REMARK H PARENT 22 6 7 17 26 32 85 51 53 62
REMARK Flexibility Score: inf
ROOT
ATOM      1  C   UNL A   1      36.157  24.129  25.906  1.00  0.00     0.042 C 
ENDROOT
BRANCH   1   2
ATOM      2  C   UNL A   1      34.691  24.234  25.502  1.00  0.00     0.117 C 
BRANCH   2   3
ATOM      3  N   UNL A   1      34.482  25.005  24.293  1.00  0.00    -0.356 N 
ATOM      4  C   UNL A   1      33.699  26.105  24.086  1.00  0.00     0.224 C 
ATOM      5  O   UNL A   1      33.883  26.730  23.037  1.00  0.00    -0.275 OA
ATOM      6  H   UNL A   1      34.978  24.689  23.503  1.00  0.00     0.163 HD
BRANCH   4   7
ATOM      7  C   UNL A   1      32.748  26.619  25.162  1.00  0.00     0.138 C 
BRANCH   7   8
ATOM      8  C   UNL A   1      31.288  26.340  24.913  1.00  0.00    -0.002 A 
ATOM      9  C   UNL A   1      29.426  29.027  22.881  1.00  0.00    -0.048 A 
ATOM     10  C   UNL A   1      28.174  28.406  22.967  1.00  0.00     0.006 A 
ATOM     11  C   UNL A   1      30.539  28.410  23.477  1.00  0.00     0.014 A 
ATOM     12  C   UNL A   1      28.002  27.197  23.649  1.00  0.00     0.027 A 
ATOM     13  C   UNL A   1      30.393  27.189  24.175  1.00  0.00     0.004 A 
ATOM     14  C   UNL A   1      29.130  26.617  24.238  1.00  0.00     0.046 A 
ATOM     15  N   UNL A   1      29.246  25.458  24.964  1.00  0.00    -0.352 N 
ATOM     16  C   UNL A   1      30.564  25.208  25.291  1.00  0.00     0.093 A 
ATOM     17  H   UNL A   1      28.490  24.881  25.219  1.00  0.00     0.167 HD
BRANCH   9  18
ATOM     18  C   UNL A   1      29.594  30.331  22.138  1.00  0.00     0.032 C 
ATOM     19  C   UNL A   1      28.433  30.648  21.203  1.00  0.00     0.009 C 
ENDBRANCH   9  18
BRANCH  16  20
ATOM     20  C   UNL A   1      31.049  23.986  25.928  1.00  0.00     0.227 C 
ATOM     21  O   UNL A   1      31.144  23.852  27.148  1.00  0.00    -0.285 OA
BRANCH  20  22
ATOM     22  C   UNL A   1      31.532  22.872  25.072  1.00  0.00     0.113 A 
ATOM     23  C   UNL A   1      31.907  21.666  25.662  1.00  0.00     0.036 A 
ATOM     24  N   UNL A   1      31.576  23.110  23.739  1.00  0.00    -0.253 NA
ATOM     25  C   UNL A   1      32.367  20.640  24.836  1.00  0.00    -0.047 A 
ATOM     26  C   UNL A   1      32.006  22.095  22.961  1.00  0.00     0.112 A 
ATOM     27  C   UNL A   1      32.803  19.322  25.400  1.00  0.00     0.044 C 
ATOM     28  C   UNL A   1      32.409  20.863  23.456  1.00  0.00     0.023 A 
ENDBRANCH  20  22
ENDBRANCH  16  20
ENDBRANCH   7   8
ENDBRANCH   4   7
ENDBRANCH   2   3
ENDBRANCH   1   2
BRANCH   1  29
ATOM     29  C   UNL A   1      37.048  23.413  24.894  1.00  0.00     0.118 C 
BRANCH  29  30
ATOM     30  N   UNL A   1      37.962  22.461  25.514  1.00  0.00    -0.352 N 
ATOM     31  C   UNL A   1      39.095  22.665  26.260  1.00  0.00     0.251 C 
ATOM     32  H   UNL A   1      37.727  21.516  25.372  1.00  0.00     0.163 HD
ATOM     33  O   UNL A   1      39.799  21.698  26.547  1.00  0.00    -0.269 OA
BRANCH  31  34
ATOM     34  C   UNL A   1      39.489  24.020  26.713  1.00  0.00     0.039 A 
ATOM     35  C   UNL A   1      39.220  24.384  28.037  1.00  0.00     0.014 A 
ATOM     36  C   UNL A   1      40.069  24.948  25.844  1.00  0.00     0.014 A 
ATOM     37  C   UNL A   1      39.580  25.653  28.501  1.00  0.00     0.010 A 
ATOM     38  C   UNL A   1      40.490  26.187  26.327  1.00  0.00     0.010 A 
ATOM     39  C   UNL A   1      40.245  26.557  27.656  1.00  0.00    -0.014 A 
BRANCH  39  40
ATOM     40  C   UNL A   1      40.704  27.878  28.160  1.00  0.00     0.031 A 
ATOM     41  C   UNL A   1      42.171  28.215  28.213  1.00  0.00     0.074 A 
ATOM     42  C   UNL A   1      39.799  28.751  28.646  1.00  0.00     0.049 A 
ATOM     43  N   UNL A   1      42.750  29.305  28.643  1.00  0.00    -0.248 NA
ATOM     44  C   UNL A   1      43.111  27.181  27.748  1.00  0.00     0.031 C 
ATOM     45  C   UNL A   1      38.357  28.510  28.736  1.00  0.00     0.029 A 
ATOM     46  N   UNL A   1      39.958  30.006  29.178  1.00  0.00    -0.354 N 
ATOM     47  C   UNL A   1      44.117  29.081  28.535  1.00  0.00     0.074 A 
ATOM     48  C   UNL A   1      44.282  27.735  28.027  1.00  0.00     0.031 C 
ATOM     49  C   UNL A   1      37.765  29.584  29.283  1.00  0.00     0.029 A 
ATOM     50  C   UNL A   1      38.781  30.581  29.600  1.00  0.00     0.049 A 
ATOM     51  H   UNL A   1      40.832  30.454  29.251  1.00  0.00     0.167 HD
ATOM     52  C   UNL A   1      45.143  29.925  28.802  1.00  0.00     0.034 A 
ATOM     53  C   UNL A   1      38.546  31.778  30.171  1.00  0.00     0.034 A 
ATOM     54  C   UNL A   1      44.975  31.281  29.254  1.00  0.00     0.049 A 
ATOM     55  C   UNL A   1      39.694  32.728  30.379  1.00  0.00     0.074 A 
ATOM     56  C   UNL A   1      45.947  32.243  29.470  1.00  0.00     0.029 A 
ATOM     57  N   UNL A   1      43.757  31.869  29.559  1.00  0.00    -0.354 N 
ATOM     58  N   UNL A   1      40.965  32.556  30.112  1.00  0.00    -0.248 NA
ATOM     59  C   UNL A   1      39.370  34.055  30.925  1.00  0.00     0.031 C 
ATOM     60  C   UNL A   1      45.315  33.411  29.911  1.00  0.00     0.029 A 
ATOM     61  C   UNL A   1      43.950  33.180  29.957  1.00  0.00     0.049 A 
ATOM     62  H   UNL A   1      42.884  31.419  29.500  1.00  0.00     0.167 HD
ATOM     63  C   UNL A   1      41.586  33.762  30.418  1.00  0.00     0.074 A 
ATOM     64  C   UNL A   1      40.548  34.662  30.873  1.00  0.00     0.031 C 
ATOM     65  C   UNL A   1      42.900  34.087  30.346  1.00  0.00     0.034 A 
BRANCH  52  66
ATOM     66  C   UNL A   1      46.542  29.431  28.544  1.00  0.00     0.023 A 
ATOM     67  C   UNL A   1      47.150  29.700  27.301  1.00  0.00     0.012 A 
ATOM     68  C   UNL A   1      47.278  28.760  29.541  1.00  0.00     0.148 A 
ATOM     69  C   UNL A   1      48.455  29.282  27.041  1.00  0.00     0.002 A 
ATOM     70  C   UNL A   1      48.592  28.383  29.290  1.00  0.00     0.091 A 
ATOM     71  F   UNL A   1      46.676  28.492  30.709  1.00  0.00    -0.205 F 
ATOM     72  C   UNL A   1      49.179  28.634  28.038  1.00  0.00     0.022 A 
BRANCH  70  73
ATOM     73  S   UNL A   1      49.632  27.613  30.537  1.00  0.00     0.127 S 
ATOM     74  O   UNL A   1      48.935  26.347  30.762  1.00  0.00    -0.237 OA
ATOM     75  O   UNL A   1      50.913  27.487  29.840  1.00  0.00    -0.237 OA
ATOM     76  O   UNL A   1      49.646  28.531  31.666  1.00  0.00    -0.744 OA
ENDBRANCH  70  73
ENDBRANCH  52  66
BRANCH  53  77
ATOM     77  C   UNL A   1      37.147  32.181  30.493  1.00  0.00     0.023 A 
ATOM     78  C   UNL A   1      36.656  31.976  31.797  1.00  0.00     0.012 A 
ATOM     79  C   UNL A   1      36.321  32.800  29.536  1.00  0.00     0.148 A 
ATOM     80  C   UNL A   1      35.356  32.353  32.136  1.00  0.00     0.002 A 
ATOM     81  C   UNL A   1      35.045  33.223  29.895  1.00  0.00     0.091 A 
ATOM     82  F   UNL A   1      36.799  32.975  28.296  1.00  0.00    -0.205 F 
ATOM     83  C   UNL A   1      34.555  32.987  31.189  1.00  0.00     0.022 A 
BRANCH  81  84
ATOM     84  S   UNL A   1      34.003  34.168  28.778  1.00  0.00     0.127 S 
ATOM     85  O   UNL A   1      33.687  33.178  27.751  1.00  0.00    -0.237 OA
ATOM     86  O   UNL A   1      32.880  34.538  29.642  1.00  0.00    -0.237 OA
ATOM     87  O   UNL A   1      34.817  35.296  28.345  1.00  0.00    -0.744 OA
ENDBRANCH  81  84
ENDBRANCH  53  77
BRANCH  65  88
ATOM     88  C   UNL A   1      43.294  35.488  30.735  1.00  0.00     0.023 A 
ATOM     89  C   UNL A   1      43.669  35.763  32.064  1.00  0.00     0.012 A 
ATOM     90  C   UNL A   1      43.358  36.513  29.771  1.00  0.00     0.148 A 
ATOM     91  C   UNL A   1      44.070  37.046  32.436  1.00  0.00     0.002 A 
ATOM     92  C   UNL A   1      43.801  37.778  30.139  1.00  0.00     0.091 A 
ATOM     93  F   UNL A   1      42.976  36.238  28.515  1.00  0.00    -0.205 F 
ATOM     94  C   UNL A   1      44.147  38.050  31.472  1.00  0.00     0.022 A 
BRANCH  92  95
ATOM     95  S   UNL A   1      44.015  39.098  28.939  1.00  0.00     0.127 S 
ATOM     96  O   UNL A   1      44.546  40.176  29.772  1.00  0.00    -0.237 OA
ATOM     97  O   UNL A   1      44.980  38.521  28.003  1.00  0.00    -0.237 OA
ATOM     98  O   UNL A   1      42.694  39.329  28.371  1.00  0.00    -0.744 OA
ENDBRANCH  92  95
ENDBRANCH  65  88
ENDBRANCH  39  40
ENDBRANCH  31  34
ENDBRANCH  29  30
ENDBRANCH   1  29
TORSDOF 17
ENDMDL
