MODEL 1
REMARK VINA RESULT:     -11.2      0.000      0.000
REMARK SMILES CCC[C@H](c1ccccc1)[C@@](C)(O)C(=O)NCCCNC(=O)c1ccc(-c2c3nc(c(-c4cccc(S(=O)(=O)[O-])c4F)c4ccc([nH]4)c(-c4cccc(S(=O)(=O)[O-])c4F)c4nc(c(-c5cccc(S(=O)(=O)[O-])c5F)c5ccc2[nH]5)C=C4)C=C3)cc1
REMARK SMILES IDX 18 1 17 2 16 3 14 4 15 5 11 7 12 8 4 9 3 10 2 11 1 12 5 13
REMARK SMILES IDX 6 14 10 15 7 16 9 17 8 18 13 19 19 21 20 22 21 23 22 25
REMARK SMILES IDX 23 26 24 27 85 28 25 29 84 30 26 31 27 32 28 33 78 34 29 35
REMARK SMILES IDX 83 36 77 37 79 38 30 39 82 40 76 41 75 42 31 44 63 45 43 46
REMARK SMILES IDX 62 47 44 48 47 49 61 50 80 51 45 52 46 53 60 55 81 56 48 57
REMARK SMILES IDX 32 58 33 59 41 60 34 61 36 62 42 63 35 64 37 65 38 66 39 67
REMARK SMILES IDX 40 68 64 69 65 70 73 71 66 72 68 73 74 74 67 75 69 76 70 77
REMARK SMILES IDX 71 78 72 79 49 80 50 81 58 82 51 83 53 84 59 85 52 86 54 87
REMARK SMILES IDX 55 88 56 89 57 90
REMARK H PARENT 16 6 13 20 20 24 79 43 47 54
REMARK Flexibility Score: inf
ROOT
ATOM      1  C   UNL A   1      31.648  32.016  26.595  1.00  0.00     0.042 C 
ENDROOT
BRANCH   1   2
ATOM      2  C   UNL A   1      31.761  30.504  26.497  1.00  0.00     0.117 C 
BRANCH   2   3
ATOM      3  N   UNL A   1      32.070  30.065  25.150  1.00  0.00    -0.354 N 
ATOM      4  C   UNL A   1      32.620  28.906  24.699  1.00  0.00     0.252 C 
ATOM      5  O   UNL A   1      32.990  28.927  23.521  1.00  0.00    -0.272 OA
ATOM      6  H   UNL A   1      31.847  30.715  24.446  1.00  0.00     0.163 HD
BRANCH   4   7
ATOM      7  C   UNL A   1      32.742  27.642  25.608  1.00  0.00     0.147 C 
ATOM      8  C   UNL A   1      31.602  27.507  26.641  1.00  0.00     0.053 C 
BRANCH   7   9
ATOM      9  C   UNL A   1      32.847  26.313  24.754  1.00  0.00     0.060 C 
BRANCH   9  10
ATOM     10  C   UNL A   1      31.493  25.953  24.050  1.00  0.00     0.011 C 
BRANCH  10  11
ATOM     11  C   UNL A   1      31.604  25.304  22.658  1.00  0.00    -0.003 C 
ATOM     12  C   UNL A   1      32.840  25.710  21.867  1.00  0.00     0.004 C 
ENDBRANCH  10  11
ENDBRANCH   9  10
BRANCH   9  13
ATOM     13  C   UNL A   1      33.504  25.075  25.414  1.00  0.00    -0.042 A 
ATOM     14  C   UNL A   1      32.828  24.176  26.257  1.00  0.00     0.004 A 
ATOM     15  C   UNL A   1      34.876  24.837  25.210  1.00  0.00     0.004 A 
ATOM     16  C   UNL A   1      33.478  23.098  26.866  1.00  0.00     0.000 A 
ATOM     17  C   UNL A   1      35.526  23.744  25.799  1.00  0.00     0.000 A 
ATOM     18  C   UNL A   1      34.828  22.879  26.634  1.00  0.00     0.000 A 
ENDBRANCH   9  13
ENDBRANCH   7   9
BRANCH   7  19
ATOM     19  O   UNL A   1      33.945  27.827  26.379  1.00  0.00    -0.380 OA
ATOM     20  H   UNL A   1      34.211  28.759  26.344  1.00  0.00     0.212 HD
ENDBRANCH   7  19
ENDBRANCH   4   7
ENDBRANCH   2   3
ENDBRANCH   1   2
BRANCH   1  21
ATOM     21  C   UNL A   1      32.795  32.689  27.337  1.00  0.00     0.118 C 
BRANCH  21  22
ATOM     22  N   UNL A   1      32.525  34.083  27.669  1.00  0.00    -0.352 N 
ATOM     23  C   UNL A   1      33.071  34.882  28.643  1.00  0.00     0.251 C 
ATOM     24  H   UNL A   1      31.845  34.520  27.107  1.00  0.00     0.163 HD
ATOM     25  O   UNL A   1      32.576  35.984  28.874  1.00  0.00    -0.269 OA
BRANCH  23  26
ATOM     26  C   UNL A   1      34.232  34.409  29.427  1.00  0.00     0.039 A 
ATOM     27  C   UNL A   1      34.013  33.803  30.665  1.00  0.00     0.014 A 
ATOM     28  C   UNL A   1      35.532  34.557  28.940  1.00  0.00     0.014 A 
ATOM     29  C   UNL A   1      35.094  33.276  31.378  1.00  0.00     0.010 A 
ATOM     30  C   UNL A   1      36.591  33.945  29.600  1.00  0.00     0.010 A 
ATOM     31  C   UNL A   1      36.387  33.304  30.831  1.00  0.00    -0.014 A 
BRANCH  31  32
ATOM     32  C   UNL A   1      37.538  32.670  31.525  1.00  0.00     0.031 A 
ATOM     33  C   UNL A   1      38.251  31.501  30.894  1.00  0.00     0.074 A 
ATOM     34  C   UNL A   1      37.889  33.089  32.758  1.00  0.00     0.049 A 
ATOM     35  N   UNL A   1      39.223  30.771  31.375  1.00  0.00    -0.248 NA
ATOM     36  C   UNL A   1      37.795  31.081  29.556  1.00  0.00     0.031 C 
ATOM     37  C   UNL A   1      37.229  34.160  33.509  1.00  0.00     0.029 A 
ATOM     38  N   UNL A   1      38.872  32.647  33.609  1.00  0.00    -0.354 N 
ATOM     39  C   UNL A   1      39.473  29.792  30.420  1.00  0.00     0.074 A 
ATOM     40  C   UNL A   1      38.523  29.994  29.349  1.00  0.00     0.031 C 
ATOM     41  C   UNL A   1      37.827  34.296  34.703  1.00  0.00     0.029 A 
ATOM     42  C   UNL A   1      38.887  33.300  34.821  1.00  0.00     0.049 A 
ATOM     43  H   UNL A   1      39.505  31.931  33.375  1.00  0.00     0.167 HD
ATOM     44  C   UNL A   1      40.428  28.833  30.417  1.00  0.00     0.034 A 
ATOM     45  C   UNL A   1      39.660  33.109  35.908  1.00  0.00     0.034 A 
ATOM     46  C   UNL A   1      41.397  28.660  31.463  1.00  0.00     0.049 A 
ATOM     47  C   UNL A   1      40.727  32.047  35.866  1.00  0.00     0.074 A 
ATOM     48  C   UNL A   1      42.449  27.763  31.522  1.00  0.00     0.029 A 
ATOM     49  N   UNL A   1      41.434  29.395  32.638  1.00  0.00    -0.354 N 
ATOM     50  N   UNL A   1      41.040  31.228  34.891  1.00  0.00    -0.248 NA
ATOM     51  C   UNL A   1      41.572  31.906  37.062  1.00  0.00     0.031 C 
ATOM     52  C   UNL A   1      43.107  27.939  32.742  1.00  0.00     0.029 A 
ATOM     53  C   UNL A   1      42.487  28.970  33.428  1.00  0.00     0.049 A 
ATOM     54  H   UNL A   1      40.804  30.114  32.874  1.00  0.00     0.167 HD
ATOM     55  C   UNL A   1      42.143  30.509  35.338  1.00  0.00     0.074 A 
ATOM     56  C   UNL A   1      42.457  31.003  36.662  1.00  0.00     0.031 C 
ATOM     57  C   UNL A   1      42.826  29.517  34.716  1.00  0.00     0.034 A 
BRANCH  44  58
ATOM     58  C   UNL A   1      40.516  27.929  29.214  1.00  0.00     0.023 A 
ATOM     59  C   UNL A   1      39.617  26.848  29.093  1.00  0.00     0.012 A 
ATOM     60  C   UNL A   1      41.423  28.194  28.170  1.00  0.00     0.148 A 
ATOM     61  C   UNL A   1      39.638  26.029  27.966  1.00  0.00     0.002 A 
ATOM     62  C   UNL A   1      41.405  27.402  27.028  1.00  0.00     0.091 A 
ATOM     63  F   UNL A   1      42.278  29.216  28.311  1.00  0.00    -0.205 F 
ATOM     64  C   UNL A   1      40.523  26.313  26.929  1.00  0.00     0.022 A 
BRANCH  62  65
ATOM     65  S   UNL A   1      42.444  27.730  25.600  1.00  0.00     0.127 S 
ATOM     66  O   UNL A   1      43.773  27.789  26.209  1.00  0.00    -0.237 OA
ATOM     67  O   UNL A   1      42.206  26.547  24.771  1.00  0.00    -0.237 OA
ATOM     68  O   UNL A   1      41.967  28.982  25.031  1.00  0.00    -0.744 OA
ENDBRANCH  62  65
ENDBRANCH  44  58
BRANCH  45  69
ATOM     69  C   UNL A   1      39.495  33.968  37.117  1.00  0.00     0.023 A 
ATOM     70  C   UNL A   1      39.996  35.284  37.107  1.00  0.00     0.012 A 
ATOM     71  C   UNL A   1      38.861  33.487  38.279  1.00  0.00     0.148 A 
ATOM     72  C   UNL A   1      39.917  36.088  38.245  1.00  0.00     0.002 A 
ATOM     73  C   UNL A   1      38.732  34.313  39.390  1.00  0.00     0.091 A 
ATOM     74  F   UNL A   1      38.399  32.228  38.277  1.00  0.00    -0.205 F 
ATOM     75  C   UNL A   1      39.278  35.604  39.383  1.00  0.00     0.022 A 
BRANCH  73  76
ATOM     76  S   UNL A   1      37.811  33.818  40.850  1.00  0.00     0.127 S 
ATOM     77  O   UNL A   1      36.645  33.163  40.262  1.00  0.00    -0.237 OA
ATOM     78  O   UNL A   1      38.754  32.918  41.513  1.00  0.00    -0.237 OA
ATOM     79  O   UNL A   1      37.546  35.049  41.581  1.00  0.00    -0.744 OA
ENDBRANCH  73  76
ENDBRANCH  45  69
BRANCH  57  80
ATOM     80  C   UNL A   1      44.019  28.934  35.428  1.00  0.00     0.023 A 
ATOM     81  C   UNL A   1      45.292  29.512  35.263  1.00  0.00     0.012 A 
ATOM     82  C   UNL A   1      43.859  27.853  36.317  1.00  0.00     0.148 A 
ATOM     83  C   UNL A   1      46.396  28.999  35.944  1.00  0.00     0.002 A 
ATOM     84  C   UNL A   1      44.952  27.382  37.034  1.00  0.00     0.091 A 
ATOM     85  F   UNL A   1      42.641  27.306  36.448  1.00  0.00    -0.205 F 
ATOM     86  C   UNL A   1      46.224  27.944  36.837  1.00  0.00     0.022 A 
BRANCH  84  87
ATOM     87  S   UNL A   1      44.809  26.095  38.278  1.00  0.00     0.127 S 
ATOM     88  O   UNL A   1      43.777  26.643  39.156  1.00  0.00    -0.237 OA
ATOM     89  O   UNL A   1      44.385  24.943  37.484  1.00  0.00    -0.237 OA
ATOM     90  O   UNL A   1      46.131  25.965  38.877  1.00  0.00    -0.744 OA
ENDBRANCH  84  87
ENDBRANCH  57  80
ENDBRANCH  31  32
ENDBRANCH  23  26
ENDBRANCH  21  22
ENDBRANCH   1  21
TORSDOF 18
ENDMDL
MODEL 2
REMARK VINA RESULT:     -11.1      3.602      8.941
REMARK SMILES CCC[C@H](c1ccccc1)[C@@](C)(O)C(=O)NCCCNC(=O)c1ccc(-c2c3nc(c(-c4cccc(S(=O)(=O)[O-])c4F)c4ccc([nH]4)c(-c4cccc(S(=O)(=O)[O-])c4F)c4nc(c(-c5cccc(S(=O)(=O)[O-])c5F)c5ccc2[nH]5)C=C4)C=C3)cc1
REMARK SMILES IDX 18 1 17 2 16 3 14 4 15 5 11 7 12 8 4 9 3 10 2 11 1 12 5 13
REMARK SMILES IDX 6 14 10 15 7 16 9 17 8 18 13 19 19 21 20 22 21 23 22 25
REMARK SMILES IDX 23 26 24 27 85 28 25 29 84 30 26 31 27 32 28 33 78 34 29 35
REMARK SMILES IDX 83 36 77 37 79 38 30 39 82 40 76 41 75 42 31 44 63 45 43 46
REMARK SMILES IDX 62 47 44 48 47 49 61 50 80 51 45 52 46 53 60 55 81 56 48 57
REMARK SMILES IDX 32 58 33 59 41 60 34 61 36 62 42 63 35 64 37 65 38 66 39 67
REMARK SMILES IDX 40 68 64 69 65 70 73 71 66 72 68 73 74 74 67 75 69 76 70 77
REMARK SMILES IDX 71 78 72 79 49 80 50 81 58 82 51 83 53 84 59 85 52 86 54 87
REMARK SMILES IDX 55 88 56 89 57 90
REMARK H PARENT 16 6 13 20 20 24 79 43 47 54
REMARK Flexibility Score: inf
ROOT
ATOM      1  C   UNL A   1      32.937  28.184  27.173  1.00  0.00     0.042 C 
ENDROOT
BRANCH   1   2
ATOM      2  C   UNL A   1      31.710  27.700  26.419  1.00  0.00     0.117 C 
BRANCH   2   3
ATOM      3  N   UNL A   1      31.350  26.341  26.776  1.00  0.00    -0.354 N 
ATOM      4  C   UNL A   1      30.860  25.324  26.016  1.00  0.00     0.252 C 
ATOM      5  O   UNL A   1      30.416  24.364  26.653  1.00  0.00    -0.272 OA
ATOM      6  H   UNL A   1      31.480  26.118  27.725  1.00  0.00     0.163 HD
BRANCH   4   7
ATOM      7  C   UNL A   1      30.890  25.372  24.456  1.00  0.00     0.147 C 
ATOM      8  C   UNL A   1      29.909  26.397  23.847  1.00  0.00     0.053 C 
BRANCH   7   9
ATOM      9  C   UNL A   1      32.350  25.641  23.906  1.00  0.00     0.060 C 
BRANCH   9  10
ATOM     10  C   UNL A   1      32.348  26.042  22.390  1.00  0.00     0.011 C 
BRANCH  10  11
ATOM     11  C   UNL A   1      33.318  27.168  21.985  1.00  0.00    -0.003 C 
ATOM     12  C   UNL A   1      33.303  28.379  22.909  1.00  0.00     0.004 C 
ENDBRANCH  10  11
ENDBRANCH   9  10
BRANCH   9  13
ATOM     13  C   UNL A   1      33.449  24.597  24.227  1.00  0.00    -0.042 A 
ATOM     14  C   UNL A   1      33.669  23.425  23.484  1.00  0.00     0.004 A 
ATOM     15  C   UNL A   1      34.267  24.789  25.356  1.00  0.00     0.004 A 
ATOM     16  C   UNL A   1      34.646  22.490  23.842  1.00  0.00     0.000 A 
ATOM     17  C   UNL A   1      35.264  23.868  25.705  1.00  0.00     0.000 A 
ATOM     18  C   UNL A   1      35.448  22.714  24.951  1.00  0.00     0.000 A 
ENDBRANCH   9  13
ENDBRANCH   7   9
BRANCH   7  19
ATOM     19  O   UNL A   1      30.427  24.081  24.014  1.00  0.00    -0.380 OA
ATOM     20  H   UNL A   1      30.407  23.470  24.767  1.00  0.00     0.212 HD
ENDBRANCH   7  19
ENDBRANCH   4   7
ENDBRANCH   2   3
ENDBRANCH   1   2
BRANCH   1  21
ATOM     21  C   UNL A   1      33.815  29.153  26.394  1.00  0.00     0.118 C 
BRANCH  21  22
ATOM     22  N   UNL A   1      33.807  30.505  26.943  1.00  0.00    -0.352 N 
ATOM     23  C   UNL A   1      34.666  31.104  27.831  1.00  0.00     0.251 C 
ATOM     24  H   UNL A   1      33.069  31.076  26.630  1.00  0.00     0.163 HD
ATOM     25  O   UNL A   1      34.381  32.201  28.308  1.00  0.00    -0.269 OA
BRANCH  23  26
ATOM     26  C   UNL A   1      35.916  30.422  28.230  1.00  0.00     0.039 A 
ATOM     27  C   UNL A   1      37.046  30.549  27.420  1.00  0.00     0.014 A 
ATOM     28  C   UNL A   1      35.976  29.665  29.402  1.00  0.00     0.014 A 
ATOM     29  C   UNL A   1      38.256  29.980  27.828  1.00  0.00     0.010 A 
ATOM     30  C   UNL A   1      37.200  29.187  29.854  1.00  0.00     0.010 A 
ATOM     31  C   UNL A   1      38.354  29.332  29.070  1.00  0.00    -0.014 A 
BRANCH  31  32
ATOM     32  C   UNL A   1      39.649  28.799  29.569  1.00  0.00     0.031 A 
ATOM     33  C   UNL A   1      40.388  29.516  30.669  1.00  0.00     0.074 A 
ATOM     34  C   UNL A   1      40.200  27.720  28.977  1.00  0.00     0.049 A 
ATOM     35  N   UNL A   1      41.559  29.251  31.184  1.00  0.00    -0.248 NA
ATOM     36  C   UNL A   1      39.736  30.704  31.250  1.00  0.00     0.031 C 
ATOM     37  C   UNL A   1      39.622  26.982  27.851  1.00  0.00     0.029 A 
ATOM     38  N   UNL A   1      41.386  27.071  29.221  1.00  0.00    -0.354 N 
ATOM     39  C   UNL A   1      41.799  30.249  32.122  1.00  0.00     0.074 A 
ATOM     40  C   UNL A   1      40.671  31.151  32.076  1.00  0.00     0.031 C 
ATOM     41  C   UNL A   1      40.447  25.980  27.508  1.00  0.00     0.029 A 
ATOM     42  C   UNL A   1      41.630  26.025  28.360  1.00  0.00     0.049 A 
ATOM     43  H   UNL A   1      42.002  27.329  29.944  1.00  0.00     0.167 HD
ATOM     44  C   UNL A   1      42.846  30.385  32.968  1.00  0.00     0.034 A 
ATOM     45  C   UNL A   1      42.694  25.204  28.261  1.00  0.00     0.034 A 
ATOM     46  C   UNL A   1      43.947  29.465  33.041  1.00  0.00     0.049 A 
ATOM     47  C   UNL A   1      43.835  25.369  29.231  1.00  0.00     0.074 A 
ATOM     48  C   UNL A   1      45.021  29.476  33.912  1.00  0.00     0.029 A 
ATOM     49  N   UNL A   1      44.120  28.369  32.209  1.00  0.00    -0.354 N 
ATOM     50  N   UNL A   1      43.971  26.233  30.207  1.00  0.00    -0.248 NA
ATOM     51  C   UNL A   1      44.954  24.422  29.109  1.00  0.00     0.031 C 
ATOM     52  C   UNL A   1      45.856  28.402  33.591  1.00  0.00     0.029 A 
ATOM     53  C   UNL A   1      45.283  27.701  32.543  1.00  0.00     0.049 A 
ATOM     54  H   UNL A   1      43.503  28.107  31.486  1.00  0.00     0.167 HD
ATOM     55  C   UNL A   1      45.164  25.905  30.841  1.00  0.00     0.074 A 
ATOM     56  C   UNL A   1      45.701  24.751  30.153  1.00  0.00     0.031 C 
ATOM     57  C   UNL A   1      45.771  26.514  31.890  1.00  0.00     0.034 A 
BRANCH  44  58
ATOM     58  C   UNL A   1      42.826  31.541  33.935  1.00  0.00     0.023 A 
ATOM     59  C   UNL A   1      43.314  32.799  33.521  1.00  0.00     0.012 A 
ATOM     60  C   UNL A   1      42.251  31.410  35.214  1.00  0.00     0.148 A 
ATOM     61  C   UNL A   1      43.257  33.899  34.374  1.00  0.00     0.002 A 
ATOM     62  C   UNL A   1      42.154  32.524  36.040  1.00  0.00     0.091 A 
ATOM     63  F   UNL A   1      41.806  30.205  35.593  1.00  0.00    -0.205 F 
ATOM     64  C   UNL A   1      42.666  33.765  35.627  1.00  0.00     0.022 A 
BRANCH  62  65
ATOM     65  S   UNL A   1      41.338  32.480  37.640  1.00  0.00     0.127 S 
ATOM     66  O   UNL A   1      41.376  33.889  38.029  1.00  0.00    -0.237 OA
ATOM     67  O   UNL A   1      40.008  31.979  37.291  1.00  0.00    -0.237 OA
ATOM     68  O   UNL A   1      42.129  31.586  38.474  1.00  0.00    -0.744 OA
ENDBRANCH  62  65
ENDBRANCH  44  58
BRANCH  45  69
ATOM     69  C   UNL A   1      42.722  24.118  27.239  1.00  0.00     0.023 A 
ATOM     70  C   UNL A   1      43.368  24.340  26.008  1.00  0.00     0.012 A 
ATOM     71  C   UNL A   1      42.101  22.875  27.471  1.00  0.00     0.148 A 
ATOM     72  C   UNL A   1      43.352  23.367  25.007  1.00  0.00     0.002 A 
ATOM     73  C   UNL A   1      42.140  21.888  26.493  1.00  0.00     0.091 A 
ATOM     74  F   UNL A   1      41.480  22.682  28.644  1.00  0.00    -0.205 F 
ATOM     75  C   UNL A   1      42.744  22.139  25.252  1.00  0.00     0.022 A 
BRANCH  73  76
ATOM     76  S   UNL A   1      41.497  20.234  26.773  1.00  0.00     0.127 S 
ATOM     77  O   UNL A   1      42.330  19.773  27.881  1.00  0.00    -0.237 OA
ATOM     78  O   UNL A   1      40.102  20.506  27.121  1.00  0.00    -0.237 OA
ATOM     79  O   UNL A   1      41.671  19.528  25.511  1.00  0.00    -0.744 OA
ENDBRANCH  73  76
ENDBRANCH  45  69
BRANCH  57  80
ATOM     80  C   UNL A   1      47.055  25.916  32.401  1.00  0.00     0.023 A 
ATOM     81  C   UNL A   1      48.293  26.382  31.917  1.00  0.00     0.012 A 
ATOM     82  C   UNL A   1      47.031  24.939  33.415  1.00  0.00     0.148 A 
ATOM     83  C   UNL A   1      49.488  25.857  32.409  1.00  0.00     0.002 A 
ATOM     84  C   UNL A   1      48.226  24.460  33.939  1.00  0.00     0.091 A 
ATOM     85  F   UNL A   1      45.843  24.496  33.851  1.00  0.00    -0.205 F 
ATOM     86  C   UNL A   1      49.455  24.907  33.426  1.00  0.00     0.022 A 
BRANCH  84  87
ATOM     87  S   UNL A   1      48.283  23.311  35.318  1.00  0.00     0.127 S 
ATOM     88  O   UNL A   1      47.586  24.061  36.360  1.00  0.00    -0.237 OA
ATOM     89  O   UNL A   1      47.544  22.162  34.794  1.00  0.00    -0.237 OA
ATOM     90  O   UNL A   1      49.696  23.057  35.572  1.00  0.00    -0.744 OA
ENDBRANCH  84  87
ENDBRANCH  57  80
ENDBRANCH  31  32
ENDBRANCH  23  26
ENDBRANCH  21  22
ENDBRANCH   1  21
TORSDOF 18
ENDMDL
MODEL 3
REMARK VINA RESULT:     -11.1      3.618      9.165
REMARK SMILES CCC[C@H](c1ccccc1)[C@@](C)(O)C(=O)NCCCNC(=O)c1ccc(-c2c3nc(c(-c4cccc(S(=O)(=O)[O-])c4F)c4ccc([nH]4)c(-c4cccc(S(=O)(=O)[O-])c4F)c4nc(c(-c5cccc(S(=O)(=O)[O-])c5F)c5ccc2[nH]5)C=C4)C=C3)cc1
REMARK SMILES IDX 18 1 17 2 16 3 14 4 15 5 11 7 12 8 4 9 3 10 2 11 1 12 5 13
REMARK SMILES IDX 6 14 10 15 7 16 9 17 8 18 13 19 19 21 20 22 21 23 22 25
REMARK SMILES IDX 23 26 24 27 85 28 25 29 84 30 26 31 27 32 28 33 78 34 29 35
REMARK SMILES IDX 83 36 77 37 79 38 30 39 82 40 76 41 75 42 31 44 63 45 43 46
REMARK SMILES IDX 62 47 44 48 47 49 61 50 80 51 45 52 46 53 60 55 81 56 48 57
REMARK SMILES IDX 32 58 33 59 41 60 34 61 36 62 42 63 35 64 37 65 38 66 39 67
REMARK SMILES IDX 40 68 64 69 65 70 73 71 66 72 68 73 74 74 67 75 69 76 70 77
REMARK SMILES IDX 71 78 72 79 49 80 50 81 58 82 51 83 53 84 59 85 52 86 54 87
REMARK SMILES IDX 55 88 56 89 57 90
REMARK H PARENT 16 6 13 20 20 24 79 43 47 54
REMARK Flexibility Score: inf
ROOT
ATOM      1  C   UNL A   1      33.480  27.816  26.238  1.00  0.00     0.042 C 
ENDROOT
BRANCH   1   2
ATOM      2  C   UNL A   1      33.542  26.769  25.137  1.00  0.00     0.117 C 
BRANCH   2   3
ATOM      3  N   UNL A   1      33.832  27.355  23.843  1.00  0.00    -0.354 N 
ATOM      4  C   UNL A   1      33.204  27.214  22.644  1.00  0.00     0.252 C 
ATOM      5  O   UNL A   1      33.834  27.640  21.671  1.00  0.00    -0.272 OA
ATOM      6  H   UNL A   1      34.614  27.952  23.829  1.00  0.00     0.163 HD
BRANCH   4   7
ATOM      7  C   UNL A   1      31.781  26.581  22.528  1.00  0.00     0.147 C 
ATOM      8  C   UNL A   1      31.791  25.040  22.443  1.00  0.00     0.053 C 
BRANCH   7   9
ATOM      9  C   UNL A   1      30.837  27.043  23.712  1.00  0.00     0.060 C 
BRANCH   9  10
ATOM     10  C   UNL A   1      30.141  25.832  24.423  1.00  0.00     0.011 C 
BRANCH  10  11
ATOM     11  C   UNL A   1      30.190  25.829  25.962  1.00  0.00    -0.003 C 
ATOM     12  C   UNL A   1      29.206  24.874  26.625  1.00  0.00     0.004 C 
ENDBRANCH  10  11
ENDBRANCH   9  10
BRANCH   9  13
ATOM     13  C   UNL A   1      29.844  28.201  23.439  1.00  0.00    -0.042 A 
ATOM     14  C   UNL A   1      30.189  29.564  23.474  1.00  0.00     0.004 A 
ATOM     15  C   UNL A   1      28.494  27.901  23.181  1.00  0.00     0.004 A 
ATOM     16  C   UNL A   1      29.246  30.574  23.265  1.00  0.00     0.000 A 
ATOM     17  C   UNL A   1      27.549  28.909  22.948  1.00  0.00     0.000 A 
ATOM     18  C   UNL A   1      27.924  30.247  22.997  1.00  0.00     0.000 A 
ENDBRANCH   9  13
ENDBRANCH   7   9
BRANCH   7  19
ATOM     19  O   UNL A   1      31.250  27.037  21.269  1.00  0.00    -0.380 OA
ATOM     20  H   UNL A   1      30.282  26.989  21.290  1.00  0.00     0.212 HD
ENDBRANCH   7  19
ENDBRANCH   4   7
ENDBRANCH   2   3
ENDBRANCH   1   2
BRANCH   1  21
ATOM     21  C   UNL A   1      34.479  28.955  26.083  1.00  0.00     0.118 C 
BRANCH  21  22
ATOM     22  N   UNL A   1      34.036  30.195  26.711  1.00  0.00    -0.352 N 
ATOM     23  C   UNL A   1      34.558  30.880  27.780  1.00  0.00     0.251 C 
ATOM     24  H   UNL A   1      33.238  30.604  26.305  1.00  0.00     0.163 HD
ATOM     25  O   UNL A   1      33.929  31.817  28.268  1.00  0.00    -0.269 OA
BRANCH  23  26
ATOM     26  C   UNL A   1      35.859  30.478  28.356  1.00  0.00     0.039 A 
ATOM     27  C   UNL A   1      35.877  29.621  29.459  1.00  0.00     0.014 A 
ATOM     28  C   UNL A   1      37.058  30.939  27.809  1.00  0.00     0.014 A 
ATOM     29  C   UNL A   1      37.098  29.166  29.961  1.00  0.00     0.010 A 
ATOM     30  C   UNL A   1      38.266  30.407  28.244  1.00  0.00     0.010 A 
ATOM     31  C   UNL A   1      38.302  29.521  29.331  1.00  0.00    -0.014 A 
BRANCH  31  32
ATOM     32  C   UNL A   1      39.609  28.978  29.788  1.00  0.00     0.031 A 
ATOM     33  C   UNL A   1      40.370  29.667  30.890  1.00  0.00     0.074 A 
ATOM     34  C   UNL A   1      40.149  27.915  29.156  1.00  0.00     0.049 A 
ATOM     35  N   UNL A   1      41.553  29.391  31.373  1.00  0.00    -0.248 NA
ATOM     36  C   UNL A   1      39.729  30.838  31.516  1.00  0.00     0.031 C 
ATOM     37  C   UNL A   1      39.547  27.206  28.023  1.00  0.00     0.029 A 
ATOM     38  N   UNL A   1      41.340  27.263  29.358  1.00  0.00    -0.354 N 
ATOM     39  C   UNL A   1      41.811  30.364  32.331  1.00  0.00     0.074 A 
ATOM     40  C   UNL A   1      40.681  31.265  32.334  1.00  0.00     0.031 C 
ATOM     41  C   UNL A   1      40.367  26.215  27.637  1.00  0.00     0.029 A 
ATOM     42  C   UNL A   1      41.568  26.240  28.465  1.00  0.00     0.049 A 
ATOM     43  H   UNL A   1      41.971  27.503  30.073  1.00  0.00     0.167 HD
ATOM     44  C   UNL A   1      42.876  30.480  33.158  1.00  0.00     0.034 A 
ATOM     45  C   UNL A   1      42.631  25.424  28.321  1.00  0.00     0.034 A 
ATOM     46  C   UNL A   1      43.979  29.561  33.183  1.00  0.00     0.049 A 
ATOM     47  C   UNL A   1      43.791  25.566  29.270  1.00  0.00     0.074 A 
ATOM     48  C   UNL A   1      45.072  29.551  34.031  1.00  0.00     0.029 A 
ATOM     49  N   UNL A   1      44.136  28.488  32.319  1.00  0.00    -0.354 N 
ATOM     50  N   UNL A   1      43.948  26.405  30.266  1.00  0.00    -0.248 NA
ATOM     51  C   UNL A   1      44.909  24.624  29.099  1.00  0.00     0.031 C 
ATOM     52  C   UNL A   1      45.902  28.487  33.664  1.00  0.00     0.029 A 
ATOM     53  C   UNL A   1      45.307  27.813  32.611  1.00  0.00     0.049 A 
ATOM     54  H   UNL A   1      43.504  28.243  31.603  1.00  0.00     0.167 HD
ATOM     55  C   UNL A   1      45.154  26.063  30.865  1.00  0.00     0.074 A 
ATOM     56  C   UNL A   1      45.678  24.928  30.135  1.00  0.00     0.031 C 
ATOM     57  C   UNL A   1      45.782  26.645  31.916  1.00  0.00     0.034 A 
BRANCH  44  58
ATOM     58  C   UNL A   1      42.875  31.611  34.155  1.00  0.00     0.023 A 
ATOM     59  C   UNL A   1      43.430  32.855  33.791  1.00  0.00     0.012 A 
ATOM     60  C   UNL A   1      42.253  31.472  35.411  1.00  0.00     0.148 A 
ATOM     61  C   UNL A   1      43.394  33.935  34.672  1.00  0.00     0.002 A 
ATOM     62  C   UNL A   1      42.178  32.567  36.265  1.00  0.00     0.091 A 
ATOM     63  F   UNL A   1      41.744  30.278  35.744  1.00  0.00    -0.205 F 
ATOM     64  C   UNL A   1      42.757  33.794  35.902  1.00  0.00     0.022 A 
BRANCH  62  65
ATOM     65  S   UNL A   1      41.310  32.518  37.836  1.00  0.00     0.127 S 
ATOM     66  O   UNL A   1      40.007  31.988  37.438  1.00  0.00    -0.237 OA
ATOM     67  O   UNL A   1      42.134  31.589  38.612  1.00  0.00    -0.237 OA
ATOM     68  O   UNL A   1      41.297  33.886  38.334  1.00  0.00    -0.744 OA
ENDBRANCH  62  65
ENDBRANCH  44  58
BRANCH  45  69
ATOM     69  C   UNL A   1      42.638  24.365  27.271  1.00  0.00     0.023 A 
ATOM     70  C   UNL A   1      43.255  24.621  26.031  1.00  0.00     0.012 A 
ATOM     71  C   UNL A   1      42.026  23.115  27.484  1.00  0.00     0.148 A 
ATOM     72  C   UNL A   1      43.219  23.675  25.005  1.00  0.00     0.002 A 
ATOM     73  C   UNL A   1      42.045  22.153  26.479  1.00  0.00     0.091 A 
ATOM     74  F   UNL A   1      41.432  22.889  28.665  1.00  0.00    -0.205 F 
ATOM     75  C   UNL A   1      42.620  22.439  25.233  1.00  0.00     0.022 A 
BRANCH  73  76
ATOM     76  S   UNL A   1      41.413  20.491  26.731  1.00  0.00     0.127 S 
ATOM     77  O   UNL A   1      39.983  20.736  26.901  1.00  0.00    -0.237 OA
ATOM     78  O   UNL A   1      41.780  19.834  25.476  1.00  0.00    -0.237 OA
ATOM     79  O   UNL A   1      42.114  19.979  27.900  1.00  0.00    -0.744 OA
ENDBRANCH  73  76
ENDBRANCH  45  69
BRANCH  57  80
ATOM     80  C   UNL A   1      47.078  26.036  32.383  1.00  0.00     0.023 A 
ATOM     81  C   UNL A   1      48.304  26.507  31.874  1.00  0.00     0.012 A 
ATOM     82  C   UNL A   1      47.079  25.043  33.383  1.00  0.00     0.148 A 
ATOM     83  C   UNL A   1      49.510  25.972  32.326  1.00  0.00     0.002 A 
ATOM     84  C   UNL A   1      48.286  24.554  33.867  1.00  0.00     0.091 A 
ATOM     85  F   UNL A   1      45.901  24.597  33.843  1.00  0.00    -0.205 F 
ATOM     86  C   UNL A   1      49.502  25.006  33.329  1.00  0.00     0.022 A 
BRANCH  84  87
ATOM     87  S   UNL A   1      48.377  23.384  35.227  1.00  0.00     0.127 S 
ATOM     88  O   UNL A   1      47.790  22.186  34.628  1.00  0.00    -0.237 OA
ATOM     89  O   UNL A   1      49.817  23.303  35.468  1.00  0.00    -0.237 OA
ATOM     90  O   UNL A   1      47.612  23.973  36.318  1.00  0.00    -0.744 OA
ENDBRANCH  84  87
ENDBRANCH  57  80
ENDBRANCH  31  32
ENDBRANCH  23  26
ENDBRANCH  21  22
ENDBRANCH   1  21
TORSDOF 18
ENDMDL
