MODEL 1
REMARK VINA RESULT:     -12.3      0.000      0.000
REMARK SMILES CC[C@@H](NS(=O)(=O)c1cc(C)ccc1C)C(=O)NCCCNC(=O)c1ccc(-c2c3nc(c(-c4cccc(S(=O)(=O)[O-])c4F)c4ccc([nH]4)c(-c4cccc(S(=O)(=O)[O-])c4F)c4nc(c(-c5cccc(S(=O)(=O)[O-])c5F)c5ccc2[nH]5)C=C4)C=C3)cc1
REMARK SMILES IDX 20 1 19 2 18 3 16 4 17 5 3 7 2 8 1 9 4 10 5 12 6 13 7 14
REMARK SMILES IDX 8 15 9 16 14 17 10 18 13 19 15 20 11 21 12 22 21 23 22 24
REMARK SMILES IDX 23 25 24 27 25 28 26 29 87 30 27 31 86 32 28 33 29 34 30 35
REMARK SMILES IDX 80 36 31 37 85 38 79 39 81 40 32 41 84 42 78 43 77 44 33 46
REMARK SMILES IDX 65 47 45 48 64 49 46 50 49 51 63 52 82 53 47 54 48 55 62 57
REMARK SMILES IDX 83 58 50 59 34 60 35 61 43 62 36 63 38 64 44 65 37 66 39 67
REMARK SMILES IDX 40 68 41 69 42 70 66 71 67 72 75 73 68 74 70 75 76 76 69 77
REMARK SMILES IDX 71 78 72 79 73 80 74 81 51 82 52 83 60 84 53 85 55 86 61 87
REMARK SMILES IDX 54 88 56 89 57 90 58 91 59 92
REMARK H PARENT 18 6 4 11 22 26 81 45 49 56
REMARK Flexibility Score: inf
ROOT
ATOM      1  C   UNL A   1      37.574  19.633  24.776  1.00  0.00     0.042 C 
ENDROOT
BRANCH   1   2
ATOM      2  C   UNL A   1      36.242  20.334  25.052  1.00  0.00     0.117 C 
BRANCH   2   3
ATOM      3  N   UNL A   1      35.060  19.471  24.955  1.00  0.00    -0.355 N 
ATOM      4  C   UNL A   1      33.758  19.785  24.616  1.00  0.00     0.238 C 
ATOM      5  O   UNL A   1      33.055  18.886  24.157  1.00  0.00    -0.273 OA
ATOM      6  H   UNL A   1      35.219  18.522  25.164  1.00  0.00     0.163 HD
BRANCH   4   7
ATOM      7  C   UNL A   1      33.213  21.206  24.784  1.00  0.00     0.158 C 
BRANCH   7   8
ATOM      8  C   UNL A   1      32.387  21.499  23.505  1.00  0.00     0.027 C 
ATOM      9  C   UNL A   1      32.831  22.609  22.574  1.00  0.00     0.006 C 
ENDBRANCH   7   8
BRANCH   7  10
ATOM     10  N   UNL A   1      32.487  21.252  26.084  1.00  0.00    -0.199 NA
ATOM     11  H   UNL A   1      33.128  20.886  26.789  1.00  0.00     0.142 HD
BRANCH  10  12
ATOM     12  S   UNL A   1      31.886  22.730  26.692  1.00  0.00     0.241 S 
ATOM     13  O   UNL A   1      30.479  22.768  26.388  1.00  0.00    -0.207 OA
ATOM     14  O   UNL A   1      32.323  22.713  28.085  1.00  0.00    -0.207 OA
BRANCH  12  15
ATOM     15  C   UNL A   1      32.647  24.199  25.989  1.00  0.00     0.085 A 
ATOM     16  C   UNL A   1      31.807  25.314  25.786  1.00  0.00     0.025 A 
ATOM     17  C   UNL A   1      34.001  24.373  25.712  1.00  0.00    -0.031 A 
ATOM     18  C   UNL A   1      32.302  26.508  25.223  1.00  0.00    -0.050 A 
ATOM     19  C   UNL A   1      34.435  25.464  24.935  1.00  0.00     0.005 A 
ATOM     20  C   UNL A   1      35.085  23.598  26.354  1.00  0.00     0.046 C 
ATOM     21  C   UNL A   1      31.532  27.794  25.246  1.00  0.00     0.044 C 
ATOM     22  C   UNL A   1      33.587  26.527  24.687  1.00  0.00     0.004 A 
ENDBRANCH  12  15
ENDBRANCH  10  12
ENDBRANCH   7  10
ENDBRANCH   4   7
ENDBRANCH   2   3
ENDBRANCH   1   2
BRANCH   1  23
ATOM     23  C   UNL A   1      38.809  20.288  25.400  1.00  0.00     0.118 C 
BRANCH  23  24
ATOM     24  N   UNL A   1      39.891  19.346  25.769  1.00  0.00    -0.352 N 
ATOM     25  C   UNL A   1      41.248  19.590  25.994  1.00  0.00     0.251 C 
ATOM     26  H   UNL A   1      39.612  18.408  25.871  1.00  0.00     0.163 HD
ATOM     27  O   UNL A   1      42.070  18.694  25.812  1.00  0.00    -0.269 OA
BRANCH  25  28
ATOM     28  C   UNL A   1      41.686  20.914  26.485  1.00  0.00     0.039 A 
ATOM     29  C   UNL A   1      42.276  21.915  25.708  1.00  0.00     0.014 A 
ATOM     30  C   UNL A   1      41.454  21.153  27.823  1.00  0.00     0.014 A 
ATOM     31  C   UNL A   1      42.603  23.127  26.329  1.00  0.00     0.010 A 
ATOM     32  C   UNL A   1      41.386  22.426  28.282  1.00  0.00     0.010 A 
ATOM     33  C   UNL A   1      42.157  23.361  27.640  1.00  0.00    -0.014 A 
BRANCH  33  34
ATOM     34  C   UNL A   1      42.298  24.617  28.356  1.00  0.00     0.031 A 
ATOM     35  C   UNL A   1      41.144  25.497  28.115  1.00  0.00     0.074 A 
ATOM     36  C   UNL A   1      43.194  24.832  29.350  1.00  0.00     0.049 A 
ATOM     37  N   UNL A   1      41.072  26.447  27.244  1.00  0.00    -0.248 NA
ATOM     38  C   UNL A   1      39.846  25.115  28.699  1.00  0.00     0.031 C 
ATOM     39  C   UNL A   1      44.128  23.867  29.954  1.00  0.00     0.029 A 
ATOM     40  N   UNL A   1      43.374  25.936  30.133  1.00  0.00    -0.354 N 
ATOM     41  C   UNL A   1      39.821  27.001  27.462  1.00  0.00     0.074 A 
ATOM     42  C   UNL A   1      39.030  25.968  28.073  1.00  0.00     0.031 C 
ATOM     43  C   UNL A   1      44.607  24.359  31.120  1.00  0.00     0.029 A 
ATOM     44  C   UNL A   1      44.140  25.721  31.282  1.00  0.00     0.049 A 
ATOM     45  H   UNL A   1      42.994  26.814  29.905  1.00  0.00     0.167 HD
ATOM     46  C   UNL A   1      39.683  28.353  27.524  1.00  0.00     0.034 A 
ATOM     47  C   UNL A   1      44.335  26.594  32.306  1.00  0.00     0.034 A 
ATOM     48  C   UNL A   1      40.870  29.021  27.035  1.00  0.00     0.049 A 
ATOM     49  C   UNL A   1      44.023  27.942  31.781  1.00  0.00     0.074 A 
ATOM     50  C   UNL A   1      41.639  28.953  25.890  1.00  0.00     0.029 A 
ATOM     51  N   UNL A   1      41.661  29.611  27.993  1.00  0.00    -0.354 N 
ATOM     52  N   UNL A   1      44.734  28.548  30.874  1.00  0.00    -0.248 NA
ATOM     53  C   UNL A   1      42.677  28.454  31.970  1.00  0.00     0.031 C 
ATOM     54  C   UNL A   1      42.985  29.107  26.334  1.00  0.00     0.029 A 
ATOM     55  C   UNL A   1      42.972  29.351  27.708  1.00  0.00     0.049 A 
ATOM     56  H   UNL A   1      41.336  30.136  28.759  1.00  0.00     0.167 HD
ATOM     57  C   UNL A   1      43.789  29.153  30.058  1.00  0.00     0.074 A 
ATOM     58  C   UNL A   1      42.566  29.184  30.857  1.00  0.00     0.031 C 
ATOM     59  C   UNL A   1      44.010  29.277  28.716  1.00  0.00     0.034 A 
BRANCH  46  60
ATOM     60  C   UNL A   1      38.709  29.070  28.436  1.00  0.00     0.023 A 
ATOM     61  C   UNL A   1      38.706  28.679  29.791  1.00  0.00     0.012 A 
ATOM     62  C   UNL A   1      37.636  29.885  28.005  1.00  0.00     0.148 A 
ATOM     63  C   UNL A   1      37.668  29.040  30.656  1.00  0.00     0.002 A 
ATOM     64  C   UNL A   1      36.662  30.325  28.891  1.00  0.00     0.091 A 
ATOM     65  F   UNL A   1      37.444  30.127  26.708  1.00  0.00    -0.205 F 
ATOM     66  C   UNL A   1      36.652  29.876  30.210  1.00  0.00     0.022 A 
BRANCH  64  67
ATOM     67  S   UNL A   1      35.369  31.460  28.370  1.00  0.00     0.127 S 
ATOM     68  O   UNL A   1      34.765  31.819  29.650  1.00  0.00    -0.237 OA
ATOM     69  O   UNL A   1      36.148  32.520  27.729  1.00  0.00    -0.237 OA
ATOM     70  O   UNL A   1      34.528  30.702  27.452  1.00  0.00    -0.744 OA
ENDBRANCH  64  67
ENDBRANCH  46  60
BRANCH  47  71
ATOM     71  C   UNL A   1      44.565  26.383  33.759  1.00  0.00     0.023 A 
ATOM     72  C   UNL A   1      45.833  26.678  34.313  1.00  0.00     0.012 A 
ATOM     73  C   UNL A   1      43.483  26.207  34.649  1.00  0.00     0.148 A 
ATOM     74  C   UNL A   1      46.004  26.848  35.693  1.00  0.00     0.002 A 
ATOM     75  C   UNL A   1      43.658  26.375  36.022  1.00  0.00     0.091 A 
ATOM     76  F   UNL A   1      42.267  25.970  34.140  1.00  0.00    -0.205 F 
ATOM     77  C   UNL A   1      44.913  26.711  36.546  1.00  0.00     0.022 A 
BRANCH  75  78
ATOM     78  S   UNL A   1      42.295  26.264  37.191  1.00  0.00     0.127 S 
ATOM     79  O   UNL A   1      42.984  26.407  38.474  1.00  0.00    -0.237 OA
ATOM     80  O   UNL A   1      41.474  27.412  36.810  1.00  0.00    -0.237 OA
ATOM     81  O   UNL A   1      41.684  24.960  36.976  1.00  0.00    -0.744 OA
ENDBRANCH  75  78
ENDBRANCH  47  71
BRANCH  59  82
ATOM     82  C   UNL A   1      45.423  29.116  28.212  1.00  0.00     0.023 A 
ATOM     83  C   UNL A   1      45.946  27.895  27.741  1.00  0.00     0.012 A 
ATOM     84  C   UNL A   1      46.195  30.284  28.078  1.00  0.00     0.148 A 
ATOM     85  C   UNL A   1      47.222  27.838  27.171  1.00  0.00     0.002 A 
ATOM     86  C   UNL A   1      47.439  30.233  27.465  1.00  0.00     0.091 A 
ATOM     87  F   UNL A   1      45.684  31.436  28.537  1.00  0.00    -0.205 F 
ATOM     88  C   UNL A   1      47.963  29.011  27.019  1.00  0.00     0.022 A 
BRANCH  86  89
ATOM     89  S   UNL A   1      48.375  31.726  27.135  1.00  0.00     0.127 S 
ATOM     90  O   UNL A   1      48.551  32.279  28.476  1.00  0.00    -0.237 OA
ATOM     91  O   UNL A   1      49.596  31.204  26.522  1.00  0.00    -0.237 OA
ATOM     92  O   UNL A   1      47.553  32.523  26.232  1.00  0.00    -0.744 OA
ENDBRANCH  86  89
ENDBRANCH  59  82
ENDBRANCH  33  34
ENDBRANCH  25  28
ENDBRANCH  23  24
ENDBRANCH   1  23
TORSDOF 17
ENDMDL
MODEL 2
REMARK VINA RESULT:     -12.2      1.976      2.295
REMARK SMILES CC[C@@H](NS(=O)(=O)c1cc(C)ccc1C)C(=O)NCCCNC(=O)c1ccc(-c2c3nc(c(-c4cccc(S(=O)(=O)[O-])c4F)c4ccc([nH]4)c(-c4cccc(S(=O)(=O)[O-])c4F)c4nc(c(-c5cccc(S(=O)(=O)[O-])c5F)c5ccc2[nH]5)C=C4)C=C3)cc1
REMARK SMILES IDX 20 1 19 2 18 3 16 4 17 5 3 7 2 8 1 9 4 10 5 12 6 13 7 14
REMARK SMILES IDX 8 15 9 16 14 17 10 18 13 19 15 20 11 21 12 22 21 23 22 24
REMARK SMILES IDX 23 25 24 27 25 28 26 29 87 30 27 31 86 32 28 33 29 34 30 35
REMARK SMILES IDX 80 36 31 37 85 38 79 39 81 40 32 41 84 42 78 43 77 44 33 46
REMARK SMILES IDX 65 47 45 48 64 49 46 50 49 51 63 52 82 53 47 54 48 55 62 57
REMARK SMILES IDX 83 58 50 59 34 60 35 61 43 62 36 63 38 64 44 65 37 66 39 67
REMARK SMILES IDX 40 68 41 69 42 70 66 71 67 72 75 73 68 74 70 75 76 76 69 77
REMARK SMILES IDX 71 78 72 79 73 80 74 81 51 82 52 83 60 84 53 85 55 86 61 87
REMARK SMILES IDX 54 88 56 89 57 90 58 91 59 92
REMARK H PARENT 18 6 4 11 22 26 81 45 49 56
REMARK Flexibility Score: inf
ROOT
ATOM      1  C   UNL A   1      37.338  19.584  24.813  1.00  0.00     0.042 C 
ENDROOT
BRANCH   1   2
ATOM      2  C   UNL A   1      36.049  20.377  25.047  1.00  0.00     0.117 C 
BRANCH   2   3
ATOM      3  N   UNL A   1      34.828  19.566  25.093  1.00  0.00    -0.355 N 
ATOM      4  C   UNL A   1      33.522  19.913  24.807  1.00  0.00     0.238 C 
ATOM      5  O   UNL A   1      32.753  19.014  24.469  1.00  0.00    -0.273 OA
ATOM      6  H   UNL A   1      34.959  18.631  25.371  1.00  0.00     0.163 HD
BRANCH   4   7
ATOM      7  C   UNL A   1      33.049  21.368  24.888  1.00  0.00     0.158 C 
BRANCH   7   8
ATOM      8  C   UNL A   1      32.409  21.684  23.512  1.00  0.00     0.027 C 
ATOM      9  C   UNL A   1      32.884  22.895  22.734  1.00  0.00     0.006 C 
ENDBRANCH   7   8
BRANCH   7  10
ATOM     10  N   UNL A   1      32.172  21.483  26.086  1.00  0.00    -0.199 NA
ATOM     11  H   UNL A   1      32.388  20.686  26.685  1.00  0.00     0.142 HD
BRANCH  10  12
ATOM     12  S   UNL A   1      32.237  22.870  27.079  1.00  0.00     0.241 S 
ATOM     13  O   UNL A   1      30.896  23.121  27.540  1.00  0.00    -0.207 OA
ATOM     14  O   UNL A   1      33.280  22.533  28.045  1.00  0.00    -0.207 OA
BRANCH  12  15
ATOM     15  C   UNL A   1      32.831  24.357  26.261  1.00  0.00     0.085 A 
ATOM     16  C   UNL A   1      31.970  25.474  26.271  1.00  0.00     0.025 A 
ATOM     17  C   UNL A   1      34.094  24.540  25.701  1.00  0.00    -0.031 A 
ATOM     18  C   UNL A   1      32.335  26.681  25.640  1.00  0.00    -0.050 A 
ATOM     19  C   UNL A   1      34.351  25.648  24.873  1.00  0.00     0.005 A 
ATOM     20  C   UNL A   1      35.288  23.753  26.075  1.00  0.00     0.046 C 
ATOM     21  C   UNL A   1      31.591  27.964  25.858  1.00  0.00     0.044 C 
ATOM     22  C   UNL A   1      33.473  26.715  24.838  1.00  0.00     0.004 A 
ENDBRANCH  12  15
ENDBRANCH  10  12
ENDBRANCH   7  10
ENDBRANCH   4   7
ENDBRANCH   2   3
ENDBRANCH   1   2
BRANCH   1  23
ATOM     23  C   UNL A   1      38.609  20.197  25.406  1.00  0.00     0.118 C 
BRANCH  23  24
ATOM     24  N   UNL A   1      39.671  19.221  25.741  1.00  0.00    -0.352 N 
ATOM     25  C   UNL A   1      41.038  19.422  25.940  1.00  0.00     0.251 C 
ATOM     26  H   UNL A   1      39.367  18.289  25.838  1.00  0.00     0.163 HD
ATOM     27  O   UNL A   1      41.830  18.506  25.731  1.00  0.00    -0.269 OA
BRANCH  25  28
ATOM     28  C   UNL A   1      41.525  20.727  26.439  1.00  0.00     0.039 A 
ATOM     29  C   UNL A   1      42.182  21.695  25.674  1.00  0.00     0.014 A 
ATOM     30  C   UNL A   1      41.268  20.984  27.769  1.00  0.00     0.014 A 
ATOM     31  C   UNL A   1      42.549  22.894  26.299  1.00  0.00     0.010 A 
ATOM     32  C   UNL A   1      41.247  22.261  28.220  1.00  0.00     0.010 A 
ATOM     33  C   UNL A   1      42.078  23.155  27.596  1.00  0.00    -0.014 A 
BRANCH  33  34
ATOM     34  C   UNL A   1      42.258  24.407  28.311  1.00  0.00     0.031 A 
ATOM     35  C   UNL A   1      41.105  25.299  28.117  1.00  0.00     0.074 A 
ATOM     36  C   UNL A   1      43.193  24.609  29.272  1.00  0.00     0.049 A 
ATOM     37  N   UNL A   1      41.010  26.253  27.253  1.00  0.00    -0.248 NA
ATOM     38  C   UNL A   1      39.826  24.928  28.747  1.00  0.00     0.031 C 
ATOM     39  C   UNL A   1      44.139  23.634  29.837  1.00  0.00     0.029 A 
ATOM     40  N   UNL A   1      43.413  25.709  30.051  1.00  0.00    -0.354 N 
ATOM     41  C   UNL A   1      39.773  26.818  27.519  1.00  0.00     0.074 A 
ATOM     42  C   UNL A   1      38.995  25.791  28.156  1.00  0.00     0.031 C 
ATOM     43  C   UNL A   1      44.667  24.117  30.985  1.00  0.00     0.029 A 
ATOM     44  C   UNL A   1      44.219  25.482  31.170  1.00  0.00     0.049 A 
ATOM     45  H   UNL A   1      43.033  26.592  29.840  1.00  0.00     0.167 HD
ATOM     46  C   UNL A   1      39.650  28.171  27.591  1.00  0.00     0.034 A 
ATOM     47  C   UNL A   1      44.462  26.349  32.189  1.00  0.00     0.034 A 
ATOM     48  C   UNL A   1      40.825  28.830  27.060  1.00  0.00     0.049 A 
ATOM     49  C   UNL A   1      44.143  27.702  31.681  1.00  0.00     0.074 A 
ATOM     50  C   UNL A   1      41.549  28.759  25.886  1.00  0.00     0.029 A 
ATOM     51  N   UNL A   1      41.657  29.408  27.989  1.00  0.00    -0.354 N 
ATOM     52  N   UNL A   1      44.826  28.304  30.749  1.00  0.00    -0.248 NA
ATOM     53  C   UNL A   1      42.810  28.226  31.921  1.00  0.00     0.031 C 
ATOM     54  C   UNL A   1      42.913  28.898  26.280  1.00  0.00     0.029 A 
ATOM     55  C   UNL A   1      42.954  29.137  27.655  1.00  0.00     0.049 A 
ATOM     56  H   UNL A   1      41.366  29.933  28.770  1.00  0.00     0.167 HD
ATOM     57  C   UNL A   1      43.857  28.922  29.971  1.00  0.00     0.074 A 
ATOM     58  C   UNL A   1      42.665  28.962  30.817  1.00  0.00     0.031 C 
ATOM     59  C   UNL A   1      44.028  29.049  28.623  1.00  0.00     0.034 A 
BRANCH  46  60
ATOM     60  C   UNL A   1      38.719  28.894  28.541  1.00  0.00     0.023 A 
ATOM     61  C   UNL A   1      37.992  29.981  28.010  1.00  0.00     0.012 A 
ATOM     62  C   UNL A   1      38.718  28.754  29.949  1.00  0.00     0.148 A 
ATOM     63  C   UNL A   1      37.342  30.902  28.838  1.00  0.00     0.002 A 
ATOM     64  C   UNL A   1      37.986  29.611  30.760  1.00  0.00     0.091 A 
ATOM     65  F   UNL A   1      39.540  27.891  30.547  1.00  0.00    -0.205 F 
ATOM     66  C   UNL A   1      37.326  30.709  30.213  1.00  0.00     0.022 A 
BRANCH  64  67
ATOM     67  S   UNL A   1      37.886  29.358  32.537  1.00  0.00     0.127 S 
ATOM     68  O   UNL A   1      36.718  30.164  32.879  1.00  0.00    -0.237 OA
ATOM     69  O   UNL A   1      37.691  27.911  32.618  1.00  0.00    -0.237 OA
ATOM     70  O   UNL A   1      39.163  29.817  33.071  1.00  0.00    -0.744 OA
ENDBRANCH  64  67
ENDBRANCH  46  60
BRANCH  47  71
ATOM     71  C   UNL A   1      44.744  26.130  33.632  1.00  0.00     0.023 A 
ATOM     72  C   UNL A   1      46.067  26.270  34.110  1.00  0.00     0.012 A 
ATOM     73  C   UNL A   1      43.700  26.104  34.581  1.00  0.00     0.148 A 
ATOM     74  C   UNL A   1      46.335  26.435  35.475  1.00  0.00     0.002 A 
ATOM     75  C   UNL A   1      43.971  26.267  35.939  1.00  0.00     0.091 A 
ATOM     76  F   UNL A   1      42.437  26.016  34.143  1.00  0.00    -0.205 F 
ATOM     77  C   UNL A   1      45.285  26.448  36.388  1.00  0.00     0.022 A 
BRANCH  75  78
ATOM     78  S   UNL A   1      42.672  26.345  37.182  1.00  0.00     0.127 S 
ATOM     79  O   UNL A   1      41.937  27.543  36.777  1.00  0.00    -0.237 OA
ATOM     80  O   UNL A   1      41.961  25.088  36.956  1.00  0.00    -0.237 OA
ATOM     81  O   UNL A   1      43.349  26.458  38.467  1.00  0.00    -0.744 OA
ENDBRANCH  75  78
ENDBRANCH  47  71
BRANCH  59  82
ATOM     82  C   UNL A   1      45.419  28.877  28.066  1.00  0.00     0.023 A 
ATOM     83  C   UNL A   1      46.387  29.903  28.058  1.00  0.00     0.012 A 
ATOM     84  C   UNL A   1      45.798  27.582  27.670  1.00  0.00     0.148 A 
ATOM     85  C   UNL A   1      47.697  29.644  27.642  1.00  0.00     0.002 A 
ATOM     86  C   UNL A   1      47.111  27.318  27.307  1.00  0.00     0.091 A 
ATOM     87  F   UNL A   1      44.863  26.620  27.677  1.00  0.00    -0.205 F 
ATOM     88  C   UNL A   1      48.063  28.347  27.281  1.00  0.00     0.022 A 
BRANCH  86  89
ATOM     89  S   UNL A   1      47.660  25.647  26.955  1.00  0.00     0.127 S 
ATOM     90  O   UNL A   1      46.626  24.842  27.603  1.00  0.00    -0.237 OA
ATOM     91  O   UNL A   1      47.639  25.610  25.492  1.00  0.00    -0.237 OA
ATOM     92  O   UNL A   1      48.995  25.534  27.531  1.00  0.00    -0.744 OA
ENDBRANCH  86  89
ENDBRANCH  59  82
ENDBRANCH  33  34
ENDBRANCH  25  28
ENDBRANCH  23  24
ENDBRANCH   1  23
TORSDOF 17
ENDMDL
MODEL 3
REMARK VINA RESULT:     -12.0      4.320      9.386
REMARK SMILES CC[C@@H](NS(=O)(=O)c1cc(C)ccc1C)C(=O)NCCCNC(=O)c1ccc(-c2c3nc(c(-c4cccc(S(=O)(=O)[O-])c4F)c4ccc([nH]4)c(-c4cccc(S(=O)(=O)[O-])c4F)c4nc(c(-c5cccc(S(=O)(=O)[O-])c5F)c5ccc2[nH]5)C=C4)C=C3)cc1
REMARK SMILES IDX 20 1 19 2 18 3 16 4 17 5 3 7 2 8 1 9 4 10 5 12 6 13 7 14
REMARK SMILES IDX 8 15 9 16 14 17 10 18 13 19 15 20 11 21 12 22 21 23 22 24
REMARK SMILES IDX 23 25 24 27 25 28 26 29 87 30 27 31 86 32 28 33 29 34 30 35
REMARK SMILES IDX 80 36 31 37 85 38 79 39 81 40 32 41 84 42 78 43 77 44 33 46
REMARK SMILES IDX 65 47 45 48 64 49 46 50 49 51 63 52 82 53 47 54 48 55 62 57
REMARK SMILES IDX 83 58 50 59 34 60 35 61 43 62 36 63 38 64 44 65 37 66 39 67
REMARK SMILES IDX 40 68 41 69 42 70 66 71 67 72 75 73 68 74 70 75 76 76 69 77
REMARK SMILES IDX 71 78 72 79 73 80 74 81 51 82 52 83 60 84 53 85 55 86 61 87
REMARK SMILES IDX 54 88 56 89 57 90 58 91 59 92
REMARK H PARENT 18 6 4 11 22 26 81 45 49 56
REMARK Flexibility Score: inf
ROOT
ATOM      1  C   UNL A   1      31.412  27.465  26.937  1.00  0.00     0.042 C 
ENDROOT
BRANCH   1   2
ATOM      2  C   UNL A   1      31.103  26.513  25.779  1.00  0.00     0.117 C 
BRANCH   2   3
ATOM      3  N   UNL A   1      30.344  25.315  26.154  1.00  0.00    -0.355 N 
ATOM      4  C   UNL A   1      30.790  24.087  26.602  1.00  0.00     0.238 C 
ATOM      5  O   UNL A   1      30.015  23.409  27.275  1.00  0.00    -0.273 OA
ATOM      6  H   UNL A   1      29.367  25.399  26.073  1.00  0.00     0.163 HD
BRANCH   4   7
ATOM      7  C   UNL A   1      32.206  23.592  26.290  1.00  0.00     0.158 C 
BRANCH   7   8
ATOM      8  C   UNL A   1      32.550  22.563  27.397  1.00  0.00     0.027 C 
ATOM      9  C   UNL A   1      33.971  22.482  27.917  1.00  0.00     0.006 C 
ENDBRANCH   7   8
BRANCH   7  10
ATOM     10  N   UNL A   1      32.204  23.100  24.884  1.00  0.00    -0.199 NA
ATOM     11  H   UNL A   1      31.420  23.556  24.415  1.00  0.00     0.142 HD
BRANCH  10  12
ATOM     12  S   UNL A   1      33.569  23.327  23.883  1.00  0.00     0.241 S 
ATOM     13  O   UNL A   1      33.284  22.676  22.630  1.00  0.00    -0.207 OA
ATOM     14  O   UNL A   1      33.762  24.774  23.916  1.00  0.00    -0.207 OA
BRANCH  12  15
ATOM     15  C   UNL A   1      35.100  22.643  24.530  1.00  0.00     0.085 A 
ATOM     16  C   UNL A   1      36.060  23.565  24.997  1.00  0.00     0.025 A 
ATOM     17  C   UNL A   1      35.391  21.291  24.701  1.00  0.00    -0.031 A 
ATOM     18  C   UNL A   1      37.301  23.132  25.506  1.00  0.00    -0.050 A 
ATOM     19  C   UNL A   1      36.707  20.876  24.977  1.00  0.00     0.005 A 
ATOM     20  C   UNL A   1      34.368  20.232  24.822  1.00  0.00     0.046 C 
ATOM     21  C   UNL A   1      38.227  24.038  26.261  1.00  0.00     0.044 C 
ATOM     22  C   UNL A   1      37.661  21.793  25.375  1.00  0.00     0.004 A 
ENDBRANCH  12  15
ENDBRANCH  10  12
ENDBRANCH   7  10
ENDBRANCH   4   7
ENDBRANCH   2   3
ENDBRANCH   1   2
BRANCH   1  23
ATOM     23  C   UNL A   1      32.458  28.545  26.646  1.00  0.00     0.118 C 
BRANCH  23  24
ATOM     24  N   UNL A   1      31.900  29.874  26.307  1.00  0.00    -0.352 N 
ATOM     25  C   UNL A   1      32.220  31.134  26.819  1.00  0.00     0.251 C 
ATOM     26  H   UNL A   1      31.197  29.869  25.617  1.00  0.00     0.163 HD
ATOM     27  O   UNL A   1      31.381  32.031  26.808  1.00  0.00    -0.269 OA
BRANCH  25  28
ATOM     28  C   UNL A   1      33.580  31.393  27.338  1.00  0.00     0.039 A 
ATOM     29  C   UNL A   1      34.075  32.638  27.734  1.00  0.00     0.014 A 
ATOM     30  C   UNL A   1      34.391  30.283  27.450  1.00  0.00     0.014 A 
ATOM     31  C   UNL A   1      35.382  32.702  28.235  1.00  0.00     0.010 A 
ATOM     32  C   UNL A   1      35.447  30.298  28.298  1.00  0.00     0.010 A 
ATOM     33  C   UNL A   1      36.066  31.504  28.499  1.00  0.00    -0.014 A 
BRANCH  33  34
ATOM     34  C   UNL A   1      37.364  31.411  29.145  1.00  0.00     0.031 A 
ATOM     35  C   UNL A   1      37.995  30.108  28.884  1.00  0.00     0.074 A 
ATOM     36  C   UNL A   1      38.044  32.471  29.648  1.00  0.00     0.049 A 
ATOM     37  N   UNL A   1      37.968  29.074  29.655  1.00  0.00    -0.248 NA
ATOM     38  C   UNL A   1      38.467  29.828  27.516  1.00  0.00     0.031 C 
ATOM     39  C   UNL A   1      37.677  33.895  29.589  1.00  0.00     0.029 A 
ATOM     40  N   UNL A   1      39.286  32.517  30.213  1.00  0.00    -0.354 N 
ATOM     41  C   UNL A   1      38.752  28.145  28.990  1.00  0.00     0.074 A 
ATOM     42  C   UNL A   1      38.722  28.519  27.603  1.00  0.00     0.031 C 
ATOM     43  C   UNL A   1      38.750  34.660  29.898  1.00  0.00     0.029 A 
ATOM     44  C   UNL A   1      39.836  33.797  30.317  1.00  0.00     0.049 A 
ATOM     45  H   UNL A   1      39.757  31.710  30.523  1.00  0.00     0.167 HD
ATOM     46  C   UNL A   1      39.687  27.435  29.678  1.00  0.00     0.034 A 
ATOM     47  C   UNL A   1      41.107  34.112  30.684  1.00  0.00     0.034 A 
ATOM     48  C   UNL A   1      39.491  27.562  31.107  1.00  0.00     0.049 A 
ATOM     49  C   UNL A   1      41.641  32.940  31.412  1.00  0.00     0.074 A 
ATOM     50  C   UNL A   1      38.431  27.390  31.976  1.00  0.00     0.029 A 
ATOM     51  N   UNL A   1      40.403  28.350  31.767  1.00  0.00    -0.354 N 
ATOM     52  N   UNL A   1      41.198  32.545  32.572  1.00  0.00    -0.248 NA
ATOM     53  C   UNL A   1      42.398  31.954  30.661  1.00  0.00     0.031 C 
ATOM     54  C   UNL A   1      38.566  28.432  32.940  1.00  0.00     0.029 A 
ATOM     55  C   UNL A   1      39.743  29.133  32.672  1.00  0.00     0.049 A 
ATOM     56  H   UNL A   1      41.376  28.351  31.613  1.00  0.00     0.167 HD
ATOM     57  C   UNL A   1      41.182  31.162  32.471  1.00  0.00     0.074 A 
ATOM     58  C   UNL A   1      42.060  30.857  31.343  1.00  0.00     0.031 C 
ATOM     59  C   UNL A   1      40.218  30.431  33.104  1.00  0.00     0.034 A 
BRANCH  46  60
ATOM     60  C   UNL A   1      41.029  27.020  29.114  1.00  0.00     0.023 A 
ATOM     61  C   UNL A   1      41.983  28.044  28.931  1.00  0.00     0.012 A 
ATOM     62  C   UNL A   1      41.311  25.771  28.512  1.00  0.00     0.148 A 
ATOM     63  C   UNL A   1      43.127  27.848  28.152  1.00  0.00     0.002 A 
ATOM     64  C   UNL A   1      42.498  25.552  27.825  1.00  0.00     0.091 A 
ATOM     65  F   UNL A   1      40.380  24.818  28.454  1.00  0.00    -0.205 F 
ATOM     66  C   UNL A   1      43.393  26.597  27.611  1.00  0.00     0.022 A 
BRANCH  64  67
ATOM     67  S   UNL A   1      42.911  23.930  27.167  1.00  0.00     0.127 S 
ATOM     68  O   UNL A   1      44.127  24.224  26.416  1.00  0.00    -0.237 OA
ATOM     69  O   UNL A   1      43.106  23.156  28.393  1.00  0.00    -0.237 OA
ATOM     70  O   UNL A   1      41.753  23.519  26.382  1.00  0.00    -0.744 OA
ENDBRANCH  64  67
ENDBRANCH  46  60
BRANCH  47  71
ATOM     71  C   UNL A   1      42.000  35.236  30.301  1.00  0.00     0.023 A 
ATOM     72  C   UNL A   1      43.052  35.615  31.167  1.00  0.00     0.012 A 
ATOM     73  C   UNL A   1      42.033  35.719  28.974  1.00  0.00     0.148 A 
ATOM     74  C   UNL A   1      44.123  36.396  30.715  1.00  0.00     0.002 A 
ATOM     75  C   UNL A   1      43.101  36.498  28.529  1.00  0.00     0.091 A 
ATOM     76  F   UNL A   1      41.070  35.335  28.128  1.00  0.00    -0.205 F 
ATOM     77  C   UNL A   1      44.154  36.825  29.392  1.00  0.00     0.022 A 
BRANCH  75  78
ATOM     78  S   UNL A   1      43.247  37.054  26.824  1.00  0.00     0.127 S 
ATOM     79  O   UNL A   1      42.099  37.952  26.699  1.00  0.00    -0.237 OA
ATOM     80  O   UNL A   1      44.546  37.724  26.834  1.00  0.00    -0.237 OA
ATOM     81  O   UNL A   1      43.168  35.856  26.000  1.00  0.00    -0.744 OA
ENDBRANCH  75  78
ENDBRANCH  47  71
BRANCH  59  82
ATOM     82  C   UNL A   1      39.436  31.097  34.209  1.00  0.00     0.023 A 
ATOM     83  C   UNL A   1      39.884  31.171  35.544  1.00  0.00     0.012 A 
ATOM     84  C   UNL A   1      38.274  31.798  33.842  1.00  0.00     0.148 A 
ATOM     85  C   UNL A   1      39.172  31.910  36.495  1.00  0.00     0.002 A 
ATOM     86  C   UNL A   1      37.600  32.572  34.776  1.00  0.00     0.091 A 
ATOM     87  F   UNL A   1      37.858  31.711  32.569  1.00  0.00    -0.205 F 
ATOM     88  C   UNL A   1      38.038  32.623  36.107  1.00  0.00     0.022 A 
BRANCH  86  89
ATOM     89  S   UNL A   1      36.211  33.604  34.301  1.00  0.00     0.127 S 
ATOM     90  O   UNL A   1      35.604  33.913  35.594  1.00  0.00    -0.237 OA
ATOM     91  O   UNL A   1      36.869  34.735  33.646  1.00  0.00    -0.237 OA
ATOM     92  O   UNL A   1      35.397  32.792  33.404  1.00  0.00    -0.744 OA
ENDBRANCH  86  89
ENDBRANCH  59  82
ENDBRANCH  33  34
ENDBRANCH  25  28
ENDBRANCH  23  24
ENDBRANCH   1  23
TORSDOF 17
ENDMDL
