MODEL 1
REMARK VINA RESULT:     -10.2      0.000      0.000
REMARK SMILES COC(=O)NNC(=O)CCC(=O)NCCCNC(=O)c1ccc(-c2c3nc(c(-c4cccc(S(=O)(=O)[O-])c4F)c4ccc([nH]4)c(-c4cccc(S(=O)(=O)[O-])c4F)c4nc(c(-c5cccc(S(=O)(=O)[O-])c5F)c5ccc2[nH]5)C=C4)C=C3)cc1
REMARK SMILES IDX 14 1 13 2 11 3 12 4 10 6 9 7 7 8 6 9 8 11 5 12 3 13 4 14
REMARK SMILES IDX 2 16 1 17 15 18 16 19 17 20 18 21 19 23 20 24 21 25 82 26
REMARK SMILES IDX 22 27 81 28 23 29 24 30 25 31 75 32 26 33 80 34 74 35 76 36
REMARK SMILES IDX 27 37 79 38 73 39 72 40 28 42 60 43 40 44 59 45 41 46 44 47
REMARK SMILES IDX 58 48 77 49 42 50 43 51 57 53 78 54 45 55 29 56 30 57 38 58
REMARK SMILES IDX 31 59 33 60 39 61 32 62 34 63 35 64 36 65 37 66 61 67 62 68
REMARK SMILES IDX 70 69 63 70 65 71 71 72 64 73 66 74 67 75 68 76 69 77 46 78
REMARK SMILES IDX 47 79 55 80 48 81 50 82 56 83 49 84 51 85 52 86 53 87 54 88
REMARK H PARENT 13 5 6 10 5 15 17 22 76 41 44 52
REMARK Flexibility Score: inf
ROOT
ATOM      1  C   UNL A   1      37.065  33.916  29.718  1.00  0.00     0.117 C 
ENDROOT
BRANCH   1   2
ATOM      2  N   UNL A   1      37.095  32.960  30.818  1.00  0.00    -0.356 N 
ATOM      3  C   UNL A   1      36.693  33.069  32.112  1.00  0.00     0.220 C 
ATOM      4  O   UNL A   1      36.713  32.061  32.823  1.00  0.00    -0.275 OA
ATOM      5  H   UNL A   1      37.475  32.082  30.582  1.00  0.00     0.163 HD
BRANCH   3   6
ATOM      6  C   UNL A   1      36.273  34.399  32.689  1.00  0.00     0.110 C 
BRANCH   6   7
ATOM      7  C   UNL A   1      35.230  34.210  33.783  1.00  0.00     0.112 C 
BRANCH   7   8
ATOM      8  C   UNL A   1      33.878  33.877  33.190  1.00  0.00     0.238 C 
ATOM      9  N   UNL A   1      33.025  34.896  32.848  1.00  0.00    -0.265 N 
ATOM     10  H   UNL A   1      32.175  34.658  32.412  1.00  0.00     0.191 HD
ATOM     11  O   UNL A   1      33.571  32.704  32.972  1.00  0.00    -0.273 OA
BRANCH   9  12
ATOM     12  N   UNL A   1      33.283  36.245  33.080  1.00  0.00    -0.232 N 
ATOM     13  C   UNL A   1      32.961  37.246  32.198  1.00  0.00     0.425 C 
ATOM     14  O   UNL A   1      33.186  38.426  32.456  1.00  0.00    -0.223 OA
ATOM     15  H   UNL A   1      33.722  36.495  33.925  1.00  0.00     0.195 HD
BRANCH  13  16
ATOM     16  O   UNL A   1      32.371  36.800  31.058  1.00  0.00    -0.452 OA
ATOM     17  C   UNL A   1      33.293  36.481  30.008  1.00  0.00     0.284 C 
ENDBRANCH  13  16
ENDBRANCH   9  12
ENDBRANCH   7   8
ENDBRANCH   6   7
ENDBRANCH   3   6
ENDBRANCH   1   2
BRANCH   1  18
ATOM     18  C   UNL A   1      35.758  33.940  28.925  1.00  0.00     0.042 C 
BRANCH  18  19
ATOM     19  C   UNL A   1      34.656  33.017  29.438  1.00  0.00     0.118 C 
BRANCH  19  20
ATOM     20  N   UNL A   1      34.117  32.138  28.418  1.00  0.00    -0.352 N 
ATOM     21  C   UNL A   1      34.647  31.010  27.839  1.00  0.00     0.251 C 
ATOM     22  H   UNL A   1      33.226  32.391  28.085  1.00  0.00     0.163 HD
ATOM     23  O   UNL A   1      34.024  30.485  26.916  1.00  0.00    -0.269 OA
BRANCH  21  24
ATOM     24  C   UNL A   1      35.939  30.411  28.274  1.00  0.00     0.039 A 
ATOM     25  C   UNL A   1      35.934  29.613  29.425  1.00  0.00     0.014 A 
ATOM     26  C   UNL A   1      37.158  30.684  27.647  1.00  0.00     0.014 A 
ATOM     27  C   UNL A   1      37.127  29.079  29.927  1.00  0.00     0.010 A 
ATOM     28  C   UNL A   1      38.347  30.115  28.122  1.00  0.00     0.010 A 
ATOM     29  C   UNL A   1      38.346  29.321  29.277  1.00  0.00    -0.014 A 
BRANCH  29  30
ATOM     30  C   UNL A   1      39.613  28.746  29.803  1.00  0.00     0.031 A 
ATOM     31  C   UNL A   1      40.278  29.329  31.023  1.00  0.00     0.074 A 
ATOM     32  C   UNL A   1      40.193  27.717  29.154  1.00  0.00     0.049 A 
ATOM     33  N   UNL A   1      41.356  28.926  31.647  1.00  0.00    -0.248 NA
ATOM     34  C   UNL A   1      39.664  30.531  31.610  1.00  0.00     0.031 C 
ATOM     35  C   UNL A   1      39.698  27.117  27.914  1.00  0.00     0.029 A 
ATOM     36  N   UNL A   1      41.336  27.010  29.433  1.00  0.00    -0.354 N 
ATOM     37  C   UNL A   1      41.562  29.828  32.683  1.00  0.00     0.074 A 
ATOM     38  C   UNL A   1      40.514  30.823  32.586  1.00  0.00     0.031 C 
ATOM     39  C   UNL A   1      40.534  26.136  27.537  1.00  0.00     0.029 A 
ATOM     40  C   UNL A   1      41.627  26.040  28.500  1.00  0.00     0.049 A 
ATOM     41  H   UNL A   1      41.896  27.180  30.224  1.00  0.00     0.167 HD
ATOM     42  C   UNL A   1      42.518  29.817  33.644  1.00  0.00     0.034 A 
ATOM     43  C   UNL A   1      42.652  25.168  28.433  1.00  0.00     0.034 A 
ATOM     44  C   UNL A   1      43.538  28.808  33.758  1.00  0.00     0.049 A 
ATOM     45  C   UNL A   1      43.664  25.138  29.546  1.00  0.00     0.074 A 
ATOM     46  C   UNL A   1      44.496  28.660  34.746  1.00  0.00     0.029 A 
ATOM     47  N   UNL A   1      43.739  27.780  32.851  1.00  0.00    -0.354 N 
ATOM     48  N   UNL A   1      43.733  25.888  30.619  1.00  0.00    -0.248 NA
ATOM     49  C   UNL A   1      44.710  24.108  29.468  1.00  0.00     0.031 C 
ATOM     50  C   UNL A   1      45.289  27.552  34.424  1.00  0.00     0.029 A 
ATOM     51  C   UNL A   1      44.807  26.997  33.250  1.00  0.00     0.049 A 
ATOM     52  H   UNL A   1      43.201  27.630  32.040  1.00  0.00     0.167 HD
ATOM     53  C   UNL A   1      44.799  25.394  31.363  1.00  0.00     0.074 A 
ATOM     54  C   UNL A   1      45.336  24.269  30.626  1.00  0.00     0.031 C 
ATOM     55  C   UNL A   1      45.295  25.841  32.543  1.00  0.00     0.034 A 
BRANCH  42  56
ATOM     56  C   UNL A   1      42.473  30.896  34.698  1.00  0.00     0.023 A 
ATOM     57  C   UNL A   1      41.818  30.640  35.921  1.00  0.00     0.012 A 
ATOM     58  C   UNL A   1      43.147  32.121  34.520  1.00  0.00     0.148 A 
ATOM     59  C   UNL A   1      41.809  31.596  36.937  1.00  0.00     0.002 A 
ATOM     60  C   UNL A   1      43.169  33.052  35.553  1.00  0.00     0.091 A 
ATOM     61  F   UNL A   1      43.751  32.353  33.346  1.00  0.00    -0.205 F 
ATOM     62  C   UNL A   1      42.493  32.795  36.757  1.00  0.00     0.022 A 
BRANCH  60  63
ATOM     63  S   UNL A   1      44.085  34.594  35.453  1.00  0.00     0.127 S 
ATOM     64  O   UNL A   1      44.293  34.905  36.867  1.00  0.00    -0.237 OA
ATOM     65  O   UNL A   1      45.293  34.189  34.734  1.00  0.00    -0.237 OA
ATOM     66  O   UNL A   1      43.230  35.524  34.728  1.00  0.00    -0.744 OA
ENDBRANCH  60  63
ENDBRANCH  42  56
BRANCH  43  67
ATOM     67  C   UNL A   1      42.722  24.190  27.309  1.00  0.00     0.023 A 
ATOM     68  C   UNL A   1      43.450  24.519  26.149  1.00  0.00     0.012 A 
ATOM     69  C   UNL A   1      42.098  22.931  27.394  1.00  0.00     0.148 A 
ATOM     70  C   UNL A   1      43.528  23.625  25.081  1.00  0.00     0.002 A 
ATOM     71  C   UNL A   1      42.224  22.024  26.348  1.00  0.00     0.091 A 
ATOM     72  F   UNL A   1      41.397  22.642  28.500  1.00  0.00    -0.205 F 
ATOM     73  C   UNL A   1      42.925  22.375  25.184  1.00  0.00     0.022 A 
BRANCH  71  74
ATOM     74  S   UNL A   1      41.589  20.347  26.452  1.00  0.00     0.127 S 
ATOM     75  O   UNL A   1      42.104  19.912  27.748  1.00  0.00    -0.237 OA
ATOM     76  O   UNL A   1      40.142  20.565  26.405  1.00  0.00    -0.237 OA
ATOM     77  O   UNL A   1      42.126  19.655  25.288  1.00  0.00    -0.744 OA
ENDBRANCH  71  74
ENDBRANCH  43  67
BRANCH  55  78
ATOM     78  C   UNL A   1      46.454  25.089  33.145  1.00  0.00     0.023 A 
ATOM     79  C   UNL A   1      47.770  25.542  32.936  1.00  0.00     0.012 A 
ATOM     80  C   UNL A   1      46.230  23.975  33.979  1.00  0.00     0.148 A 
ATOM     81  C   UNL A   1      48.850  24.879  33.518  1.00  0.00     0.002 A 
ATOM     82  C   UNL A   1      47.307  23.349  34.595  1.00  0.00     0.091 A 
ATOM     83  F   UNL A   1      44.971  23.546  34.151  1.00  0.00    -0.205 F 
ATOM     84  C   UNL A   1      48.617  23.790  34.356  1.00  0.00     0.022 A 
BRANCH  82  85
ATOM     85  S   UNL A   1      47.090  22.002  35.765  1.00  0.00     0.127 S 
ATOM     86  O   UNL A   1      46.549  20.947  34.908  1.00  0.00    -0.237 OA
ATOM     87  O   UNL A   1      48.458  21.767  36.229  1.00  0.00    -0.237 OA
ATOM     88  O   UNL A   1      46.185  22.504  36.789  1.00  0.00    -0.744 OA
ENDBRANCH  82  85
ENDBRANCH  55  78
ENDBRANCH  29  30
ENDBRANCH  21  24
ENDBRANCH  19  20
ENDBRANCH  18  19
ENDBRANCH   1  18
TORSDOF 17
ENDMDL
MODEL 2
REMARK VINA RESULT:     -10.0      3.519      6.620
REMARK SMILES COC(=O)NNC(=O)CCC(=O)NCCCNC(=O)c1ccc(-c2c3nc(c(-c4cccc(S(=O)(=O)[O-])c4F)c4ccc([nH]4)c(-c4cccc(S(=O)(=O)[O-])c4F)c4nc(c(-c5cccc(S(=O)(=O)[O-])c5F)c5ccc2[nH]5)C=C4)C=C3)cc1
REMARK SMILES IDX 14 1 13 2 11 3 12 4 10 6 9 7 7 8 6 9 8 11 5 12 3 13 4 14
REMARK SMILES IDX 2 16 1 17 15 18 16 19 17 20 18 21 19 23 20 24 21 25 82 26
REMARK SMILES IDX 22 27 81 28 23 29 24 30 25 31 75 32 26 33 80 34 74 35 76 36
REMARK SMILES IDX 27 37 79 38 73 39 72 40 28 42 60 43 40 44 59 45 41 46 44 47
REMARK SMILES IDX 58 48 77 49 42 50 43 51 57 53 78 54 45 55 29 56 30 57 38 58
REMARK SMILES IDX 31 59 33 60 39 61 32 62 34 63 35 64 36 65 37 66 61 67 62 68
REMARK SMILES IDX 70 69 63 70 65 71 71 72 64 73 66 74 67 75 68 76 69 77 46 78
REMARK SMILES IDX 47 79 55 80 48 81 50 82 56 83 49 84 51 85 52 86 53 87 54 88
REMARK H PARENT 13 5 6 10 5 15 17 22 76 41 44 52
REMARK Flexibility Score: inf
ROOT
ATOM      1  C   UNL A   1      32.018  26.694  25.889  1.00  0.00     0.117 C 
ENDROOT
BRANCH   1   2
ATOM      2  N   UNL A   1      31.132  25.705  26.489  1.00  0.00    -0.356 N 
ATOM      3  C   UNL A   1      31.212  24.349  26.554  1.00  0.00     0.220 C 
ATOM      4  O   UNL A   1      30.383  23.741  27.235  1.00  0.00    -0.275 OA
ATOM      5  H   UNL A   1      30.334  26.086  26.924  1.00  0.00     0.163 HD
BRANCH   3   6
ATOM      6  C   UNL A   1      32.259  23.593  25.774  1.00  0.00     0.110 C 
BRANCH   6   7
ATOM      7  C   UNL A   1      33.614  23.675  26.466  1.00  0.00     0.112 C 
BRANCH   7   8
ATOM      8  C   UNL A   1      33.915  22.400  27.222  1.00  0.00     0.238 C 
ATOM      9  N   UNL A   1      35.182  21.874  27.176  1.00  0.00    -0.265 N 
ATOM     10  H   UNL A   1      35.369  21.076  27.722  1.00  0.00     0.191 HD
ATOM     11  O   UNL A   1      33.042  21.869  27.911  1.00  0.00    -0.273 OA
BRANCH   9  12
ATOM     12  N   UNL A   1      36.219  22.396  26.407  1.00  0.00    -0.232 N 
ATOM     13  C   UNL A   1      36.700  21.798  25.269  1.00  0.00     0.425 C 
ATOM     14  O   UNL A   1      37.602  22.308  24.608  1.00  0.00    -0.223 OA
ATOM     15  H   UNL A   1      36.631  23.242  26.697  1.00  0.00     0.195 HD
BRANCH  13  16
ATOM     16  O   UNL A   1      36.077  20.631  24.960  1.00  0.00    -0.452 OA
ATOM     17  C   UNL A   1      36.949  19.495  24.915  1.00  0.00     0.284 C 
ENDBRANCH  13  16
ENDBRANCH   9  12
ENDBRANCH   7   8
ENDBRANCH   6   7
ENDBRANCH   3   6
ENDBRANCH   1   2
BRANCH   1  18
ATOM     18  C   UNL A   1      31.724  28.141  26.282  1.00  0.00     0.042 C 
BRANCH  18  19
ATOM     19  C   UNL A   1      32.626  29.195  25.648  1.00  0.00     0.118 C 
BRANCH  19  20
ATOM     20  N   UNL A   1      32.298  30.552  26.044  1.00  0.00    -0.352 N 
ATOM     21  C   UNL A   1      32.931  31.406  26.915  1.00  0.00     0.251 C 
ATOM     22  H   UNL A   1      31.491  30.921  25.620  1.00  0.00     0.163 HD
ATOM     23  O   UNL A   1      32.396  32.489  27.156  1.00  0.00    -0.269 OA
BRANCH  21  24
ATOM     24  C   UNL A   1      34.220  31.071  27.581  1.00  0.00     0.039 A 
ATOM     25  C   UNL A   1      34.374  29.775  28.090  1.00  0.00     0.014 A 
ATOM     26  C   UNL A   1      35.233  32.008  27.802  1.00  0.00     0.014 A 
ATOM     27  C   UNL A   1      35.532  29.418  28.790  1.00  0.00     0.010 A 
ATOM     28  C   UNL A   1      36.412  31.641  28.463  1.00  0.00     0.010 A 
ATOM     29  C   UNL A   1      36.567  30.347  28.979  1.00  0.00    -0.014 A 
BRANCH  29  30
ATOM     30  C   UNL A   1      37.803  29.964  29.713  1.00  0.00     0.031 A 
ATOM     31  C   UNL A   1      38.085  30.512  31.088  1.00  0.00     0.074 A 
ATOM     32  C   UNL A   1      38.700  29.152  29.121  1.00  0.00     0.049 A 
ATOM     33  N   UNL A   1      39.085  30.250  31.891  1.00  0.00    -0.248 NA
ATOM     34  C   UNL A   1      37.130  31.494  31.627  1.00  0.00     0.031 C 
ATOM     35  C   UNL A   1      38.588  28.623  27.761  1.00  0.00     0.029 A 
ATOM     36  N   UNL A   1      39.893  28.648  29.577  1.00  0.00    -0.354 N 
ATOM     37  C   UNL A   1      38.895  31.043  33.016  1.00  0.00     0.074 A 
ATOM     38  C   UNL A   1      37.698  31.822  32.781  1.00  0.00     0.031 C 
ATOM     39  C   UNL A   1      39.669  27.874  27.490  1.00  0.00     0.029 A 
ATOM     40  C   UNL A   1      40.554  27.872  28.652  1.00  0.00     0.049 A 
ATOM     41  H   UNL A   1      40.244  28.825  30.479  1.00  0.00     0.167 HD
ATOM     42  C   UNL A   1      39.631  31.098  34.153  1.00  0.00     0.034 A 
ATOM     43  C   UNL A   1      41.735  27.227  28.732  1.00  0.00     0.034 A 
ATOM     44  C   UNL A   1      40.801  30.296  34.398  1.00  0.00     0.049 A 
ATOM     45  C   UNL A   1      42.500  27.256  30.028  1.00  0.00     0.074 A 
ATOM     46  C   UNL A   1      41.564  30.216  35.551  1.00  0.00     0.029 A 
ATOM     47  N   UNL A   1      41.385  29.444  33.474  1.00  0.00    -0.354 N 
ATOM     48  N   UNL A   1      42.203  27.870  31.147  1.00  0.00    -0.248 NA
ATOM     49  C   UNL A   1      43.736  26.462  30.090  1.00  0.00     0.031 C 
ATOM     50  C   UNL A   1      42.619  29.327  35.316  1.00  0.00     0.029 A 
ATOM     51  C   UNL A   1      42.499  28.836  34.026  1.00  0.00     0.049 A 
ATOM     52  H   UNL A   1      41.055  29.293  32.559  1.00  0.00     0.167 HD
ATOM     53  C   UNL A   1      43.188  27.503  32.057  1.00  0.00     0.074 A 
ATOM     54  C   UNL A   1      44.082  26.599  31.363  1.00  0.00     0.031 C 
ATOM     55  C   UNL A   1      43.345  27.890  33.347  1.00  0.00     0.034 A 
BRANCH  42  56
ATOM     56  C   UNL A   1      39.160  32.012  35.257  1.00  0.00     0.023 A 
ATOM     57  C   UNL A   1      38.218  31.537  36.193  1.00  0.00     0.012 A 
ATOM     58  C   UNL A   1      39.706  33.301  35.423  1.00  0.00     0.148 A 
ATOM     59  C   UNL A   1      37.806  32.338  37.257  1.00  0.00     0.002 A 
ATOM     60  C   UNL A   1      39.321  34.078  36.509  1.00  0.00     0.091 A 
ATOM     61  F   UNL A   1      40.588  33.743  34.515  1.00  0.00    -0.205 F 
ATOM     62  C   UNL A   1      38.365  33.602  37.422  1.00  0.00     0.022 A 
BRANCH  60  63
ATOM     63  S   UNL A   1      40.038  35.689  36.856  1.00  0.00     0.127 S 
ATOM     64  O   UNL A   1      39.622  36.455  35.682  1.00  0.00    -0.237 OA
ATOM     65  O   UNL A   1      39.365  36.065  38.100  1.00  0.00    -0.237 OA
ATOM     66  O   UNL A   1      41.472  35.471  36.984  1.00  0.00    -0.744 OA
ENDBRANCH  60  63
ENDBRANCH  42  56
BRANCH  43  67
ATOM     67  C   UNL A   1      42.222  26.424  27.574  1.00  0.00     0.023 A 
ATOM     68  C   UNL A   1      43.059  27.028  26.616  1.00  0.00     0.012 A 
ATOM     69  C   UNL A   1      41.886  25.064  27.432  1.00  0.00     0.148 A 
ATOM     70  C   UNL A   1      43.526  26.302  25.520  1.00  0.00     0.002 A 
ATOM     71  C   UNL A   1      42.398  24.333  26.367  1.00  0.00     0.091 A 
ATOM     72  F   UNL A   1      41.077  24.511  28.347  1.00  0.00    -0.205 F 
ATOM     73  C   UNL A   1      43.204  24.953  25.401  1.00  0.00     0.022 A 
BRANCH  71  74
ATOM     74  S   UNL A   1      42.141  22.562  26.210  1.00  0.00     0.127 S 
ATOM     75  O   UNL A   1      40.686  22.478  26.107  1.00  0.00    -0.237 OA
ATOM     76  O   UNL A   1      42.864  22.257  24.974  1.00  0.00    -0.237 OA
ATOM     77  O   UNL A   1      42.730  21.975  27.405  1.00  0.00    -0.744 OA
ENDBRANCH  71  74
ENDBRANCH  43  67
BRANCH  55  78
ATOM     78  C   UNL A   1      44.501  27.306  34.118  1.00  0.00     0.023 A 
ATOM     79  C   UNL A   1      45.724  28.000  34.184  1.00  0.00     0.012 A 
ATOM     80  C   UNL A   1      44.349  26.104  34.837  1.00  0.00     0.148 A 
ATOM     81  C   UNL A   1      46.790  27.491  34.925  1.00  0.00     0.002 A 
ATOM     82  C   UNL A   1      45.399  25.627  35.613  1.00  0.00     0.091 A 
ATOM     83  F   UNL A   1      43.184  25.446  34.748  1.00  0.00    -0.205 F 
ATOM     84  C   UNL A   1      46.624  26.312  35.648  1.00  0.00     0.022 A 
BRANCH  82  85
ATOM     85  S   UNL A   1      45.239  24.169  36.651  1.00  0.00     0.127 S 
ATOM     86  O   UNL A   1      46.637  23.832  36.909  1.00  0.00    -0.237 OA
ATOM     87  O   UNL A   1      44.514  24.690  37.811  1.00  0.00    -0.237 OA
ATOM     88  O   UNL A   1      44.493  23.198  35.863  1.00  0.00    -0.744 OA
ENDBRANCH  82  85
ENDBRANCH  55  78
ENDBRANCH  29  30
ENDBRANCH  21  24
ENDBRANCH  19  20
ENDBRANCH  18  19
ENDBRANCH   1  18
TORSDOF 17
ENDMDL
MODEL 3
REMARK VINA RESULT:     -10.0      1.469      2.323
REMARK SMILES COC(=O)NNC(=O)CCC(=O)NCCCNC(=O)c1ccc(-c2c3nc(c(-c4cccc(S(=O)(=O)[O-])c4F)c4ccc([nH]4)c(-c4cccc(S(=O)(=O)[O-])c4F)c4nc(c(-c5cccc(S(=O)(=O)[O-])c5F)c5ccc2[nH]5)C=C4)C=C3)cc1
REMARK SMILES IDX 14 1 13 2 11 3 12 4 10 6 9 7 7 8 6 9 8 11 5 12 3 13 4 14
REMARK SMILES IDX 2 16 1 17 15 18 16 19 17 20 18 21 19 23 20 24 21 25 82 26
REMARK SMILES IDX 22 27 81 28 23 29 24 30 25 31 75 32 26 33 80 34 74 35 76 36
REMARK SMILES IDX 27 37 79 38 73 39 72 40 28 42 60 43 40 44 59 45 41 46 44 47
REMARK SMILES IDX 58 48 77 49 42 50 43 51 57 53 78 54 45 55 29 56 30 57 38 58
REMARK SMILES IDX 31 59 33 60 39 61 32 62 34 63 35 64 36 65 37 66 61 67 62 68
REMARK SMILES IDX 70 69 63 70 65 71 71 72 64 73 66 74 67 75 68 76 69 77 46 78
REMARK SMILES IDX 47 79 55 80 48 81 50 82 56 83 49 84 51 85 52 86 53 87 54 88
REMARK H PARENT 13 5 6 10 5 15 17 22 76 41 44 52
REMARK Flexibility Score: inf
ROOT
ATOM      1  C   UNL A   1      34.036  34.125  29.977  1.00  0.00     0.117 C 
ENDROOT
BRANCH   1   2
ATOM      2  N   UNL A   1      33.088  35.069  30.554  1.00  0.00    -0.356 N 
ATOM      3  C   UNL A   1      33.235  36.009  31.526  1.00  0.00     0.220 C 
ATOM      4  O   UNL A   1      32.296  36.776  31.751  1.00  0.00    -0.275 OA
ATOM      5  H   UNL A   1      32.181  35.016  30.174  1.00  0.00     0.163 HD
BRANCH   3   6
ATOM      6  C   UNL A   1      34.498  36.089  32.347  1.00  0.00     0.110 C 
BRANCH   6   7
ATOM      7  C   UNL A   1      34.349  35.307  33.647  1.00  0.00     0.112 C 
BRANCH   7   8
ATOM      8  C   UNL A   1      34.353  33.816  33.385  1.00  0.00     0.238 C 
ATOM      9  N   UNL A   1      35.549  33.143  33.358  1.00  0.00    -0.265 N 
ATOM     10  H   UNL A   1      35.524  32.165  33.243  1.00  0.00     0.191 HD
ATOM     11  O   UNL A   1      33.290  33.210  33.249  1.00  0.00    -0.273 OA
BRANCH   9  12
ATOM     12  N   UNL A   1      36.795  33.753  33.481  1.00  0.00    -0.232 N 
ATOM     13  C   UNL A   1      37.612  34.041  32.416  1.00  0.00     0.425 C 
ATOM     14  O   UNL A   1      38.694  34.602  32.569  1.00  0.00    -0.223 OA
ATOM     15  H   UNL A   1      37.108  33.990  34.383  1.00  0.00     0.195 HD
BRANCH  13  16
ATOM     16  O   UNL A   1      37.097  33.663  31.216  1.00  0.00    -0.452 OA
ATOM     17  C   UNL A   1      38.040  33.698  30.137  1.00  0.00     0.284 C 
ENDBRANCH  13  16
ENDBRANCH   9  12
ENDBRANCH   7   8
ENDBRANCH   6   7
ENDBRANCH   3   6
ENDBRANCH   1   2
BRANCH   1  18
ATOM     18  C   UNL A   1      34.469  34.443  28.547  1.00  0.00     0.042 C 
BRANCH  18  19
ATOM     19  C   UNL A   1      35.090  33.287  27.770  1.00  0.00     0.118 C 
BRANCH  19  20
ATOM     20  N   UNL A   1      34.204  32.147  27.621  1.00  0.00    -0.352 N 
ATOM     21  C   UNL A   1      34.457  30.800  27.718  1.00  0.00     0.251 C 
ATOM     22  H   UNL A   1      33.269  32.377  27.416  1.00  0.00     0.163 HD
ATOM     23  O   UNL A   1      33.543  30.019  27.453  1.00  0.00    -0.269 OA
BRANCH  21  24
ATOM     24  C   UNL A   1      35.784  30.255  28.115  1.00  0.00     0.039 A 
ATOM     25  C   UNL A   1      35.928  29.776  29.424  1.00  0.00     0.014 A 
ATOM     26  C   UNL A   1      36.905  30.287  27.281  1.00  0.00     0.014 A 
ATOM     27  C   UNL A   1      37.169  29.317  29.881  1.00  0.00     0.010 A 
ATOM     28  C   UNL A   1      38.137  29.787  27.722  1.00  0.00     0.010 A 
ATOM     29  C   UNL A   1      38.286  29.313  29.032  1.00  0.00    -0.014 A 
BRANCH  29  30
ATOM     30  C   UNL A   1      39.602  28.815  29.515  1.00  0.00     0.031 A 
ATOM     31  C   UNL A   1      40.330  29.514  30.634  1.00  0.00     0.074 A 
ATOM     32  C   UNL A   1      40.168  27.750  28.913  1.00  0.00     0.049 A 
ATOM     33  N   UNL A   1      41.459  29.191  31.212  1.00  0.00    -0.248 NA
ATOM     34  C   UNL A   1      39.720  30.746  31.162  1.00  0.00     0.031 C 
ATOM     35  C   UNL A   1      39.609  27.036  27.764  1.00  0.00     0.029 A 
ATOM     36  N   UNL A   1      41.349  27.097  29.168  1.00  0.00    -0.354 N 
ATOM     37  C   UNL A   1      41.707  30.182  32.154  1.00  0.00     0.074 A 
ATOM     38  C   UNL A   1      40.625  31.139  32.050  1.00  0.00     0.031 C 
ATOM     39  C   UNL A   1      40.447  26.048  27.411  1.00  0.00     0.029 A 
ATOM     40  C   UNL A   1      41.605  26.060  28.300  1.00  0.00     0.049 A 
ATOM     41  H   UNL A   1      41.955  27.346  29.902  1.00  0.00     0.167 HD
ATOM     42  C   UNL A   1      42.725  30.275  33.044  1.00  0.00     0.034 A 
ATOM     43  C   UNL A   1      42.649  25.211  28.233  1.00  0.00     0.034 A 
ATOM     44  C   UNL A   1      43.780  29.304  33.168  1.00  0.00     0.049 A 
ATOM     45  C   UNL A   1      43.735  25.299  29.272  1.00  0.00     0.074 A 
ATOM     46  C   UNL A   1      44.807  29.263  34.096  1.00  0.00     0.029 A 
ATOM     47  N   UNL A   1      43.952  28.210  32.336  1.00  0.00    -0.354 N 
ATOM     48  N   UNL A   1      43.853  26.138  30.273  1.00  0.00    -0.248 NA
ATOM     49  C   UNL A   1      44.804  24.292  29.206  1.00  0.00     0.031 C 
ATOM     50  C   UNL A   1      45.610  28.152  33.812  1.00  0.00     0.029 A 
ATOM     51  C   UNL A   1      45.068  27.489  32.724  1.00  0.00     0.049 A 
ATOM     52  H   UNL A   1      43.365  27.979  31.580  1.00  0.00     0.167 HD
ATOM     53  C   UNL A   1      44.980  25.735  30.978  1.00  0.00     0.074 A 
ATOM     54  C   UNL A   1      45.501  24.565  30.300  1.00  0.00     0.031 C 
ATOM     55  C   UNL A   1      45.541  26.290  32.081  1.00  0.00     0.034 A 
BRANCH  42  56
ATOM     56  C   UNL A   1      42.719  31.437  34.007  1.00  0.00     0.023 A 
ATOM     57  C   UNL A   1      43.315  32.656  33.622  1.00  0.00     0.012 A 
ATOM     58  C   UNL A   1      42.055  31.356  35.247  1.00  0.00     0.148 A 
ATOM     59  C   UNL A   1      43.277  33.765  34.467  1.00  0.00     0.002 A 
ATOM     60  C   UNL A   1      41.984  32.477  36.066  1.00  0.00     0.091 A 
ATOM     61  F   UNL A   1      41.507  30.185  35.603  1.00  0.00    -0.205 F 
ATOM     62  C   UNL A   1      42.603  33.679  35.682  1.00  0.00     0.022 A 
BRANCH  60  63
ATOM     63  S   UNL A   1      41.074  32.495  37.615  1.00  0.00     0.127 S 
ATOM     64  O   UNL A   1      39.780  31.953  37.202  1.00  0.00    -0.237 OA
ATOM     65  O   UNL A   1      41.871  31.598  38.452  1.00  0.00    -0.237 OA
ATOM     66  O   UNL A   1      41.058  33.882  38.056  1.00  0.00    -0.744 OA
ENDBRANCH  60  63
ENDBRANCH  42  56
BRANCH  43  67
ATOM     67  C   UNL A   1      42.673  24.144  27.191  1.00  0.00     0.023 A 
ATOM     68  C   UNL A   1      43.386  24.360  25.996  1.00  0.00     0.012 A 
ATOM     69  C   UNL A   1      42.021  22.913  27.389  1.00  0.00     0.148 A 
ATOM     70  C   UNL A   1      43.421  23.382  25.002  1.00  0.00     0.002 A 
ATOM     71  C   UNL A   1      42.104  21.922  26.417  1.00  0.00     0.091 A 
ATOM     72  F   UNL A   1      41.335  22.732  28.527  1.00  0.00    -0.205 F 
ATOM     73  C   UNL A   1      42.790  22.160  25.216  1.00  0.00     0.022 A 
BRANCH  71  74
ATOM     74  S   UNL A   1      41.431  20.276  26.668  1.00  0.00     0.127 S 
ATOM     75  O   UNL A   1      42.129  19.847  27.877  1.00  0.00    -0.237 OA
ATOM     76  O   UNL A   1      40.004  20.553  26.846  1.00  0.00    -0.237 OA
ATOM     77  O   UNL A   1      41.747  19.537  25.453  1.00  0.00    -0.744 OA
ENDBRANCH  71  74
ENDBRANCH  43  67
BRANCH  55  78
ATOM     78  C   UNL A   1      46.760  25.621  32.660  1.00  0.00     0.023 A 
ATOM     79  C   UNL A   1      48.044  25.992  32.217  1.00  0.00     0.012 A 
ATOM     80  C   UNL A   1      46.633  24.675  33.697  1.00  0.00     0.148 A 
ATOM     81  C   UNL A   1      49.182  25.408  32.772  1.00  0.00     0.002 A 
ATOM     82  C   UNL A   1      47.774  24.133  34.279  1.00  0.00     0.091 A 
ATOM     83  F   UNL A   1      45.403  24.319  34.093  1.00  0.00    -0.205 F 
ATOM     84  C   UNL A   1      49.048  24.488  33.809  1.00  0.00     0.022 A 
BRANCH  82  85
ATOM     85  S   UNL A   1      47.694  23.015  35.683  1.00  0.00     0.127 S 
ATOM     86  O   UNL A   1      47.018  21.856  35.104  1.00  0.00    -0.237 OA
ATOM     87  O   UNL A   1      49.109  22.802  35.994  1.00  0.00    -0.237 OA
ATOM     88  O   UNL A   1      46.952  23.725  36.716  1.00  0.00    -0.744 OA
ENDBRANCH  82  85
ENDBRANCH  55  78
ENDBRANCH  29  30
ENDBRANCH  21  24
ENDBRANCH  19  20
ENDBRANCH  18  19
ENDBRANCH   1  18
TORSDOF 17
ENDMDL
