MODEL 1
REMARK VINA RESULT:     -12.9      0.000      0.000
REMARK SMILES C[NH+]1CCC(NC(=O)N[C@@H]2C=C[C@H](C(=O)NCCCNC(=O)c3ccc(-c4c5nc(c(-c6cccc(S(=O)(=O)[O-])c6F)c6ccc([nH]6)c(-c6cccc(S(=O)(=O)[O-])c6F)c6nc(c(-c7cccc(S(=O)(=O)[O-])c7F)c7ccc4[nH]7)C=C6)C=C5)cc3)C2)CC1
REMARK SMILES IDX 18 1 17 2 16 3 14 4 15 5 13 7 10 8 11 9 86 10 12 11 9 12
REMARK SMILES IDX 6 13 7 14 8 16 5 18 1 19 2 20 3 21 88 22 4 24 87 25 19 26
REMARK SMILES IDX 20 27 21 28 22 30 23 31 24 32 85 33 25 34 84 35 26 36 27 37
REMARK SMILES IDX 28 38 78 39 29 40 83 41 77 42 79 43 30 44 82 45 76 46 75 47
REMARK SMILES IDX 31 49 63 50 43 51 62 52 44 53 47 54 61 55 80 56 45 57 46 58
REMARK SMILES IDX 60 60 81 61 48 62 32 63 33 64 41 65 34 66 36 67 42 68 35 69
REMARK SMILES IDX 37 70 38 71 39 72 40 73 64 74 65 75 73 76 66 77 68 78 74 79
REMARK SMILES IDX 67 80 69 81 70 82 71 83 72 84 49 85 50 86 58 87 51 88 53 89
REMARK SMILES IDX 59 90 52 91 54 92 55 93 56 94 57 95
REMARK H PARENT 16 6 6 15 9 17 2 23 20 29 79 48 47 59
REMARK Flexibility Score: inf
ROOT
ATOM      1  C   UNL A   1      38.065  19.765  24.930  1.00  0.00     0.042 C 
ENDROOT
BRANCH   1   2
ATOM      2  C   UNL A   1      36.829  20.645  25.064  1.00  0.00     0.117 C 
BRANCH   2   3
ATOM      3  N   UNL A   1      35.611  19.859  25.121  1.00  0.00    -0.356 N 
ATOM      4  C   UNL A   1      34.319  20.276  24.975  1.00  0.00     0.227 C 
ATOM      5  O   UNL A   1      33.415  19.448  25.089  1.00  0.00    -0.274 OA
ATOM      6  H   UNL A   1      35.732  18.896  25.287  1.00  0.00     0.163 HD
BRANCH   4   7
ATOM      7  C   UNL A   1      34.072  21.732  24.609  1.00  0.00     0.103 C 
ATOM      8  C   UNL A   1      32.228  23.115  25.480  1.00  0.00     0.107 C 
ATOM      9  C   UNL A   1      31.899  22.500  24.159  1.00  0.00    -0.006 C 
ATOM     10  C   UNL A   1      33.619  22.567  25.814  1.00  0.00     0.047 C 
ATOM     11  C   UNL A   1      32.904  21.774  23.670  1.00  0.00    -0.016 C 
BRANCH   8  12
ATOM     12  N   UNL A   1      31.197  22.755  26.424  1.00  0.00    -0.332 N 
ATOM     13  N   UNL A   1      29.765  24.646  26.521  1.00  0.00    -0.335 N 
ATOM     14  C   UNL A   1      30.125  23.406  26.910  1.00  0.00     0.315 C 
ATOM     15  H   UNL A   1      28.960  24.988  26.970  1.00  0.00     0.165 HD
ATOM     16  O   UNL A   1      29.422  22.839  27.750  1.00  0.00    -0.249 OA
ATOM     17  H   UNL A   1      31.300  21.846  26.787  1.00  0.00     0.165 HD
BRANCH  13  18
ATOM     18  C   UNL A   1      30.344  25.567  25.565  1.00  0.00     0.095 C 
ATOM     19  C   UNL A   1      31.828  28.565  23.031  1.00  0.00     0.332 C 
ATOM     20  N   UNL A   1      30.984  27.948  24.061  1.00  0.00    -0.337 N 
ATOM     21  C   UNL A   1      31.833  27.515  25.185  1.00  0.00     0.264 C 
ATOM     22  C   UNL A   1      30.191  26.855  23.473  1.00  0.00     0.264 C 
ATOM     23  H   UNL A   1      30.314  28.622  24.431  1.00  0.00     0.347 HD
ATOM     24  C   UNL A   1      31.051  26.736  26.241  1.00  0.00     0.086 C 
ATOM     25  C   UNL A   1      29.367  26.103  24.528  1.00  0.00     0.086 C 
ENDBRANCH  13  18
ENDBRANCH   8  12
ENDBRANCH   4   7
ENDBRANCH   2   3
ENDBRANCH   1   2
BRANCH   1  26
ATOM     26  C   UNL A   1      39.240  20.233  25.785  1.00  0.00     0.118 C 
BRANCH  26  27
ATOM     27  N   UNL A   1      40.265  19.207  25.931  1.00  0.00    -0.352 N 
ATOM     28  C   UNL A   1      41.621  19.329  26.100  1.00  0.00     0.251 C 
ATOM     29  H   UNL A   1      39.932  18.281  25.905  1.00  0.00     0.163 HD
ATOM     30  O   UNL A   1      42.335  18.337  25.994  1.00  0.00    -0.269 OA
BRANCH  28  31
ATOM     31  C   UNL A   1      42.216  20.648  26.398  1.00  0.00     0.039 A 
ATOM     32  C   UNL A   1      42.685  21.432  25.339  1.00  0.00     0.014 A 
ATOM     33  C   UNL A   1      42.330  21.103  27.713  1.00  0.00     0.014 A 
ATOM     34  C   UNL A   1      43.214  22.697  25.600  1.00  0.00     0.010 A 
ATOM     35  C   UNL A   1      42.776  22.396  27.962  1.00  0.00     0.010 A 
ATOM     36  C   UNL A   1      43.233  23.203  26.910  1.00  0.00    -0.014 A 
BRANCH  36  37
ATOM     37  C   UNL A   1      43.718  24.575  27.200  1.00  0.00     0.031 A 
ATOM     38  C   UNL A   1      42.766  25.628  27.699  1.00  0.00     0.074 A 
ATOM     39  C   UNL A   1      45.000  24.895  26.935  1.00  0.00     0.049 A 
ATOM     40  N   UNL A   1      42.995  26.889  27.958  1.00  0.00    -0.248 NA
ATOM     41  C   UNL A   1      41.368  25.218  27.904  1.00  0.00     0.031 C 
ATOM     42  C   UNL A   1      46.001  23.982  26.380  1.00  0.00     0.029 A 
ATOM     43  N   UNL A   1      45.674  26.082  27.073  1.00  0.00    -0.354 N 
ATOM     44  C   UNL A   1      41.768  27.431  28.322  1.00  0.00     0.074 A 
ATOM     45  C   UNL A   1      40.790  26.370  28.210  1.00  0.00     0.031 C 
ATOM     46  C   UNL A   1      47.164  24.637  26.239  1.00  0.00     0.029 A 
ATOM     47  C   UNL A   1      46.982  26.024  26.655  1.00  0.00     0.049 A 
ATOM     48  H   UNL A   1      45.260  26.898  27.436  1.00  0.00     0.167 HD
ATOM     49  C   UNL A   1      41.484  28.687  28.741  1.00  0.00     0.034 A 
ATOM     50  C   UNL A   1      47.928  26.982  26.604  1.00  0.00     0.034 A 
ATOM     51  C   UNL A   1      42.465  29.729  28.877  1.00  0.00     0.049 A 
ATOM     52  C   UNL A   1      47.594  28.365  27.090  1.00  0.00     0.074 A 
ATOM     53  C   UNL A   1      42.297  31.010  29.370  1.00  0.00     0.029 A 
ATOM     54  N   UNL A   1      43.796  29.615  28.505  1.00  0.00    -0.354 N 
ATOM     55  N   UNL A   1      46.464  28.819  27.576  1.00  0.00    -0.248 NA
ATOM     56  C   UNL A   1      48.675  29.360  27.055  1.00  0.00     0.031 C 
ATOM     57  C   UNL A   1      43.518  31.684  29.262  1.00  0.00     0.029 A 
ATOM     58  C   UNL A   1      44.458  30.809  28.741  1.00  0.00     0.049 A 
ATOM     59  H   UNL A   1      44.210  28.806  28.128  1.00  0.00     0.167 HD
ATOM     60  C   UNL A   1      46.706  30.139  27.940  1.00  0.00     0.074 A 
ATOM     61  C   UNL A   1      48.098  30.405  27.633  1.00  0.00     0.031 C 
ATOM     62  C   UNL A   1      45.854  31.049  28.471  1.00  0.00     0.034 A 
BRANCH  49  63
ATOM     63  C   UNL A   1      40.054  28.988  29.115  1.00  0.00     0.023 A 
ATOM     64  C   UNL A   1      39.098  29.219  28.102  1.00  0.00     0.012 A 
ATOM     65  C   UNL A   1      39.646  29.013  30.463  1.00  0.00     0.148 A 
ATOM     66  C   UNL A   1      37.776  29.519  28.425  1.00  0.00     0.002 A 
ATOM     67  C   UNL A   1      38.315  29.262  30.776  1.00  0.00     0.091 A 
ATOM     68  F   UNL A   1      40.569  28.811  31.415  1.00  0.00    -0.205 F 
ATOM     69  C   UNL A   1      37.382  29.531  29.761  1.00  0.00     0.022 A 
BRANCH  67  70
ATOM     70  S   UNL A   1      37.691  29.216  32.459  1.00  0.00     0.127 S 
ATOM     71  O   UNL A   1      38.600  30.140  33.135  1.00  0.00    -0.237 OA
ATOM     72  O   UNL A   1      36.325  29.714  32.296  1.00  0.00    -0.237 OA
ATOM     73  O   UNL A   1      37.781  27.825  32.882  1.00  0.00    -0.744 OA
ENDBRANCH  67  70
ENDBRANCH  49  63
BRANCH  50  74
ATOM     74  C   UNL A   1      49.303  26.641  26.139  1.00  0.00     0.023 A 
ATOM     75  C   UNL A   1      50.114  25.812  26.938  1.00  0.00     0.012 A 
ATOM     76  C   UNL A   1      49.792  27.095  24.900  1.00  0.00     0.148 A 
ATOM     77  C   UNL A   1      51.401  25.464  26.524  1.00  0.00     0.002 A 
ATOM     78  C   UNL A   1      51.053  26.700  24.468  1.00  0.00     0.091 A 
ATOM     79  F   UNL A   1      49.004  27.885  24.158  1.00  0.00    -0.205 F 
ATOM     80  C   UNL A   1      51.866  25.900  25.287  1.00  0.00     0.022 A 
BRANCH  78  81
ATOM     81  S   UNL A   1      51.686  27.101  22.836  1.00  0.00     0.127 S 
ATOM     82  O   UNL A   1      51.949  28.532  22.958  1.00  0.00    -0.237 OA
ATOM     83  O   UNL A   1      52.879  26.257  22.762  1.00  0.00    -0.237 OA
ATOM     84  O   UNL A   1      50.631  26.734  21.900  1.00  0.00    -0.744 OA
ENDBRANCH  78  81
ENDBRANCH  50  74
BRANCH  62  85
ATOM     85  C   UNL A   1      46.403  32.413  28.798  1.00  0.00     0.023 A 
ATOM     86  C   UNL A   1      46.974  32.661  30.063  1.00  0.00     0.012 A 
ATOM     87  C   UNL A   1      46.419  33.429  27.822  1.00  0.00     0.148 A 
ATOM     88  C   UNL A   1      47.518  33.910  30.363  1.00  0.00     0.002 A 
ATOM     89  C   UNL A   1      47.011  34.653  28.109  1.00  0.00     0.091 A 
ATOM     90  F   UNL A   1      45.857  33.180  26.631  1.00  0.00    -0.205 F 
ATOM     91  C   UNL A   1      47.547  34.900  29.383  1.00  0.00     0.022 A 
BRANCH  89  92
ATOM     92  S   UNL A   1      47.186  35.952  26.881  1.00  0.00     0.127 S 
ATOM     93  O   UNL A   1      45.794  36.347  26.665  1.00  0.00    -0.237 OA
ATOM     94  O   UNL A   1      47.997  36.941  27.590  1.00  0.00    -0.237 OA
ATOM     95  O   UNL A   1      47.844  35.338  25.736  1.00  0.00    -0.744 OA
ENDBRANCH  89  92
ENDBRANCH  62  85
ENDBRANCH  36  37
ENDBRANCH  28  31
ENDBRANCH  26  27
ENDBRANCH   1  26
TORSDOF 15
ENDMDL
MODEL 2
REMARK VINA RESULT:     -12.9      5.971     12.126
REMARK SMILES C[NH+]1CCC(NC(=O)N[C@@H]2C=C[C@H](C(=O)NCCCNC(=O)c3ccc(-c4c5nc(c(-c6cccc(S(=O)(=O)[O-])c6F)c6ccc([nH]6)c(-c6cccc(S(=O)(=O)[O-])c6F)c6nc(c(-c7cccc(S(=O)(=O)[O-])c7F)c7ccc4[nH]7)C=C6)C=C5)cc3)C2)CC1
REMARK SMILES IDX 18 1 17 2 16 3 14 4 15 5 13 7 10 8 11 9 86 10 12 11 9 12
REMARK SMILES IDX 6 13 7 14 8 16 5 18 1 19 2 20 3 21 88 22 4 24 87 25 19 26
REMARK SMILES IDX 20 27 21 28 22 30 23 31 24 32 85 33 25 34 84 35 26 36 27 37
REMARK SMILES IDX 28 38 78 39 29 40 83 41 77 42 79 43 30 44 82 45 76 46 75 47
REMARK SMILES IDX 31 49 63 50 43 51 62 52 44 53 47 54 61 55 80 56 45 57 46 58
REMARK SMILES IDX 60 60 81 61 48 62 32 63 33 64 41 65 34 66 36 67 42 68 35 69
REMARK SMILES IDX 37 70 38 71 39 72 40 73 64 74 65 75 73 76 66 77 68 78 74 79
REMARK SMILES IDX 67 80 69 81 70 82 71 83 72 84 49 85 50 86 58 87 51 88 53 89
REMARK SMILES IDX 59 90 52 91 54 92 55 93 56 94 57 95
REMARK H PARENT 16 6 6 15 9 17 2 23 20 29 79 48 47 59
REMARK Flexibility Score: inf
ROOT
ATOM      1  C   UNL A   1      31.485  32.081  26.821  1.00  0.00     0.042 C 
ENDROOT
BRANCH   1   2
ATOM      2  C   UNL A   1      31.727  30.719  26.181  1.00  0.00     0.117 C 
BRANCH   2   3
ATOM      3  N   UNL A   1      31.028  30.586  24.916  1.00  0.00    -0.356 N 
ATOM      4  C   UNL A   1      30.874  29.473  24.141  1.00  0.00     0.227 C 
ATOM      5  O   UNL A   1      30.264  29.576  23.076  1.00  0.00    -0.274 OA
ATOM      6  H   UNL A   1      30.611  31.408  24.571  1.00  0.00     0.163 HD
BRANCH   4   7
ATOM      7  C   UNL A   1      31.402  28.149  24.671  1.00  0.00     0.103 C 
ATOM      8  C   UNL A   1      32.298  26.325  23.278  1.00  0.00     0.107 C 
ATOM      9  C   UNL A   1      30.854  26.129  23.607  1.00  0.00    -0.006 C 
ATOM     10  C   UNL A   1      32.649  27.674  23.913  1.00  0.00     0.047 C 
ATOM     11  C   UNL A   1      30.372  27.099  24.385  1.00  0.00    -0.016 C 
BRANCH   8  12
ATOM     12  N   UNL A   1      32.453  26.277  21.844  1.00  0.00    -0.332 N 
ATOM     13  N   UNL A   1      33.131  24.051  21.374  1.00  0.00    -0.335 N 
ATOM     14  C   UNL A   1      32.832  25.308  20.991  1.00  0.00     0.315 C 
ATOM     15  H   UNL A   1      33.394  23.459  20.634  1.00  0.00     0.165 HD
ATOM     16  O   UNL A   1      32.900  25.575  19.789  1.00  0.00    -0.249 OA
ATOM     17  H   UNL A   1      32.238  27.127  21.400  1.00  0.00     0.165 HD
BRANCH  13  18
ATOM     18  C   UNL A   1      33.137  23.410  22.673  1.00  0.00     0.095 C 
ATOM     19  C   UNL A   1      33.416  21.237  26.253  1.00  0.00     0.332 C 
ATOM     20  N   UNL A   1      33.505  21.504  24.812  1.00  0.00    -0.337 N 
ATOM     21  C   UNL A   1      34.487  22.578  24.580  1.00  0.00     0.264 C 
ATOM     22  C   UNL A   1      32.168  21.810  24.274  1.00  0.00     0.264 C 
ATOM     23  H   UNL A   1      33.834  20.680  24.310  1.00  0.00     0.347 HD
ATOM     24  C   UNL A   1      34.540  23.016  23.118  1.00  0.00     0.086 C 
ATOM     25  C   UNL A   1      32.215  22.204  22.790  1.00  0.00     0.086 C 
ENDBRANCH  13  18
ENDBRANCH   8  12
ENDBRANCH   4   7
ENDBRANCH   2   3
ENDBRANCH   1   2
BRANCH   1  26
ATOM     26  C   UNL A   1      32.768  32.788  27.250  1.00  0.00     0.118 C 
BRANCH  26  27
ATOM     27  N   UNL A   1      32.533  34.167  27.659  1.00  0.00    -0.352 N 
ATOM     28  C   UNL A   1      33.075  34.887  28.693  1.00  0.00     0.251 C 
ATOM     29  H   UNL A   1      31.884  34.659  27.106  1.00  0.00     0.163 HD
ATOM     30  O   UNL A   1      32.589  35.972  28.994  1.00  0.00    -0.269 OA
BRANCH  28  31
ATOM     31  C   UNL A   1      34.231  34.354  29.444  1.00  0.00     0.039 A 
ATOM     32  C   UNL A   1      34.000  33.667  30.640  1.00  0.00     0.014 A 
ATOM     33  C   UNL A   1      35.535  34.545  28.983  1.00  0.00     0.014 A 
ATOM     34  C   UNL A   1      35.077  33.123  31.341  1.00  0.00     0.010 A 
ATOM     35  C   UNL A   1      36.597  33.929  29.637  1.00  0.00     0.010 A 
ATOM     36  C   UNL A   1      36.381  33.220  30.828  1.00  0.00    -0.014 A 
BRANCH  36  37
ATOM     37  C   UNL A   1      37.531  32.582  31.516  1.00  0.00     0.031 A 
ATOM     38  C   UNL A   1      38.268  31.443  30.866  1.00  0.00     0.074 A 
ATOM     39  C   UNL A   1      37.857  32.974  32.763  1.00  0.00     0.049 A 
ATOM     40  N   UNL A   1      39.260  30.732  31.332  1.00  0.00    -0.248 NA
ATOM     41  C   UNL A   1      37.811  31.031  29.529  1.00  0.00     0.031 C 
ATOM     42  C   UNL A   1      37.171  34.017  33.528  1.00  0.00     0.029 A 
ATOM     43  N   UNL A   1      38.833  32.525  33.616  1.00  0.00    -0.354 N 
ATOM     44  C   UNL A   1      39.524  29.768  30.367  1.00  0.00     0.074 A 
ATOM     45  C   UNL A   1      38.560  29.961  29.306  1.00  0.00     0.031 C 
ATOM     46  C   UNL A   1      37.755  34.137  34.731  1.00  0.00     0.029 A 
ATOM     47  C   UNL A   1      38.830  33.157  34.837  1.00  0.00     0.049 A 
ATOM     48  H   UNL A   1      39.474  31.817  33.377  1.00  0.00     0.167 HD
ATOM     49  C   UNL A   1      40.498  28.827  30.348  1.00  0.00     0.034 A 
ATOM     50  C   UNL A   1      39.602  32.963  35.924  1.00  0.00     0.034 A 
ATOM     51  C   UNL A   1      41.472  28.658  31.393  1.00  0.00     0.049 A 
ATOM     52  C   UNL A   1      40.688  31.924  35.874  1.00  0.00     0.074 A 
ATOM     53  C   UNL A   1      42.549  27.792  31.434  1.00  0.00     0.029 A 
ATOM     54  N   UNL A   1      41.478  29.361  32.589  1.00  0.00    -0.354 N 
ATOM     55  N   UNL A   1      41.020  31.124  34.890  1.00  0.00    -0.248 NA
ATOM     56  C   UNL A   1      41.529  31.785  37.071  1.00  0.00     0.031 C 
ATOM     57  C   UNL A   1      43.184  27.943  32.671  1.00  0.00     0.029 A 
ATOM     58  C   UNL A   1      42.530  28.935  33.383  1.00  0.00     0.049 A 
ATOM     59  H   UNL A   1      40.830  30.059  32.837  1.00  0.00     0.167 HD
ATOM     60  C   UNL A   1      42.130  30.414  35.332  1.00  0.00     0.074 A 
ATOM     61  C   UNL A   1      42.424  30.892  36.669  1.00  0.00     0.031 C 
ATOM     62  C   UNL A   1      42.838  29.449  34.694  1.00  0.00     0.034 A 
BRANCH  49  63
ATOM     63  C   UNL A   1      40.575  27.930  29.137  1.00  0.00     0.023 A 
ATOM     64  C   UNL A   1      39.730  26.804  29.045  1.00  0.00     0.012 A 
ATOM     65  C   UNL A   1      41.460  28.215  28.079  1.00  0.00     0.148 A 
ATOM     66  C   UNL A   1      39.798  25.950  27.944  1.00  0.00     0.002 A 
ATOM     67  C   UNL A   1      41.485  27.388  26.961  1.00  0.00     0.091 A 
ATOM     68  F   UNL A   1      42.271  29.277  28.190  1.00  0.00    -0.205 F 
ATOM     69  C   UNL A   1      40.668  26.247  26.900  1.00  0.00     0.022 A 
BRANCH  67  70
ATOM     70  S   UNL A   1      42.510  27.731  25.527  1.00  0.00     0.127 S 
ATOM     71  O   UNL A   1      42.280  26.541  24.710  1.00  0.00    -0.237 OA
ATOM     72  O   UNL A   1      41.905  28.956  25.002  1.00  0.00    -0.237 OA
ATOM     73  O   UNL A   1      43.866  27.894  26.032  1.00  0.00    -0.744 OA
ENDBRANCH  67  70
ENDBRANCH  49  63
BRANCH  50  74
ATOM     74  C   UNL A   1      39.417  33.825  37.126  1.00  0.00     0.023 A 
ATOM     75  C   UNL A   1      39.844  35.167  37.084  1.00  0.00     0.012 A 
ATOM     76  C   UNL A   1      38.787  33.339  38.288  1.00  0.00     0.148 A 
ATOM     77  C   UNL A   1      39.674  36.002  38.189  1.00  0.00     0.002 A 
ATOM     78  C   UNL A   1      38.570  34.192  39.364  1.00  0.00     0.091 A 
ATOM     79  F   UNL A   1      38.391  32.059  38.307  1.00  0.00    -0.205 F 
ATOM     80  C   UNL A   1      39.028  35.519  39.323  1.00  0.00     0.022 A 
BRANCH  78  81
ATOM     81  S   UNL A   1      37.632  33.699  40.815  1.00  0.00     0.127 S 
ATOM     82  O   UNL A   1      38.573  32.812  41.493  1.00  0.00    -0.237 OA
ATOM     83  O   UNL A   1      37.408  34.985  41.476  1.00  0.00    -0.237 OA
ATOM     84  O   UNL A   1      36.423  33.064  40.308  1.00  0.00    -0.744 OA
ENDBRANCH  78  81
ENDBRANCH  50  74
BRANCH  62  85
ATOM     85  C   UNL A   1      44.029  28.867  35.410  1.00  0.00     0.023 A 
ATOM     86  C   UNL A   1      45.306  29.434  35.235  1.00  0.00     0.012 A 
ATOM     87  C   UNL A   1      43.865  27.799  36.315  1.00  0.00     0.148 A 
ATOM     88  C   UNL A   1      46.409  28.925  35.921  1.00  0.00     0.002 A 
ATOM     89  C   UNL A   1      44.957  27.332  37.036  1.00  0.00     0.091 A 
ATOM     90  F   UNL A   1      42.645  27.261  36.456  1.00  0.00    -0.205 F 
ATOM     91  C   UNL A   1      46.232  27.883  36.830  1.00  0.00     0.022 A 
BRANCH  89  92
ATOM     92  S   UNL A   1      44.808  26.064  38.299  1.00  0.00     0.127 S 
ATOM     93  O   UNL A   1      43.839  26.666  39.214  1.00  0.00    -0.237 OA
ATOM     94  O   UNL A   1      44.299  24.925  37.535  1.00  0.00    -0.237 OA
ATOM     95  O   UNL A   1      46.146  25.878  38.844  1.00  0.00    -0.744 OA
ENDBRANCH  89  92
ENDBRANCH  62  85
ENDBRANCH  36  37
ENDBRANCH  28  31
ENDBRANCH  26  27
ENDBRANCH   1  26
TORSDOF 15
ENDMDL
MODEL 3
REMARK VINA RESULT:     -12.6      1.491      7.770
REMARK SMILES C[NH+]1CCC(NC(=O)N[C@@H]2C=C[C@H](C(=O)NCCCNC(=O)c3ccc(-c4c5nc(c(-c6cccc(S(=O)(=O)[O-])c6F)c6ccc([nH]6)c(-c6cccc(S(=O)(=O)[O-])c6F)c6nc(c(-c7cccc(S(=O)(=O)[O-])c7F)c7ccc4[nH]7)C=C6)C=C5)cc3)C2)CC1
REMARK SMILES IDX 18 1 17 2 16 3 14 4 15 5 13 7 10 8 11 9 86 10 12 11 9 12
REMARK SMILES IDX 6 13 7 14 8 16 5 18 1 19 2 20 3 21 88 22 4 24 87 25 19 26
REMARK SMILES IDX 20 27 21 28 22 30 23 31 24 32 85 33 25 34 84 35 26 36 27 37
REMARK SMILES IDX 28 38 78 39 29 40 83 41 77 42 79 43 30 44 82 45 76 46 75 47
REMARK SMILES IDX 31 49 63 50 43 51 62 52 44 53 47 54 61 55 80 56 45 57 46 58
REMARK SMILES IDX 60 60 81 61 48 62 32 63 33 64 41 65 34 66 36 67 42 68 35 69
REMARK SMILES IDX 37 70 38 71 39 72 40 73 64 74 65 75 73 76 66 77 68 78 74 79
REMARK SMILES IDX 67 80 69 81 70 82 71 83 72 84 49 85 50 86 58 87 51 88 53 89
REMARK SMILES IDX 59 90 52 91 54 92 55 93 56 94 57 95
REMARK H PARENT 16 6 6 15 9 17 2 23 20 29 79 48 47 59
REMARK Flexibility Score: inf
ROOT
ATOM      1  C   UNL A   1      38.153  19.632  24.957  1.00  0.00     0.042 C 
ENDROOT
BRANCH   1   2
ATOM      2  C   UNL A   1      36.940  20.548  24.853  1.00  0.00     0.117 C 
BRANCH   2   3
ATOM      3  N   UNL A   1      35.696  19.813  24.995  1.00  0.00    -0.356 N 
ATOM      4  C   UNL A   1      34.418  20.294  24.999  1.00  0.00     0.227 C 
ATOM      5  O   UNL A   1      33.491  19.502  25.164  1.00  0.00    -0.274 OA
ATOM      6  H   UNL A   1      35.786  18.839  25.105  1.00  0.00     0.163 HD
BRANCH   4   7
ATOM      7  C   UNL A   1      34.207  21.775  24.724  1.00  0.00     0.103 C 
ATOM      8  C   UNL A   1      32.328  23.118  25.584  1.00  0.00     0.107 C 
ATOM      9  C   UNL A   1      32.072  22.604  24.205  1.00  0.00    -0.006 C 
ATOM     10  C   UNL A   1      33.691  22.528  25.959  1.00  0.00     0.047 C 
ATOM     11  C   UNL A   1      33.098  21.901  23.724  1.00  0.00    -0.016 C 
BRANCH   8  12
ATOM     12  N   UNL A   1      31.240  22.705  26.437  1.00  0.00    -0.332 N 
ATOM     13  N   UNL A   1      29.771  24.569  26.504  1.00  0.00    -0.335 N 
ATOM     14  C   UNL A   1      30.125  23.321  26.870  1.00  0.00     0.315 C 
ATOM     15  H   UNL A   1      28.930  24.881  26.908  1.00  0.00     0.165 HD
ATOM     16  O   UNL A   1      29.374  22.710  27.635  1.00  0.00    -0.249 OA
ATOM     17  H   UNL A   1      31.333  21.784  26.771  1.00  0.00     0.165 HD
BRANCH  13  18
ATOM     18  C   UNL A   1      30.400  25.536  25.628  1.00  0.00     0.095 C 
ATOM     19  C   UNL A   1      32.022  28.655  23.336  1.00  0.00     0.332 C 
ATOM     20  N   UNL A   1      31.127  27.991  24.291  1.00  0.00    -0.337 N 
ATOM     21  C   UNL A   1      31.921  27.485  25.425  1.00  0.00     0.264 C 
ATOM     22  C   UNL A   1      30.351  26.941  23.608  1.00  0.00     0.264 C 
ATOM     23  H   UNL A   1      30.447  28.650  24.669  1.00  0.00     0.347 HD
ATOM     24  C   UNL A   1      31.086  26.657  26.400  1.00  0.00     0.086 C 
ATOM     25  C   UNL A   1      29.475  26.140  24.581  1.00  0.00     0.086 C 
ENDBRANCH  13  18
ENDBRANCH   8  12
ENDBRANCH   4   7
ENDBRANCH   2   3
ENDBRANCH   1   2
BRANCH   1  26
ATOM     26  C   UNL A   1      39.196  20.116  25.960  1.00  0.00     0.118 C 
BRANCH  26  27
ATOM     27  N   UNL A   1      40.360  19.241  26.021  1.00  0.00    -0.352 N 
ATOM     28  C   UNL A   1      41.693  19.547  26.125  1.00  0.00     0.251 C 
ATOM     29  H   UNL A   1      40.157  18.278  25.980  1.00  0.00     0.163 HD
ATOM     30  O   UNL A   1      42.530  18.668  25.950  1.00  0.00    -0.269 OA
BRANCH  28  31
ATOM     31  C   UNL A   1      42.115  20.928  26.436  1.00  0.00     0.039 A 
ATOM     32  C   UNL A   1      42.299  21.831  25.385  1.00  0.00     0.014 A 
ATOM     33  C   UNL A   1      42.347  21.327  27.754  1.00  0.00     0.014 A 
ATOM     34  C   UNL A   1      42.659  23.150  25.664  1.00  0.00     0.010 A 
ATOM     35  C   UNL A   1      42.621  22.661  28.036  1.00  0.00     0.010 A 
ATOM     36  C   UNL A   1      42.791  23.585  26.994  1.00  0.00    -0.014 A 
BRANCH  36  37
ATOM     37  C   UNL A   1      43.096  25.001  27.317  1.00  0.00     0.031 A 
ATOM     38  C   UNL A   1      44.494  25.533  27.155  1.00  0.00     0.074 A 
ATOM     39  C   UNL A   1      42.130  25.784  27.836  1.00  0.00     0.049 A 
ATOM     40  N   UNL A   1      44.959  26.722  27.433  1.00  0.00    -0.248 NA
ATOM     41  C   UNL A   1      45.507  24.598  26.643  1.00  0.00     0.031 C 
ATOM     42  C   UNL A   1      40.755  25.362  28.108  1.00  0.00     0.029 A 
ATOM     43  N   UNL A   1      42.164  27.092  28.249  1.00  0.00    -0.354 N 
ATOM     44  C   UNL A   1      46.321  26.670  27.164  1.00  0.00     0.074 A 
ATOM     45  C   UNL A   1      46.615  25.319  26.740  1.00  0.00     0.031 C 
ATOM     46  C   UNL A   1      40.073  26.395  28.630  1.00  0.00     0.029 A 
ATOM     47  C   UNL A   1      40.970  27.538  28.764  1.00  0.00     0.049 A 
ATOM     48  H   UNL A   1      42.967  27.657  28.184  1.00  0.00     0.167 HD
ATOM     49  C   UNL A   1      47.241  27.663  27.233  1.00  0.00     0.034 A 
ATOM     50  C   UNL A   1      40.636  28.731  29.293  1.00  0.00     0.034 A 
ATOM     51  C   UNL A   1      46.938  29.011  27.629  1.00  0.00     0.049 A 
ATOM     52  C   UNL A   1      41.669  29.822  29.345  1.00  0.00     0.074 A 
ATOM     53  C   UNL A   1      47.777  30.110  27.654  1.00  0.00     0.029 A 
ATOM     54  N   UNL A   1      45.701  29.443  28.084  1.00  0.00    -0.354 N 
ATOM     55  N   UNL A   1      42.916  29.798  28.942  1.00  0.00    -0.248 NA
ATOM     56  C   UNL A   1      41.240  31.117  29.891  1.00  0.00     0.031 C 
ATOM     57  C   UNL A   1      47.058  31.198  28.159  1.00  0.00     0.029 A 
ATOM     58  C   UNL A   1      45.758  30.789  28.409  1.00  0.00     0.049 A 
ATOM     59  H   UNL A   1      44.900  28.877  28.164  1.00  0.00     0.167 HD
ATOM     60  C   UNL A   1      43.410  31.081  29.149  1.00  0.00     0.074 A 
ATOM     61  C   UNL A   1      42.320  31.862  29.698  1.00  0.00     0.031 C 
ATOM     62  C   UNL A   1      44.654  31.566  28.914  1.00  0.00     0.034 A 
BRANCH  49  63
ATOM     63  C   UNL A   1      48.657  27.327  26.838  1.00  0.00     0.023 A 
ATOM     64  C   UNL A   1      49.519  26.715  27.773  1.00  0.00     0.012 A 
ATOM     65  C   UNL A   1      49.128  27.586  25.536  1.00  0.00     0.148 A 
ATOM     66  C   UNL A   1      50.838  26.415  27.436  1.00  0.00     0.002 A 
ATOM     67  C   UNL A   1      50.428  27.235  25.191  1.00  0.00     0.091 A 
ATOM     68  F   UNL A   1      48.303  28.184  24.664  1.00  0.00    -0.205 F 
ATOM     69  C   UNL A   1      51.289  26.666  26.143  1.00  0.00     0.022 A 
BRANCH  67  70
ATOM     70  S   UNL A   1      51.077  27.440  23.529  1.00  0.00     0.127 S 
ATOM     71  O   UNL A   1      52.375  26.774  23.636  1.00  0.00    -0.237 OA
ATOM     72  O   UNL A   1      50.089  26.724  22.722  1.00  0.00    -0.237 OA
ATOM     73  O   UNL A   1      51.127  28.876  23.293  1.00  0.00    -0.744 OA
ENDBRANCH  67  70
ENDBRANCH  49  63
BRANCH  50  74
ATOM     74  C   UNL A   1      39.238  28.972  29.750  1.00  0.00     0.023 A 
ATOM     75  C   UNL A   1      38.887  28.678  31.082  1.00  0.00     0.012 A 
ATOM     76  C   UNL A   1      38.270  29.527  28.890  1.00  0.00     0.148 A 
ATOM     77  C   UNL A   1      37.589  28.904  31.543  1.00  0.00     0.002 A 
ATOM     78  C   UNL A   1      36.996  29.802  29.370  1.00  0.00     0.091 A 
ATOM     79  F   UNL A   1      38.625  29.796  27.626  1.00  0.00    -0.205 F 
ATOM     80  C   UNL A   1      36.647  29.475  30.691  1.00  0.00     0.022 A 
BRANCH  78  81
ATOM     81  S   UNL A   1      35.755  30.655  28.390  1.00  0.00     0.127 S 
ATOM     82  O   UNL A   1      35.189  29.561  27.605  1.00  0.00    -0.237 OA
ATOM     83  O   UNL A   1      34.874  31.193  29.426  1.00  0.00    -0.237 OA
ATOM     84  O   UNL A   1      36.478  31.666  27.630  1.00  0.00    -0.744 OA
ENDBRANCH  78  81
ENDBRANCH  50  74
BRANCH  62  85
ATOM     85  C   UNL A   1      44.903  33.023  29.208  1.00  0.00     0.023 A 
ATOM     86  C   UNL A   1      45.423  33.413  30.458  1.00  0.00     0.012 A 
ATOM     87  C   UNL A   1      44.689  33.998  28.214  1.00  0.00     0.148 A 
ATOM     88  C   UNL A   1      45.691  34.755  30.728  1.00  0.00     0.002 A 
ATOM     89  C   UNL A   1      45.009  35.326  28.470  1.00  0.00     0.091 A 
ATOM     90  F   UNL A   1      44.179  33.610  27.037  1.00  0.00    -0.205 F 
ATOM     91  C   UNL A   1      45.496  35.708  29.731  1.00  0.00     0.022 A 
BRANCH  89  92
ATOM     92  S   UNL A   1      44.887  36.606  27.216  1.00  0.00     0.127 S 
ATOM     93  O   UNL A   1      45.330  37.789  27.954  1.00  0.00    -0.237 OA
ATOM     94  O   UNL A   1      45.827  36.135  26.200  1.00  0.00    -0.237 OA
ATOM     95  O   UNL A   1      43.494  36.623  26.791  1.00  0.00    -0.744 OA
ENDBRANCH  89  92
ENDBRANCH  62  85
ENDBRANCH  36  37
ENDBRANCH  28  31
ENDBRANCH  26  27
ENDBRANCH   1  26
TORSDOF 15
ENDMDL
