MODEL 1
REMARK VINA RESULT:     -12.2      0.000      0.000
REMARK SMILES Cc1nc(C)c(C(=O)N[C@@H](Cc2ccccc2)C(=O)NCCCNC(=O)c2ccc(-c3c4nc(c(-c5cccc(S(=O)(=O)[O-])c5F)c5ccc([nH]5)c(-c5cccc(S(=O)(=O)[O-])c5F)c5nc(c(-c6cccc(S(=O)(=O)[O-])c6F)c6ccc3[nH]6)C=C5)C=C4)cc2)s1
REMARK SMILES IDX 22 1 21 2 20 3 18 4 19 5 10 7 9 8 7 9 8 10 6 12 1 13 2 14
REMARK SMILES IDX 3 15 90 16 4 17 5 18 11 19 12 20 13 21 17 22 14 23 16 24
REMARK SMILES IDX 15 25 23 26 24 27 25 28 26 30 27 31 28 32 89 33 29 34 88 35
REMARK SMILES IDX 30 36 31 37 32 38 82 39 33 40 87 41 81 42 83 43 34 44 86 45
REMARK SMILES IDX 80 46 79 47 35 49 67 50 47 51 66 52 48 53 51 54 65 55 84 56
REMARK SMILES IDX 49 57 50 58 64 60 85 61 52 62 36 63 37 64 45 65 38 66 40 67
REMARK SMILES IDX 46 68 39 69 41 70 42 71 43 72 44 73 68 74 69 75 77 76 70 77
REMARK SMILES IDX 72 78 78 79 71 80 73 81 74 82 75 83 76 84 53 85 54 86 62 87
REMARK SMILES IDX 55 88 57 89 63 90 56 91 58 92 59 93 60 94 61 95
REMARK H PARENT 20 6 9 11 24 29 83 48 51 59
REMARK Flexibility Score: inf
ROOT
ATOM      1  C   UNL A   1      31.255  31.495  26.150  1.00  0.00     0.042 C 
ENDROOT
BRANCH   1   2
ATOM      2  C   UNL A   1      31.424  30.241  25.321  1.00  0.00     0.117 C 
BRANCH   2   3
ATOM      3  N   UNL A   1      32.782  29.950  24.911  1.00  0.00    -0.354 N 
ATOM      4  C   UNL A   1      33.283  28.799  24.374  1.00  0.00     0.242 C 
ATOM      5  O   UNL A   1      34.290  28.909  23.663  1.00  0.00    -0.273 OA
ATOM      6  H   UNL A   1      33.431  30.680  25.037  1.00  0.00     0.163 HD
BRANCH   4   7
ATOM      7  C   UNL A   1      32.608  27.417  24.545  1.00  0.00     0.176 C 
BRANCH   7   8
ATOM      8  N   UNL A   1      32.145  26.841  23.277  1.00  0.00    -0.339 N 
ATOM      9  C   UNL A   1      31.151  27.123  22.372  1.00  0.00     0.263 C 
ATOM     10  O   UNL A   1      31.269  26.456  21.336  1.00  0.00    -0.268 OA
ATOM     11  H   UNL A   1      32.680  26.059  23.009  1.00  0.00     0.164 HD
BRANCH   9  12
ATOM     12  C   UNL A   1      30.032  28.041  22.564  1.00  0.00     0.115 A 
ATOM     13  C   UNL A   1      27.781  31.229  22.654  1.00  0.00     0.079 C 
ATOM     14  C   UNL A   1      28.452  29.904  22.725  1.00  0.00     0.091 A 
ATOM     15  N   UNL A   1      27.955  28.858  23.336  1.00  0.00    -0.246 NA
ATOM     16  S   UNL A   1      29.971  29.657  22.003  1.00  0.00    -0.113 S 
ATOM     17  C   UNL A   1      28.837  27.782  23.243  1.00  0.00     0.061 A 
ATOM     18  C   UNL A   1      28.381  26.527  23.910  1.00  0.00     0.068 C 
ENDBRANCH   9  12
ENDBRANCH   7   8
BRANCH   7  19
ATOM     19  C   UNL A   1      33.347  26.415  25.459  1.00  0.00     0.070 C 
BRANCH  19  20
ATOM     20  C   UNL A   1      32.665  25.119  25.816  1.00  0.00    -0.045 A 
ATOM     21  C   UNL A   1      33.393  23.925  25.934  1.00  0.00     0.004 A 
ATOM     22  C   UNL A   1      31.284  25.099  26.068  1.00  0.00     0.004 A 
ATOM     23  C   UNL A   1      32.764  22.757  26.374  1.00  0.00     0.000 A 
ATOM     24  C   UNL A   1      30.656  23.926  26.492  1.00  0.00     0.000 A 
ATOM     25  C   UNL A   1      31.400  22.760  26.663  1.00  0.00     0.000 A 
ENDBRANCH  19  20
ENDBRANCH   7  19
ENDBRANCH   4   7
ENDBRANCH   2   3
ENDBRANCH   1   2
BRANCH   1  26
ATOM     26  C   UNL A   1      32.365  31.712  27.163  1.00  0.00     0.118 C 
BRANCH  26  27
ATOM     27  N   UNL A   1      32.687  33.120  27.393  1.00  0.00    -0.352 N 
ATOM     28  C   UNL A   1      33.777  33.715  27.988  1.00  0.00     0.251 C 
ATOM     29  H   UNL A   1      32.007  33.753  27.066  1.00  0.00     0.163 HD
ATOM     30  O   UNL A   1      33.766  34.926  28.198  1.00  0.00    -0.269 OA
BRANCH  28  31
ATOM     31  C   UNL A   1      34.939  32.901  28.404  1.00  0.00     0.039 A 
ATOM     32  C   UNL A   1      36.230  33.422  28.260  1.00  0.00     0.014 A 
ATOM     33  C   UNL A   1      34.762  31.637  28.960  1.00  0.00     0.014 A 
ATOM     34  C   UNL A   1      37.322  32.718  28.776  1.00  0.00     0.010 A 
ATOM     35  C   UNL A   1      35.826  31.003  29.586  1.00  0.00     0.010 A 
ATOM     36  C   UNL A   1      37.122  31.530  29.497  1.00  0.00    -0.014 A 
BRANCH  36  37
ATOM     37  C   UNL A   1      38.235  30.811  30.171  1.00  0.00     0.031 A 
ATOM     38  C   UNL A   1      38.619  31.181  31.582  1.00  0.00     0.074 A 
ATOM     39  C   UNL A   1      38.977  29.923  29.479  1.00  0.00     0.049 A 
ATOM     40  N   UNL A   1      39.645  30.784  32.289  1.00  0.00    -0.248 NA
ATOM     41  C   UNL A   1      37.765  32.164  32.273  1.00  0.00     0.031 C 
ATOM     42  C   UNL A   1      38.770  29.548  28.078  1.00  0.00     0.029 A 
ATOM     43  N   UNL A   1      40.081  29.196  29.851  1.00  0.00    -0.354 N 
ATOM     44  C   UNL A   1      39.589  31.506  33.475  1.00  0.00     0.074 A 
ATOM     45  C   UNL A   1      38.455  32.397  33.378  1.00  0.00     0.031 C 
ATOM     46  C   UNL A   1      39.704  28.654  27.714  1.00  0.00     0.029 A 
ATOM     47  C   UNL A   1      40.598  28.415  28.842  1.00  0.00     0.049 A 
ATOM     48  H   UNL A   1      40.467  29.229  30.756  1.00  0.00     0.167 HD
ATOM     49  C   UNL A   1      40.382  31.409  34.568  1.00  0.00     0.034 A 
ATOM     50  C   UNL A   1      41.672  27.603  28.827  1.00  0.00     0.034 A 
ATOM     51  C   UNL A   1      41.454  30.460  34.696  1.00  0.00     0.049 A 
ATOM     52  C   UNL A   1      42.485  27.449  30.084  1.00  0.00     0.074 A 
ATOM     53  C   UNL A   1      42.256  30.211  35.795  1.00  0.00     0.029 A 
ATOM     54  N   UNL A   1      41.863  29.594  33.694  1.00  0.00    -0.354 N 
ATOM     55  N   UNL A   1      42.321  28.032  31.249  1.00  0.00    -0.248 NA
ATOM     56  C   UNL A   1      43.607  26.501  30.041  1.00  0.00     0.031 C 
ATOM     57  C   UNL A   1      43.151  29.191  35.457  1.00  0.00     0.029 A 
ATOM     58  C   UNL A   1      42.899  28.801  34.152  1.00  0.00     0.049 A 
ATOM     59  H   UNL A   1      41.474  29.550  32.791  1.00  0.00     0.167 HD
ATOM     60  C   UNL A   1      43.293  27.492  32.083  1.00  0.00     0.074 A 
ATOM     61  C   UNL A   1      44.026  26.521  31.299  1.00  0.00     0.031 C 
ATOM     62  C   UNL A   1      43.567  27.788  33.377  1.00  0.00     0.034 A 
BRANCH  49  63
ATOM     63  C   UNL A   1      40.065  32.291  35.747  1.00  0.00     0.023 A 
ATOM     64  C   UNL A   1      40.751  33.513  35.898  1.00  0.00     0.012 A 
ATOM     65  C   UNL A   1      39.056  31.946  36.667  1.00  0.00     0.148 A 
ATOM     66  C   UNL A   1      40.463  34.363  36.964  1.00  0.00     0.002 A 
ATOM     67  C   UNL A   1      38.744  32.821  37.703  1.00  0.00     0.091 A 
ATOM     68  F   UNL A   1      38.428  30.770  36.520  1.00  0.00    -0.205 F 
ATOM     69  C   UNL A   1      39.455  34.023  37.859  1.00  0.00     0.022 A 
BRANCH  67  70
ATOM     70  S   UNL A   1      37.410  32.514  38.867  1.00  0.00     0.127 S 
ATOM     71  O   UNL A   1      36.237  32.875  38.072  1.00  0.00    -0.237 OA
ATOM     72  O   UNL A   1      37.552  31.081  39.126  1.00  0.00    -0.237 OA
ATOM     73  O   UNL A   1      37.674  33.369  40.015  1.00  0.00    -0.744 OA
ENDBRANCH  67  70
ENDBRANCH  49  63
BRANCH  50  74
ATOM     74  C   UNL A   1      41.991  26.800  27.610  1.00  0.00     0.023 A 
ATOM     75  C   UNL A   1      42.579  27.443  26.503  1.00  0.00     0.012 A 
ATOM     76  C   UNL A   1      41.737  25.418  27.544  1.00  0.00     0.148 A 
ATOM     77  C   UNL A   1      42.871  26.733  25.338  1.00  0.00     0.002 A 
ATOM     78  C   UNL A   1      42.080  24.705  26.399  1.00  0.00     0.091 A 
ATOM     79  F   UNL A   1      41.163  24.823  28.600  1.00  0.00    -0.205 F 
ATOM     80  C   UNL A   1      42.632  25.363  25.289  1.00  0.00     0.022 A 
BRANCH  78  81
ATOM     81  S   UNL A   1      41.926  22.917  26.306  1.00  0.00     0.127 S 
ATOM     82  O   UNL A   1      42.652  22.491  27.499  1.00  0.00    -0.237 OA
ATOM     83  O   UNL A   1      40.476  22.729  26.366  1.00  0.00    -0.237 OA
ATOM     84  O   UNL A   1      42.521  22.548  25.028  1.00  0.00    -0.744 OA
ENDBRANCH  78  81
ENDBRANCH  50  74
BRANCH  62  85
ATOM     85  C   UNL A   1      44.678  27.027  34.047  1.00  0.00     0.023 A 
ATOM     86  C   UNL A   1      46.004  27.489  33.938  1.00  0.00     0.012 A 
ATOM     87  C   UNL A   1      44.396  25.907  34.854  1.00  0.00     0.148 A 
ATOM     88  C   UNL A   1      47.039  26.831  34.601  1.00  0.00     0.002 A 
ATOM     89  C   UNL A   1      45.426  25.284  35.549  1.00  0.00     0.091 A 
ATOM     90  F   UNL A   1      43.130  25.472  34.927  1.00  0.00    -0.205 F 
ATOM     91  C   UNL A   1      46.749  25.737  35.416  1.00  0.00     0.022 A 
BRANCH  89  92
ATOM     92  S   UNL A   1      45.129  23.931  36.692  1.00  0.00     0.127 S 
ATOM     93  O   UNL A   1      44.230  24.553  37.663  1.00  0.00    -0.237 OA
ATOM     94  O   UNL A   1      44.498  22.928  35.833  1.00  0.00    -0.237 OA
ATOM     95  O   UNL A   1      46.437  23.547  37.205  1.00  0.00    -0.744 OA
ENDBRANCH  89  92
ENDBRANCH  62  85
ENDBRANCH  36  37
ENDBRANCH  28  31
ENDBRANCH  26  27
ENDBRANCH   1  26
TORSDOF 17
ENDMDL
MODEL 2
REMARK VINA RESULT:     -12.2      2.166      8.271
REMARK SMILES Cc1nc(C)c(C(=O)N[C@@H](Cc2ccccc2)C(=O)NCCCNC(=O)c2ccc(-c3c4nc(c(-c5cccc(S(=O)(=O)[O-])c5F)c5ccc([nH]5)c(-c5cccc(S(=O)(=O)[O-])c5F)c5nc(c(-c6cccc(S(=O)(=O)[O-])c6F)c6ccc3[nH]6)C=C5)C=C4)cc2)s1
REMARK SMILES IDX 22 1 21 2 20 3 18 4 19 5 10 7 9 8 7 9 8 10 6 12 1 13 2 14
REMARK SMILES IDX 3 15 90 16 4 17 5 18 11 19 12 20 13 21 17 22 14 23 16 24
REMARK SMILES IDX 15 25 23 26 24 27 25 28 26 30 27 31 28 32 89 33 29 34 88 35
REMARK SMILES IDX 30 36 31 37 32 38 82 39 33 40 87 41 81 42 83 43 34 44 86 45
REMARK SMILES IDX 80 46 79 47 35 49 67 50 47 51 66 52 48 53 51 54 65 55 84 56
REMARK SMILES IDX 49 57 50 58 64 60 85 61 52 62 36 63 37 64 45 65 38 66 40 67
REMARK SMILES IDX 46 68 39 69 41 70 42 71 43 72 44 73 68 74 69 75 77 76 70 77
REMARK SMILES IDX 72 78 78 79 71 80 73 81 74 82 75 83 76 84 53 85 54 86 62 87
REMARK SMILES IDX 55 88 57 89 63 90 56 91 58 92 59 93 60 94 61 95
REMARK H PARENT 20 6 9 11 24 29 83 48 51 59
REMARK Flexibility Score: inf
ROOT
ATOM      1  C   UNL A   1      32.812  27.954  26.163  1.00  0.00     0.042 C 
ENDROOT
BRANCH   1   2
ATOM      2  C   UNL A   1      31.350  27.581  26.276  1.00  0.00     0.117 C 
BRANCH   2   3
ATOM      3  N   UNL A   1      30.684  27.303  25.021  1.00  0.00    -0.354 N 
ATOM      4  C   UNL A   1      30.448  26.095  24.430  1.00  0.00     0.242 C 
ATOM      5  O   UNL A   1      29.480  26.031  23.662  1.00  0.00    -0.273 OA
ATOM      6  H   UNL A   1      30.358  28.090  24.527  1.00  0.00     0.163 HD
BRANCH   4   7
ATOM      7  C   UNL A   1      31.269  24.820  24.742  1.00  0.00     0.176 C 
BRANCH   7   8
ATOM      8  N   UNL A   1      30.472  23.761  25.368  1.00  0.00    -0.339 N 
ATOM      9  C   UNL A   1      30.724  22.517  25.894  1.00  0.00     0.263 C 
ATOM     10  O   UNL A   1      29.742  22.060  26.490  1.00  0.00    -0.268 OA
ATOM     11  H   UNL A   1      29.519  24.000  25.426  1.00  0.00     0.164 HD
BRANCH   9  12
ATOM     12  C   UNL A   1      31.958  21.747  25.756  1.00  0.00     0.115 A 
ATOM     13  C   UNL A   1      34.652  19.175  24.587  1.00  0.00     0.079 C 
ATOM     14  C   UNL A   1      33.789  20.221  25.197  1.00  0.00     0.091 A 
ATOM     15  N   UNL A   1      34.096  20.893  26.278  1.00  0.00    -0.246 NA
ATOM     16  S   UNL A   1      32.284  20.616  24.512  1.00  0.00    -0.113 S 
ATOM     17  C   UNL A   1      33.070  21.778  26.604  1.00  0.00     0.061 A 
ATOM     18  C   UNL A   1      33.303  22.600  27.827  1.00  0.00     0.068 C 
ENDBRANCH   9  12
ENDBRANCH   7   8
BRANCH   7  19
ATOM     19  C   UNL A   1      32.200  24.326  23.613  1.00  0.00     0.070 C 
BRANCH  19  20
ATOM     20  C   UNL A   1      33.662  24.121  23.916  1.00  0.00    -0.045 A 
ATOM     21  C   UNL A   1      34.271  24.747  25.014  1.00  0.00     0.004 A 
ATOM     22  C   UNL A   1      34.433  23.264  23.112  1.00  0.00     0.004 A 
ATOM     23  C   UNL A   1      35.597  24.458  25.345  1.00  0.00     0.000 A 
ATOM     24  C   UNL A   1      35.763  22.991  23.437  1.00  0.00     0.000 A 
ATOM     25  C   UNL A   1      36.339  23.573  24.564  1.00  0.00     0.000 A 
ENDBRANCH  19  20
ENDBRANCH   7  19
ENDBRANCH   4   7
ENDBRANCH   2   3
ENDBRANCH   1   2
BRANCH   1  26
ATOM     26  C   UNL A   1      33.060  29.208  25.341  1.00  0.00     0.118 C 
BRANCH  26  27
ATOM     27  N   UNL A   1      32.545  30.429  25.961  1.00  0.00    -0.352 N 
ATOM     28  C   UNL A   1      33.059  31.223  26.961  1.00  0.00     0.251 C 
ATOM     29  H   UNL A   1      31.681  30.737  25.601  1.00  0.00     0.163 HD
ATOM     30  O   UNL A   1      32.374  32.134  27.423  1.00  0.00    -0.269 OA
BRANCH  28  31
ATOM     31  C   UNL A   1      34.410  30.964  27.503  1.00  0.00     0.039 A 
ATOM     32  C   UNL A   1      35.285  32.036  27.709  1.00  0.00     0.014 A 
ATOM     33  C   UNL A   1      34.809  29.672  27.834  1.00  0.00     0.014 A 
ATOM     34  C   UNL A   1      36.510  31.817  28.347  1.00  0.00     0.010 A 
ATOM     35  C   UNL A   1      35.961  29.476  28.582  1.00  0.00     0.010 A 
ATOM     36  C   UNL A   1      36.832  30.543  28.843  1.00  0.00    -0.014 A 
BRANCH  36  37
ATOM     37  C   UNL A   1      38.062  30.287  29.637  1.00  0.00     0.031 A 
ATOM     38  C   UNL A   1      39.123  29.362  29.093  1.00  0.00     0.074 A 
ATOM     39  C   UNL A   1      38.169  30.776  30.888  1.00  0.00     0.049 A 
ATOM     40  N   UNL A   1      40.191  28.893  29.684  1.00  0.00    -0.248 NA
ATOM     41  C   UNL A   1      38.935  28.861  27.720  1.00  0.00     0.031 C 
ATOM     42  C   UNL A   1      37.169  31.604  31.568  1.00  0.00     0.029 A 
ATOM     43  N   UNL A   1      39.157  30.622  31.829  1.00  0.00    -0.354 N 
ATOM     44  C   UNL A   1      40.765  28.006  28.782  1.00  0.00     0.074 A 
ATOM     45  C   UNL A   1      39.906  27.967  27.620  1.00  0.00     0.031 C 
ATOM     46  C   UNL A   1      37.599  31.894  32.806  1.00  0.00     0.029 A 
ATOM     47  C   UNL A   1      38.889  31.248  33.025  1.00  0.00     0.049 A 
ATOM     48  H   UNL A   1      39.983  30.111  31.663  1.00  0.00     0.167 HD
ATOM     49  C   UNL A   1      41.924  27.315  28.888  1.00  0.00     0.034 A 
ATOM     50  C   UNL A   1      39.599  31.292  34.169  1.00  0.00     0.034 A 
ATOM     51  C   UNL A   1      42.819  27.424  30.007  1.00  0.00     0.049 A 
ATOM     52  C   UNL A   1      40.926  30.585  34.228  1.00  0.00     0.074 A 
ATOM     53  C   UNL A   1      44.065  26.845  30.171  1.00  0.00     0.029 A 
ATOM     54  N   UNL A   1      42.570  28.174  31.146  1.00  0.00    -0.354 N 
ATOM     55  N   UNL A   1      41.523  29.872  33.302  1.00  0.00    -0.248 NA
ATOM     56  C   UNL A   1      41.697  30.718  35.473  1.00  0.00     0.031 C 
ATOM     57  C   UNL A   1      44.570  27.247  31.413  1.00  0.00     0.029 A 
ATOM     58  C   UNL A   1      43.642  28.082  32.014  1.00  0.00     0.049 A 
ATOM     59  H   UNL A   1      41.751  28.694  31.311  1.00  0.00     0.167 HD
ATOM     60  C   UNL A   1      42.752  29.505  33.838  1.00  0.00     0.074 A 
ATOM     61  C   UNL A   1      42.824  30.092  35.160  1.00  0.00     0.031 C 
ATOM     62  C   UNL A   1      43.725  28.735  33.294  1.00  0.00     0.034 A 
BRANCH  49  63
ATOM     63  C   UNL A   1      42.335  26.450  27.726  1.00  0.00     0.023 A 
ATOM     64  C   UNL A   1      43.212  26.973  26.753  1.00  0.00     0.012 A 
ATOM     65  C   UNL A   1      41.908  25.112  27.624  1.00  0.00     0.148 A 
ATOM     66  C   UNL A   1      43.631  26.191  25.679  1.00  0.00     0.002 A 
ATOM     67  C   UNL A   1      42.366  24.324  26.572  1.00  0.00     0.091 A 
ATOM     68  F   UNL A   1      41.059  24.638  28.546  1.00  0.00    -0.205 F 
ATOM     69  C   UNL A   1      43.217  24.866  25.594  1.00  0.00     0.022 A 
BRANCH  67  70
ATOM     70  S   UNL A   1      41.955  22.583  26.411  1.00  0.00     0.127 S 
ATOM     71  O   UNL A   1      42.621  22.237  25.156  1.00  0.00    -0.237 OA
ATOM     72  O   UNL A   1      42.573  22.009  27.607  1.00  0.00    -0.237 OA
ATOM     73  O   UNL A   1      40.501  22.514  26.386  1.00  0.00    -0.744 OA
ENDBRANCH  67  70
ENDBRANCH  49  63
BRANCH  50  74
ATOM     74  C   UNL A   1      39.117  32.106  35.323  1.00  0.00     0.023 A 
ATOM     75  C   UNL A   1      39.279  33.505  35.288  1.00  0.00     0.012 A 
ATOM     76  C   UNL A   1      38.490  31.517  36.437  1.00  0.00     0.148 A 
ATOM     77  C   UNL A   1      38.862  34.298  36.357  1.00  0.00     0.002 A 
ATOM     78  C   UNL A   1      38.028  32.319  37.476  1.00  0.00     0.091 A 
ATOM     79  F   UNL A   1      38.356  30.183  36.462  1.00  0.00    -0.205 F 
ATOM     80  C   UNL A   1      38.228  33.707  37.446  1.00  0.00     0.022 A 
BRANCH  78  81
ATOM     81  S   UNL A   1      37.084  31.650  38.851  1.00  0.00     0.127 S 
ATOM     82  O   UNL A   1      35.903  32.509  38.850  1.00  0.00    -0.237 OA
ATOM     83  O   UNL A   1      36.846  30.272  38.420  1.00  0.00    -0.237 OA
ATOM     84  O   UNL A   1      37.961  31.767  40.009  1.00  0.00    -0.744 OA
ENDBRANCH  78  81
ENDBRANCH  50  74
BRANCH  62  85
ATOM     85  C   UNL A   1      44.974  28.513  34.103  1.00  0.00     0.023 A 
ATOM     86  C   UNL A   1      46.050  29.415  33.986  1.00  0.00     0.012 A 
ATOM     87  C   UNL A   1      45.046  27.463  35.039  1.00  0.00     0.148 A 
ATOM     88  C   UNL A   1      47.191  29.259  34.771  1.00  0.00     0.002 A 
ATOM     89  C   UNL A   1      46.167  27.342  35.850  1.00  0.00     0.091 A 
ATOM     90  F   UNL A   1      44.019  26.605  35.119  1.00  0.00    -0.205 F 
ATOM     91  C   UNL A   1      47.245  28.232  35.712  1.00  0.00     0.022 A 
BRANCH  89  92
ATOM     92  S   UNL A   1      46.279  26.107  37.151  1.00  0.00     0.127 S 
ATOM     93  O   UNL A   1      47.597  26.390  37.718  1.00  0.00    -0.237 OA
ATOM     94  O   UNL A   1      45.154  26.462  38.017  1.00  0.00    -0.237 OA
ATOM     95  O   UNL A   1      46.145  24.817  36.489  1.00  0.00    -0.744 OA
ENDBRANCH  89  92
ENDBRANCH  62  85
ENDBRANCH  36  37
ENDBRANCH  28  31
ENDBRANCH  26  27
ENDBRANCH   1  26
TORSDOF 17
ENDMDL
MODEL 3
REMARK VINA RESULT:     -12.2      2.163      3.324
REMARK SMILES Cc1nc(C)c(C(=O)N[C@@H](Cc2ccccc2)C(=O)NCCCNC(=O)c2ccc(-c3c4nc(c(-c5cccc(S(=O)(=O)[O-])c5F)c5ccc([nH]5)c(-c5cccc(S(=O)(=O)[O-])c5F)c5nc(c(-c6cccc(S(=O)(=O)[O-])c6F)c6ccc3[nH]6)C=C5)C=C4)cc2)s1
REMARK SMILES IDX 22 1 21 2 20 3 18 4 19 5 10 7 9 8 7 9 8 10 6 12 1 13 2 14
REMARK SMILES IDX 3 15 90 16 4 17 5 18 11 19 12 20 13 21 17 22 14 23 16 24
REMARK SMILES IDX 15 25 23 26 24 27 25 28 26 30 27 31 28 32 89 33 29 34 88 35
REMARK SMILES IDX 30 36 31 37 32 38 82 39 33 40 87 41 81 42 83 43 34 44 86 45
REMARK SMILES IDX 80 46 79 47 35 49 67 50 47 51 66 52 48 53 51 54 65 55 84 56
REMARK SMILES IDX 49 57 50 58 64 60 85 61 52 62 36 63 37 64 45 65 38 66 40 67
REMARK SMILES IDX 46 68 39 69 41 70 42 71 43 72 44 73 68 74 69 75 77 76 70 77
REMARK SMILES IDX 72 78 78 79 71 80 73 81 74 82 75 83 76 84 53 85 54 86 62 87
REMARK SMILES IDX 55 88 57 89 63 90 56 91 58 92 59 93 60 94 61 95
REMARK H PARENT 20 6 9 11 24 29 83 48 51 59
REMARK Flexibility Score: inf
ROOT
ATOM      1  C   UNL A   1      31.401  29.279  25.262  1.00  0.00     0.042 C 
ENDROOT
BRANCH   1   2
ATOM      2  C   UNL A   1      31.628  28.014  24.464  1.00  0.00     0.117 C 
BRANCH   2   3
ATOM      3  N   UNL A   1      32.787  28.031  23.596  1.00  0.00    -0.354 N 
ATOM      4  C   UNL A   1      33.352  26.996  22.906  1.00  0.00     0.242 C 
ATOM      5  O   UNL A   1      33.986  27.288  21.885  1.00  0.00    -0.273 OA
ATOM      6  H   UNL A   1      33.227  28.905  23.488  1.00  0.00     0.163 HD
BRANCH   4   7
ATOM      7  C   UNL A   1      33.161  25.510  23.296  1.00  0.00     0.176 C 
BRANCH   7   8
ATOM      8  N   UNL A   1      31.796  25.025  23.064  1.00  0.00    -0.339 N 
ATOM      9  C   UNL A   1      31.083  23.895  23.385  1.00  0.00     0.263 C 
ATOM     10  O   UNL A   1      29.880  24.021  23.127  1.00  0.00    -0.268 OA
ATOM     11  H   UNL A   1      31.257  25.669  22.550  1.00  0.00     0.164 HD
BRANCH   9  12
ATOM     12  C   UNL A   1      31.624  22.647  23.915  1.00  0.00     0.115 A 
ATOM     13  C   UNL A   1      33.072  19.035  24.238  1.00  0.00     0.079 C 
ATOM     14  C   UNL A   1      32.527  20.414  24.356  1.00  0.00     0.091 A 
ATOM     15  N   UNL A   1      32.209  20.987  25.489  1.00  0.00    -0.246 NA
ATOM     16  S   UNL A   1      32.259  21.365  22.973  1.00  0.00    -0.113 S 
ATOM     17  C   UNL A   1      31.705  22.266  25.258  1.00  0.00     0.061 A 
ATOM     18  C   UNL A   1      31.300  23.020  26.480  1.00  0.00     0.068 C 
ENDBRANCH   9  12
ENDBRANCH   7   8
BRANCH   7  19
ATOM     19  C   UNL A   1      34.264  24.541  22.816  1.00  0.00     0.070 C 
BRANCH  19  20
ATOM     20  C   UNL A   1      35.151  23.886  23.844  1.00  0.00    -0.045 A 
ATOM     21  C   UNL A   1      34.898  24.029  25.217  1.00  0.00     0.004 A 
ATOM     22  C   UNL A   1      36.232  23.089  23.433  1.00  0.00     0.004 A 
ATOM     23  C   UNL A   1      35.662  23.325  26.151  1.00  0.00     0.000 A 
ATOM     24  C   UNL A   1      37.004  22.400  24.371  1.00  0.00     0.000 A 
ATOM     25  C   UNL A   1      36.706  22.503  25.729  1.00  0.00     0.000 A 
ENDBRANCH  19  20
ENDBRANCH   7  19
ENDBRANCH   4   7
ENDBRANCH   2   3
ENDBRANCH   1   2
BRANCH   1  26
ATOM     26  C   UNL A   1      32.676  29.880  25.828  1.00  0.00     0.118 C 
BRANCH  26  27
ATOM     27  N   UNL A   1      32.510  31.242  26.336  1.00  0.00    -0.352 N 
ATOM     28  C   UNL A   1      33.256  31.971  27.234  1.00  0.00     0.251 C 
ATOM     29  H   UNL A   1      31.728  31.720  25.975  1.00  0.00     0.163 HD
ATOM     30  O   UNL A   1      32.842  33.061  27.623  1.00  0.00    -0.269 OA
BRANCH  28  31
ATOM     31  C   UNL A   1      34.532  31.435  27.757  1.00  0.00     0.039 A 
ATOM     32  C   UNL A   1      35.587  32.312  28.025  1.00  0.00     0.014 A 
ATOM     33  C   UNL A   1      34.683  30.074  28.007  1.00  0.00     0.014 A 
ATOM     34  C   UNL A   1      36.745  31.834  28.647  1.00  0.00     0.010 A 
ATOM     35  C   UNL A   1      35.773  29.624  28.739  1.00  0.00     0.010 A 
ATOM     36  C   UNL A   1      36.822  30.495  29.064  1.00  0.00    -0.014 A 
BRANCH  36  37
ATOM     37  C   UNL A   1      37.977  29.968  29.837  1.00  0.00     0.031 A 
ATOM     38  C   UNL A   1      38.231  30.469  31.238  1.00  0.00     0.074 A 
ATOM     39  C   UNL A   1      38.864  29.144  29.243  1.00  0.00     0.049 A 
ATOM     40  N   UNL A   1      39.256  30.251  32.019  1.00  0.00    -0.248 NA
ATOM     41  C   UNL A   1      37.221  31.372  31.818  1.00  0.00     0.031 C 
ATOM     42  C   UNL A   1      38.785  28.661  27.862  1.00  0.00     0.029 A 
ATOM     43  N   UNL A   1      40.027  28.590  29.717  1.00  0.00    -0.354 N 
ATOM     44  C   UNL A   1      39.043  31.030  33.150  1.00  0.00     0.074 A 
ATOM     45  C   UNL A   1      37.812  31.758  32.938  1.00  0.00     0.031 C 
ATOM     46  C   UNL A   1      39.844  27.876  27.605  1.00  0.00     0.029 A 
ATOM     47  C   UNL A   1      40.695  27.823  28.789  1.00  0.00     0.049 A 
ATOM     48  H   UNL A   1      40.354  28.727  30.635  1.00  0.00     0.167 HD
ATOM     49  C   UNL A   1      39.778  31.102  34.284  1.00  0.00     0.034 A 
ATOM     50  C   UNL A   1      41.863  27.157  28.880  1.00  0.00     0.034 A 
ATOM     51  C   UNL A   1      40.952  30.310  34.527  1.00  0.00     0.049 A 
ATOM     52  C   UNL A   1      42.616  27.187  30.183  1.00  0.00     0.074 A 
ATOM     53  C   UNL A   1      41.715  30.233  35.678  1.00  0.00     0.029 A 
ATOM     54  N   UNL A   1      41.524  29.445  33.607  1.00  0.00    -0.354 N 
ATOM     55  N   UNL A   1      42.314  27.812  31.296  1.00  0.00    -0.248 NA
ATOM     56  C   UNL A   1      43.849  26.391  30.257  1.00  0.00     0.031 C 
ATOM     57  C   UNL A   1      42.750  29.319  35.454  1.00  0.00     0.029 A 
ATOM     58  C   UNL A   1      42.624  28.822  34.167  1.00  0.00     0.049 A 
ATOM     59  H   UNL A   1      41.195  29.297  32.691  1.00  0.00     0.167 HD
ATOM     60  C   UNL A   1      43.297  27.454  32.212  1.00  0.00     0.074 A 
ATOM     61  C   UNL A   1      44.191  26.541  31.531  1.00  0.00     0.031 C 
ATOM     62  C   UNL A   1      43.457  27.860  33.495  1.00  0.00     0.034 A 
BRANCH  49  63
ATOM     63  C   UNL A   1      39.285  32.004  35.385  1.00  0.00     0.023 A 
ATOM     64  C   UNL A   1      38.331  31.516  36.301  1.00  0.00     0.012 A 
ATOM     65  C   UNL A   1      39.801  33.304  35.551  1.00  0.00     0.148 A 
ATOM     66  C   UNL A   1      37.872  32.316  37.345  1.00  0.00     0.002 A 
ATOM     67  C   UNL A   1      39.370  34.081  36.622  1.00  0.00     0.091 A 
ATOM     68  F   UNL A   1      40.692  33.759  34.658  1.00  0.00    -0.205 F 
ATOM     69  C   UNL A   1      38.398  33.593  37.511  1.00  0.00     0.022 A 
BRANCH  67  70
ATOM     70  S   UNL A   1      40.040  35.711  36.971  1.00  0.00     0.127 S 
ATOM     71  O   UNL A   1      39.654  36.452  35.772  1.00  0.00    -0.237 OA
ATOM     72  O   UNL A   1      39.312  36.089  38.183  1.00  0.00    -0.237 OA
ATOM     73  O   UNL A   1      41.473  35.525  37.156  1.00  0.00    -0.744 OA
ENDBRANCH  67  70
ENDBRANCH  49  63
BRANCH  50  74
ATOM     74  C   UNL A   1      42.350  26.332  27.736  1.00  0.00     0.023 A 
ATOM     75  C   UNL A   1      43.273  26.894  26.833  1.00  0.00     0.012 A 
ATOM     76  C   UNL A   1      41.925  25.004  27.545  1.00  0.00     0.148 A 
ATOM     77  C   UNL A   1      43.734  26.162  25.738  1.00  0.00     0.002 A 
ATOM     78  C   UNL A   1      42.430  24.262  26.482  1.00  0.00     0.091 A 
ATOM     79  F   UNL A   1      41.035  24.489  28.405  1.00  0.00    -0.205 F 
ATOM     80  C   UNL A   1      43.321  24.844  25.567  1.00  0.00     0.022 A 
BRANCH  78  81
ATOM     81  S   UNL A   1      42.051  22.519  26.268  1.00  0.00     0.127 S 
ATOM     82  O   UNL A   1      42.750  22.209  25.025  1.00  0.00    -0.237 OA
ATOM     83  O   UNL A   1      42.638  21.926  27.471  1.00  0.00    -0.237 OA
ATOM     84  O   UNL A   1      40.596  22.447  26.220  1.00  0.00    -0.744 OA
ENDBRANCH  78  81
ENDBRANCH  50  74
BRANCH  62  85
ATOM     85  C   UNL A   1      44.616  27.291  34.267  1.00  0.00     0.023 A 
ATOM     86  C   UNL A   1      45.840  27.986  34.301  1.00  0.00     0.012 A 
ATOM     87  C   UNL A   1      44.463  26.115  35.028  1.00  0.00     0.148 A 
ATOM     88  C   UNL A   1      46.905  27.505  35.060  1.00  0.00     0.002 A 
ATOM     89  C   UNL A   1      45.514  25.667  35.818  1.00  0.00     0.091 A 
ATOM     90  F   UNL A   1      43.296  25.459  34.965  1.00  0.00    -0.205 F 
ATOM     91  C   UNL A   1      46.739  26.354  35.828  1.00  0.00     0.022 A 
BRANCH  89  92
ATOM     92  S   UNL A   1      45.355  24.249  36.910  1.00  0.00     0.127 S 
ATOM     93  O   UNL A   1      46.685  24.185  37.513  1.00  0.00    -0.237 OA
ATOM     94  O   UNL A   1      44.292  24.674  37.821  1.00  0.00    -0.237 OA
ATOM     95  O   UNL A   1      44.999  23.125  36.054  1.00  0.00    -0.744 OA
ENDBRANCH  89  92
ENDBRANCH  62  85
ENDBRANCH  36  37
ENDBRANCH  28  31
ENDBRANCH  26  27
ENDBRANCH   1  26
TORSDOF 17
ENDMDL
