MODEL 1
REMARK VINA RESULT:     -12.1      0.000      0.000
REMARK SMILES C[C@@H](C(=O)NCCCNC(=O)c1ccc(-c2c3nc(c(-c4cccc(S(=O)(=O)[O-])c4F)c4ccc([nH]4)c(-c4cccc(S(=O)(=O)[O-])c4F)c4nc(c(-c5cccc(S(=O)(=O)[O-])c5F)c5ccc2[nH]5)C=C4)C=C3)cc1)c1ccc(-c2cccc(OC(=O)NCCC3CCCCC3)c2)c(F)c1
REMARK SMILES IDX 3 1 4 2 5 3 2 5 1 6 75 7 76 8 99 9 77 10 97 11 78 12 98 13
REMARK SMILES IDX 79 14 80 15 96 16 81 17 83 18 82 19 84 20 85 21 86 22 87 23
REMARK SMILES IDX 88 25 89 26 90 27 91 28 95 29 92 30 94 31 93 32 6 33 7 34
REMARK SMILES IDX 8 35 9 36 10 37 11 39 12 40 13 41 74 42 14 43 73 44 15 45
REMARK SMILES IDX 16 46 17 47 67 48 18 49 72 50 66 51 68 52 19 53 71 54 65 55
REMARK SMILES IDX 64 56 20 58 52 59 32 60 51 61 33 62 36 63 50 64 69 65 34 66
REMARK SMILES IDX 35 67 49 69 70 70 37 71 21 72 22 73 30 74 23 75 25 76 31 77
REMARK SMILES IDX 24 78 26 79 27 80 28 81 29 82 53 83 54 84 62 85 55 86 57 87
REMARK SMILES IDX 63 88 56 89 58 90 59 91 60 92 61 93 38 94 39 95 47 96 40 97
REMARK SMILES IDX 42 98 48 99 41 100 43 101 44 102 45 103 46 104
REMARK H PARENT 5 4 87 24 9 38 68 57 36 68
REMARK Flexibility Score: inf
ROOT
ATOM      1  C   UNL A   1      34.979  33.715  27.951  1.00  0.00     0.227 C 
ATOM      2  O   UNL A   1      36.088  33.468  27.475  1.00  0.00    -0.274 OA
ATOM      3  N   UNL A   1      34.519  34.989  27.794  1.00  0.00    -0.356 N 
ATOM      4  H   UNL A   1      35.083  35.570  27.235  1.00  0.00     0.163 HD
ENDROOT
BRANCH   1   5
ATOM      5  C   UNL A   1      34.098  32.662  28.645  1.00  0.00     0.105 C 
ATOM      6  C   UNL A   1      34.611  32.271  30.033  1.00  0.00     0.023 C 
BRANCH   5   7
ATOM      7  C   UNL A   1      33.934  31.408  27.797  1.00  0.00    -0.033 A 
ATOM      8  C   UNL A   1      34.897  30.387  27.824  1.00  0.00     0.005 A 
ATOM      9  C   UNL A   1      32.818  31.260  26.966  1.00  0.00     0.044 A 
ATOM     10  C   UNL A   1      34.747  29.243  27.040  1.00  0.00     0.012 A 
ATOM     11  C   UNL A   1      32.678  30.114  26.187  1.00  0.00     0.131 A 
ATOM     12  C   UNL A   1      33.634  29.089  26.202  1.00  0.00     0.018 A 
ATOM     13  F   UNL A   1      31.595  30.018  25.398  1.00  0.00    -0.206 F 
BRANCH  12  14
ATOM     14  C   UNL A   1      33.542  27.931  25.306  1.00  0.00    -0.012 A 
ATOM     15  C   UNL A   1      33.964  27.990  23.970  1.00  0.00     0.009 A 
ATOM     16  C   UNL A   1      32.955  26.744  25.773  1.00  0.00     0.056 A 
ATOM     17  C   UNL A   1      33.799  26.892  23.122  1.00  0.00     0.004 A 
ATOM     18  C   UNL A   1      32.765  25.660  24.923  1.00  0.00     0.133 A 
ATOM     19  C   UNL A   1      33.196  25.727  23.597  1.00  0.00     0.047 A 
BRANCH  18  20
ATOM     20  O   UNL A   1      32.129  24.455  25.307  1.00  0.00    -0.410 OA
BRANCH  20  21
ATOM     21  C   UNL A   1      30.953  24.383  26.048  1.00  0.00     0.412 C 
ATOM     22  O   UNL A   1      30.821  23.952  27.188  1.00  0.00    -0.224 OA
ATOM     23  N   UNL A   1      29.861  24.880  25.400  1.00  0.00    -0.321 N 
ATOM     24  H   UNL A   1      29.020  24.885  25.912  1.00  0.00     0.167 HD
BRANCH  23  25
ATOM     25  C   UNL A   1      29.787  25.400  24.055  1.00  0.00     0.119 C 
BRANCH  25  26
ATOM     26  C   UNL A   1      28.639  26.402  23.914  1.00  0.00     0.025 C 
BRANCH  26  27
ATOM     27  C   UNL A   1      29.089  27.850  23.617  1.00  0.00    -0.009 C 
ATOM     28  C   UNL A   1      30.308  27.894  22.682  1.00  0.00     0.003 C 
ATOM     29  C   UNL A   1      27.917  28.650  23.023  1.00  0.00     0.003 C 
ATOM     30  C   UNL A   1      30.698  29.325  22.313  1.00  0.00     0.000 C 
ATOM     31  C   UNL A   1      28.325  30.079  22.676  1.00  0.00     0.000 C 
ATOM     32  C   UNL A   1      29.522  30.102  21.733  1.00  0.00     0.000 C 
ENDBRANCH  26  27
ENDBRANCH  25  26
ENDBRANCH  23  25
ENDBRANCH  20  21
ENDBRANCH  18  20
ENDBRANCH  12  14
ENDBRANCH   5   7
ENDBRANCH   1   5
BRANCH   3  33
ATOM     33  C   UNL A   1      33.327  35.619  28.325  1.00  0.00     0.117 C 
BRANCH  33  34
ATOM     34  C   UNL A   1      33.628  37.019  28.849  1.00  0.00     0.042 C 
BRANCH  34  35
ATOM     35  C   UNL A   1      33.818  37.077  30.359  1.00  0.00     0.118 C 
BRANCH  35  36
ATOM     36  N   UNL A   1      32.609  36.709  31.087  1.00  0.00    -0.352 N 
ATOM     37  C   UNL A   1      32.418  35.704  32.002  1.00  0.00     0.251 C 
ATOM     38  H   UNL A   1      31.816  37.260  30.892  1.00  0.00     0.163 HD
ATOM     39  O   UNL A   1      31.281  35.413  32.362  1.00  0.00    -0.269 OA
BRANCH  37  40
ATOM     40  C   UNL A   1      33.583  34.971  32.539  1.00  0.00     0.039 A 
ATOM     41  C   UNL A   1      33.377  33.782  33.243  1.00  0.00     0.014 A 
ATOM     42  C   UNL A   1      34.877  35.459  32.342  1.00  0.00     0.014 A 
ATOM     43  C   UNL A   1      34.476  33.051  33.699  1.00  0.00     0.010 A 
ATOM     44  C   UNL A   1      35.968  34.687  32.718  1.00  0.00     0.010 A 
ATOM     45  C   UNL A   1      35.781  33.482  33.414  1.00  0.00    -0.014 A 
BRANCH  45  46
ATOM     46  C   UNL A   1      36.976  32.716  33.846  1.00  0.00     0.031 A 
ATOM     47  C   UNL A   1      37.748  33.168  35.057  1.00  0.00     0.074 A 
ATOM     48  C   UNL A   1      37.436  31.699  33.092  1.00  0.00     0.049 A 
ATOM     49  N   UNL A   1      38.894  32.737  35.514  1.00  0.00    -0.248 NA
ATOM     50  C   UNL A   1      37.169  34.276  35.834  1.00  0.00     0.031 C 
ATOM     51  C   UNL A   1      36.811  31.209  31.862  1.00  0.00     0.029 A 
ATOM     52  N   UNL A   1      38.560  30.925  33.227  1.00  0.00    -0.354 N 
ATOM     53  C   UNL A   1      39.198  33.554  36.598  1.00  0.00     0.074 A 
ATOM     54  C   UNL A   1      38.132  34.525  36.706  1.00  0.00     0.031 C 
ATOM     55  C   UNL A   1      37.565  30.224  31.350  1.00  0.00     0.029 A 
ATOM     56  C   UNL A   1      38.747  30.043  32.188  1.00  0.00     0.049 A 
ATOM     57  H   UNL A   1      39.174  30.993  33.993  1.00  0.00     0.167 HD
ATOM     58  C   UNL A   1      40.256  33.487  37.440  1.00  0.00     0.034 A 
ATOM     59  C   UNL A   1      39.766  29.202  31.925  1.00  0.00     0.034 A 
ATOM     60  C   UNL A   1      41.293  32.497  37.345  1.00  0.00     0.049 A 
ATOM     61  C   UNL A   1      40.921  29.125  32.887  1.00  0.00     0.074 A 
ATOM     62  C   UNL A   1      42.364  32.289  38.195  1.00  0.00     0.029 A 
ATOM     63  N   UNL A   1      41.399  31.558  36.330  1.00  0.00    -0.354 N 
ATOM     64  N   UNL A   1      41.126  29.815  33.982  1.00  0.00    -0.248 NA
ATOM     65  C   UNL A   1      41.965  28.133  32.598  1.00  0.00     0.031 C 
ATOM     66  C   UNL A   1      43.138  31.248  37.674  1.00  0.00     0.029 A 
ATOM     67  C   UNL A   1      42.523  30.775  36.526  1.00  0.00     0.049 A 
ATOM     68  H   UNL A   1      40.768  31.463  35.581  1.00  0.00     0.167 HD
ATOM     69  C   UNL A   1      42.296  29.310  34.538  1.00  0.00     0.074 A 
ATOM     70  C   UNL A   1      42.752  28.253  33.659  1.00  0.00     0.031 C 
ATOM     71  C   UNL A   1      42.935  29.689  35.672  1.00  0.00     0.034 A 
BRANCH  58  72
ATOM     72  C   UNL A   1      40.324  34.502  38.553  1.00  0.00     0.023 A 
ATOM     73  C   UNL A   1      41.092  35.673  38.391  1.00  0.00     0.012 A 
ATOM     74  C   UNL A   1      39.606  34.311  39.749  1.00  0.00     0.148 A 
ATOM     75  C   UNL A   1      41.193  36.608  39.420  1.00  0.00     0.002 A 
ATOM     76  C   UNL A   1      39.665  35.273  40.749  1.00  0.00     0.091 A 
ATOM     77  F   UNL A   1      38.894  33.184  39.896  1.00  0.00    -0.205 F 
ATOM     78  C   UNL A   1      40.471  36.413  40.595  1.00  0.00     0.022 A 
BRANCH  76  79
ATOM     79  S   UNL A   1      38.704  35.156  42.262  1.00  0.00     0.127 S 
ATOM     80  O   UNL A   1      39.199  33.903  42.830  1.00  0.00    -0.237 OA
ATOM     81  O   UNL A   1      39.119  36.359  42.985  1.00  0.00    -0.237 OA
ATOM     82  O   UNL A   1      37.308  35.148  41.850  1.00  0.00    -0.744 OA
ENDBRANCH  76  79
ENDBRANCH  58  72
BRANCH  59  83
ATOM     83  C   UNL A   1      39.710  28.330  30.718  1.00  0.00     0.023 A 
ATOM     84  C   UNL A   1      38.950  27.144  30.753  1.00  0.00     0.012 A 
ATOM     85  C   UNL A   1      40.363  28.694  29.524  1.00  0.00     0.148 A 
ATOM     86  C   UNL A   1      38.863  26.322  29.629  1.00  0.00     0.002 A 
ATOM     87  C   UNL A   1      40.225  27.900  28.391  1.00  0.00     0.091 A 
ATOM     88  F   UNL A   1      41.081  29.824  29.514  1.00  0.00    -0.205 F 
ATOM     89  C   UNL A   1      39.490  26.705  28.446  1.00  0.00     0.022 A 
BRANCH  87  90
ATOM     90  S   UNL A   1      40.885  28.376  26.790  1.00  0.00     0.127 S 
ATOM     91  O   UNL A   1      40.856  27.109  26.064  1.00  0.00    -0.237 OA
ATOM     92  O   UNL A   1      39.902  29.365  26.345  1.00  0.00    -0.237 OA
ATOM     93  O   UNL A   1      42.210  28.920  27.052  1.00  0.00    -0.744 OA
ENDBRANCH  87  90
ENDBRANCH  59  83
BRANCH  71  94
ATOM     94  C   UNL A   1      44.164  28.921  36.083  1.00  0.00     0.023 A 
ATOM     95  C   UNL A   1      45.445  29.380  35.722  1.00  0.00     0.012 A 
ATOM     96  C   UNL A   1      44.043  27.794  36.922  1.00  0.00     0.148 A 
ATOM     97  C   UNL A   1      46.587  28.714  36.169  1.00  0.00     0.002 A 
ATOM     98  C   UNL A   1      45.183  27.170  37.408  1.00  0.00     0.091 A 
ATOM     99  F   UNL A   1      42.812  27.364  37.239  1.00  0.00    -0.205 F 
ATOM    100  C   UNL A   1      46.457  27.620  37.023  1.00  0.00     0.022 A 
BRANCH  98 101
ATOM    101  S   UNL A   1      45.115  25.822  38.593  1.00  0.00     0.127 S 
ATOM    102  O   UNL A   1      46.530  25.621  38.898  1.00  0.00    -0.237 OA
ATOM    103  O   UNL A   1      44.332  26.407  39.681  1.00  0.00    -0.237 OA
ATOM    104  O   UNL A   1      44.464  24.713  37.907  1.00  0.00    -0.744 OA
ENDBRANCH  98 101
ENDBRANCH  71  94
ENDBRANCH  45  46
ENDBRANCH  37  40
ENDBRANCH  35  36
ENDBRANCH  34  35
ENDBRANCH  33  34
ENDBRANCH   3  33
TORSDOF 20
ENDMDL
MODEL 2
REMARK VINA RESULT:     -11.9      5.386     10.853
REMARK SMILES C[C@@H](C(=O)NCCCNC(=O)c1ccc(-c2c3nc(c(-c4cccc(S(=O)(=O)[O-])c4F)c4ccc([nH]4)c(-c4cccc(S(=O)(=O)[O-])c4F)c4nc(c(-c5cccc(S(=O)(=O)[O-])c5F)c5ccc2[nH]5)C=C4)C=C3)cc1)c1ccc(-c2cccc(OC(=O)NCCC3CCCCC3)c2)c(F)c1
REMARK SMILES IDX 3 1 4 2 5 3 2 5 1 6 75 7 76 8 99 9 77 10 97 11 78 12 98 13
REMARK SMILES IDX 79 14 80 15 96 16 81 17 83 18 82 19 84 20 85 21 86 22 87 23
REMARK SMILES IDX 88 25 89 26 90 27 91 28 95 29 92 30 94 31 93 32 6 33 7 34
REMARK SMILES IDX 8 35 9 36 10 37 11 39 12 40 13 41 74 42 14 43 73 44 15 45
REMARK SMILES IDX 16 46 17 47 67 48 18 49 72 50 66 51 68 52 19 53 71 54 65 55
REMARK SMILES IDX 64 56 20 58 52 59 32 60 51 61 33 62 36 63 50 64 69 65 34 66
REMARK SMILES IDX 35 67 49 69 70 70 37 71 21 72 22 73 30 74 23 75 25 76 31 77
REMARK SMILES IDX 24 78 26 79 27 80 28 81 29 82 53 83 54 84 62 85 55 86 57 87
REMARK SMILES IDX 63 88 56 89 58 90 59 91 60 92 61 93 38 94 39 95 47 96 40 97
REMARK SMILES IDX 42 98 48 99 41 100 43 101 44 102 45 103 46 104
REMARK H PARENT 5 4 87 24 9 38 68 57 36 68
REMARK Flexibility Score: inf
ROOT
ATOM      1  C   UNL A   1      42.564  21.661  25.850  1.00  0.00     0.227 C 
ATOM      2  O   UNL A   1      41.978  20.690  25.367  1.00  0.00    -0.274 OA
ATOM      3  N   UNL A   1      43.274  22.436  24.983  1.00  0.00    -0.356 N 
ATOM      4  H   UNL A   1      43.178  22.195  24.034  1.00  0.00     0.163 HD
ENDROOT
BRANCH   1   5
ATOM      5  C   UNL A   1      42.484  22.049  27.336  1.00  0.00     0.105 C 
ATOM      6  C   UNL A   1      41.804  20.984  28.200  1.00  0.00     0.023 C 
BRANCH   5   7
ATOM      7  C   UNL A   1      41.780  23.385  27.538  1.00  0.00    -0.033 A 
ATOM      8  C   UNL A   1      42.392  24.421  28.260  1.00  0.00     0.005 A 
ATOM      9  C   UNL A   1      40.501  23.594  27.012  1.00  0.00     0.044 A 
ATOM     10  C   UNL A   1      41.742  25.641  28.450  1.00  0.00     0.012 A 
ATOM     11  C   UNL A   1      39.860  24.815  27.207  1.00  0.00     0.131 A 
ATOM     12  C   UNL A   1      40.459  25.857  27.929  1.00  0.00     0.018 A 
ATOM     13  F   UNL A   1      38.630  24.969  26.691  1.00  0.00    -0.206 F 
BRANCH  12  14
ATOM     14  C   UNL A   1      39.744  27.104  28.225  1.00  0.00    -0.012 A 
ATOM     15  C   UNL A   1      39.773  28.202  27.352  1.00  0.00     0.009 A 
ATOM     16  C   UNL A   1      39.061  27.233  29.444  1.00  0.00     0.056 A 
ATOM     17  C   UNL A   1      39.140  29.400  27.694  1.00  0.00     0.004 A 
ATOM     18  C   UNL A   1      38.454  28.433  29.798  1.00  0.00     0.133 A 
ATOM     19  C   UNL A   1      38.482  29.517  28.919  1.00  0.00     0.047 A 
BRANCH  18  20
ATOM     20  O   UNL A   1      37.798  28.655  31.033  1.00  0.00    -0.410 OA
BRANCH  20  21
ATOM     21  C   UNL A   1      38.333  28.339  32.279  1.00  0.00     0.412 C 
ATOM     22  O   UNL A   1      38.156  27.310  32.922  1.00  0.00    -0.224 OA
ATOM     23  N   UNL A   1      39.154  29.302  32.787  1.00  0.00    -0.321 N 
ATOM     24  H   UNL A   1      39.584  29.092  33.648  1.00  0.00     0.167 HD
BRANCH  23  25
ATOM     25  C   UNL A   1      39.469  30.591  32.218  1.00  0.00     0.119 C 
BRANCH  25  26
ATOM     26  C   UNL A   1      38.502  31.666  32.719  1.00  0.00     0.025 C 
BRANCH  26  27
ATOM     27  C   UNL A   1      37.919  32.569  31.608  1.00  0.00    -0.009 C 
ATOM     28  C   UNL A   1      38.937  32.828  30.485  1.00  0.00     0.003 C 
ATOM     29  C   UNL A   1      36.634  31.941  31.045  1.00  0.00     0.003 C 
ATOM     30  C   UNL A   1      38.335  33.644  29.342  1.00  0.00     0.000 C 
ATOM     31  C   UNL A   1      36.042  32.779  29.915  1.00  0.00     0.000 C 
ATOM     32  C   UNL A   1      37.059  33.009  28.803  1.00  0.00     0.000 C 
ENDBRANCH  26  27
ENDBRANCH  25  26
ENDBRANCH  23  25
ENDBRANCH  20  21
ENDBRANCH  18  20
ENDBRANCH  12  14
ENDBRANCH   5   7
ENDBRANCH   1   5
BRANCH   3  33
ATOM     33  C   UNL A   1      44.149  23.560  25.243  1.00  0.00     0.117 C 
BRANCH  33  34
ATOM     34  C   UNL A   1      45.613  23.177  25.058  1.00  0.00     0.042 C 
BRANCH  34  35
ATOM     35  C   UNL A   1      46.587  24.166  25.687  1.00  0.00     0.118 C 
BRANCH  35  36
ATOM     36  N   UNL A   1      47.054  25.167  24.737  1.00  0.00    -0.352 N 
ATOM     37  C   UNL A   1      46.793  26.515  24.697  1.00  0.00     0.251 C 
ATOM     38  H   UNL A   1      47.639  24.828  24.020  1.00  0.00     0.163 HD
ATOM     39  O   UNL A   1      47.107  27.170  23.706  1.00  0.00    -0.269 OA
BRANCH  37  40
ATOM     40  C   UNL A   1      46.125  27.166  25.842  1.00  0.00     0.039 A 
ATOM     41  C   UNL A   1      44.730  27.213  25.883  1.00  0.00     0.014 A 
ATOM     42  C   UNL A   1      46.881  27.726  26.875  1.00  0.00     0.014 A 
ATOM     43  C   UNL A   1      44.090  27.771  26.992  1.00  0.00     0.010 A 
ATOM     44  C   UNL A   1      46.243  28.199  28.015  1.00  0.00     0.010 A 
ATOM     45  C   UNL A   1      44.842  28.241  28.080  1.00  0.00    -0.014 A 
BRANCH  45  46
ATOM     46  C   UNL A   1      44.202  28.806  29.294  1.00  0.00     0.031 A 
ATOM     47  C   UNL A   1      43.813  30.260  29.318  1.00  0.00     0.074 A 
ATOM     48  C   UNL A   1      44.082  28.056  30.406  1.00  0.00     0.049 A 
ATOM     49  N   UNL A   1      43.384  30.984  30.318  1.00  0.00    -0.248 NA
ATOM     50  C   UNL A   1      43.961  31.005  28.057  1.00  0.00     0.031 C 
ATOM     51  C   UNL A   1      44.482  26.652  30.526  1.00  0.00     0.029 A 
ATOM     52  N   UNL A   1      43.630  28.383  31.660  1.00  0.00    -0.354 N 
ATOM     53  C   UNL A   1      43.261  32.277  29.822  1.00  0.00     0.074 A 
ATOM     54  C   UNL A   1      43.694  32.242  28.442  1.00  0.00     0.031 C 
ATOM     55  C   UNL A   1      44.266  26.241  31.786  1.00  0.00     0.029 A 
ATOM     56  C   UNL A   1      43.756  27.361  32.572  1.00  0.00     0.049 A 
ATOM     57  H   UNL A   1      43.252  29.263  31.885  1.00  0.00     0.167 HD
ATOM     58  C   UNL A   1      42.808  33.388  30.449  1.00  0.00     0.034 A 
ATOM     59  C   UNL A   1      43.514  27.335  33.897  1.00  0.00     0.034 A 
ATOM     60  C   UNL A   1      42.349  33.406  31.811  1.00  0.00     0.049 A 
ATOM     61  C   UNL A   1      42.988  28.573  34.571  1.00  0.00     0.074 A 
ATOM     62  C   UNL A   1      41.792  34.457  32.517  1.00  0.00     0.029 A 
ATOM     63  N   UNL A   1      42.405  32.326  32.679  1.00  0.00    -0.354 N 
ATOM     64  N   UNL A   1      42.752  29.754  34.054  1.00  0.00    -0.248 NA
ATOM     65  C   UNL A   1      42.662  28.467  36.000  1.00  0.00     0.031 C 
ATOM     66  C   UNL A   1      41.547  34.023  33.823  1.00  0.00     0.029 A 
ATOM     67  C   UNL A   1      41.904  32.687  33.917  1.00  0.00     0.049 A 
ATOM     68  H   UNL A   1      42.750  31.434  32.448  1.00  0.00     0.167 HD
ATOM     69  C   UNL A   1      42.207  30.518  35.080  1.00  0.00     0.074 A 
ATOM     70  C   UNL A   1      42.144  29.664  36.248  1.00  0.00     0.031 C 
ATOM     71  C   UNL A   1      41.797  31.810  35.056  1.00  0.00     0.034 A 
BRANCH  58  72
ATOM     72  C   UNL A   1      42.767  34.668  29.654  1.00  0.00     0.023 A 
ATOM     73  C   UNL A   1      41.587  35.035  28.974  1.00  0.00     0.012 A 
ATOM     74  C   UNL A   1      43.885  35.521  29.600  1.00  0.00     0.148 A 
ATOM     75  C   UNL A   1      41.539  36.199  28.208  1.00  0.00     0.002 A 
ATOM     76  C   UNL A   1      43.813  36.708  28.881  1.00  0.00     0.091 A 
ATOM     77  F   UNL A   1      45.006  35.150  30.236  1.00  0.00    -0.205 F 
ATOM     78  C   UNL A   1      42.648  37.040  28.170  1.00  0.00     0.022 A 
BRANCH  76  79
ATOM     79  S   UNL A   1      45.157  37.899  28.842  1.00  0.00     0.127 S 
ATOM     80  O   UNL A   1      44.648  38.886  27.892  1.00  0.00    -0.237 OA
ATOM     81  O   UNL A   1      45.202  38.357  30.231  1.00  0.00    -0.237 OA
ATOM     82  O   UNL A   1      46.334  37.160  28.409  1.00  0.00    -0.744 OA
ENDBRANCH  76  79
ENDBRANCH  58  72
BRANCH  59  83
ATOM     83  C   UNL A   1      43.724  26.072  34.660  1.00  0.00     0.023 A 
ATOM     84  C   UNL A   1      42.704  25.101  34.689  1.00  0.00     0.012 A 
ATOM     85  C   UNL A   1      44.943  25.809  35.314  1.00  0.00     0.148 A 
ATOM     86  C   UNL A   1      42.884  23.901  35.377  1.00  0.00     0.002 A 
ATOM     87  C   UNL A   1      45.137  24.587  35.950  1.00  0.00     0.091 A 
ATOM     88  F   UNL A   1      45.898  26.748  35.276  1.00  0.00    -0.205 F 
ATOM     89  C   UNL A   1      44.103  23.640  35.997  1.00  0.00     0.022 A 
BRANCH  87  90
ATOM     90  S   UNL A   1      46.715  24.107  36.662  1.00  0.00     0.127 S 
ATOM     91  O   UNL A   1      46.446  22.737  37.090  1.00  0.00    -0.237 OA
ATOM     92  O   UNL A   1      47.610  24.231  35.511  1.00  0.00    -0.237 OA
ATOM     93  O   UNL A   1      46.974  25.060  37.733  1.00  0.00    -0.744 OA
ENDBRANCH  87  90
ENDBRANCH  59  83
BRANCH  71  94
ATOM     94  C   UNL A   1      41.176  32.379  36.305  1.00  0.00     0.023 A 
ATOM     95  C   UNL A   1      41.900  33.273  37.117  1.00  0.00     0.012 A 
ATOM     96  C   UNL A   1      39.828  32.101  36.611  1.00  0.00     0.148 A 
ATOM     97  C   UNL A   1      41.299  33.863  38.230  1.00  0.00     0.002 A 
ATOM     98  C   UNL A   1      39.221  32.734  37.687  1.00  0.00     0.091 A 
ATOM     99  F   UNL A   1      39.164  31.233  35.834  1.00  0.00    -0.205 F 
ATOM    100  C   UNL A   1      39.957  33.605  38.506  1.00  0.00     0.022 A 
BRANCH  98 101
ATOM    101  S   UNL A   1      37.473  32.544  38.056  1.00  0.00     0.127 S 
ATOM    102  O   UNL A   1      36.853  33.209  36.911  1.00  0.00    -0.237 OA
ATOM    103  O   UNL A   1      37.317  31.090  38.075  1.00  0.00    -0.237 OA
ATOM    104  O   UNL A   1      37.258  33.194  39.342  1.00  0.00    -0.744 OA
ENDBRANCH  98 101
ENDBRANCH  71  94
ENDBRANCH  45  46
ENDBRANCH  37  40
ENDBRANCH  35  36
ENDBRANCH  34  35
ENDBRANCH  33  34
ENDBRANCH   3  33
TORSDOF 20
ENDMDL
MODEL 3
REMARK VINA RESULT:     -11.5      4.780     10.655
REMARK SMILES C[C@@H](C(=O)NCCCNC(=O)c1ccc(-c2c3nc(c(-c4cccc(S(=O)(=O)[O-])c4F)c4ccc([nH]4)c(-c4cccc(S(=O)(=O)[O-])c4F)c4nc(c(-c5cccc(S(=O)(=O)[O-])c5F)c5ccc2[nH]5)C=C4)C=C3)cc1)c1ccc(-c2cccc(OC(=O)NCCC3CCCCC3)c2)c(F)c1
REMARK SMILES IDX 3 1 4 2 5 3 2 5 1 6 75 7 76 8 99 9 77 10 97 11 78 12 98 13
REMARK SMILES IDX 79 14 80 15 96 16 81 17 83 18 82 19 84 20 85 21 86 22 87 23
REMARK SMILES IDX 88 25 89 26 90 27 91 28 95 29 92 30 94 31 93 32 6 33 7 34
REMARK SMILES IDX 8 35 9 36 10 37 11 39 12 40 13 41 74 42 14 43 73 44 15 45
REMARK SMILES IDX 16 46 17 47 67 48 18 49 72 50 66 51 68 52 19 53 71 54 65 55
REMARK SMILES IDX 64 56 20 58 52 59 32 60 51 61 33 62 36 63 50 64 69 65 34 66
REMARK SMILES IDX 35 67 49 69 70 70 37 71 21 72 22 73 30 74 23 75 25 76 31 77
REMARK SMILES IDX 24 78 26 79 27 80 28 81 29 82 53 83 54 84 62 85 55 86 57 87
REMARK SMILES IDX 63 88 56 89 58 90 59 91 60 92 61 93 38 94 39 95 47 96 40 97
REMARK SMILES IDX 42 98 48 99 41 100 43 101 44 102 45 103 46 104
REMARK H PARENT 5 4 87 24 9 38 68 57 36 68
REMARK Flexibility Score: inf
ROOT
ATOM      1  C   UNL A   1      41.222  24.029  26.932  1.00  0.00     0.227 C 
ATOM      2  O   UNL A   1      40.072  23.719  27.247  1.00  0.00    -0.274 OA
ATOM      3  N   UNL A   1      41.685  23.529  25.751  1.00  0.00    -0.356 N 
ATOM      4  H   UNL A   1      41.020  23.038  25.217  1.00  0.00     0.163 HD
ENDROOT
BRANCH   1   5
ATOM      5  C   UNL A   1      42.108  24.969  27.766  1.00  0.00     0.105 C 
ATOM      6  C   UNL A   1      42.604  24.331  29.066  1.00  0.00     0.023 C 
BRANCH   5   7
ATOM      7  C   UNL A   1      41.404  26.280  28.087  1.00  0.00    -0.033 A 
ATOM      8  C   UNL A   1      40.951  27.126  27.063  1.00  0.00     0.005 A 
ATOM      9  C   UNL A   1      41.206  26.666  29.417  1.00  0.00     0.044 A 
ATOM     10  C   UNL A   1      40.313  28.330  27.360  1.00  0.00     0.012 A 
ATOM     11  C   UNL A   1      40.567  27.871  29.704  1.00  0.00     0.131 A 
ATOM     12  C   UNL A   1      40.114  28.727  28.690  1.00  0.00     0.018 A 
ATOM     13  F   UNL A   1      40.406  28.205  30.994  1.00  0.00    -0.206 F 
BRANCH  12  14
ATOM     14  C   UNL A   1      39.536  30.042  28.988  1.00  0.00    -0.012 A 
ATOM     15  C   UNL A   1      40.143  30.934  29.885  1.00  0.00     0.009 A 
ATOM     16  C   UNL A   1      38.307  30.401  28.412  1.00  0.00     0.056 A 
ATOM     17  C   UNL A   1      39.533  32.150  30.201  1.00  0.00     0.004 A 
ATOM     18  C   UNL A   1      37.686  31.599  28.747  1.00  0.00     0.133 A 
ATOM     19  C   UNL A   1      38.302  32.482  29.636  1.00  0.00     0.047 A 
BRANCH  18  20
ATOM     20  O   UNL A   1      36.422  32.000  28.253  1.00  0.00    -0.410 OA
BRANCH  20  21
ATOM     21  C   UNL A   1      35.241  31.282  28.427  1.00  0.00     0.412 C 
ATOM     22  O   UNL A   1      34.847  30.333  27.758  1.00  0.00    -0.224 OA
ATOM     23  N   UNL A   1      34.488  31.706  29.481  1.00  0.00    -0.321 N 
ATOM     24  H   UNL A   1      33.667  31.192  29.659  1.00  0.00     0.167 HD
BRANCH  23  25
ATOM     25  C   UNL A   1      34.746  32.816  30.368  1.00  0.00     0.119 C 
BRANCH  25  26
ATOM     26  C   UNL A   1      34.971  32.333  31.803  1.00  0.00     0.025 C 
BRANCH  26  27
ATOM     27  C   UNL A   1      36.377  31.749  32.068  1.00  0.00    -0.009 C 
ATOM     28  C   UNL A   1      36.933  32.186  33.433  1.00  0.00     0.003 C 
ATOM     29  C   UNL A   1      36.335  30.216  31.961  1.00  0.00     0.003 C 
ATOM     30  C   UNL A   1      38.282  31.537  33.738  1.00  0.00     0.000 C 
ATOM     31  C   UNL A   1      37.696  29.590  32.255  1.00  0.00     0.000 C 
ATOM     32  C   UNL A   1      38.221  30.019  33.620  1.00  0.00     0.000 C 
ENDBRANCH  26  27
ENDBRANCH  25  26
ENDBRANCH  23  25
ENDBRANCH  20  21
ENDBRANCH  18  20
ENDBRANCH  12  14
ENDBRANCH   5   7
ENDBRANCH   1   5
BRANCH   3  33
ATOM     33  C   UNL A   1      43.006  23.610  25.161  1.00  0.00     0.117 C 
BRANCH  33  34
ATOM     34  C   UNL A   1      43.979  22.662  25.852  1.00  0.00     0.042 C 
BRANCH  34  35
ATOM     35  C   UNL A   1      45.176  23.367  26.479  1.00  0.00     0.118 C 
BRANCH  35  36
ATOM     36  N   UNL A   1      46.045  23.980  25.483  1.00  0.00    -0.352 N 
ATOM     37  C   UNL A   1      46.322  25.308  25.271  1.00  0.00     0.251 C 
ATOM     38  H   UNL A   1      46.499  23.351  24.875  1.00  0.00     0.163 HD
ATOM     39  O   UNL A   1      46.920  25.654  24.256  1.00  0.00    -0.269 OA
BRANCH  37  40
ATOM     40  C   UNL A   1      45.885  26.314  26.261  1.00  0.00     0.039 A 
ATOM     41  C   UNL A   1      44.664  26.967  26.079  1.00  0.00     0.014 A 
ATOM     42  C   UNL A   1      46.684  26.607  27.368  1.00  0.00     0.014 A 
ATOM     43  C   UNL A   1      44.215  27.874  27.042  1.00  0.00     0.010 A 
ATOM     44  C   UNL A   1      46.195  27.440  28.367  1.00  0.00     0.010 A 
ATOM     45  C   UNL A   1      44.964  28.095  28.208  1.00  0.00    -0.014 A 
BRANCH  45  46
ATOM     46  C   UNL A   1      44.506  29.020  29.275  1.00  0.00     0.031 A 
ATOM     47  C   UNL A   1      44.123  28.466  30.621  1.00  0.00     0.074 A 
ATOM     48  C   UNL A   1      44.320  30.325  29.002  1.00  0.00     0.049 A 
ATOM     49  N   UNL A   1      43.561  29.072  31.634  1.00  0.00    -0.248 NA
ATOM     50  C   UNL A   1      44.373  27.032  30.842  1.00  0.00     0.031 C 
ATOM     51  C   UNL A   1      44.595  30.969  27.716  1.00  0.00     0.029 A 
ATOM     52  N   UNL A   1      43.814  31.336  29.780  1.00  0.00    -0.354 N 
ATOM     53  C   UNL A   1      43.343  28.086  32.589  1.00  0.00     0.074 A 
ATOM     54  C   UNL A   1      43.802  26.838  32.020  1.00  0.00     0.031 C 
ATOM     55  C   UNL A   1      44.246  32.262  27.790  1.00  0.00     0.029 A 
ATOM     56  C   UNL A   1      43.682  32.530  29.109  1.00  0.00     0.049 A 
ATOM     57  H   UNL A   1      43.569  31.219  30.725  1.00  0.00     0.167 HD
ATOM     58  C   UNL A   1      42.829  28.210  33.835  1.00  0.00     0.034 A 
ATOM     59  C   UNL A   1      43.144  33.701  29.503  1.00  0.00     0.034 A 
ATOM     60  C   UNL A   1      42.406  29.459  34.405  1.00  0.00     0.049 A 
ATOM     61  C   UNL A   1      42.600  33.826  30.900  1.00  0.00     0.074 A 
ATOM     62  C   UNL A   1      41.950  29.710  35.687  1.00  0.00     0.029 A 
ATOM     63  N   UNL A   1      42.374  30.668  33.725  1.00  0.00    -0.354 N 
ATOM     64  N   UNL A   1      42.524  32.913  31.838  1.00  0.00    -0.248 NA
ATOM     65  C   UNL A   1      42.101  35.147  31.307  1.00  0.00     0.031 C 
ATOM     66  C   UNL A   1      41.606  31.062  35.770  1.00  0.00     0.029 A 
ATOM     67  C   UNL A   1      41.896  31.665  34.557  1.00  0.00     0.049 A 
ATOM     68  H   UNL A   1      42.652  30.797  32.791  1.00  0.00     0.167 HD
ATOM     69  C   UNL A   1      42.013  33.558  32.959  1.00  0.00     0.074 A 
ATOM     70  C   UNL A   1      41.802  34.941  32.583  1.00  0.00     0.031 C 
ATOM     71  C   UNL A   1      41.742  33.050  34.186  1.00  0.00     0.034 A 
BRANCH  58  72
ATOM     72  C   UNL A   1      42.722  26.960  34.671  1.00  0.00     0.023 A 
ATOM     73  C   UNL A   1      41.491  26.279  34.764  1.00  0.00     0.012 A 
ATOM     74  C   UNL A   1      43.846  26.443  35.344  1.00  0.00     0.148 A 
ATOM     75  C   UNL A   1      41.364  25.139  35.557  1.00  0.00     0.002 A 
ATOM     76  C   UNL A   1      43.727  25.275  36.088  1.00  0.00     0.091 A 
ATOM     77  F   UNL A   1      45.005  27.111  35.262  1.00  0.00    -0.205 F 
ATOM     78  C   UNL A   1      42.483  24.632  36.210  1.00  0.00     0.022 A 
BRANCH  76  79
ATOM     79  S   UNL A   1      45.129  24.495  36.894  1.00  0.00     0.127 S 
ATOM     80  O   UNL A   1      44.886  24.828  38.296  1.00  0.00    -0.237 OA
ATOM     81  O   UNL A   1      44.931  23.084  36.559  1.00  0.00    -0.237 OA
ATOM     82  O   UNL A   1      46.316  25.097  36.304  1.00  0.00    -0.744 OA
ENDBRANCH  76  79
ENDBRANCH  58  72
BRANCH  59  83
ATOM     83  C   UNL A   1      43.142  34.862  28.569  1.00  0.00     0.023 A 
ATOM     84  C   UNL A   1      41.940  35.249  27.945  1.00  0.00     0.012 A 
ATOM     85  C   UNL A   1      44.311  35.613  28.336  1.00  0.00     0.148 A 
ATOM     86  C   UNL A   1      41.907  36.346  27.084  1.00  0.00     0.002 A 
ATOM     87  C   UNL A   1      44.259  36.739  27.522  1.00  0.00     0.091 A 
ATOM     88  F   UNL A   1      45.443  35.225  28.938  1.00  0.00    -0.205 F 
ATOM     89  C   UNL A   1      43.062  37.097  26.882  1.00  0.00     0.022 A 
BRANCH  87  90
ATOM     90  S   UNL A   1      45.660  37.842  27.306  1.00  0.00     0.127 S 
ATOM     91  O   UNL A   1      46.607  36.988  26.595  1.00  0.00    -0.237 OA
ATOM     92  O   UNL A   1      45.072  38.915  26.503  1.00  0.00    -0.237 OA
ATOM     93  O   UNL A   1      46.060  38.244  28.648  1.00  0.00    -0.744 OA
ENDBRANCH  87  90
ENDBRANCH  59  83
BRANCH  71  94
ATOM     94  C   UNL A   1      41.250  33.995  35.251  1.00  0.00     0.023 A 
ATOM     95  C   UNL A   1      39.870  34.208  35.433  1.00  0.00     0.012 A 
ATOM     96  C   UNL A   1      42.167  34.592  36.140  1.00  0.00     0.148 A 
ATOM     97  C   UNL A   1      39.411  35.020  36.470  1.00  0.00     0.002 A 
ATOM     98  C   UNL A   1      41.700  35.355  37.202  1.00  0.00     0.091 A 
ATOM     99  F   UNL A   1      43.477  34.390  35.937  1.00  0.00    -0.205 F 
ATOM    100  C   UNL A   1      40.324  35.581  37.362  1.00  0.00     0.022 A 
BRANCH  98 101
ATOM    101  S   UNL A   1      42.793  36.028  38.460  1.00  0.00     0.127 S 
ATOM    102  O   UNL A   1      42.995  37.394  37.978  1.00  0.00    -0.237 OA
ATOM    103  O   UNL A   1      41.975  35.922  39.668  1.00  0.00    -0.237 OA
ATOM    104  O   UNL A   1      43.981  35.186  38.455  1.00  0.00    -0.744 OA
ENDBRANCH  98 101
ENDBRANCH  71  94
ENDBRANCH  45  46
ENDBRANCH  37  40
ENDBRANCH  35  36
ENDBRANCH  34  35
ENDBRANCH  33  34
ENDBRANCH   3  33
TORSDOF 20
ENDMDL
