MODEL 1
REMARK VINA RESULT:     -12.6      0.000      0.000
REMARK SMILES CC[C@@H]1CCC[C@@](C[C@@H]2CSc3ccccc32)(C(=O)NCCCNC(=O)c2ccc(-c3c4nc(c(-c5cccc(S(=O)(=O)[O-])c5F)c5ccc([nH]5)c(-c5cccc(S(=O)(=O)[O-])c5F)c5nc(c(-c6cccc(S(=O)(=O)[O-])c6F)c6ccc3[nH]6)C=C5)C=C4)cc2)C1
REMARK SMILES IDX 22 1 21 2 20 3 18 4 19 5 7 7 3 8 4 9 90 10 5 11 6 12 2 13
REMARK SMILES IDX 1 14 8 15 9 16 10 17 17 18 11 19 12 20 16 21 13 22 15 23
REMARK SMILES IDX 14 24 23 25 24 26 25 27 26 29 27 30 28 31 89 32 29 33 88 34
REMARK SMILES IDX 30 35 31 36 32 37 82 38 33 39 87 40 81 41 83 42 34 43 86 44
REMARK SMILES IDX 80 45 79 46 35 48 67 49 47 50 66 51 48 52 51 53 65 54 84 55
REMARK SMILES IDX 49 56 50 57 64 59 85 60 52 61 36 62 37 63 45 64 38 65 40 66
REMARK SMILES IDX 46 67 39 68 41 69 42 70 43 71 44 72 68 73 69 74 77 75 70 76
REMARK SMILES IDX 72 77 78 78 71 79 73 80 74 81 75 82 76 83 53 84 54 85 62 86
REMARK SMILES IDX 55 87 57 88 63 89 56 90 58 91 59 92 60 93 61 94
REMARK H PARENT 20 6 24 28 83 47 51 58
REMARK Flexibility Score: inf
ROOT
ATOM      1  C   UNL A   1      31.557  28.807  27.351  1.00  0.00     0.042 C 
ENDROOT
BRANCH   1   2
ATOM      2  C   UNL A   1      31.620  27.359  26.908  1.00  0.00     0.117 C 
BRANCH   2   3
ATOM      3  N   UNL A   1      30.961  27.073  25.655  1.00  0.00    -0.356 N 
ATOM      4  C   UNL A   1      31.205  26.082  24.760  1.00  0.00     0.226 C 
ATOM      5  O   UNL A   1      30.207  25.669  24.157  1.00  0.00    -0.274 OA
ATOM      6  H   UNL A   1      30.228  27.686  25.415  1.00  0.00     0.163 HD
BRANCH   4   7
ATOM      7  C   UNL A   1      32.610  25.477  24.479  1.00  0.00     0.050 C 
ATOM      8  C   UNL A   1      32.447  26.185  21.945  1.00  0.00    -0.010 C 
ATOM      9  C   UNL A   1      33.591  27.185  22.145  1.00  0.00     0.003 C 
ATOM     10  C   UNL A   1      32.563  25.023  22.957  1.00  0.00     0.020 C 
ATOM     11  C   UNL A   1      33.679  27.650  23.589  1.00  0.00     0.001 C 
ATOM     12  C   UNL A   1      33.795  26.467  24.548  1.00  0.00     0.017 C 
BRANCH   8  13
ATOM     13  C   UNL A   1      32.453  25.686  20.487  1.00  0.00     0.000 C 
ATOM     14  C   UNL A   1      32.968  24.263  20.335  1.00  0.00     0.004 C 
ENDBRANCH   8  13
BRANCH   7  15
ATOM     15  C   UNL A   1      32.839  24.128  25.270  1.00  0.00     0.026 C 
BRANCH  15  16
ATOM     16  C   UNL A   1      33.184  22.743  24.660  1.00  0.00     0.032 C 
ATOM     17  C   UNL A   1      32.416  21.568  25.297  1.00  0.00     0.083 C 
ATOM     18  C   UNL A   1      34.636  22.366  24.538  1.00  0.00    -0.030 A 
ATOM     19  S   UNL A   1      33.492  20.099  25.267  1.00  0.00    -0.125 SA
ATOM     20  C   UNL A   1      34.935  21.053  24.907  1.00  0.00     0.011 A 
ATOM     21  C   UNL A   1      35.649  23.189  24.052  1.00  0.00     0.005 A 
ATOM     22  C   UNL A   1      36.247  20.603  24.966  1.00  0.00     0.015 A 
ATOM     23  C   UNL A   1      36.971  22.743  24.091  1.00  0.00     0.000 A 
ATOM     24  C   UNL A   1      37.273  21.466  24.577  1.00  0.00     0.001 A 
ENDBRANCH  15  16
ENDBRANCH   7  15
ENDBRANCH   4   7
ENDBRANCH   2   3
ENDBRANCH   1   2
BRANCH   1  25
ATOM     25  C   UNL A   1      32.294  29.720  26.376  1.00  0.00     0.118 C 
BRANCH  25  26
ATOM     26  N   UNL A   1      32.179  31.144  26.703  1.00  0.00    -0.352 N 
ATOM     27  C   UNL A   1      33.038  32.039  27.310  1.00  0.00     0.251 C 
ATOM     28  H   UNL A   1      31.319  31.542  26.437  1.00  0.00     0.163 HD
ATOM     29  O   UNL A   1      32.636  33.160  27.590  1.00  0.00    -0.269 OA
BRANCH  27  30
ATOM     30  C   UNL A   1      34.414  31.637  27.675  1.00  0.00     0.039 A 
ATOM     31  C   UNL A   1      34.757  30.296  27.779  1.00  0.00     0.014 A 
ATOM     32  C   UNL A   1      35.380  32.615  27.940  1.00  0.00     0.014 A 
ATOM     33  C   UNL A   1      35.930  29.938  28.423  1.00  0.00     0.010 A 
ATOM     34  C   UNL A   1      36.632  32.241  28.444  1.00  0.00     0.010 A 
ATOM     35  C   UNL A   1      36.885  30.903  28.776  1.00  0.00    -0.014 A 
BRANCH  35  36
ATOM     36  C   UNL A   1      38.102  30.472  29.521  1.00  0.00     0.031 A 
ATOM     37  C   UNL A   1      38.295  30.836  30.973  1.00  0.00     0.074 A 
ATOM     38  C   UNL A   1      38.989  29.655  28.916  1.00  0.00     0.049 A 
ATOM     39  N   UNL A   1      39.269  30.499  31.780  1.00  0.00    -0.248 NA
ATOM     40  C   UNL A   1      37.276  31.693  31.606  1.00  0.00     0.031 C 
ATOM     41  C   UNL A   1      38.928  29.235  27.512  1.00  0.00     0.029 A 
ATOM     42  N   UNL A   1      40.087  28.992  29.407  1.00  0.00    -0.354 N 
ATOM     43  C   UNL A   1      39.018  31.151  32.981  1.00  0.00     0.074 A 
ATOM     44  C   UNL A   1      37.796  31.901  32.809  1.00  0.00     0.031 C 
ATOM     45  C   UNL A   1      39.877  28.319  27.283  1.00  0.00     0.029 A 
ATOM     46  C   UNL A   1      40.672  28.147  28.493  1.00  0.00     0.049 A 
ATOM     47  H   UNL A   1      40.422  29.109  30.325  1.00  0.00     0.167 HD
ATOM     48  C   UNL A   1      39.728  31.111  34.133  1.00  0.00     0.034 A 
ATOM     49  C   UNL A   1      41.735  27.327  28.603  1.00  0.00     0.034 A 
ATOM     50  C   UNL A   1      40.892  30.294  34.337  1.00  0.00     0.049 A 
ATOM     51  C   UNL A   1      42.481  27.270  29.902  1.00  0.00     0.074 A 
ATOM     52  C   UNL A   1      41.649  30.156  35.487  1.00  0.00     0.029 A 
ATOM     53  N   UNL A   1      41.456  29.465  33.381  1.00  0.00    -0.354 N 
ATOM     54  N   UNL A   1      42.199  27.868  31.033  1.00  0.00    -0.248 NA
ATOM     55  C   UNL A   1      43.690  26.436  29.941  1.00  0.00     0.031 C 
ATOM     56  C   UNL A   1      42.672  29.240  35.227  1.00  0.00     0.029 A 
ATOM     57  C   UNL A   1      42.549  28.808  33.916  1.00  0.00     0.049 A 
ATOM     58  H   UNL A   1      41.127  29.359  32.459  1.00  0.00     0.167 HD
ATOM     59  C   UNL A   1      43.197  27.489  31.920  1.00  0.00     0.074 A 
ATOM     60  C   UNL A   1      44.073  26.583  31.204  1.00  0.00     0.031 C 
ATOM     61  C   UNL A   1      43.385  27.879  33.203  1.00  0.00     0.034 A 
BRANCH  48  62
ATOM     62  C   UNL A   1      39.245  31.935  35.295  1.00  0.00     0.023 A 
ATOM     63  C   UNL A   1      38.377  31.355  36.240  1.00  0.00     0.012 A 
ATOM     64  C   UNL A   1      39.735  33.239  35.507  1.00  0.00     0.148 A 
ATOM     65  C   UNL A   1      37.996  32.064  37.378  1.00  0.00     0.002 A 
ATOM     66  C   UNL A   1      39.374  33.928  36.659  1.00  0.00     0.091 A 
ATOM     67  F   UNL A   1      40.551  33.771  34.586  1.00  0.00    -0.205 F 
ATOM     68  C   UNL A   1      38.502  33.344  37.592  1.00  0.00     0.022 A 
BRANCH  66  69
ATOM     69  S   UNL A   1      40.013  35.558  37.060  1.00  0.00     0.127 S 
ATOM     70  O   UNL A   1      39.331  35.837  38.324  1.00  0.00    -0.237 OA
ATOM     71  O   UNL A   1      41.448  35.303  37.185  1.00  0.00    -0.237 OA
ATOM     72  O   UNL A   1      39.640  36.424  35.951  1.00  0.00    -0.744 OA
ENDBRANCH  66  69
ENDBRANCH  48  62
BRANCH  49  73
ATOM     73  C   UNL A   1      42.122  26.480  27.442  1.00  0.00     0.023 A 
ATOM     74  C   UNL A   1      42.985  27.005  26.461  1.00  0.00     0.012 A 
ATOM     75  C   UNL A   1      41.723  25.132  27.363  1.00  0.00     0.148 A 
ATOM     76  C   UNL A   1      43.451  26.197  25.423  1.00  0.00     0.002 A 
ATOM     77  C   UNL A   1      42.233  24.319  26.358  1.00  0.00     0.091 A 
ATOM     78  F   UNL A   1      40.890  24.663  28.302  1.00  0.00    -0.205 F 
ATOM     79  C   UNL A   1      43.088  24.853  25.380  1.00  0.00     0.022 A 
BRANCH  77  80
ATOM     80  S   UNL A   1      41.933  22.549  26.307  1.00  0.00     0.127 S 
ATOM     81  O   UNL A   1      42.656  22.159  25.099  1.00  0.00    -0.237 OA
ATOM     82  O   UNL A   1      42.542  22.107  27.562  1.00  0.00    -0.237 OA
ATOM     83  O   UNL A   1      40.486  22.395  26.253  1.00  0.00    -0.744 OA
ENDBRANCH  77  80
ENDBRANCH  49  73
BRANCH  61  84
ATOM     84  C   UNL A   1      44.586  27.345  33.928  1.00  0.00     0.023 A 
ATOM     85  C   UNL A   1      45.786  28.081  33.896  1.00  0.00     0.012 A 
ATOM     86  C   UNL A   1      44.493  26.191  34.727  1.00  0.00     0.148 A 
ATOM     87  C   UNL A   1      46.883  27.670  34.650  1.00  0.00     0.002 A 
ATOM     88  C   UNL A   1      45.580  25.805  35.500  1.00  0.00     0.091 A 
ATOM     89  F   UNL A   1      43.339  25.507  34.729  1.00  0.00    -0.205 F 
ATOM     90  C   UNL A   1      46.777  26.541  35.459  1.00  0.00     0.022 A 
BRANCH  88  91
ATOM     91  S   UNL A   1      45.520  24.409  36.627  1.00  0.00     0.127 S 
ATOM     92  O   UNL A   1      45.034  23.342  35.753  1.00  0.00    -0.237 OA
ATOM     93  O   UNL A   1      46.918  24.278  37.034  1.00  0.00    -0.237 OA
ATOM     94  O   UNL A   1      44.610  24.794  37.698  1.00  0.00    -0.744 OA
ENDBRANCH  88  91
ENDBRANCH  61  84
ENDBRANCH  35  36
ENDBRANCH  27  30
ENDBRANCH  25  26
ENDBRANCH   1  25
TORSDOF 16
ENDMDL
MODEL 2
REMARK VINA RESULT:     -12.5      5.153     10.158
REMARK SMILES CC[C@@H]1CCC[C@@](C[C@@H]2CSc3ccccc32)(C(=O)NCCCNC(=O)c2ccc(-c3c4nc(c(-c5cccc(S(=O)(=O)[O-])c5F)c5ccc([nH]5)c(-c5cccc(S(=O)(=O)[O-])c5F)c5nc(c(-c6cccc(S(=O)(=O)[O-])c6F)c6ccc3[nH]6)C=C5)C=C4)cc2)C1
REMARK SMILES IDX 22 1 21 2 20 3 18 4 19 5 7 7 3 8 4 9 90 10 5 11 6 12 2 13
REMARK SMILES IDX 1 14 8 15 9 16 10 17 17 18 11 19 12 20 16 21 13 22 15 23
REMARK SMILES IDX 14 24 23 25 24 26 25 27 26 29 27 30 28 31 89 32 29 33 88 34
REMARK SMILES IDX 30 35 31 36 32 37 82 38 33 39 87 40 81 41 83 42 34 43 86 44
REMARK SMILES IDX 80 45 79 46 35 48 67 49 47 50 66 51 48 52 51 53 65 54 84 55
REMARK SMILES IDX 49 56 50 57 64 59 85 60 52 61 36 62 37 63 45 64 38 65 40 66
REMARK SMILES IDX 46 67 39 68 41 69 42 70 43 71 44 72 68 73 69 74 77 75 70 76
REMARK SMILES IDX 72 77 78 78 71 79 73 80 74 81 75 82 76 83 53 84 54 85 62 86
REMARK SMILES IDX 55 87 57 88 63 89 56 90 58 91 59 92 60 93 61 94
REMARK H PARENT 20 6 24 28 83 47 51 58
REMARK Flexibility Score: inf
ROOT
ATOM      1  C   UNL A   1      36.961  22.305  23.628  1.00  0.00     0.042 C 
ENDROOT
BRANCH   1   2
ATOM      2  C   UNL A   1      35.797  23.242  23.375  1.00  0.00     0.117 C 
BRANCH   2   3
ATOM      3  N   UNL A   1      34.495  22.618  23.389  1.00  0.00    -0.356 N 
ATOM      4  C   UNL A   1      33.279  23.166  23.650  1.00  0.00     0.226 C 
ATOM      5  O   UNL A   1      32.338  22.663  23.024  1.00  0.00    -0.274 OA
ATOM      6  H   UNL A   1      34.486  21.656  23.179  1.00  0.00     0.163 HD
BRANCH   4   7
ATOM      7  C   UNL A   1      33.037  24.336  24.646  1.00  0.00     0.050 C 
ATOM      8  C   UNL A   1      31.516  22.790  26.145  1.00  0.00    -0.010 C 
ATOM      9  C   UNL A   1      32.552  22.854  27.272  1.00  0.00     0.003 C 
ATOM     10  C   UNL A   1      31.600  24.057  25.262  1.00  0.00     0.020 C 
ATOM     11  C   UNL A   1      33.948  23.121  26.732  1.00  0.00     0.001 C 
ATOM     12  C   UNL A   1      33.978  24.382  25.871  1.00  0.00     0.017 C 
BRANCH   8  13
ATOM     13  C   UNL A   1      30.112  22.599  26.751  1.00  0.00     0.000 C 
ATOM     14  C   UNL A   1      29.355  23.903  26.952  1.00  0.00     0.004 C 
ENDBRANCH   8  13
BRANCH   7  15
ATOM     15  C   UNL A   1      32.868  25.718  23.900  1.00  0.00     0.026 C 
BRANCH  15  16
ATOM     16  C   UNL A   1      31.697  26.723  24.066  1.00  0.00     0.032 C 
ATOM     17  C   UNL A   1      31.289  27.434  22.759  1.00  0.00     0.083 C 
ATOM     18  C   UNL A   1      31.794  27.746  25.165  1.00  0.00    -0.030 A 
ATOM     19  S   UNL A   1      30.719  29.112  23.176  1.00  0.00    -0.125 SA
ATOM     20  C   UNL A   1      31.401  29.037  24.804  1.00  0.00     0.011 A 
ATOM     21  C   UNL A   1      32.183  27.491  26.478  1.00  0.00     0.005 A 
ATOM     22  C   UNL A   1      31.556  30.107  25.675  1.00  0.00     0.015 A 
ATOM     23  C   UNL A   1      32.328  28.556  27.369  1.00  0.00     0.000 A 
ATOM     24  C   UNL A   1      32.046  29.864  26.959  1.00  0.00     0.001 A 
ENDBRANCH  15  16
ENDBRANCH   7  15
ENDBRANCH   4   7
ENDBRANCH   2   3
ENDBRANCH   1   2
BRANCH   1  25
ATOM     25  C   UNL A   1      37.105  21.984  25.112  1.00  0.00     0.118 C 
BRANCH  25  26
ATOM     26  N   UNL A   1      38.127  20.973  25.398  1.00  0.00    -0.352 N 
ATOM     27  C   UNL A   1      39.330  21.020  26.075  1.00  0.00     0.251 C 
ATOM     28  H   UNL A   1      37.913  20.083  25.036  1.00  0.00     0.163 HD
ATOM     29  O   UNL A   1      40.070  20.047  26.051  1.00  0.00    -0.269 OA
BRANCH  27  30
ATOM     30  C   UNL A   1      39.755  22.253  26.775  1.00  0.00     0.039 A 
ATOM     31  C   UNL A   1      39.091  23.453  26.564  1.00  0.00     0.014 A 
ATOM     32  C   UNL A   1      40.851  22.218  27.644  1.00  0.00     0.014 A 
ATOM     33  C   UNL A   1      39.682  24.641  26.961  1.00  0.00     0.010 A 
ATOM     34  C   UNL A   1      41.357  23.411  28.178  1.00  0.00     0.010 A 
ATOM     35  C   UNL A   1      40.831  24.643  27.767  1.00  0.00    -0.014 A 
BRANCH  35  36
ATOM     36  C   UNL A   1      41.462  25.948  28.117  1.00  0.00     0.031 A 
ATOM     37  C   UNL A   1      42.830  26.313  27.596  1.00  0.00     0.074 A 
ATOM     38  C   UNL A   1      40.752  26.855  28.820  1.00  0.00     0.049 A 
ATOM     39  N   UNL A   1      43.500  27.426  27.763  1.00  0.00    -0.248 NA
ATOM     40  C   UNL A   1      43.550  25.308  26.793  1.00  0.00     0.031 C 
ATOM     41  C   UNL A   1      39.422  26.624  29.393  1.00  0.00     0.029 A 
ATOM     42  N   UNL A   1      41.021  28.164  29.135  1.00  0.00    -0.354 N 
ATOM     43  C   UNL A   1      44.732  27.230  27.151  1.00  0.00     0.074 A 
ATOM     44  C   UNL A   1      44.723  25.896  26.598  1.00  0.00     0.031 C 
ATOM     45  C   UNL A   1      38.954  27.773  29.901  1.00  0.00     0.029 A 
ATOM     46  C   UNL A   1      39.980  28.800  29.771  1.00  0.00     0.049 A 
ATOM     47  H   UNL A   1      41.876  28.605  28.926  1.00  0.00     0.167 HD
ATOM     48  C   UNL A   1      45.769  28.092  27.037  1.00  0.00     0.034 A 
ATOM     49  C   UNL A   1      39.858  30.067  30.212  1.00  0.00     0.034 A 
ATOM     50  C   UNL A   1      45.747  29.450  27.505  1.00  0.00     0.049 A 
ATOM     51  C   UNL A   1      41.006  31.014  30.039  1.00  0.00     0.074 A 
ATOM     52  C   UNL A   1      46.737  30.410  27.392  1.00  0.00     0.029 A 
ATOM     53  N   UNL A   1      44.679  30.048  28.152  1.00  0.00    -0.354 N 
ATOM     54  N   UNL A   1      42.145  30.814  29.422  1.00  0.00    -0.248 NA
ATOM     55  C   UNL A   1      40.861  32.354  30.624  1.00  0.00     0.031 C 
ATOM     56  C   UNL A   1      46.266  31.591  27.971  1.00  0.00     0.029 A 
ATOM     57  C   UNL A   1      44.983  31.366  28.443  1.00  0.00     0.049 A 
ATOM     58  H   UNL A   1      43.829  29.601  28.373  1.00  0.00     0.167 HD
ATOM     59  C   UNL A   1      42.856  31.999  29.548  1.00  0.00     0.074 A 
ATOM     60  C   UNL A   1      42.007  32.924  30.271  1.00  0.00     0.031 C 
ATOM     61  C   UNL A   1      44.111  32.284  29.126  1.00  0.00     0.034 A 
BRANCH  48  62
ATOM     62  C   UNL A   1      47.012  27.619  26.335  1.00  0.00     0.023 A 
ATOM     63  C   UNL A   1      47.931  26.807  27.027  1.00  0.00     0.012 A 
ATOM     64  C   UNL A   1      47.213  27.887  24.966  1.00  0.00     0.148 A 
ATOM     65  C   UNL A   1      49.038  26.274  26.370  1.00  0.00     0.002 A 
ATOM     66  C   UNL A   1      48.304  27.328  24.310  1.00  0.00     0.091 A 
ATOM     67  F   UNL A   1      46.330  28.673  24.334  1.00  0.00    -0.205 F 
ATOM     68  C   UNL A   1      49.219  26.524  25.012  1.00  0.00     0.022 A 
BRANCH  66  69
ATOM     69  S   UNL A   1      48.598  27.540  22.551  1.00  0.00     0.127 S 
ATOM     70  O   UNL A   1      48.683  26.152  22.099  1.00  0.00    -0.237 OA
ATOM     71  O   UNL A   1      47.393  28.249  22.122  1.00  0.00    -0.237 OA
ATOM     72  O   UNL A   1      49.832  28.305  22.437  1.00  0.00    -0.744 OA
ENDBRANCH  66  69
ENDBRANCH  48  62
BRANCH  49  73
ATOM     73  C   UNL A   1      38.576  30.499  30.834  1.00  0.00     0.023 A 
ATOM     74  C   UNL A   1      38.424  30.416  32.231  1.00  0.00     0.012 A 
ATOM     75  C   UNL A   1      37.556  31.084  30.060  1.00  0.00     0.148 A 
ATOM     76  C   UNL A   1      37.277  30.916  32.848  1.00  0.00     0.002 A 
ATOM     77  C   UNL A   1      36.441  31.628  30.685  1.00  0.00     0.091 A 
ATOM     78  F   UNL A   1      37.721  31.137  28.731  1.00  0.00    -0.205 F 
ATOM     79  C   UNL A   1      36.294  31.535  32.078  1.00  0.00     0.022 A 
BRANCH  77  80
ATOM     80  S   UNL A   1      35.198  32.566  29.791  1.00  0.00     0.127 S 
ATOM     81  O   UNL A   1      34.734  31.587  28.811  1.00  0.00    -0.237 OA
ATOM     82  O   UNL A   1      34.240  32.879  30.852  1.00  0.00    -0.237 OA
ATOM     83  O   UNL A   1      35.892  33.724  29.246  1.00  0.00    -0.744 OA
ENDBRANCH  77  80
ENDBRANCH  49  73
BRANCH  61  84
ATOM     84  C   UNL A   1      44.662  33.645  29.437  1.00  0.00     0.023 A 
ATOM     85  C   UNL A   1      45.358  33.840  30.645  1.00  0.00     0.012 A 
ATOM     86  C   UNL A   1      44.593  34.685  28.491  1.00  0.00     0.148 A 
ATOM     87  C   UNL A   1      45.977  35.060  30.911  1.00  0.00     0.002 A 
ATOM     88  C   UNL A   1      45.239  35.888  28.750  1.00  0.00     0.091 A 
ATOM     89  F   UNL A   1      43.915  34.471  27.355  1.00  0.00    -0.205 F 
ATOM     90  C   UNL A   1      45.927  36.078  29.960  1.00  0.00     0.022 A 
BRANCH  88  91
ATOM     91  S   UNL A   1      45.293  37.231  27.561  1.00  0.00     0.127 S 
ATOM     92  O   UNL A   1      46.025  38.257  28.304  1.00  0.00    -0.237 OA
ATOM     93  O   UNL A   1      46.036  36.633  26.451  1.00  0.00    -0.237 OA
ATOM     94  O   UNL A   1      43.907  37.558  27.257  1.00  0.00    -0.744 OA
ENDBRANCH  88  91
ENDBRANCH  61  84
ENDBRANCH  35  36
ENDBRANCH  27  30
ENDBRANCH  25  26
ENDBRANCH   1  25
TORSDOF 16
ENDMDL
MODEL 3
REMARK VINA RESULT:     -12.3      4.892      9.979
REMARK SMILES CC[C@@H]1CCC[C@@](C[C@@H]2CSc3ccccc32)(C(=O)NCCCNC(=O)c2ccc(-c3c4nc(c(-c5cccc(S(=O)(=O)[O-])c5F)c5ccc([nH]5)c(-c5cccc(S(=O)(=O)[O-])c5F)c5nc(c(-c6cccc(S(=O)(=O)[O-])c6F)c6ccc3[nH]6)C=C5)C=C4)cc2)C1
REMARK SMILES IDX 22 1 21 2 20 3 18 4 19 5 7 7 3 8 4 9 90 10 5 11 6 12 2 13
REMARK SMILES IDX 1 14 8 15 9 16 10 17 17 18 11 19 12 20 16 21 13 22 15 23
REMARK SMILES IDX 14 24 23 25 24 26 25 27 26 29 27 30 28 31 89 32 29 33 88 34
REMARK SMILES IDX 30 35 31 36 32 37 82 38 33 39 87 40 81 41 83 42 34 43 86 44
REMARK SMILES IDX 80 45 79 46 35 48 67 49 47 50 66 51 48 52 51 53 65 54 84 55
REMARK SMILES IDX 49 56 50 57 64 59 85 60 52 61 36 62 37 63 45 64 38 65 40 66
REMARK SMILES IDX 46 67 39 68 41 69 42 70 43 71 44 72 68 73 69 74 77 75 70 76
REMARK SMILES IDX 72 77 78 78 71 79 73 80 74 81 75 82 76 83 53 84 54 85 62 86
REMARK SMILES IDX 55 87 57 88 63 89 56 90 58 91 59 92 60 93 61 94
REMARK H PARENT 20 6 24 28 83 47 51 58
REMARK Flexibility Score: inf
ROOT
ATOM      1  C   UNL A   1      35.964  21.409  25.536  1.00  0.00     0.042 C 
ENDROOT
BRANCH   1   2
ATOM      2  C   UNL A   1      35.713  22.823  26.018  1.00  0.00     0.117 C 
BRANCH   2   3
ATOM      3  N   UNL A   1      34.736  22.945  27.076  1.00  0.00    -0.356 N 
ATOM      4  C   UNL A   1      33.469  23.431  27.027  1.00  0.00     0.226 C 
ATOM      5  O   UNL A   1      32.674  22.888  27.803  1.00  0.00    -0.274 OA
ATOM      6  H   UNL A   1      35.032  22.630  27.961  1.00  0.00     0.163 HD
BRANCH   4   7
ATOM      7  C   UNL A   1      33.003  24.578  26.085  1.00  0.00     0.050 C 
ATOM      8  C   UNL A   1      32.156  22.821  24.310  1.00  0.00    -0.010 C 
ATOM      9  C   UNL A   1      30.709  23.262  24.558  1.00  0.00     0.003 C 
ATOM     10  C   UNL A   1      33.132  23.980  24.619  1.00  0.00     0.020 C 
ATOM     11  C   UNL A   1      30.533  23.844  25.951  1.00  0.00     0.001 C 
ATOM     12  C   UNL A   1      31.517  24.984  26.204  1.00  0.00     0.017 C 
BRANCH   8  13
ATOM     13  C   UNL A   1      32.296  22.316  22.862  1.00  0.00     0.000 C 
ATOM     14  C   UNL A   1      33.357  23.055  22.061  1.00  0.00     0.004 C 
ENDBRANCH   8  13
BRANCH   7  15
ATOM     15  C   UNL A   1      34.015  25.792  26.090  1.00  0.00     0.026 C 
BRANCH  15  16
ATOM     16  C   UNL A   1      33.678  27.279  25.802  1.00  0.00     0.032 C 
ATOM     17  C   UNL A   1      33.241  28.076  27.047  1.00  0.00     0.083 C 
ATOM     18  C   UNL A   1      32.732  27.584  24.672  1.00  0.00    -0.030 A 
ATOM     19  S   UNL A   1      32.028  29.330  26.526  1.00  0.00    -0.125 SA
ATOM     20  C   UNL A   1      31.777  28.563  24.954  1.00  0.00     0.011 A 
ATOM     21  C   UNL A   1      32.776  27.016  23.401  1.00  0.00     0.005 A 
ATOM     22  C   UNL A   1      30.761  28.859  24.054  1.00  0.00     0.015 A 
ATOM     23  C   UNL A   1      31.770  27.317  22.481  1.00  0.00     0.000 A 
ATOM     24  C   UNL A   1      30.747  28.210  22.818  1.00  0.00     0.001 A 
ENDBRANCH  15  16
ENDBRANCH   7  15
ENDBRANCH   4   7
ENDBRANCH   2   3
ENDBRANCH   1   2
BRANCH   1  25
ATOM     25  C   UNL A   1      37.181  21.340  24.621  1.00  0.00     0.118 C 
BRANCH  25  26
ATOM     26  N   UNL A   1      38.162  20.327  25.022  1.00  0.00    -0.352 N 
ATOM     27  C   UNL A   1      39.310  20.385  25.788  1.00  0.00     0.251 C 
ATOM     28  H   UNL A   1      37.963  19.427  24.677  1.00  0.00     0.163 HD
ATOM     29  O   UNL A   1      40.035  19.402  25.858  1.00  0.00    -0.269 OA
BRANCH  27  30
ATOM     30  C   UNL A   1      39.698  21.637  26.474  1.00  0.00     0.039 A 
ATOM     31  C   UNL A   1      39.120  22.848  26.121  1.00  0.00     0.014 A 
ATOM     32  C   UNL A   1      40.674  21.609  27.477  1.00  0.00     0.014 A 
ATOM     33  C   UNL A   1      39.709  24.033  26.531  1.00  0.00     0.010 A 
ATOM     34  C   UNL A   1      41.161  22.809  28.011  1.00  0.00     0.010 A 
ATOM     35  C   UNL A   1      40.746  24.036  27.476  1.00  0.00    -0.014 A 
BRANCH  35  36
ATOM     36  C   UNL A   1      41.386  25.333  27.837  1.00  0.00     0.031 A 
ATOM     37  C   UNL A   1      42.762  25.689  27.330  1.00  0.00     0.074 A 
ATOM     38  C   UNL A   1      40.679  26.243  28.540  1.00  0.00     0.049 A 
ATOM     39  N   UNL A   1      43.440  26.794  27.509  1.00  0.00    -0.248 NA
ATOM     40  C   UNL A   1      43.479  24.682  26.528  1.00  0.00     0.031 C 
ATOM     41  C   UNL A   1      39.342  26.021  29.100  1.00  0.00     0.029 A 
ATOM     42  N   UNL A   1      40.957  27.548  28.864  1.00  0.00    -0.354 N 
ATOM     43  C   UNL A   1      44.676  26.591  26.906  1.00  0.00     0.074 A 
ATOM     44  C   UNL A   1      44.659  25.260  26.345  1.00  0.00     0.031 C 
ATOM     45  C   UNL A   1      38.881  27.171  29.610  1.00  0.00     0.029 A 
ATOM     46  C   UNL A   1      39.917  28.189  29.494  1.00  0.00     0.049 A 
ATOM     47  H   UNL A   1      41.817  27.981  28.664  1.00  0.00     0.167 HD
ATOM     48  C   UNL A   1      45.722  27.443  26.805  1.00  0.00     0.034 A 
ATOM     49  C   UNL A   1      39.803  29.455  29.942  1.00  0.00     0.034 A 
ATOM     50  C   UNL A   1      45.707  28.800  27.280  1.00  0.00     0.049 A 
ATOM     51  C   UNL A   1      40.961  30.392  29.783  1.00  0.00     0.074 A 
ATOM     52  C   UNL A   1      46.707  29.751  27.180  1.00  0.00     0.029 A 
ATOM     53  N   UNL A   1      44.639  29.403  27.921  1.00  0.00    -0.354 N 
ATOM     54  N   UNL A   1      42.102  30.185  29.174  1.00  0.00    -0.248 NA
ATOM     55  C   UNL A   1      40.823  31.731  30.374  1.00  0.00     0.031 C 
ATOM     56  C   UNL A   1      46.242  30.933  27.762  1.00  0.00     0.029 A 
ATOM     57  C   UNL A   1      44.953  30.717  28.222  1.00  0.00     0.049 A 
ATOM     58  H   UNL A   1      43.784  28.963  28.133  1.00  0.00     0.167 HD
ATOM     59  C   UNL A   1      42.823  31.363  29.313  1.00  0.00     0.074 A 
ATOM     60  C   UNL A   1      41.977  32.293  30.034  1.00  0.00     0.031 C 
ATOM     61  C   UNL A   1      44.084  31.639  28.903  1.00  0.00     0.034 A 
BRANCH  48  62
ATOM     62  C   UNL A   1      46.966  26.963  26.110  1.00  0.00     0.023 A 
ATOM     63  C   UNL A   1      47.119  27.193  24.730  1.00  0.00     0.012 A 
ATOM     64  C   UNL A   1      48.024  26.386  26.842  1.00  0.00     0.148 A 
ATOM     65  C   UNL A   1      48.305  26.849  24.083  1.00  0.00     0.002 A 
ATOM     66  C   UNL A   1      49.214  26.073  26.196  1.00  0.00     0.091 A 
ATOM     67  F   UNL A   1      47.847  26.168  28.153  1.00  0.00    -0.205 F 
ATOM     68  C   UNL A   1      49.354  26.300  24.816  1.00  0.00     0.022 A 
BRANCH  66  69
ATOM     69  S   UNL A   1      50.646  25.415  27.056  1.00  0.00     0.127 S 
ATOM     70  O   UNL A   1      50.982  26.520  27.954  1.00  0.00    -0.237 OA
ATOM     71  O   UNL A   1      50.090  24.237  27.722  1.00  0.00    -0.237 OA
ATOM     72  O   UNL A   1      51.638  25.128  26.030  1.00  0.00    -0.744 OA
ENDBRANCH  66  69
ENDBRANCH  48  62
BRANCH  49  73
ATOM     73  C   UNL A   1      38.520  29.895  30.555  1.00  0.00     0.023 A 
ATOM     74  C   UNL A   1      38.304  29.685  31.930  1.00  0.00     0.012 A 
ATOM     75  C   UNL A   1      37.564  30.609  29.806  1.00  0.00     0.148 A 
ATOM     76  C   UNL A   1      37.159  30.186  32.551  1.00  0.00     0.002 A 
ATOM     77  C   UNL A   1      36.454  31.150  30.441  1.00  0.00     0.091 A 
ATOM     78  F   UNL A   1      37.789  30.782  28.496  1.00  0.00    -0.205 F 
ATOM     79  C   UNL A   1      36.243  30.931  31.811  1.00  0.00     0.022 A 
BRANCH  77  80
ATOM     80  S   UNL A   1      35.300  32.239  29.599  1.00  0.00     0.127 S 
ATOM     81  O   UNL A   1      34.757  31.358  28.568  1.00  0.00    -0.237 OA
ATOM     82  O   UNL A   1      34.369  32.577  30.676  1.00  0.00    -0.237 OA
ATOM     83  O   UNL A   1      36.094  33.360  29.116  1.00  0.00    -0.744 OA
ENDBRANCH  77  80
ENDBRANCH  49  73
BRANCH  61  84
ATOM     84  C   UNL A   1      44.645  32.993  29.225  1.00  0.00     0.023 A 
ATOM     85  C   UNL A   1      45.356  33.169  30.427  1.00  0.00     0.012 A 
ATOM     86  C   UNL A   1      44.569  34.047  28.295  1.00  0.00     0.148 A 
ATOM     87  C   UNL A   1      45.983  34.383  30.702  1.00  0.00     0.002 A 
ATOM     88  C   UNL A   1      45.223  35.243  28.562  1.00  0.00     0.091 A 
ATOM     89  F   UNL A   1      43.876  33.851  27.164  1.00  0.00    -0.205 F 
ATOM     90  C   UNL A   1      45.926  35.414  29.767  1.00  0.00     0.022 A 
BRANCH  88  91
ATOM     91  S   UNL A   1      45.268  36.603  27.391  1.00  0.00     0.127 S 
ATOM     92  O   UNL A   1      45.903  35.976  26.232  1.00  0.00    -0.237 OA
ATOM     93  O   UNL A   1      43.849  36.911  27.219  1.00  0.00    -0.237 OA
ATOM     94  O   UNL A   1      46.046  37.658  28.028  1.00  0.00    -0.744 OA
ENDBRANCH  88  91
ENDBRANCH  61  84
ENDBRANCH  35  36
ENDBRANCH  27  30
ENDBRANCH  25  26
ENDBRANCH   1  25
TORSDOF 16
ENDMDL
