MODEL 1
REMARK VINA RESULT:     -11.9      0.000      0.000
REMARK SMILES O=C(Cn1cc(NC(=O)N2CC[N@@H+]3CCC[C@@H]3C2)cn1)NCCCNC(=O)c1ccc(-c2c3nc(c(-c4cccc(S(=O)(=O)[O-])c4F)c4ccc([nH]4)c(-c4cccc(S(=O)(=O)[O-])c4F)c4nc(c(-c5cccc(S(=O)(=O)[O-])c5F)c5ccc2[nH]5)C=C4)C=C3)cc1
REMARK SMILES IDX 23 1 22 2 21 3 1 4 2 5 3 7 4 8 5 9 20 10 6 11 19 12 7 13
REMARK SMILES IDX 8 14 9 16 10 17 11 18 18 19 12 20 17 21 13 22 16 23 14 24
REMARK SMILES IDX 15 26 24 27 25 28 26 29 27 31 28 32 29 33 90 34 30 35 89 36
REMARK SMILES IDX 31 37 32 38 33 39 83 40 34 41 88 42 82 43 84 44 35 45 87 46
REMARK SMILES IDX 81 47 80 48 36 50 68 51 48 52 67 53 49 54 52 55 66 56 85 57
REMARK SMILES IDX 50 58 51 59 65 61 86 62 53 63 37 64 38 65 46 66 39 67 41 68
REMARK SMILES IDX 47 69 40 70 42 71 43 72 44 73 45 74 69 75 70 76 78 77 71 78
REMARK SMILES IDX 73 79 79 80 72 81 74 82 75 83 76 84 77 85 54 86 55 87 63 88
REMARK SMILES IDX 56 89 58 90 64 91 57 92 59 93 60 94 61 95 62 96
REMARK H PARENT 21 6 7 15 13 25 25 30 84 49 52 60
REMARK Flexibility Score: inf
ROOT
ATOM      1  C   UNL A   1      31.586  32.142  26.854  1.00  0.00     0.042 C 
ENDROOT
BRANCH   1   2
ATOM      2  C   UNL A   1      31.889  30.699  26.450  1.00  0.00     0.117 C 
BRANCH   2   3
ATOM      3  N   UNL A   1      31.253  30.282  25.211  1.00  0.00    -0.354 N 
ATOM      4  O   UNL A   1      32.648  28.502  24.830  1.00  0.00    -0.273 OA
ATOM      5  C   UNL A   1      31.633  29.133  24.535  1.00  0.00     0.241 C 
ATOM      6  H   UNL A   1      30.527  30.835  24.840  1.00  0.00     0.163 HD
BRANCH   5   7
ATOM      7  C   UNL A   1      30.748  28.734  23.363  1.00  0.00     0.244 C 
BRANCH   7   8
ATOM      8  N   UNL A   1      30.989  27.371  22.909  1.00  0.00    -0.261 N 
ATOM      9  C   UNL A   1      30.458  26.222  23.444  1.00  0.00     0.135 A 
ATOM     10  N   UNL A   1      31.823  27.131  21.875  1.00  0.00    -0.179 NA
ATOM     11  C   UNL A   1      31.065  25.177  22.788  1.00  0.00     0.081 A 
ATOM     12  C   UNL A   1      31.861  25.801  21.802  1.00  0.00     0.161 A 
BRANCH  11  13
ATOM     13  N   UNL A   1      30.861  23.833  23.047  1.00  0.00    -0.305 N 
ATOM     14  C   UNL A   1      31.862  22.911  23.218  1.00  0.00     0.322 C 
ATOM     15  H   UNL A   1      29.931  23.515  23.115  1.00  0.00     0.171 HD
ATOM     16  O   UNL A   1      31.761  21.784  22.736  1.00  0.00    -0.248 OA
BRANCH  14  17
ATOM     17  N   UNL A   1      32.964  23.308  23.952  1.00  0.00    -0.313 N 
ATOM     18  C   UNL A   1      32.890  23.470  25.411  1.00  0.00     0.183 C 
ATOM     19  C   UNL A   1      34.292  23.237  23.360  1.00  0.00     0.186 C 
ATOM     20  C   UNL A   1      34.245  23.766  26.076  1.00  0.00     0.284 C 
ATOM     21  C   UNL A   1      35.321  22.507  24.239  1.00  0.00     0.204 C 
ATOM     22  N   UNL A   1      35.318  22.847  25.680  1.00  0.00    -0.330 N 
ATOM     23  C   UNL A   1      36.751  22.761  23.761  1.00  0.00     0.073 C 
ATOM     24  C   UNL A   1      36.645  23.345  26.050  1.00  0.00     0.262 C 
ATOM     25  H   UNL A   1      35.116  21.993  26.202  1.00  0.00     0.348 HD
ATOM     26  C   UNL A   1      37.575  22.713  25.033  1.00  0.00     0.068 C 
ENDBRANCH  14  17
ENDBRANCH  11  13
ENDBRANCH   7   8
ENDBRANCH   5   7
ENDBRANCH   2   3
ENDBRANCH   1   2
BRANCH   1  27
ATOM     27  C   UNL A   1      32.813  32.915  27.317  1.00  0.00     0.118 C 
BRANCH  27  28
ATOM     28  N   UNL A   1      32.493  34.211  27.922  1.00  0.00    -0.352 N 
ATOM     29  C   UNL A   1      33.111  34.817  29.005  1.00  0.00     0.251 C 
ATOM     30  H   UNL A   1      31.751  34.710  27.510  1.00  0.00     0.163 HD
ATOM     31  O   UNL A   1      32.561  35.713  29.619  1.00  0.00    -0.269 OA
BRANCH  29  32
ATOM     32  C   UNL A   1      34.451  34.341  29.405  1.00  0.00     0.039 A 
ATOM     33  C   UNL A   1      34.607  33.476  30.491  1.00  0.00     0.014 A 
ATOM     34  C   UNL A   1      35.545  34.719  28.632  1.00  0.00     0.014 A 
ATOM     35  C   UNL A   1      35.858  32.906  30.721  1.00  0.00     0.010 A 
ATOM     36  C   UNL A   1      36.742  34.057  28.778  1.00  0.00     0.010 A 
ATOM     37  C   UNL A   1      36.918  33.168  29.836  1.00  0.00    -0.014 A 
BRANCH  37  38
ATOM     38  C   UNL A   1      38.153  32.381  29.918  1.00  0.00     0.031 A 
ATOM     39  C   UNL A   1      38.038  31.007  29.353  1.00  0.00     0.074 A 
ATOM     40  C   UNL A   1      39.361  32.890  30.248  1.00  0.00     0.049 A 
ATOM     41  N   UNL A   1      38.045  29.886  29.998  1.00  0.00    -0.248 NA
ATOM     42  C   UNL A   1      37.738  30.865  27.919  1.00  0.00     0.031 C 
ATOM     43  C   UNL A   1      39.689  34.303  30.481  1.00  0.00     0.029 A 
ATOM     44  N   UNL A   1      40.587  32.286  30.305  1.00  0.00    -0.354 N 
ATOM     45  C   UNL A   1      38.049  28.900  29.012  1.00  0.00     0.074 A 
ATOM     46  C   UNL A   1      37.618  29.539  27.800  1.00  0.00     0.031 C 
ATOM     47  C   UNL A   1      41.023  34.481  30.376  1.00  0.00     0.029 A 
ATOM     48  C   UNL A   1      41.653  33.180  30.282  1.00  0.00     0.049 A 
ATOM     49  H   UNL A   1      40.703  31.310  30.358  1.00  0.00     0.167 HD
ATOM     50  C   UNL A   1      38.741  27.740  29.200  1.00  0.00     0.034 A 
ATOM     51  C   UNL A   1      42.972  32.891  30.191  1.00  0.00     0.034 A 
ATOM     52  C   UNL A   1      39.152  27.605  30.573  1.00  0.00     0.049 A 
ATOM     53  C   UNL A   1      43.166  31.510  30.671  1.00  0.00     0.074 A 
ATOM     54  C   UNL A   1      38.593  27.265  31.784  1.00  0.00     0.029 A 
ATOM     55  N   UNL A   1      40.351  28.208  30.827  1.00  0.00    -0.354 N 
ATOM     56  N   UNL A   1      42.964  31.150  31.908  1.00  0.00    -0.248 NA
ATOM     57  C   UNL A   1      43.323  30.424  29.714  1.00  0.00     0.031 C 
ATOM     58  C   UNL A   1      39.457  27.802  32.786  1.00  0.00     0.029 A 
ATOM     59  C   UNL A   1      40.532  28.432  32.162  1.00  0.00     0.049 A 
ATOM     60  H   UNL A   1      41.005  28.451  30.133  1.00  0.00     0.167 HD
ATOM     61  C   UNL A   1      42.518  29.849  31.797  1.00  0.00     0.074 A 
ATOM     62  C   UNL A   1      42.949  29.398  30.482  1.00  0.00     0.031 C 
ATOM     63  C   UNL A   1      41.530  29.377  32.607  1.00  0.00     0.034 A 
BRANCH  50  64
ATOM     64  C   UNL A   1      39.511  26.976  28.130  1.00  0.00     0.023 A 
ATOM     65  C   UNL A   1      39.332  25.571  28.101  1.00  0.00     0.012 A 
ATOM     66  C   UNL A   1      40.602  27.488  27.392  1.00  0.00     0.148 A 
ATOM     67  C   UNL A   1      40.218  24.723  27.424  1.00  0.00     0.002 A 
ATOM     68  C   UNL A   1      41.436  26.647  26.659  1.00  0.00     0.091 A 
ATOM     69  F   UNL A   1      40.939  28.774  27.496  1.00  0.00    -0.205 F 
ATOM     70  C   UNL A   1      41.269  25.262  26.697  1.00  0.00     0.022 A 
BRANCH  68  71
ATOM     71  S   UNL A   1      42.794  27.296  25.674  1.00  0.00     0.127 S 
ATOM     72  O   UNL A   1      43.673  27.833  26.709  1.00  0.00    -0.237 OA
ATOM     73  O   UNL A   1      43.281  26.088  25.007  1.00  0.00    -0.237 OA
ATOM     74  O   UNL A   1      42.191  28.271  24.774  1.00  0.00    -0.744 OA
ENDBRANCH  68  71
ENDBRANCH  50  64
BRANCH  51  75
ATOM     75  C   UNL A   1      44.095  33.677  29.640  1.00  0.00     0.023 A 
ATOM     76  C   UNL A   1      45.244  33.893  30.425  1.00  0.00     0.012 A 
ATOM     77  C   UNL A   1      44.159  33.958  28.258  1.00  0.00     0.148 A 
ATOM     78  C   UNL A   1      46.441  34.323  29.842  1.00  0.00     0.002 A 
ATOM     79  C   UNL A   1      45.352  34.383  27.683  1.00  0.00     0.091 A 
ATOM     80  F   UNL A   1      43.075  33.723  27.505  1.00  0.00    -0.205 F 
ATOM     81  C   UNL A   1      46.500  34.552  28.469  1.00  0.00     0.022 A 
BRANCH  79  82
ATOM     82  S   UNL A   1      45.518  34.673  25.916  1.00  0.00     0.127 S 
ATOM     83  O   UNL A   1      45.857  33.338  25.422  1.00  0.00    -0.237 OA
ATOM     84  O   UNL A   1      44.181  35.137  25.559  1.00  0.00    -0.237 OA
ATOM     85  O   UNL A   1      46.588  35.653  25.771  1.00  0.00    -0.744 OA
ENDBRANCH  79  82
ENDBRANCH  51  75
BRANCH  63  86
ATOM     86  C   UNL A   1      41.359  30.008  33.952  1.00  0.00     0.023 A 
ATOM     87  C   UNL A   1      42.211  29.749  35.043  1.00  0.00     0.012 A 
ATOM     88  C   UNL A   1      40.344  30.969  34.087  1.00  0.00     0.148 A 
ATOM     89  C   UNL A   1      42.038  30.430  36.253  1.00  0.00     0.002 A 
ATOM     90  C   UNL A   1      40.205  31.675  35.272  1.00  0.00     0.091 A 
ATOM     91  F   UNL A   1      39.534  31.184  33.039  1.00  0.00    -0.205 F 
ATOM     92  C   UNL A   1      41.044  31.403  36.362  1.00  0.00     0.022 A 
BRANCH  90  93
ATOM     93  S   UNL A   1      39.018  33.010  35.422  1.00  0.00     0.127 S 
ATOM     94  O   UNL A   1      39.310  33.815  34.239  1.00  0.00    -0.237 OA
ATOM     95  O   UNL A   1      37.739  32.300  35.381  1.00  0.00    -0.237 OA
ATOM     96  O   UNL A   1      39.299  33.649  36.704  1.00  0.00    -0.744 OA
ENDBRANCH  90  93
ENDBRANCH  63  86
ENDBRANCH  37  38
ENDBRANCH  29  32
ENDBRANCH  27  28
ENDBRANCH   1  27
TORSDOF 16
ENDMDL
MODEL 2
REMARK VINA RESULT:     -11.8      3.334      7.509
REMARK SMILES O=C(Cn1cc(NC(=O)N2CC[N@@H+]3CCC[C@@H]3C2)cn1)NCCCNC(=O)c1ccc(-c2c3nc(c(-c4cccc(S(=O)(=O)[O-])c4F)c4ccc([nH]4)c(-c4cccc(S(=O)(=O)[O-])c4F)c4nc(c(-c5cccc(S(=O)(=O)[O-])c5F)c5ccc2[nH]5)C=C4)C=C3)cc1
REMARK SMILES IDX 23 1 22 2 21 3 1 4 2 5 3 7 4 8 5 9 20 10 6 11 19 12 7 13
REMARK SMILES IDX 8 14 9 16 10 17 11 18 18 19 12 20 17 21 13 22 16 23 14 24
REMARK SMILES IDX 15 26 24 27 25 28 26 29 27 31 28 32 29 33 90 34 30 35 89 36
REMARK SMILES IDX 31 37 32 38 33 39 83 40 34 41 88 42 82 43 84 44 35 45 87 46
REMARK SMILES IDX 81 47 80 48 36 50 68 51 48 52 67 53 49 54 52 55 66 56 85 57
REMARK SMILES IDX 50 58 51 59 65 61 86 62 53 63 37 64 38 65 46 66 39 67 41 68
REMARK SMILES IDX 47 69 40 70 42 71 43 72 44 73 45 74 69 75 70 76 78 77 71 78
REMARK SMILES IDX 73 79 79 80 72 81 74 82 75 83 76 84 77 85 54 86 55 87 63 88
REMARK SMILES IDX 56 89 58 90 64 91 57 92 59 93 60 94 61 95 62 96
REMARK H PARENT 21 6 7 15 13 25 25 30 84 49 52 60
REMARK Flexibility Score: inf
ROOT
ATOM      1  C   UNL A   1      33.983  28.559  27.087  1.00  0.00     0.042 C 
ENDROOT
BRANCH   1   2
ATOM      2  C   UNL A   1      32.502  28.840  27.345  1.00  0.00     0.117 C 
BRANCH   2   3
ATOM      3  N   UNL A   1      31.694  28.923  26.139  1.00  0.00    -0.354 N 
ATOM      4  O   UNL A   1      31.561  31.213  26.117  1.00  0.00    -0.273 OA
ATOM      5  C   UNL A   1      31.361  30.136  25.554  1.00  0.00     0.241 C 
ATOM      6  H   UNL A   1      31.373  28.091  25.724  1.00  0.00     0.163 HD
BRANCH   5   7
ATOM      7  C   UNL A   1      30.675  30.049  24.199  1.00  0.00     0.244 C 
BRANCH   7   8
ATOM      8  N   UNL A   1      30.673  28.700  23.650  1.00  0.00    -0.261 N 
ATOM      9  C   UNL A   1      31.420  28.245  22.590  1.00  0.00     0.135 A 
ATOM     10  N   UNL A   1      29.867  27.750  24.170  1.00  0.00    -0.179 NA
ATOM     11  C   UNL A   1      30.994  26.961  22.345  1.00  0.00     0.081 A 
ATOM     12  C   UNL A   1      30.070  26.697  23.379  1.00  0.00     0.161 A 
BRANCH  11  13
ATOM     13  N   UNL A   1      31.447  26.140  21.325  1.00  0.00    -0.305 N 
ATOM     14  C   UNL A   1      32.565  25.349  21.400  1.00  0.00     0.322 C 
ATOM     15  H   UNL A   1      30.929  26.123  20.487  1.00  0.00     0.171 HD
ATOM     16  O   UNL A   1      33.321  25.245  20.435  1.00  0.00    -0.248 OA
BRANCH  14  17
ATOM     17  N   UNL A   1      32.787  24.685  22.592  1.00  0.00    -0.313 N 
ATOM     18  C   UNL A   1      32.061  23.450  22.921  1.00  0.00     0.183 C 
ATOM     19  C   UNL A   1      33.973  24.987  23.379  1.00  0.00     0.186 C 
ATOM     20  C   UNL A   1      32.546  22.767  24.213  1.00  0.00     0.284 C 
ATOM     21  C   UNL A   1      34.778  23.741  23.783  1.00  0.00     0.204 C 
ATOM     22  N   UNL A   1      34.000  22.584  24.282  1.00  0.00    -0.330 N 
ATOM     23  C   UNL A   1      35.791  24.058  24.885  1.00  0.00     0.073 C 
ATOM     24  C   UNL A   1      34.457  22.254  25.633  1.00  0.00     0.262 C 
ATOM     25  H   UNL A   1      34.179  21.796  23.658  1.00  0.00     0.348 HD
ATOM     26  C   UNL A   1      35.883  22.769  25.678  1.00  0.00     0.068 C 
ENDBRANCH  14  17
ENDBRANCH  11  13
ENDBRANCH   7   8
ENDBRANCH   5   7
ENDBRANCH   2   3
ENDBRANCH   1   2
BRANCH   1  27
ATOM     27  C   UNL A   1      34.769  29.789  26.656  1.00  0.00     0.118 C 
BRANCH  27  28
ATOM     28  N   UNL A   1      34.373  31.012  27.360  1.00  0.00    -0.352 N 
ATOM     29  C   UNL A   1      34.875  31.503  28.555  1.00  0.00     0.251 C 
ATOM     30  H   UNL A   1      33.667  31.548  26.932  1.00  0.00     0.163 HD
ATOM     31  O   UNL A   1      34.256  32.327  29.203  1.00  0.00    -0.269 OA
BRANCH  29  32
ATOM     32  C   UNL A   1      36.177  30.994  29.031  1.00  0.00     0.039 A 
ATOM     33  C   UNL A   1      36.298  29.693  29.525  1.00  0.00     0.014 A 
ATOM     34  C   UNL A   1      37.293  31.817  28.910  1.00  0.00     0.014 A 
ATOM     35  C   UNL A   1      37.571  29.191  29.790  1.00  0.00     0.010 A 
ATOM     36  C   UNL A   1      38.553  31.279  29.044  1.00  0.00     0.010 A 
ATOM     37  C   UNL A   1      38.704  29.975  29.509  1.00  0.00    -0.014 A 
BRANCH  37  38
ATOM     38  C   UNL A   1      40.039  29.371  29.540  1.00  0.00     0.031 A 
ATOM     39  C   UNL A   1      40.592  29.186  30.911  1.00  0.00     0.074 A 
ATOM     40  C   UNL A   1      40.647  28.808  28.472  1.00  0.00     0.049 A 
ATOM     41  N   UNL A   1      41.574  29.824  31.459  1.00  0.00    -0.248 NA
ATOM     42  C   UNL A   1      39.882  28.285  31.834  1.00  0.00     0.031 C 
ATOM     43  C   UNL A   1      40.069  28.599  27.137  1.00  0.00     0.029 A 
ATOM     44  N   UNL A   1      41.852  28.167  28.379  1.00  0.00    -0.354 N 
ATOM     45  C   UNL A   1      41.783  29.189  32.683  1.00  0.00     0.074 A 
ATOM     46  C   UNL A   1      40.588  28.440  32.958  1.00  0.00     0.031 C 
ATOM     47  C   UNL A   1      40.784  27.664  26.476  1.00  0.00     0.029 A 
ATOM     48  C   UNL A   1      41.975  27.369  27.246  1.00  0.00     0.049 A 
ATOM     49  H   UNL A   1      42.565  28.262  29.051  1.00  0.00     0.167 HD
ATOM     50  C   UNL A   1      43.044  29.054  33.183  1.00  0.00     0.034 A 
ATOM     51  C   UNL A   1      42.980  26.515  26.941  1.00  0.00     0.034 A 
ATOM     52  C   UNL A   1      43.975  29.875  32.455  1.00  0.00     0.049 A 
ATOM     53  C   UNL A   1      44.179  26.943  27.687  1.00  0.00     0.074 A 
ATOM     54  C   UNL A   1      44.334  31.202  32.378  1.00  0.00     0.029 A 
ATOM     55  N   UNL A   1      44.486  29.246  31.355  1.00  0.00    -0.354 N 
ATOM     56  N   UNL A   1      44.794  28.070  27.460  1.00  0.00    -0.248 NA
ATOM     57  C   UNL A   1      44.562  26.248  28.908  1.00  0.00     0.031 C 
ATOM     58  C   UNL A   1      44.982  31.366  31.117  1.00  0.00     0.029 A 
ATOM     59  C   UNL A   1      45.025  30.134  30.469  1.00  0.00     0.049 A 
ATOM     60  H   UNL A   1      44.467  28.271  31.218  1.00  0.00     0.167 HD
ATOM     61  C   UNL A   1      45.275  28.431  28.701  1.00  0.00     0.074 A 
ATOM     62  C   UNL A   1      45.286  27.207  29.488  1.00  0.00     0.031 C 
ATOM     63  C   UNL A   1      45.269  29.733  29.102  1.00  0.00     0.034 A 
BRANCH  50  64
ATOM     64  C   UNL A   1      43.577  27.849  33.947  1.00  0.00     0.023 A 
ATOM     65  C   UNL A   1      43.934  26.715  33.176  1.00  0.00     0.012 A 
ATOM     66  C   UNL A   1      43.451  27.649  35.341  1.00  0.00     0.148 A 
ATOM     67  C   UNL A   1      44.098  25.448  33.751  1.00  0.00     0.002 A 
ATOM     68  C   UNL A   1      43.690  26.404  35.917  1.00  0.00     0.091 A 
ATOM     69  F   UNL A   1      42.962  28.617  36.116  1.00  0.00    -0.205 F 
ATOM     70  C   UNL A   1      43.982  25.293  35.125  1.00  0.00     0.022 A 
BRANCH  68  71
ATOM     71  S   UNL A   1      43.583  26.154  37.695  1.00  0.00     0.127 S 
ATOM     72  O   UNL A   1      44.352  27.290  38.194  1.00  0.00    -0.237 OA
ATOM     73  O   UNL A   1      42.139  26.231  37.919  1.00  0.00    -0.237 OA
ATOM     74  O   UNL A   1      44.154  24.835  37.937  1.00  0.00    -0.744 OA
ENDBRANCH  68  71
ENDBRANCH  50  64
BRANCH  51  75
ATOM     75  C   UNL A   1      42.986  25.288  26.119  1.00  0.00     0.023 A 
ATOM     76  C   UNL A   1      43.992  25.105  25.150  1.00  0.00     0.012 A 
ATOM     77  C   UNL A   1      42.190  24.180  26.482  1.00  0.00     0.148 A 
ATOM     78  C   UNL A   1      44.238  23.842  24.601  1.00  0.00     0.002 A 
ATOM     79  C   UNL A   1      42.440  22.927  25.934  1.00  0.00     0.091 A 
ATOM     80  F   UNL A   1      41.253  24.347  27.426  1.00  0.00    -0.205 F 
ATOM     81  C   UNL A   1      43.473  22.750  25.004  1.00  0.00     0.022 A 
BRANCH  79  82
ATOM     82  S   UNL A   1      41.517  21.462  26.422  1.00  0.00     0.127 S 
ATOM     83  O   UNL A   1      40.162  21.800  25.985  1.00  0.00    -0.237 OA
ATOM     84  O   UNL A   1      42.171  20.418  25.638  1.00  0.00    -0.237 OA
ATOM     85  O   UNL A   1      41.669  21.357  27.868  1.00  0.00    -0.744 OA
ENDBRANCH  79  82
ENDBRANCH  51  75
BRANCH  63  86
ATOM     86  C   UNL A   1      45.326  30.795  28.051  1.00  0.00     0.023 A 
ATOM     87  C   UNL A   1      44.188  31.289  27.386  1.00  0.00     0.012 A 
ATOM     88  C   UNL A   1      46.579  31.376  27.792  1.00  0.00     0.148 A 
ATOM     89  C   UNL A   1      44.305  32.336  26.465  1.00  0.00     0.002 A 
ATOM     90  C   UNL A   1      46.684  32.443  26.914  1.00  0.00     0.091 A 
ATOM     91  F   UNL A   1      47.651  30.875  28.425  1.00  0.00    -0.205 F 
ATOM     92  C   UNL A   1      45.551  32.922  26.240  1.00  0.00     0.022 A 
BRANCH  90  93
ATOM     93  S   UNL A   1      48.241  33.300  26.678  1.00  0.00     0.127 S 
ATOM     94  O   UNL A   1      49.144  32.205  26.332  1.00  0.00    -0.237 OA
ATOM     95  O   UNL A   1      47.933  34.213  25.576  1.00  0.00    -0.237 OA
ATOM     96  O   UNL A   1      48.520  33.972  27.942  1.00  0.00    -0.744 OA
ENDBRANCH  90  93
ENDBRANCH  63  86
ENDBRANCH  37  38
ENDBRANCH  29  32
ENDBRANCH  27  28
ENDBRANCH   1  27
TORSDOF 16
ENDMDL
MODEL 3
REMARK VINA RESULT:     -11.7      4.391      7.787
REMARK SMILES O=C(Cn1cc(NC(=O)N2CC[N@@H+]3CCC[C@@H]3C2)cn1)NCCCNC(=O)c1ccc(-c2c3nc(c(-c4cccc(S(=O)(=O)[O-])c4F)c4ccc([nH]4)c(-c4cccc(S(=O)(=O)[O-])c4F)c4nc(c(-c5cccc(S(=O)(=O)[O-])c5F)c5ccc2[nH]5)C=C4)C=C3)cc1
REMARK SMILES IDX 23 1 22 2 21 3 1 4 2 5 3 7 4 8 5 9 20 10 6 11 19 12 7 13
REMARK SMILES IDX 8 14 9 16 10 17 11 18 18 19 12 20 17 21 13 22 16 23 14 24
REMARK SMILES IDX 15 26 24 27 25 28 26 29 27 31 28 32 29 33 90 34 30 35 89 36
REMARK SMILES IDX 31 37 32 38 33 39 83 40 34 41 88 42 82 43 84 44 35 45 87 46
REMARK SMILES IDX 81 47 80 48 36 50 68 51 48 52 67 53 49 54 52 55 66 56 85 57
REMARK SMILES IDX 50 58 51 59 65 61 86 62 53 63 37 64 38 65 46 66 39 67 41 68
REMARK SMILES IDX 47 69 40 70 42 71 43 72 44 73 45 74 69 75 70 76 78 77 71 78
REMARK SMILES IDX 73 79 79 80 72 81 74 82 75 83 76 84 77 85 54 86 55 87 63 88
REMARK SMILES IDX 56 89 58 90 64 91 57 92 59 93 60 94 61 95 62 96
REMARK H PARENT 21 6 7 15 13 25 25 30 84 49 52 60
REMARK Flexibility Score: inf
ROOT
ATOM      1  C   UNL A   1      35.983  32.847  28.286  1.00  0.00     0.042 C 
ENDROOT
BRANCH   1   2
ATOM      2  C   UNL A   1      34.991  33.985  28.039  1.00  0.00     0.117 C 
BRANCH   2   3
ATOM      3  N   UNL A   1      34.754  34.829  29.198  1.00  0.00    -0.354 N 
ATOM      4  O   UNL A   1      32.522  35.157  28.785  1.00  0.00    -0.273 OA
ATOM      5  C   UNL A   1      33.487  35.279  29.539  1.00  0.00     0.241 C 
ATOM      6  H   UNL A   1      35.519  35.090  29.761  1.00  0.00     0.163 HD
BRANCH   5   7
ATOM      7  C   UNL A   1      33.378  35.992  30.879  1.00  0.00     0.244 C 
BRANCH   7   8
ATOM      8  N   UNL A   1      33.868  35.189  31.990  1.00  0.00    -0.261 N 
ATOM      9  C   UNL A   1      34.554  35.643  33.090  1.00  0.00     0.135 A 
ATOM     10  N   UNL A   1      33.685  33.852  32.001  1.00  0.00    -0.179 NA
ATOM     11  C   UNL A   1      34.928  34.525  33.798  1.00  0.00     0.081 A 
ATOM     12  C   UNL A   1      34.324  33.455  33.101  1.00  0.00     0.161 A 
BRANCH  11  13
ATOM     13  N   UNL A   1      35.685  34.518  34.957  1.00  0.00    -0.305 N 
ATOM     14  C   UNL A   1      36.628  33.571  35.266  1.00  0.00     0.322 C 
ATOM     15  H   UNL A   1      35.536  35.244  35.606  1.00  0.00     0.171 HD
ATOM     16  O   UNL A   1      36.729  33.143  36.415  1.00  0.00    -0.248 OA
BRANCH  14  17
ATOM     17  N   UNL A   1      37.446  33.139  34.239  1.00  0.00    -0.313 N 
ATOM     18  C   UNL A   1      37.430  31.739  33.790  1.00  0.00     0.183 C 
ATOM     19  C   UNL A   1      38.075  34.111  33.356  1.00  0.00     0.186 C 
ATOM     20  C   UNL A   1      38.288  31.475  32.540  1.00  0.00     0.284 C 
ATOM     21  C   UNL A   1      37.862  33.815  31.862  1.00  0.00     0.204 C 
ATOM     22  N   UNL A   1      38.038  32.408  31.436  1.00  0.00    -0.330 N 
ATOM     23  C   UNL A   1      38.814  34.630  30.986  1.00  0.00     0.073 C 
ATOM     24  C   UNL A   1      39.082  32.352  30.411  1.00  0.00     0.262 C 
ATOM     25  H   UNL A   1      37.153  32.089  31.040  1.00  0.00     0.348 HD
ATOM     26  C   UNL A   1      39.065  33.734  29.789  1.00  0.00     0.068 C 
ENDBRANCH  14  17
ENDBRANCH  11  13
ENDBRANCH   7   8
ENDBRANCH   5   7
ENDBRANCH   2   3
ENDBRANCH   1   2
BRANCH   1  27
ATOM     27  C   UNL A   1      35.487  31.815  29.290  1.00  0.00     0.118 C 
BRANCH  27  28
ATOM     28  N   UNL A   1      34.976  30.592  28.666  1.00  0.00    -0.352 N 
ATOM     29  C   UNL A   1      35.707  29.557  28.103  1.00  0.00     0.251 C 
ATOM     30  H   UNL A   1      33.997  30.493  28.645  1.00  0.00     0.163 HD
ATOM     31  O   UNL A   1      35.189  28.770  27.333  1.00  0.00    -0.269 OA
BRANCH  29  32
ATOM     32  C   UNL A   1      37.138  29.438  28.453  1.00  0.00     0.039 A 
ATOM     33  C   UNL A   1      37.539  28.730  29.588  1.00  0.00     0.014 A 
ATOM     34  C   UNL A   1      38.078  29.989  27.586  1.00  0.00     0.014 A 
ATOM     35  C   UNL A   1      38.898  28.485  29.780  1.00  0.00     0.010 A 
ATOM     36  C   UNL A   1      39.402  29.635  27.705  1.00  0.00     0.010 A 
ATOM     37  C   UNL A   1      39.828  28.905  28.813  1.00  0.00    -0.014 A 
BRANCH  37  38
ATOM     38  C   UNL A   1      41.215  28.434  28.875  1.00  0.00     0.031 A 
ATOM     39  C   UNL A   1      41.510  27.288  27.969  1.00  0.00     0.074 A 
ATOM     40  C   UNL A   1      42.217  29.092  29.501  1.00  0.00     0.049 A 
ATOM     41  N   UNL A   1      41.759  26.064  28.301  1.00  0.00    -0.248 NA
ATOM     42  C   UNL A   1      41.373  27.494  26.517  1.00  0.00     0.031 C 
ATOM     43  C   UNL A   1      42.143  30.416  30.131  1.00  0.00     0.029 A 
ATOM     44  N   UNL A   1      43.549  28.795  29.584  1.00  0.00    -0.354 N 
ATOM     45  C   UNL A   1      42.100  25.427  27.108  1.00  0.00     0.074 A 
ATOM     46  C   UNL A   1      41.615  26.267  26.048  1.00  0.00     0.031 C 
ATOM     47  C   UNL A   1      43.388  30.918  30.275  1.00  0.00     0.029 A 
ATOM     48  C   UNL A   1      44.342  29.878  29.948  1.00  0.00     0.049 A 
ATOM     49  H   UNL A   1      43.913  27.898  29.403  1.00  0.00     0.167 HD
ATOM     50  C   UNL A   1      43.054  24.453  27.096  1.00  0.00     0.034 A 
ATOM     51  C   UNL A   1      45.694  29.939  29.985  1.00  0.00     0.034 A 
ATOM     52  C   UNL A   1      43.374  24.031  28.434  1.00  0.00     0.049 A 
ATOM     53  C   UNL A   1      46.204  28.562  30.121  1.00  0.00     0.074 A 
ATOM     54  C   UNL A   1      42.829  23.243  29.422  1.00  0.00     0.029 A 
ATOM     55  N   UNL A   1      44.350  24.796  29.009  1.00  0.00    -0.354 N 
ATOM     56  N   UNL A   1      46.004  27.829  31.181  1.00  0.00    -0.248 NA
ATOM     57  C   UNL A   1      46.717  27.858  28.952  1.00  0.00     0.031 C 
ATOM     58  C   UNL A   1      43.439  23.657  30.644  1.00  0.00     0.029 A 
ATOM     59  C   UNL A   1      44.357  24.667  30.368  1.00  0.00     0.049 A 
ATOM     60  H   UNL A   1      44.971  25.370  28.505  1.00  0.00     0.167 HD
ATOM     61  C   UNL A   1      45.926  26.547  30.677  1.00  0.00     0.074 A 
ATOM     62  C   UNL A   1      46.563  26.599  29.369  1.00  0.00     0.031 C 
ATOM     63  C   UNL A   1      45.034  25.650  31.183  1.00  0.00     0.034 A 
BRANCH  50  64
ATOM     64  C   UNL A   1      44.080  24.222  25.994  1.00  0.00     0.023 A 
ATOM     65  C   UNL A   1      44.163  22.909  25.467  1.00  0.00     0.012 A 
ATOM     66  C   UNL A   1      45.147  25.095  25.680  1.00  0.00     0.148 A 
ATOM     67  C   UNL A   1      45.268  22.476  24.723  1.00  0.00     0.002 A 
ATOM     68  C   UNL A   1      46.206  24.682  24.876  1.00  0.00     0.091 A 
ATOM     69  F   UNL A   1      45.230  26.290  26.265  1.00  0.00    -0.205 F 
ATOM     70  C   UNL A   1      46.289  23.365  24.422  1.00  0.00     0.022 A 
BRANCH  68  71
ATOM     71  S   UNL A   1      47.540  25.802  24.430  1.00  0.00     0.127 S 
ATOM     72  O   UNL A   1      48.403  25.710  25.603  1.00  0.00    -0.237 OA
ATOM     73  O   UNL A   1      48.065  25.172  23.218  1.00  0.00    -0.237 OA
ATOM     74  O   UNL A   1      46.903  27.093  24.200  1.00  0.00    -0.744 OA
ENDBRANCH  68  71
ENDBRANCH  50  64
BRANCH  51  75
ATOM     75  C   UNL A   1      46.612  31.085  29.825  1.00  0.00     0.023 A 
ATOM     76  C   UNL A   1      47.274  31.608  30.953  1.00  0.00     0.012 A 
ATOM     77  C   UNL A   1      47.058  31.469  28.543  1.00  0.00     0.148 A 
ATOM     78  C   UNL A   1      48.385  32.445  30.809  1.00  0.00     0.002 A 
ATOM     79  C   UNL A   1      48.165  32.300  28.404  1.00  0.00     0.091 A 
ATOM     80  F   UNL A   1      46.449  30.948  27.469  1.00  0.00    -0.205 F 
ATOM     81  C   UNL A   1      48.841  32.778  29.535  1.00  0.00     0.022 A 
BRANCH  79  82
ATOM     82  S   UNL A   1      48.833  32.753  26.797  1.00  0.00     0.127 S 
ATOM     83  O   UNL A   1      49.540  31.532  26.409  1.00  0.00    -0.237 OA
ATOM     84  O   UNL A   1      47.619  33.028  26.032  1.00  0.00    -0.237 OA
ATOM     85  O   UNL A   1      49.704  33.898  27.035  1.00  0.00    -0.744 OA
ENDBRANCH  79  82
ENDBRANCH  51  75
BRANCH  63  86
ATOM     86  C   UNL A   1      44.597  25.816  32.604  1.00  0.00     0.023 A 
ATOM     87  C   UNL A   1      45.287  25.259  33.697  1.00  0.00     0.012 A 
ATOM     88  C   UNL A   1      43.488  26.645  32.842  1.00  0.00     0.148 A 
ATOM     89  C   UNL A   1      44.864  25.516  35.005  1.00  0.00     0.002 A 
ATOM     90  C   UNL A   1      43.100  26.934  34.141  1.00  0.00     0.091 A 
ATOM     91  F   UNL A   1      42.836  27.149  31.782  1.00  0.00    -0.205 F 
ATOM     92  C   UNL A   1      43.779  26.364  35.228  1.00  0.00     0.022 A 
BRANCH  90  93
ATOM     93  S   UNL A   1      41.785  28.106  34.478  1.00  0.00     0.127 S 
ATOM     94  O   UNL A   1      41.784  28.154  35.938  1.00  0.00    -0.237 OA
ATOM     95  O   UNL A   1      42.273  29.321  33.825  1.00  0.00    -0.237 OA
ATOM     96  O   UNL A   1      40.586  27.545  33.864  1.00  0.00    -0.744 OA
ENDBRANCH  90  93
ENDBRANCH  63  86
ENDBRANCH  37  38
ENDBRANCH  29  32
ENDBRANCH  27  28
ENDBRANCH   1  27
TORSDOF 16
ENDMDL
