MODEL 1
REMARK VINA RESULT:     -11.5      0.000      0.000
REMARK SMILES CCc1cc(OC(F)(F)F)cc2c1O[C@@H](C(F)(F)F)C(C(=O)NCCCNC(=O)c1ccc(-c3c4nc(c(-c5cccc(S(=O)(=O)[O-])c5F)c5ccc([nH]5)c(-c5cccc(S(=O)(=O)[O-])c5F)c5nc(c(-c6cccc(S(=O)(=O)[O-])c6F)c6ccc3[nH]6)C=C5)C=C4)cc1)=C2
REMARK SMILES IDX 25 1 24 2 23 3 21 4 22 5 20 7 3 8 4 9 13 10 5 11 12 12 14 13
REMARK SMILES IDX 11 14 93 15 15 16 2 17 1 18 6 19 7 20 8 21 9 22 10 23 16 24
REMARK SMILES IDX 17 25 18 26 19 27 26 28 27 29 28 30 29 32 30 33 31 34 92 35
REMARK SMILES IDX 32 36 91 37 33 38 34 39 35 40 85 41 36 42 90 43 84 44 86 45
REMARK SMILES IDX 37 46 89 47 83 48 82 49 38 51 70 52 50 53 69 54 51 55 54 56
REMARK SMILES IDX 68 57 87 58 52 59 53 60 67 62 88 63 55 64 39 65 40 66 48 67
REMARK SMILES IDX 41 68 43 69 49 70 42 71 44 72 45 73 46 74 47 75 71 76 72 77
REMARK SMILES IDX 80 78 73 79 75 80 81 81 74 82 76 83 77 84 78 85 79 86 56 87
REMARK SMILES IDX 57 88 65 89 58 90 60 91 66 92 59 93 61 94 62 95 63 96 64 97
REMARK H PARENT 23 6 27 31 86 50 54 61
REMARK Flexibility Score: inf
ROOT
ATOM      1  C   UNL A   1      32.899  28.264  27.232  1.00  0.00     0.042 C 
ENDROOT
BRANCH   1   2
ATOM      2  C   UNL A   1      31.667  28.031  26.352  1.00  0.00     0.118 C 
BRANCH   2   3
ATOM      3  N   UNL A   1      31.972  28.308  24.958  1.00  0.00    -0.352 N 
ATOM      4  C   UNL A   1      32.564  27.576  23.979  1.00  0.00     0.251 C 
ATOM      5  O   UNL A   1      32.801  28.132  22.909  1.00  0.00    -0.270 OA
ATOM      6  H   UNL A   1      31.694  29.206  24.665  1.00  0.00     0.163 HD
BRANCH   4   7
ATOM      7  C   UNL A   1      32.855  26.127  24.121  1.00  0.00     0.067 C 
ATOM      8  C   UNL A   1      33.285  21.980  24.649  1.00  0.00    -0.002 A 
ATOM      9  C   UNL A   1      34.512  21.479  25.126  1.00  0.00     0.054 A 
ATOM     10  C   UNL A   1      33.140  23.364  24.484  1.00  0.00     0.131 A 
ATOM     11  C   UNL A   1      35.574  22.339  25.417  1.00  0.00     0.130 A 
ATOM     12  C   UNL A   1      34.208  24.226  24.730  1.00  0.00     0.021 A 
ATOM     13  O   UNL A   1      31.898  23.841  24.175  1.00  0.00    -0.475 OA
ATOM     14  C   UNL A   1      35.421  23.709  25.194  1.00  0.00     0.058 A 
ATOM     15  C   UNL A   1      34.024  25.663  24.585  1.00  0.00     0.025 C 
ATOM     16  C   UNL A   1      31.824  25.158  23.555  1.00  0.00     0.314 C 
BRANCH   8  17
ATOM     17  C   UNL A   1      32.152  21.019  24.358  1.00  0.00     0.036 C 
ATOM     18  C   UNL A   1      32.602  19.725  23.689  1.00  0.00     0.009 C 
ENDBRANCH   8  17
BRANCH  11  19
ATOM     19  O   UNL A   1      36.791  21.989  25.928  1.00  0.00    -0.406 OA
BRANCH  19  20
ATOM     20  C   UNL A   1      37.728  21.380  25.058  1.00  0.00     0.573 C 
ATOM     21  F   UNL A   1      37.712  20.034  25.188  1.00  0.00    -0.132 F 
ATOM     22  F   UNL A   1      37.479  21.707  23.772  1.00  0.00    -0.132 F 
ATOM     23  F   UNL A   1      38.968  21.813  25.374  1.00  0.00    -0.132 F 
ENDBRANCH  19  20
ENDBRANCH  11  19
BRANCH  16  24
ATOM     24  C   UNL A   1      30.339  25.583  23.607  1.00  0.00     0.429 C 
ATOM     25  F   UNL A   1      29.926  25.920  24.849  1.00  0.00    -0.167 F 
ATOM     26  F   UNL A   1      30.132  26.698  22.850  1.00  0.00    -0.167 F 
ATOM     27  F   UNL A   1      29.509  24.631  23.122  1.00  0.00    -0.167 F 
ENDBRANCH  16  24
ENDBRANCH   4   7
ENDBRANCH   2   3
ENDBRANCH   1   2
BRANCH   1  28
ATOM     28  C   UNL A   1      34.005  29.047  26.528  1.00  0.00     0.118 C 
BRANCH  28  29
ATOM     29  N   UNL A   1      33.972  30.459  26.880  1.00  0.00    -0.352 N 
ATOM     30  C   UNL A   1      34.769  31.165  27.745  1.00  0.00     0.251 C 
ATOM     31  H   UNL A   1      33.272  30.986  26.431  1.00  0.00     0.163 HD
ATOM     32  O   UNL A   1      34.424  32.292  28.093  1.00  0.00    -0.269 OA
BRANCH  30  33
ATOM     33  C   UNL A   1      36.031  30.586  28.255  1.00  0.00     0.039 A 
ATOM     34  C   UNL A   1      35.995  29.816  29.422  1.00  0.00     0.014 A 
ATOM     35  C   UNL A   1      37.252  30.844  27.626  1.00  0.00     0.014 A 
ATOM     36  C   UNL A   1      37.178  29.275  29.935  1.00  0.00     0.010 A 
ATOM     37  C   UNL A   1      38.419  30.248  28.100  1.00  0.00     0.010 A 
ATOM     38  C   UNL A   1      38.396  29.471  29.266  1.00  0.00    -0.014 A 
BRANCH  38  39
ATOM     39  C   UNL A   1      39.658  28.872  29.774  1.00  0.00     0.031 A 
ATOM     40  C   UNL A   1      40.406  29.523  30.906  1.00  0.00     0.074 A 
ATOM     41  C   UNL A   1      40.175  27.792  29.155  1.00  0.00     0.049 A 
ATOM     42  N   UNL A   1      41.551  29.186  31.439  1.00  0.00    -0.248 NA
ATOM     43  C   UNL A   1      39.803  30.729  31.499  1.00  0.00     0.031 C 
ATOM     44  C   UNL A   1      39.585  27.119  27.995  1.00  0.00     0.029 A 
ATOM     45  N   UNL A   1      41.329  27.090  29.394  1.00  0.00    -0.354 N 
ATOM     46  C   UNL A   1      41.827  30.154  32.396  1.00  0.00     0.074 A 
ATOM     47  C   UNL A   1      40.742  31.110  32.353  1.00  0.00     0.031 C 
ATOM     48  C   UNL A   1      40.382  26.106  27.623  1.00  0.00     0.029 A 
ATOM     49  C   UNL A   1      41.549  26.071  28.497  1.00  0.00     0.049 A 
ATOM     50  H   UNL A   1      41.941  27.295  30.137  1.00  0.00     0.167 HD
ATOM     51  C   UNL A   1      42.873  30.228  33.252  1.00  0.00     0.034 A 
ATOM     52  C   UNL A   1      42.581  25.210  28.385  1.00  0.00     0.034 A 
ATOM     53  C   UNL A   1      43.923  29.248  33.327  1.00  0.00     0.049 A 
ATOM     54  C   UNL A   1      43.700  25.277  29.387  1.00  0.00     0.074 A 
ATOM     55  C   UNL A   1      44.973  29.177  34.225  1.00  0.00     0.029 A 
ATOM     56  N   UNL A   1      44.057  28.167  32.469  1.00  0.00    -0.354 N 
ATOM     57  N   UNL A   1      43.857  26.104  30.393  1.00  0.00    -0.248 NA
ATOM     58  C   UNL A   1      44.763  24.268  29.267  1.00  0.00     0.031 C 
ATOM     59  C   UNL A   1      45.754  28.064  33.897  1.00  0.00     0.029 A 
ATOM     60  C   UNL A   1      45.178  27.428  32.810  1.00  0.00     0.049 A 
ATOM     61  H   UNL A   1      43.447  27.957  31.726  1.00  0.00     0.167 HD
ATOM     62  C   UNL A   1      45.014  25.696  31.044  1.00  0.00     0.074 A 
ATOM     63  C   UNL A   1      45.507  24.534  30.333  1.00  0.00     0.031 C 
ATOM     64  C   UNL A   1      45.624  26.241  32.126  1.00  0.00     0.034 A 
BRANCH  51  65
ATOM     65  C   UNL A   1      42.910  31.383  34.221  1.00  0.00     0.023 A 
ATOM     66  C   UNL A   1      43.613  32.556  33.878  1.00  0.00     0.012 A 
ATOM     67  C   UNL A   1      42.200  31.335  35.436  1.00  0.00     0.148 A 
ATOM     68  C   UNL A   1      43.639  33.648  34.744  1.00  0.00     0.002 A 
ATOM     69  C   UNL A   1      42.194  32.445  36.275  1.00  0.00     0.091 A 
ATOM     70  F   UNL A   1      41.553  30.205  35.756  1.00  0.00    -0.205 F 
ATOM     71  C   UNL A   1      42.922  33.597  35.935  1.00  0.00     0.022 A 
BRANCH  69  72
ATOM     72  S   UNL A   1      41.237  32.508  37.794  1.00  0.00     0.127 S 
ATOM     73  O   UNL A   1      41.980  31.583  38.649  1.00  0.00    -0.237 OA
ATOM     74  O   UNL A   1      41.354  33.916  38.173  1.00  0.00    -0.237 OA
ATOM     75  O   UNL A   1      39.890  32.086  37.437  1.00  0.00    -0.744 OA
ENDBRANCH  69  72
ENDBRANCH  51  65
BRANCH  52  76
ATOM     76  C   UNL A   1      42.562  24.166  27.321  1.00  0.00     0.023 A 
ATOM     77  C   UNL A   1      43.118  24.453  26.060  1.00  0.00     0.012 A 
ATOM     78  C   UNL A   1      42.036  22.882  27.564  1.00  0.00     0.148 A 
ATOM     79  C   UNL A   1      43.123  23.493  25.049  1.00  0.00     0.002 A 
ATOM     80  C   UNL A   1      42.096  21.910  26.570  1.00  0.00     0.091 A 
ATOM     81  F   UNL A   1      41.502  22.630  28.767  1.00  0.00    -0.205 F 
ATOM     82  C   UNL A   1      42.623  22.219  25.307  1.00  0.00     0.022 A 
BRANCH  80  83
ATOM     83  S   UNL A   1      41.604  20.207  26.859  1.00  0.00     0.127 S 
ATOM     84  O   UNL A   1      41.647  19.651  25.510  1.00  0.00    -0.237 OA
ATOM     85  O   UNL A   1      42.659  19.735  27.756  1.00  0.00    -0.237 OA
ATOM     86  O   UNL A   1      40.285  20.280  27.475  1.00  0.00    -0.744 OA
ENDBRANCH  80  83
ENDBRANCH  52  76
BRANCH  64  87
ATOM     87  C   UNL A   1      46.873  25.574  32.635  1.00  0.00     0.023 A 
ATOM     88  C   UNL A   1      48.133  25.996  32.169  1.00  0.00     0.012 A 
ATOM     89  C   UNL A   1      46.801  24.582  33.635  1.00  0.00     0.148 A 
ATOM     90  C   UNL A   1      49.303  25.421  32.667  1.00  0.00     0.002 A 
ATOM     91  C   UNL A   1      47.972  24.049  34.161  1.00  0.00     0.091 A 
ATOM     92  F   UNL A   1      45.592  24.180  34.051  1.00  0.00    -0.205 F 
ATOM     93  C   UNL A   1      49.222  24.458  33.670  1.00  0.00     0.022 A 
BRANCH  91  94
ATOM     94  S   UNL A   1      47.964  22.875  35.521  1.00  0.00     0.127 S 
ATOM     95  O   UNL A   1      47.303  21.721  34.916  1.00  0.00    -0.237 OA
ATOM     96  O   UNL A   1      49.393  22.692  35.782  1.00  0.00    -0.237 OA
ATOM     97  O   UNL A   1      47.233  23.521  36.603  1.00  0.00    -0.744 OA
ENDBRANCH  91  94
ENDBRANCH  64  87
ENDBRANCH  38  39
ENDBRANCH  30  33
ENDBRANCH  28  29
ENDBRANCH   1  28
TORSDOF 17
ENDMDL
MODEL 2
REMARK VINA RESULT:     -11.5      1.339      1.688
REMARK SMILES CCc1cc(OC(F)(F)F)cc2c1O[C@@H](C(F)(F)F)C(C(=O)NCCCNC(=O)c1ccc(-c3c4nc(c(-c5cccc(S(=O)(=O)[O-])c5F)c5ccc([nH]5)c(-c5cccc(S(=O)(=O)[O-])c5F)c5nc(c(-c6cccc(S(=O)(=O)[O-])c6F)c6ccc3[nH]6)C=C5)C=C4)cc1)=C2
REMARK SMILES IDX 25 1 24 2 23 3 21 4 22 5 20 7 3 8 4 9 13 10 5 11 12 12 14 13
REMARK SMILES IDX 11 14 93 15 15 16 2 17 1 18 6 19 7 20 8 21 9 22 10 23 16 24
REMARK SMILES IDX 17 25 18 26 19 27 26 28 27 29 28 30 29 32 30 33 31 34 92 35
REMARK SMILES IDX 32 36 91 37 33 38 34 39 35 40 85 41 36 42 90 43 84 44 86 45
REMARK SMILES IDX 37 46 89 47 83 48 82 49 38 51 70 52 50 53 69 54 51 55 54 56
REMARK SMILES IDX 68 57 87 58 52 59 53 60 67 62 88 63 55 64 39 65 40 66 48 67
REMARK SMILES IDX 41 68 43 69 49 70 42 71 44 72 45 73 46 74 47 75 71 76 72 77
REMARK SMILES IDX 80 78 73 79 75 80 81 81 74 82 76 83 77 84 78 85 79 86 56 87
REMARK SMILES IDX 57 88 65 89 58 90 60 91 66 92 59 93 61 94 62 95 63 96 64 97
REMARK H PARENT 23 6 27 31 86 50 54 61
REMARK Flexibility Score: inf
ROOT
ATOM      1  C   UNL A   1      32.991  28.381  27.421  1.00  0.00     0.042 C 
ENDROOT
BRANCH   1   2
ATOM      2  C   UNL A   1      31.852  27.879  26.528  1.00  0.00     0.118 C 
BRANCH   2   3
ATOM      3  N   UNL A   1      32.106  28.212  25.136  1.00  0.00    -0.352 N 
ATOM      4  C   UNL A   1      32.661  27.522  24.108  1.00  0.00     0.251 C 
ATOM      5  O   UNL A   1      32.859  28.120  23.053  1.00  0.00    -0.270 OA
ATOM      6  H   UNL A   1      31.816  29.121  24.889  1.00  0.00     0.163 HD
BRANCH   4   7
ATOM      7  C   UNL A   1      32.958  26.069  24.181  1.00  0.00     0.067 C 
ATOM      8  C   UNL A   1      33.398  21.900  24.488  1.00  0.00    -0.002 A 
ATOM      9  C   UNL A   1      34.600  21.380  25.007  1.00  0.00     0.054 A 
ATOM     10  C   UNL A   1      33.250  23.291  24.397  1.00  0.00     0.131 A 
ATOM     11  C   UNL A   1      35.634  22.228  25.412  1.00  0.00     0.130 A 
ATOM     12  C   UNL A   1      34.293  24.144  24.756  1.00  0.00     0.021 A 
ATOM     13  O   UNL A   1      32.023  23.777  24.043  1.00  0.00    -0.475 OA
ATOM     14  C   UNL A   1      35.481  23.608  25.262  1.00  0.00     0.058 A 
ATOM     15  C   UNL A   1      34.102  25.585  24.686  1.00  0.00     0.025 C 
ATOM     16  C   UNL A   1      31.973  25.128  23.498  1.00  0.00     0.314 C 
BRANCH   8  17
ATOM     17  C   UNL A   1      32.294  20.951  24.074  1.00  0.00     0.036 C 
ATOM     18  C   UNL A   1      32.613  19.485  24.344  1.00  0.00     0.009 C 
ENDBRANCH   8  17
BRANCH  11  19
ATOM     19  O   UNL A   1      36.822  21.857  25.973  1.00  0.00    -0.406 OA
BRANCH  19  20
ATOM     20  C   UNL A   1      37.877  21.478  25.107  1.00  0.00     0.573 C 
ATOM     21  F   UNL A   1      37.558  21.712  23.814  1.00  0.00    -0.132 F 
ATOM     22  F   UNL A   1      39.015  22.138  25.412  1.00  0.00    -0.132 F 
ATOM     23  F   UNL A   1      38.105  20.154  25.245  1.00  0.00    -0.132 F 
ENDBRANCH  19  20
ENDBRANCH  11  19
BRANCH  16  24
ATOM     24  C   UNL A   1      30.483  25.539  23.486  1.00  0.00     0.429 C 
ATOM     25  F   UNL A   1      30.233  26.606  22.697  1.00  0.00    -0.167 F 
ATOM     26  F   UNL A   1      29.713  24.534  22.979  1.00  0.00    -0.167 F 
ATOM     27  F   UNL A   1      30.006  25.800  24.725  1.00  0.00    -0.167 F 
ENDBRANCH  16  24
ENDBRANCH   4   7
ENDBRANCH   2   3
ENDBRANCH   1   2
BRANCH   1  28
ATOM     28  C   UNL A   1      33.947  29.332  26.703  1.00  0.00     0.118 C 
BRANCH  28  29
ATOM     29  N   UNL A   1      33.852  30.686  27.230  1.00  0.00    -0.352 N 
ATOM     30  C   UNL A   1      34.607  31.306  28.192  1.00  0.00     0.251 C 
ATOM     31  H   UNL A   1      33.140  31.239  26.836  1.00  0.00     0.163 HD
ATOM     32  O   UNL A   1      34.213  32.366  28.672  1.00  0.00    -0.269 OA
BRANCH  30  33
ATOM     33  C   UNL A   1      35.883  30.714  28.652  1.00  0.00     0.039 A 
ATOM     34  C   UNL A   1      37.066  31.080  28.004  1.00  0.00     0.014 A 
ATOM     35  C   UNL A   1      35.912  29.763  29.675  1.00  0.00     0.014 A 
ATOM     36  C   UNL A   1      38.282  30.520  28.407  1.00  0.00     0.010 A 
ATOM     37  C   UNL A   1      37.132  29.257  30.121  1.00  0.00     0.010 A 
ATOM     38  C   UNL A   1      38.326  29.618  29.482  1.00  0.00    -0.014 A 
BRANCH  38  39
ATOM     39  C   UNL A   1      39.612  29.040  29.952  1.00  0.00     0.031 A 
ATOM     40  C   UNL A   1      40.378  29.698  31.068  1.00  0.00     0.074 A 
ATOM     41  C   UNL A   1      40.133  27.975  29.312  1.00  0.00     0.049 A 
ATOM     42  N   UNL A   1      41.543  29.380  31.568  1.00  0.00    -0.248 NA
ATOM     43  C   UNL A   1      39.768  30.889  31.685  1.00  0.00     0.031 C 
ATOM     44  C   UNL A   1      39.525  27.298  28.164  1.00  0.00     0.029 A 
ATOM     45  N   UNL A   1      41.306  27.293  29.515  1.00  0.00    -0.354 N 
ATOM     46  C   UNL A   1      41.825  30.347  32.525  1.00  0.00     0.074 A 
ATOM     47  C   UNL A   1      40.722  31.283  32.517  1.00  0.00     0.031 C 
ATOM     48  C   UNL A   1      40.331  26.302  27.763  1.00  0.00     0.029 A 
ATOM     49  C   UNL A   1      41.522  26.285  28.606  1.00  0.00     0.049 A 
ATOM     50  H   UNL A   1      41.934  27.506  30.244  1.00  0.00     0.167 HD
ATOM     51  C   UNL A   1      42.892  30.436  33.354  1.00  0.00     0.034 A 
ATOM     52  C   UNL A   1      42.566  25.444  28.461  1.00  0.00     0.034 A 
ATOM     53  C   UNL A   1      43.962  29.475  33.394  1.00  0.00     0.049 A 
ATOM     54  C   UNL A   1      43.710  25.527  29.433  1.00  0.00     0.074 A 
ATOM     55  C   UNL A   1      45.037  29.419  34.263  1.00  0.00     0.029 A 
ATOM     56  N   UNL A   1      44.094  28.403  32.524  1.00  0.00    -0.354 N 
ATOM     57  N   UNL A   1      43.878  26.350  30.440  1.00  0.00    -0.248 NA
ATOM     58  C   UNL A   1      44.788  24.539  29.278  1.00  0.00     0.031 C 
ATOM     59  C   UNL A   1      45.830  28.323  33.906  1.00  0.00     0.029 A 
ATOM     60  C   UNL A   1      45.237  27.683  32.831  1.00  0.00     0.049 A 
ATOM     61  H   UNL A   1      43.469  28.185  31.796  1.00  0.00     0.167 HD
ATOM     62  C   UNL A   1      45.060  25.959  31.058  1.00  0.00     0.074 A 
ATOM     63  C   UNL A   1      45.555  24.812  30.326  1.00  0.00     0.031 C 
ATOM     64  C   UNL A   1      45.687  26.510  32.127  1.00  0.00     0.034 A 
BRANCH  51  65
ATOM     65  C   UNL A   1      42.933  31.585  34.329  1.00  0.00     0.023 A 
ATOM     66  C   UNL A   1      43.561  32.791  33.957  1.00  0.00     0.012 A 
ATOM     67  C   UNL A   1      42.298  31.496  35.583  1.00  0.00     0.148 A 
ATOM     68  C   UNL A   1      43.588  33.877  34.829  1.00  0.00     0.002 A 
ATOM     69  C   UNL A   1      42.290  32.600  36.430  1.00  0.00     0.091 A 
ATOM     70  F   UNL A   1      41.722  30.336  35.929  1.00  0.00    -0.205 F 
ATOM     71  C   UNL A   1      42.945  33.786  36.059  1.00  0.00     0.022 A 
BRANCH  69  72
ATOM     72  S   UNL A   1      41.420  32.609  38.002  1.00  0.00     0.127 S 
ATOM     73  O   UNL A   1      42.176  31.615  38.763  1.00  0.00    -0.237 OA
ATOM     74  O   UNL A   1      41.608  33.989  38.449  1.00  0.00    -0.237 OA
ATOM     75  O   UNL A   1      40.042  32.251  37.700  1.00  0.00    -0.744 OA
ENDBRANCH  69  72
ENDBRANCH  51  65
BRANCH  52  76
ATOM     76  C   UNL A   1      42.538  24.406  27.391  1.00  0.00     0.023 A 
ATOM     77  C   UNL A   1      43.052  24.714  26.116  1.00  0.00     0.012 A 
ATOM     78  C   UNL A   1      42.048  23.110  27.639  1.00  0.00     0.148 A 
ATOM     79  C   UNL A   1      43.049  23.761  25.098  1.00  0.00     0.002 A 
ATOM     80  C   UNL A   1      42.100  22.147  26.637  1.00  0.00     0.091 A 
ATOM     81  F   UNL A   1      41.554  22.839  28.855  1.00  0.00    -0.205 F 
ATOM     82  C   UNL A   1      42.583  22.475  25.361  1.00  0.00     0.022 A 
BRANCH  80  83
ATOM     83  S   UNL A   1      41.652  20.432  26.928  1.00  0.00     0.127 S 
ATOM     84  O   UNL A   1      41.722  19.872  25.582  1.00  0.00    -0.237 OA
ATOM     85  O   UNL A   1      42.712  19.992  27.835  1.00  0.00    -0.237 OA
ATOM     86  O   UNL A   1      40.327  20.470  27.533  1.00  0.00    -0.744 OA
ENDBRANCH  80  83
ENDBRANCH  52  76
BRANCH  64  87
ATOM     87  C   UNL A   1      46.963  25.863  32.599  1.00  0.00     0.023 A 
ATOM     88  C   UNL A   1      46.932  24.958  33.677  1.00  0.00     0.012 A 
ATOM     89  C   UNL A   1      48.178  26.093  31.922  1.00  0.00     0.148 A 
ATOM     90  C   UNL A   1      48.097  24.314  34.095  1.00  0.00     0.002 A 
ATOM     91  C   UNL A   1      49.324  25.412  32.313  1.00  0.00     0.091 A 
ATOM     92  F   UNL A   1      48.190  26.974  30.911  1.00  0.00    -0.205 F 
ATOM     93  C   UNL A   1      49.288  24.531  33.406  1.00  0.00     0.022 A 
BRANCH  91  94
ATOM     94  S   UNL A   1      50.877  25.557  31.423  1.00  0.00     0.127 S 
ATOM     95  O   UNL A   1      50.486  25.158  30.072  1.00  0.00    -0.237 OA
ATOM     96  O   UNL A   1      51.190  26.979  31.572  1.00  0.00    -0.237 OA
ATOM     97  O   UNL A   1      51.809  24.663  32.095  1.00  0.00    -0.744 OA
ENDBRANCH  91  94
ENDBRANCH  64  87
ENDBRANCH  38  39
ENDBRANCH  30  33
ENDBRANCH  28  29
ENDBRANCH   1  28
TORSDOF 17
ENDMDL
MODEL 3
REMARK VINA RESULT:     -11.2      5.091     10.068
REMARK SMILES CCc1cc(OC(F)(F)F)cc2c1O[C@@H](C(F)(F)F)C(C(=O)NCCCNC(=O)c1ccc(-c3c4nc(c(-c5cccc(S(=O)(=O)[O-])c5F)c5ccc([nH]5)c(-c5cccc(S(=O)(=O)[O-])c5F)c5nc(c(-c6cccc(S(=O)(=O)[O-])c6F)c6ccc3[nH]6)C=C5)C=C4)cc1)=C2
REMARK SMILES IDX 25 1 24 2 23 3 21 4 22 5 20 7 3 8 4 9 13 10 5 11 12 12 14 13
REMARK SMILES IDX 11 14 93 15 15 16 2 17 1 18 6 19 7 20 8 21 9 22 10 23 16 24
REMARK SMILES IDX 17 25 18 26 19 27 26 28 27 29 28 30 29 32 30 33 31 34 92 35
REMARK SMILES IDX 32 36 91 37 33 38 34 39 35 40 85 41 36 42 90 43 84 44 86 45
REMARK SMILES IDX 37 46 89 47 83 48 82 49 38 51 70 52 50 53 69 54 51 55 54 56
REMARK SMILES IDX 68 57 87 58 52 59 53 60 67 62 88 63 55 64 39 65 40 66 48 67
REMARK SMILES IDX 41 68 43 69 49 70 42 71 44 72 45 73 46 74 47 75 71 76 72 77
REMARK SMILES IDX 80 78 73 79 75 80 81 81 74 82 76 83 77 84 78 85 79 86 56 87
REMARK SMILES IDX 57 88 65 89 58 90 60 91 66 92 59 93 61 94 62 95 63 96 64 97
REMARK H PARENT 23 6 27 31 86 50 54 61
REMARK Flexibility Score: inf
ROOT
ATOM      1  C   UNL A   1      36.448  22.049  24.149  1.00  0.00     0.042 C 
ENDROOT
BRANCH   1   2
ATOM      2  C   UNL A   1      35.489  23.119  23.620  1.00  0.00     0.118 C 
BRANCH   2   3
ATOM      3  N   UNL A   1      34.224  22.524  23.223  1.00  0.00    -0.352 N 
ATOM      4  C   UNL A   1      32.936  22.945  23.312  1.00  0.00     0.251 C 
ATOM      5  O   UNL A   1      32.049  22.156  22.997  1.00  0.00    -0.270 OA
ATOM      6  H   UNL A   1      34.319  21.637  22.805  1.00  0.00     0.163 HD
BRANCH   4   7
ATOM      7  C   UNL A   1      32.567  24.333  23.691  1.00  0.00     0.067 C 
ATOM      8  C   UNL A   1      31.390  28.104  25.125  1.00  0.00    -0.002 A 
ATOM      9  C   UNL A   1      30.836  29.032  24.221  1.00  0.00     0.054 A 
ATOM     10  C   UNL A   1      31.771  26.843  24.646  1.00  0.00     0.131 A 
ATOM     11  C   UNL A   1      30.681  28.714  22.870  1.00  0.00     0.130 A 
ATOM     12  C   UNL A   1      31.662  26.532  23.291  1.00  0.00     0.021 A 
ATOM     13  O   UNL A   1      32.155  25.905  25.562  1.00  0.00    -0.475 OA
ATOM     14  C   UNL A   1      31.118  27.470  22.409  1.00  0.00     0.058 A 
ATOM     15  C   UNL A   1      32.033  25.205  22.824  1.00  0.00     0.025 C 
ATOM     16  C   UNL A   1      32.976  24.800  25.082  1.00  0.00     0.314 C 
BRANCH   8  17
ATOM     17  C   UNL A   1      31.528  28.478  26.585  1.00  0.00     0.036 C 
ATOM     18  C   UNL A   1      32.878  29.096  26.934  1.00  0.00     0.009 C 
ENDBRANCH   8  17
BRANCH  11  19
ATOM     19  O   UNL A   1      30.119  29.500  21.905  1.00  0.00    -0.406 OA
BRANCH  19  20
ATOM     20  C   UNL A   1      28.767  29.889  22.067  1.00  0.00     0.573 C 
ATOM     21  F   UNL A   1      28.000  28.844  22.452  1.00  0.00    -0.132 F 
ATOM     22  F   UNL A   1      28.654  30.884  22.973  1.00  0.00    -0.132 F 
ATOM     23  F   UNL A   1      28.294  30.337  20.883  1.00  0.00    -0.132 F 
ENDBRANCH  19  20
ENDBRANCH  11  19
BRANCH  16  24
ATOM     24  C   UNL A   1      32.995  23.747  26.213  1.00  0.00     0.429 C 
ATOM     25  F   UNL A   1      34.225  23.554  26.738  1.00  0.00    -0.167 F 
ATOM     26  F   UNL A   1      32.223  24.154  27.261  1.00  0.00    -0.167 F 
ATOM     27  F   UNL A   1      32.504  22.550  25.817  1.00  0.00    -0.167 F 
ENDBRANCH  16  24
ENDBRANCH   4   7
ENDBRANCH   2   3
ENDBRANCH   1   2
BRANCH   1  28
ATOM     28  C   UNL A   1      37.054  22.398  25.507  1.00  0.00     0.118 C 
BRANCH  28  29
ATOM     29  N   UNL A   1      37.989  21.377  25.956  1.00  0.00    -0.352 N 
ATOM     30  C   UNL A   1      39.281  21.505  26.398  1.00  0.00     0.251 C 
ATOM     31  H   UNL A   1      37.642  20.456  25.940  1.00  0.00     0.163 HD
ATOM     32  O   UNL A   1      39.983  20.502  26.494  1.00  0.00    -0.269 OA
BRANCH  30  33
ATOM     33  C   UNL A   1      39.830  22.832  26.758  1.00  0.00     0.039 A 
ATOM     34  C   UNL A   1      39.480  23.939  25.980  1.00  0.00     0.014 A 
ATOM     35  C   UNL A   1      40.727  22.979  27.819  1.00  0.00     0.014 A 
ATOM     36  C   UNL A   1      40.001  25.199  26.288  1.00  0.00     0.010 A 
ATOM     37  C   UNL A   1      41.192  24.246  28.167  1.00  0.00     0.010 A 
ATOM     38  C   UNL A   1      40.846  25.365  27.396  1.00  0.00    -0.014 A 
BRANCH  38  39
ATOM     39  C   UNL A   1      41.380  26.702  27.764  1.00  0.00     0.031 A 
ATOM     40  C   UNL A   1      42.815  27.052  27.479  1.00  0.00     0.074 A 
ATOM     41  C   UNL A   1      40.595  27.568  28.436  1.00  0.00     0.049 A 
ATOM     42  N   UNL A   1      43.476  28.139  27.783  1.00  0.00    -0.248 NA
ATOM     43  C   UNL A   1      43.625  26.035  26.785  1.00  0.00     0.031 C 
ATOM     44  C   UNL A   1      39.211  27.313  28.842  1.00  0.00     0.029 A 
ATOM     45  N   UNL A   1      40.857  28.823  28.923  1.00  0.00    -0.354 N 
ATOM     46  C   UNL A   1      44.781  27.923  27.358  1.00  0.00     0.074 A 
ATOM     47  C   UNL A   1      44.829  26.590  26.800  1.00  0.00     0.031 C 
ATOM     48  C   UNL A   1      38.748  28.376  29.519  1.00  0.00     0.029 A 
ATOM     49  C   UNL A   1      39.807  29.375  29.618  1.00  0.00     0.049 A 
ATOM     50  H   UNL A   1      41.716  29.285  28.787  1.00  0.00     0.167 HD
ATOM     51  C   UNL A   1      45.839  28.768  27.405  1.00  0.00     0.034 A 
ATOM     52  C   UNL A   1      39.709  30.551  30.269  1.00  0.00     0.034 A 
ATOM     53  C   UNL A   1      45.774  30.111  27.914  1.00  0.00     0.049 A 
ATOM     54  C   UNL A   1      40.880  31.495  30.252  1.00  0.00     0.074 A 
ATOM     55  C   UNL A   1      46.762  31.080  27.914  1.00  0.00     0.029 A 
ATOM     56  N   UNL A   1      44.661  30.675  28.517  1.00  0.00    -0.354 N 
ATOM     57  N   UNL A   1      42.058  31.336  29.698  1.00  0.00    -0.248 NA
ATOM     58  C   UNL A   1      40.697  32.796  30.913  1.00  0.00     0.031 C 
ATOM     59  C   UNL A   1      46.251  32.225  28.535  1.00  0.00     0.029 A 
ATOM     60  C   UNL A   1      44.938  31.977  28.900  1.00  0.00     0.049 A 
ATOM     61  H   UNL A   1      43.800  30.218  28.653  1.00  0.00     0.167 HD
ATOM     62  C   UNL A   1      42.743  32.527  29.913  1.00  0.00     0.074 A 
ATOM     63  C   UNL A   1      41.840  33.405  30.628  1.00  0.00     0.031 C 
ATOM     64  C   UNL A   1      44.010  32.858  29.562  1.00  0.00     0.034 A 
BRANCH  51  65
ATOM     65  C   UNL A   1      47.150  28.284  26.840  1.00  0.00     0.023 A 
ATOM     66  C   UNL A   1      48.203  27.947  27.715  1.00  0.00     0.012 A 
ATOM     67  C   UNL A   1      47.322  28.103  25.454  1.00  0.00     0.148 A 
ATOM     68  C   UNL A   1      49.416  27.472  27.220  1.00  0.00     0.002 A 
ATOM     69  C   UNL A   1      48.519  27.586  24.969  1.00  0.00     0.091 A 
ATOM     70  F   UNL A   1      46.318  28.447  24.633  1.00  0.00    -0.205 F 
ATOM     71  C   UNL A   1      49.570  27.282  25.850  1.00  0.00     0.022 A 
BRANCH  69  72
ATOM     72  S   UNL A   1      48.787  27.229  23.229  1.00  0.00     0.127 S 
ATOM     73  O   UNL A   1      50.246  27.267  23.142  1.00  0.00    -0.237 OA
ATOM     74  O   UNL A   1      48.204  25.894  23.096  1.00  0.00    -0.237 OA
ATOM     75  O   UNL A   1      48.089  28.272  22.493  1.00  0.00    -0.744 OA
ENDBRANCH  69  72
ENDBRANCH  51  65
BRANCH  52  76
ATOM     76  C   UNL A   1      38.427  30.928  30.930  1.00  0.00     0.023 A 
ATOM     77  C   UNL A   1      38.251  30.658  32.301  1.00  0.00     0.012 A 
ATOM     78  C   UNL A   1      37.402  31.585  30.222  1.00  0.00     0.148 A 
ATOM     79  C   UNL A   1      37.067  31.008  32.949  1.00  0.00     0.002 A 
ATOM     80  C   UNL A   1      36.247  31.982  30.887  1.00  0.00     0.091 A 
ATOM     81  F   UNL A   1      37.584  31.824  28.916  1.00  0.00    -0.205 F 
ATOM     82  C   UNL A   1      36.070  31.679  32.246  1.00  0.00     0.022 A 
BRANCH  80  83
ATOM     83  S   UNL A   1      34.974  32.972  30.096  1.00  0.00     0.127 S 
ATOM     84  O   UNL A   1      34.434  32.036  29.114  1.00  0.00    -0.237 OA
ATOM     85  O   UNL A   1      34.084  33.273  31.217  1.00  0.00    -0.237 OA
ATOM     86  O   UNL A   1      35.664  34.135  29.552  1.00  0.00    -0.744 OA
ENDBRANCH  80  83
ENDBRANCH  52  76
BRANCH  64  87
ATOM     87  C   UNL A   1      44.494  34.240  29.912  1.00  0.00     0.023 A 
ATOM     88  C   UNL A   1      45.176  34.458  31.125  1.00  0.00     0.012 A 
ATOM     89  C   UNL A   1      44.341  35.306  29.003  1.00  0.00     0.148 A 
ATOM     90  C   UNL A   1      45.672  35.722  31.442  1.00  0.00     0.002 A 
ATOM     91  C   UNL A   1      44.881  36.551  29.303  1.00  0.00     0.091 A 
ATOM     92  F   UNL A   1      43.671  35.084  27.863  1.00  0.00    -0.205 F 
ATOM     93  C   UNL A   1      45.536  36.764  30.527  1.00  0.00     0.022 A 
BRANCH  91  94
ATOM     94  S   UNL A   1      44.836  37.922  28.143  1.00  0.00     0.127 S 
ATOM     95  O   UNL A   1      43.400  38.162  28.021  1.00  0.00    -0.237 OA
ATOM     96  O   UNL A   1      45.570  38.963  28.864  1.00  0.00    -0.237 OA
ATOM     97  O   UNL A   1      45.498  37.446  26.936  1.00  0.00    -0.744 OA
ENDBRANCH  91  94
ENDBRANCH  64  87
ENDBRANCH  38  39
ENDBRANCH  30  33
ENDBRANCH  28  29
ENDBRANCH   1  28
TORSDOF 17
ENDMDL
