MODEL 1
REMARK VINA RESULT:      -9.9      0.000      0.000
REMARK SMILES COc1cc([C@@H]2CC(=O)Nc3c(C(=O)NCCCNC(=O)c4ccc(-c5c6nc(c(-c7cccc(S(=O)(=O)[O-])c7F)c7ccc([nH]7)c(-c7cccc(S(=O)(=O)[O-])c7F)c7nc(c(-c8cccc(S(=O)(=O)[O-])c8F)c8ccc5[nH]8)C=C7)C=C6)cc4)cn(-c4ccc(F)cc4)c32)c(OC)c2c1OCO2
REMARK SMILES IDX 17 1 16 2 15 3 13 4 14 5 12 7 6 8 7 9 94 10 8 11 11 12 86 13
REMARK SMILES IDX 9 14 10 15 85 16 5 18 3 19 4 20 99 21 98 22 100 23 95 24
REMARK SMILES IDX 102 25 101 26 2 27 1 28 96 29 97 30 87 31 88 32 93 33 89 34
REMARK SMILES IDX 92 35 90 36 91 37 18 38 19 39 20 40 21 42 22 43 23 44 84 45
REMARK SMILES IDX 24 46 83 47 25 48 26 49 27 50 77 51 28 52 82 53 76 54 78 55
REMARK SMILES IDX 29 56 81 57 75 58 74 59 30 61 62 62 42 63 61 64 43 65 46 66
REMARK SMILES IDX 60 67 79 68 44 69 45 70 59 72 80 73 47 74 31 75 32 76 40 77
REMARK SMILES IDX 33 78 35 79 41 80 34 81 36 82 37 83 38 84 39 85 63 86 64 87
REMARK SMILES IDX 72 88 65 89 67 90 73 91 66 92 68 93 69 94 70 95 71 96 48 97
REMARK SMILES IDX 49 98 57 99 50 100 52 101 58 102 51 103 53 104 54 105 55 106
REMARK SMILES IDX 56 107
REMARK H PARENT 15 6 10 17 19 41 78 60 46 71
REMARK Flexibility Score: inf
ROOT
ATOM      1  C   UNL A   1      44.612  22.033  25.405  1.00  0.00     0.042 C 
ENDROOT
BRANCH   1   2
ATOM      2  C   UNL A   1      46.000  22.522  24.955  1.00  0.00     0.118 C 
BRANCH   2   3
ATOM      3  N   UNL A   1      45.988  23.906  24.546  1.00  0.00    -0.352 N 
ATOM      4  C   UNL A   1      46.337  25.072  25.170  1.00  0.00     0.254 C 
ATOM      5  O   UNL A   1      46.357  26.067  24.440  1.00  0.00    -0.269 OA
ATOM      6  H   UNL A   1      45.660  24.038  23.626  1.00  0.00     0.163 HD
BRANCH   4   7
ATOM      7  C   UNL A   1      46.703  25.198  26.589  1.00  0.00     0.081 A 
ATOM      8  C   UNL A   1      48.552  25.538  29.816  1.00  0.00     0.082 C 
ATOM      9  C   UNL A   1      49.891  24.941  29.366  1.00  0.00     0.115 C 
ATOM     10  C   UNL A   1      47.550  25.434  28.701  1.00  0.00     0.055 A 
ATOM     11  C   UNL A   1      50.248  25.358  27.963  1.00  0.00     0.225 C 
ATOM     12  C   UNL A   1      47.888  25.343  27.368  1.00  0.00     0.076 A 
ATOM     13  N   UNL A   1      46.190  25.281  28.810  1.00  0.00    -0.317 N 
ATOM     14  O   UNL A   1      51.411  25.536  27.601  1.00  0.00    -0.275 OA
ATOM     15  N   UNL A   1      49.222  25.427  27.061  1.00  0.00    -0.324 N 
ATOM     16  C   UNL A   1      45.694  25.075  27.550  1.00  0.00     0.107 A 
ATOM     17  H   UNL A   1      49.461  25.547  26.114  1.00  0.00     0.170 HD
BRANCH   8  18
ATOM     18  C   UNL A   1      48.755  26.937  30.408  1.00  0.00     0.012 A 
ATOM     19  C   UNL A   1      49.069  28.204  32.483  1.00  0.00     0.165 A 
ATOM     20  C   UNL A   1      48.922  26.994  31.817  1.00  0.00     0.059 A 
ATOM     21  C   UNL A   1      49.160  29.352  31.726  1.00  0.00     0.211 A 
ATOM     22  C   UNL A   1      49.039  29.322  30.351  1.00  0.00     0.211 A 
ATOM     23  O   UNL A   1      49.379  30.609  32.204  1.00  0.00    -0.449 OA
ATOM     24  C   UNL A   1      48.813  28.139  29.658  1.00  0.00     0.168 A 
ATOM     25  O   UNL A   1      49.158  30.575  29.821  1.00  0.00    -0.449 OA
ATOM     26  C   UNL A   1      49.489  31.351  30.980  1.00  0.00     0.468 C 
BRANCH  19  27
ATOM     27  O   UNL A   1      49.144  28.163  33.844  1.00  0.00    -0.493 OA
ATOM     28  C   UNL A   1      48.188  27.256  34.393  1.00  0.00     0.278 C 
ENDBRANCH  19  27
BRANCH  24  29
ATOM     29  O   UNL A   1      48.626  28.039  28.314  1.00  0.00    -0.492 OA
ATOM     30  C   UNL A   1      47.642  28.842  27.679  1.00  0.00     0.278 C 
ENDBRANCH  24  29
ENDBRANCH   8  18
BRANCH  13  31
ATOM     31  C   UNL A   1      45.443  25.232  30.006  1.00  0.00     0.046 A 
ATOM     32  C   UNL A   1      45.317  26.386  30.782  1.00  0.00     0.029 A 
ATOM     33  C   UNL A   1      44.926  24.010  30.447  1.00  0.00     0.029 A 
ATOM     34  C   UNL A   1      44.775  26.303  32.060  1.00  0.00     0.041 A 
ATOM     35  C   UNL A   1      44.384  23.933  31.731  1.00  0.00     0.041 A 
ATOM     36  C   UNL A   1      44.335  25.072  32.533  1.00  0.00     0.123 A 
ATOM     37  F   UNL A   1      43.863  24.984  33.782  1.00  0.00    -0.207 F 
ENDBRANCH  13  31
ENDBRANCH   4   7
ENDBRANCH   2   3
ENDBRANCH   1   2
BRANCH   1  38
ATOM     38  C   UNL A   1      43.501  22.957  24.974  1.00  0.00     0.118 C 
BRANCH  38  39
ATOM     39  N   UNL A   1      42.196  22.418  25.395  1.00  0.00    -0.352 N 
ATOM     40  C   UNL A   1      41.337  22.891  26.371  1.00  0.00     0.251 C 
ATOM     41  H   UNL A   1      41.895  21.611  24.919  1.00  0.00     0.163 HD
ATOM     42  O   UNL A   1      40.475  22.182  26.854  1.00  0.00    -0.269 OA
BRANCH  40  43
ATOM     43  C   UNL A   1      41.506  24.288  26.794  1.00  0.00     0.039 A 
ATOM     44  C   UNL A   1      40.894  25.347  26.125  1.00  0.00     0.014 A 
ATOM     45  C   UNL A   1      42.213  24.487  27.973  1.00  0.00     0.014 A 
ATOM     46  C   UNL A   1      40.943  26.606  26.713  1.00  0.00     0.010 A 
ATOM     47  C   UNL A   1      42.005  25.636  28.670  1.00  0.00     0.010 A 
ATOM     48  C   UNL A   1      41.484  26.730  28.003  1.00  0.00    -0.014 A 
BRANCH  48  49
ATOM     49  C   UNL A   1      41.441  27.975  28.748  1.00  0.00     0.031 A 
ATOM     50  C   UNL A   1      42.448  28.965  28.298  1.00  0.00     0.074 A 
ATOM     51  C   UNL A   1      40.426  28.267  29.592  1.00  0.00     0.049 A 
ATOM     52  N   UNL A   1      43.544  29.287  28.900  1.00  0.00    -0.248 NA
ATOM     53  C   UNL A   1      42.342  29.500  26.931  1.00  0.00     0.031 C 
ATOM     54  C   UNL A   1      39.195  27.498  29.844  1.00  0.00     0.029 A 
ATOM     55  N   UNL A   1      40.206  29.400  30.304  1.00  0.00    -0.354 N 
ATOM     56  C   UNL A   1      44.106  30.291  28.117  1.00  0.00     0.074 A 
ATOM     57  C   UNL A   1      43.490  30.174  26.824  1.00  0.00     0.031 C 
ATOM     58  C   UNL A   1      38.270  28.296  30.420  1.00  0.00     0.029 A 
ATOM     59  C   UNL A   1      38.896  29.559  30.750  1.00  0.00     0.049 A 
ATOM     60  H   UNL A   1      40.914  30.058  30.491  1.00  0.00     0.167 HD
ATOM     61  C   UNL A   1      44.780  31.323  28.697  1.00  0.00     0.034 A 
ATOM     62  C   UNL A   1      38.362  30.671  31.314  1.00  0.00     0.034 A 
ATOM     63  C   UNL A   1      45.072  31.028  30.082  1.00  0.00     0.049 A 
ATOM     64  C   UNL A   1      39.497  31.483  31.808  1.00  0.00     0.074 A 
ATOM     65  C   UNL A   1      45.745  30.024  30.750  1.00  0.00     0.029 A 
ATOM     66  N   UNL A   1      44.261  31.628  31.017  1.00  0.00    -0.354 N 
ATOM     67  N   UNL A   1      40.290  31.095  32.769  1.00  0.00    -0.248 NA
ATOM     68  C   UNL A   1      40.036  32.499  30.920  1.00  0.00     0.031 C 
ATOM     69  C   UNL A   1      44.960  29.769  31.915  1.00  0.00     0.029 A 
ATOM     70  C   UNL A   1      43.905  30.684  31.942  1.00  0.00     0.049 A 
ATOM     71  H   UNL A   1      43.984  32.573  31.021  1.00  0.00     0.167 HD
ATOM     72  C   UNL A   1      41.558  31.446  32.326  1.00  0.00     0.074 A 
ATOM     73  C   UNL A   1      41.329  32.403  31.242  1.00  0.00     0.031 C 
ATOM     74  C   UNL A   1      42.652  30.702  32.666  1.00  0.00     0.034 A 
BRANCH  61  75
ATOM     75  C   UNL A   1      44.805  32.752  28.189  1.00  0.00     0.023 A 
ATOM     76  C   UNL A   1      43.552  33.382  28.009  1.00  0.00     0.012 A 
ATOM     77  C   UNL A   1      45.926  33.399  27.619  1.00  0.00     0.148 A 
ATOM     78  C   UNL A   1      43.410  34.539  27.236  1.00  0.00     0.002 A 
ATOM     79  C   UNL A   1      45.792  34.591  26.914  1.00  0.00     0.091 A 
ATOM     80  F   UNL A   1      47.125  32.816  27.633  1.00  0.00    -0.205 F 
ATOM     81  C   UNL A   1      44.532  35.145  26.689  1.00  0.00     0.022 A 
BRANCH  79  82
ATOM     82  S   UNL A   1      47.214  35.442  26.217  1.00  0.00     0.127 S 
ATOM     83  O   UNL A   1      47.561  34.565  25.103  1.00  0.00    -0.237 OA
ATOM     84  O   UNL A   1      46.632  36.730  25.838  1.00  0.00    -0.237 OA
ATOM     85  O   UNL A   1      48.194  35.524  27.294  1.00  0.00    -0.744 OA
ENDBRANCH  79  82
ENDBRANCH  61  75
BRANCH  62  86
ATOM     86  C   UNL A   1      36.989  31.220  31.232  1.00  0.00     0.023 A 
ATOM     87  C   UNL A   1      36.364  31.717  32.395  1.00  0.00     0.012 A 
ATOM     88  C   UNL A   1      36.411  31.533  29.981  1.00  0.00     0.148 A 
ATOM     89  C   UNL A   1      35.226  32.531  32.313  1.00  0.00     0.002 A 
ATOM     90  C   UNL A   1      35.280  32.342  29.905  1.00  0.00     0.091 A 
ATOM     91  F   UNL A   1      37.027  31.116  28.867  1.00  0.00    -0.205 F 
ATOM     92  C   UNL A   1      34.692  32.852  31.069  1.00  0.00     0.022 A 
BRANCH  90  93
ATOM     93  S   UNL A   1      34.553  32.833  28.336  1.00  0.00     0.127 S 
ATOM     94  O   UNL A   1      35.716  33.346  27.612  1.00  0.00    -0.237 OA
ATOM     95  O   UNL A   1      34.032  31.564  27.836  1.00  0.00    -0.237 OA
ATOM     96  O   UNL A   1      33.553  33.841  28.662  1.00  0.00    -0.744 OA
ENDBRANCH  90  93
ENDBRANCH  62  86
BRANCH  74  97
ATOM     97  C   UNL A   1      42.491  29.652  33.739  1.00  0.00     0.023 A 
ATOM     98  C   UNL A   1      41.787  28.445  33.534  1.00  0.00     0.012 A 
ATOM     99  C   UNL A   1      43.223  29.814  34.926  1.00  0.00     0.148 A 
ATOM    100  C   UNL A   1      41.803  27.433  34.499  1.00  0.00     0.002 A 
ATOM    101  C   UNL A   1      43.276  28.789  35.861  1.00  0.00     0.091 A 
ATOM    102  F   UNL A   1      43.888  30.965  35.104  1.00  0.00    -0.205 F 
ATOM    103  C   UNL A   1      42.560  27.599  35.657  1.00  0.00     0.022 A 
BRANCH 101 104
ATOM    104  S   UNL A   1      44.331  28.898  37.306  1.00  0.00     0.127 S 
ATOM    105  O   UNL A   1      44.017  27.655  38.008  1.00  0.00    -0.237 OA
ATOM    106  O   UNL A   1      45.669  28.946  36.714  1.00  0.00    -0.237 OA
ATOM    107  O   UNL A   1      43.943  30.122  37.997  1.00  0.00    -0.744 OA
ENDBRANCH 101 104
ENDBRANCH  74  97
ENDBRANCH  48  49
ENDBRANCH  40  43
ENDBRANCH  38  39
ENDBRANCH   1  38
TORSDOF 17
ENDMDL
MODEL 2
REMARK VINA RESULT:      -9.8      4.009      9.430
REMARK SMILES COc1cc([C@@H]2CC(=O)Nc3c(C(=O)NCCCNC(=O)c4ccc(-c5c6nc(c(-c7cccc(S(=O)(=O)[O-])c7F)c7ccc([nH]7)c(-c7cccc(S(=O)(=O)[O-])c7F)c7nc(c(-c8cccc(S(=O)(=O)[O-])c8F)c8ccc5[nH]8)C=C7)C=C6)cc4)cn(-c4ccc(F)cc4)c32)c(OC)c2c1OCO2
REMARK SMILES IDX 17 1 16 2 15 3 13 4 14 5 12 7 6 8 7 9 94 10 8 11 11 12 86 13
REMARK SMILES IDX 9 14 10 15 85 16 5 18 3 19 4 20 99 21 98 22 100 23 95 24
REMARK SMILES IDX 102 25 101 26 2 27 1 28 96 29 97 30 87 31 88 32 93 33 89 34
REMARK SMILES IDX 92 35 90 36 91 37 18 38 19 39 20 40 21 42 22 43 23 44 84 45
REMARK SMILES IDX 24 46 83 47 25 48 26 49 27 50 77 51 28 52 82 53 76 54 78 55
REMARK SMILES IDX 29 56 81 57 75 58 74 59 30 61 62 62 42 63 61 64 43 65 46 66
REMARK SMILES IDX 60 67 79 68 44 69 45 70 59 72 80 73 47 74 31 75 32 76 40 77
REMARK SMILES IDX 33 78 35 79 41 80 34 81 36 82 37 83 38 84 39 85 63 86 64 87
REMARK SMILES IDX 72 88 65 89 67 90 73 91 66 92 68 93 69 94 70 95 71 96 48 97
REMARK SMILES IDX 49 98 57 99 50 100 52 101 58 102 51 103 53 104 54 105 55 106
REMARK SMILES IDX 56 107
REMARK H PARENT 15 6 10 17 19 41 78 60 46 71
REMARK Flexibility Score: inf
ROOT
ATOM      1  C   UNL A   1      36.586  30.190  27.638  1.00  0.00     0.042 C 
ENDROOT
BRANCH   1   2
ATOM      2  C   UNL A   1      38.006  29.707  27.985  1.00  0.00     0.118 C 
BRANCH   2   3
ATOM      3  N   UNL A   1      38.030  28.881  29.168  1.00  0.00    -0.352 N 
ATOM      4  C   UNL A   1      38.792  27.811  29.550  1.00  0.00     0.254 C 
ATOM      5  O   UNL A   1      38.644  27.460  30.724  1.00  0.00    -0.269 OA
ATOM      6  H   UNL A   1      37.358  29.142  29.840  1.00  0.00     0.163 HD
BRANCH   4   7
ATOM      7  C   UNL A   1      39.755  27.106  28.692  1.00  0.00     0.081 A 
ATOM      8  C   UNL A   1      42.430  26.241  26.232  1.00  0.00     0.082 C 
ATOM      9  C   UNL A   1      42.343  27.501  25.362  1.00  0.00     0.115 C 
ATOM     10  C   UNL A   1      41.358  26.276  27.284  1.00  0.00     0.055 A 
ATOM     11  C   UNL A   1      42.109  28.738  26.187  1.00  0.00     0.225 C 
ATOM     12  C   UNL A   1      40.771  27.435  27.747  1.00  0.00     0.076 A 
ATOM     13  N   UNL A   1      40.703  25.210  27.849  1.00  0.00    -0.317 N 
ATOM     14  O   UNL A   1      42.569  29.838  25.876  1.00  0.00    -0.275 OA
ATOM     15  N   UNL A   1      41.262  28.617  27.254  1.00  0.00    -0.324 N 
ATOM     16  C   UNL A   1      39.703  25.708  28.640  1.00  0.00     0.107 A 
ATOM     17  H   UNL A   1      40.983  29.446  27.705  1.00  0.00     0.170 HD
BRANCH   8  18
ATOM     18  C   UNL A   1      43.861  26.031  26.739  1.00  0.00     0.012 A 
ATOM     19  C   UNL A   1      45.408  26.460  28.591  1.00  0.00     0.165 A 
ATOM     20  C   UNL A   1      44.139  26.544  28.033  1.00  0.00     0.059 A 
ATOM     21  C   UNL A   1      46.374  25.763  27.899  1.00  0.00     0.211 A 
ATOM     22  C   UNL A   1      46.121  25.220  26.655  1.00  0.00     0.211 A 
ATOM     23  O   UNL A   1      47.645  25.518  28.326  1.00  0.00    -0.449 OA
ATOM     24  C   UNL A   1      44.885  25.353  26.032  1.00  0.00     0.168 A 
ATOM     25  O   UNL A   1      47.225  24.584  26.163  1.00  0.00    -0.449 OA
ATOM     26  C   UNL A   1      48.130  24.676  27.271  1.00  0.00     0.468 C 
BRANCH  19  27
ATOM     27  O   UNL A   1      45.597  27.051  29.806  1.00  0.00    -0.493 OA
ATOM     28  C   UNL A   1      45.961  28.423  29.668  1.00  0.00     0.278 C 
ENDBRANCH  19  27
BRANCH  24  29
ATOM     29  O   UNL A   1      44.581  24.898  24.787  1.00  0.00    -0.492 OA
ATOM     30  C   UNL A   1      44.199  23.542  24.605  1.00  0.00     0.278 C 
ENDBRANCH  24  29
ENDBRANCH   8  18
BRANCH  13  31
ATOM     31  C   UNL A   1      40.938  23.844  27.583  1.00  0.00     0.046 A 
ATOM     32  C   UNL A   1      42.104  23.244  28.064  1.00  0.00     0.029 A 
ATOM     33  C   UNL A   1      40.055  23.139  26.761  1.00  0.00     0.029 A 
ATOM     34  C   UNL A   1      42.454  21.969  27.631  1.00  0.00     0.041 A 
ATOM     35  C   UNL A   1      40.413  21.861  26.329  1.00  0.00     0.041 A 
ATOM     36  C   UNL A   1      41.617  21.299  26.748  1.00  0.00     0.123 A 
ATOM     37  F   UNL A   1      41.981  20.095  26.290  1.00  0.00    -0.207 F 
ENDBRANCH  13  31
ENDBRANCH   4   7
ENDBRANCH   2   3
ENDBRANCH   1   2
BRANCH   1  38
ATOM     38  C   UNL A   1      35.733  30.419  28.860  1.00  0.00     0.118 C 
BRANCH  38  39
ATOM     39  N   UNL A   1      35.000  31.691  28.740  1.00  0.00    -0.352 N 
ATOM     40  C   UNL A   1      34.765  32.649  29.709  1.00  0.00     0.251 C 
ATOM     41  H   UNL A   1      34.626  31.884  27.851  1.00  0.00     0.163 HD
ATOM     42  O   UNL A   1      33.875  33.469  29.587  1.00  0.00    -0.269 OA
BRANCH  40  43
ATOM     43  C   UNL A   1      35.639  32.640  30.891  1.00  0.00     0.039 A 
ATOM     44  C   UNL A   1      35.514  31.685  31.900  1.00  0.00     0.014 A 
ATOM     45  C   UNL A   1      36.677  33.562  30.889  1.00  0.00     0.014 A 
ATOM     46  C   UNL A   1      36.508  31.630  32.871  1.00  0.00     0.010 A 
ATOM     47  C   UNL A   1      37.772  33.310  31.656  1.00  0.00     0.010 A 
ATOM     48  C   UNL A   1      37.647  32.437  32.722  1.00  0.00    -0.014 A 
BRANCH  48  49
ATOM     49  C   UNL A   1      38.794  32.335  33.605  1.00  0.00     0.031 A 
ATOM     50  C   UNL A   1      38.662  33.149  34.836  1.00  0.00     0.074 A 
ATOM     51  C   UNL A   1      39.758  31.404  33.419  1.00  0.00     0.049 A 
ATOM     52  N   UNL A   1      39.259  34.264  35.098  1.00  0.00    -0.248 NA
ATOM     53  C   UNL A   1      37.593  32.810  35.790  1.00  0.00     0.031 C 
ATOM     54  C   UNL A   1      39.802  30.317  32.426  1.00  0.00     0.029 A 
ATOM     55  N   UNL A   1      40.846  31.138  34.184  1.00  0.00    -0.354 N 
ATOM     56  C   UNL A   1      38.855  34.598  36.387  1.00  0.00     0.074 A 
ATOM     57  C   UNL A   1      37.656  33.844  36.632  1.00  0.00     0.031 C 
ATOM     58  C   UNL A   1      40.693  29.381  32.817  1.00  0.00     0.029 A 
ATOM     59  C   UNL A   1      41.413  29.884  33.968  1.00  0.00     0.049 A 
ATOM     60  H   UNL A   1      41.207  31.778  34.838  1.00  0.00     0.167 HD
ATOM     61  C   UNL A   1      39.720  35.207  37.245  1.00  0.00     0.034 A 
ATOM     62  C   UNL A   1      42.379  29.293  34.714  1.00  0.00     0.034 A 
ATOM     63  C   UNL A   1      40.878  35.703  36.536  1.00  0.00     0.049 A 
ATOM     64  C   UNL A   1      43.050  30.373  35.471  1.00  0.00     0.074 A 
ATOM     65  C   UNL A   1      41.086  36.571  35.483  1.00  0.00     0.029 A 
ATOM     66  N   UNL A   1      42.023  34.947  36.636  1.00  0.00    -0.354 N 
ATOM     67  N   UNL A   1      43.744  31.320  34.904  1.00  0.00    -0.248 NA
ATOM     68  C   UNL A   1      42.554  30.668  36.805  1.00  0.00     0.031 C 
ATOM     69  C   UNL A   1      42.132  35.974  34.717  1.00  0.00     0.029 A 
ATOM     70  C   UNL A   1      42.566  34.827  35.385  1.00  0.00     0.049 A 
ATOM     71  H   UNL A   1      42.389  34.560  37.464  1.00  0.00     0.167 HD
ATOM     72  C   UNL A   1      43.369  32.471  35.584  1.00  0.00     0.074 A 
ATOM     73  C   UNL A   1      42.726  31.993  36.810  1.00  0.00     0.031 C 
ATOM     74  C   UNL A   1      43.336  33.681  34.951  1.00  0.00     0.034 A 
BRANCH  61  75
ATOM     75  C   UNL A   1      39.764  34.995  38.746  1.00  0.00     0.023 A 
ATOM     76  C   UNL A   1      39.804  36.159  39.549  1.00  0.00     0.012 A 
ATOM     77  C   UNL A   1      40.052  33.770  39.393  1.00  0.00     0.148 A 
ATOM     78  C   UNL A   1      40.191  36.117  40.892  1.00  0.00     0.002 A 
ATOM     79  C   UNL A   1      40.363  33.723  40.748  1.00  0.00     0.091 A 
ATOM     80  F   UNL A   1      40.158  32.642  38.691  1.00  0.00    -0.205 F 
ATOM     81  C   UNL A   1      40.470  34.898  41.493  1.00  0.00     0.022 A 
BRANCH  79  82
ATOM     82  S   UNL A   1      40.694  32.169  41.589  1.00  0.00     0.127 S 
ATOM     83  O   UNL A   1      39.426  31.468  41.415  1.00  0.00    -0.237 OA
ATOM     84  O   UNL A   1      41.810  31.640  40.804  1.00  0.00    -0.237 OA
ATOM     85  O   UNL A   1      41.044  32.526  42.958  1.00  0.00    -0.744 OA
ENDBRANCH  79  82
ENDBRANCH  61  75
BRANCH  62  86
ATOM     86  C   UNL A   1      42.601  27.863  35.032  1.00  0.00     0.023 A 
ATOM     87  C   UNL A   1      41.690  27.182  35.865  1.00  0.00     0.012 A 
ATOM     88  C   UNL A   1      43.523  27.095  34.286  1.00  0.00     0.148 A 
ATOM     89  C   UNL A   1      41.670  25.782  35.924  1.00  0.00     0.002 A 
ATOM     90  C   UNL A   1      43.500  25.703  34.349  1.00  0.00     0.091 A 
ATOM     91  F   UNL A   1      44.355  27.725  33.448  1.00  0.00    -0.205 F 
ATOM     92  C   UNL A   1      42.567  25.043  35.158  1.00  0.00     0.022 A 
BRANCH  90  93
ATOM     93  S   UNL A   1      44.600  24.678  33.363  1.00  0.00     0.127 S 
ATOM     94  O   UNL A   1      44.177  23.330  33.744  1.00  0.00    -0.237 OA
ATOM     95  O   UNL A   1      44.239  25.071  32.004  1.00  0.00    -0.237 OA
ATOM     96  O   UNL A   1      45.950  25.028  33.784  1.00  0.00    -0.744 OA
ENDBRANCH  90  93
ENDBRANCH  62  86
BRANCH  74  97
ATOM     97  C   UNL A   1      43.963  33.784  33.582  1.00  0.00     0.023 A 
ATOM     98  C   UNL A   1      45.358  33.880  33.381  1.00  0.00     0.012 A 
ATOM     99  C   UNL A   1      43.131  33.599  32.467  1.00  0.00     0.148 A 
ATOM    100  C   UNL A   1      45.902  33.809  32.094  1.00  0.00     0.002 A 
ATOM    101  C   UNL A   1      43.679  33.480  31.197  1.00  0.00     0.091 A 
ATOM    102  F   UNL A   1      41.809  33.506  32.676  1.00  0.00    -0.205 F 
ATOM    103  C   UNL A   1      45.064  33.594  31.003  1.00  0.00     0.022 A 
BRANCH 101 104
ATOM    104  S   UNL A   1      42.661  33.080  29.776  1.00  0.00     0.127 S 
ATOM    105  O   UNL A   1      43.654  32.982  28.708  1.00  0.00    -0.237 OA
ATOM    106  O   UNL A   1      42.059  31.804  30.171  1.00  0.00    -0.237 OA
ATOM    107  O   UNL A   1      41.705  34.172  29.644  1.00  0.00    -0.744 OA
ENDBRANCH 101 104
ENDBRANCH  74  97
ENDBRANCH  48  49
ENDBRANCH  40  43
ENDBRANCH  38  39
ENDBRANCH   1  38
TORSDOF 17
ENDMDL
MODEL 3
REMARK VINA RESULT:      -9.6      6.504     13.549
REMARK SMILES COc1cc([C@@H]2CC(=O)Nc3c(C(=O)NCCCNC(=O)c4ccc(-c5c6nc(c(-c7cccc(S(=O)(=O)[O-])c7F)c7ccc([nH]7)c(-c7cccc(S(=O)(=O)[O-])c7F)c7nc(c(-c8cccc(S(=O)(=O)[O-])c8F)c8ccc5[nH]8)C=C7)C=C6)cc4)cn(-c4ccc(F)cc4)c32)c(OC)c2c1OCO2
REMARK SMILES IDX 17 1 16 2 15 3 13 4 14 5 12 7 6 8 7 9 94 10 8 11 11 12 86 13
REMARK SMILES IDX 9 14 10 15 85 16 5 18 3 19 4 20 99 21 98 22 100 23 95 24
REMARK SMILES IDX 102 25 101 26 2 27 1 28 96 29 97 30 87 31 88 32 93 33 89 34
REMARK SMILES IDX 92 35 90 36 91 37 18 38 19 39 20 40 21 42 22 43 23 44 84 45
REMARK SMILES IDX 24 46 83 47 25 48 26 49 27 50 77 51 28 52 82 53 76 54 78 55
REMARK SMILES IDX 29 56 81 57 75 58 74 59 30 61 62 62 42 63 61 64 43 65 46 66
REMARK SMILES IDX 60 67 79 68 44 69 45 70 59 72 80 73 47 74 31 75 32 76 40 77
REMARK SMILES IDX 33 78 35 79 41 80 34 81 36 82 37 83 38 84 39 85 63 86 64 87
REMARK SMILES IDX 72 88 65 89 67 90 73 91 66 92 68 93 69 94 70 95 71 96 48 97
REMARK SMILES IDX 49 98 57 99 50 100 52 101 58 102 51 103 53 104 54 105 55 106
REMARK SMILES IDX 56 107
REMARK H PARENT 15 6 10 17 19 41 78 60 46 71
REMARK Flexibility Score: inf
ROOT
ATOM      1  C   UNL A   1      43.730  38.514  26.913  1.00  0.00     0.042 C 
ENDROOT
BRANCH   1   2
ATOM      2  C   UNL A   1      43.661  39.911  26.270  1.00  0.00     0.118 C 
BRANCH   2   3
ATOM      3  N   UNL A   1      42.308  40.403  26.170  1.00  0.00    -0.352 N 
ATOM      4  C   UNL A   1      41.694  41.297  25.338  1.00  0.00     0.254 C 
ATOM      5  O   UNL A   1      40.465  41.342  25.438  1.00  0.00    -0.269 OA
ATOM      6  H   UNL A   1      41.701  40.014  26.842  1.00  0.00     0.163 HD
BRANCH   4   7
ATOM      7  C   UNL A   1      42.378  42.148  24.353  1.00  0.00     0.081 A 
ATOM      8  C   UNL A   1      44.617  44.612  22.658  1.00  0.00     0.082 C 
ATOM      9  C   UNL A   1      44.911  45.509  23.866  1.00  0.00     0.115 C 
ATOM     10  C   UNL A   1      43.625  43.551  23.043  1.00  0.00     0.055 A 
ATOM     11  C   UNL A   1      45.084  44.710  25.131  1.00  0.00     0.225 C 
ATOM     12  C   UNL A   1      43.432  43.110  24.334  1.00  0.00     0.076 A 
ATOM     13  N   UNL A   1      42.681  42.957  22.242  1.00  0.00    -0.317 N 
ATOM     14  O   UNL A   1      45.856  45.049  26.028  1.00  0.00    -0.275 OA
ATOM     15  N   UNL A   1      44.257  43.633  25.297  1.00  0.00    -0.324 N 
ATOM     16  C   UNL A   1      41.896  42.168  23.040  1.00  0.00     0.107 A 
ATOM     17  H   UNL A   1      44.254  43.198  26.180  1.00  0.00     0.170 HD
BRANCH   8  18
ATOM     18  C   UNL A   1      45.921  44.112  22.026  1.00  0.00     0.012 A 
ATOM     19  C   UNL A   1      47.412  42.182  21.778  1.00  0.00     0.165 A 
ATOM     20  C   UNL A   1      46.237  42.748  22.257  1.00  0.00     0.059 A 
ATOM     21  C   UNL A   1      48.219  42.954  20.971  1.00  0.00     0.211 A 
ATOM     22  C   UNL A   1      47.917  44.273  20.697  1.00  0.00     0.211 A 
ATOM     23  O   UNL A   1      49.364  42.543  20.357  1.00  0.00    -0.449 OA
ATOM     24  C   UNL A   1      46.790  44.894  21.224  1.00  0.00     0.168 A 
ATOM     25  O   UNL A   1      48.860  44.834  19.884  1.00  0.00    -0.449 OA
ATOM     26  C   UNL A   1      49.692  43.706  19.584  1.00  0.00     0.468 C 
BRANCH  19  27
ATOM     27  O   UNL A   1      47.665  40.886  22.118  1.00  0.00    -0.493 OA
ATOM     28  C   UNL A   1      47.137  40.571  23.405  1.00  0.00     0.278 C 
ENDBRANCH  19  27
BRANCH  24  29
ATOM     29  O   UNL A   1      46.460  46.202  21.047  1.00  0.00    -0.492 OA
ATOM     30  C   UNL A   1      45.661  46.583  19.937  1.00  0.00     0.278 C 
ENDBRANCH  24  29
ENDBRANCH   8  18
BRANCH  13  31
ATOM     31  C   UNL A   1      42.479  43.193  20.866  1.00  0.00     0.046 A 
ATOM     32  C   UNL A   1      43.585  43.337  20.025  1.00  0.00     0.029 A 
ATOM     33  C   UNL A   1      41.181  43.381  20.381  1.00  0.00     0.029 A 
ATOM     34  C   UNL A   1      43.408  43.784  18.720  1.00  0.00     0.041 A 
ATOM     35  C   UNL A   1      41.010  43.830  19.071  1.00  0.00     0.041 A 
ATOM     36  C   UNL A   1      42.123  44.049  18.262  1.00  0.00     0.123 A 
ATOM     37  F   UNL A   1      41.958  44.530  17.023  1.00  0.00    -0.207 F 
ENDBRANCH  13  31
ENDBRANCH   4   7
ENDBRANCH   2   3
ENDBRANCH   1   2
BRANCH   1  38
ATOM     38  C   UNL A   1      43.864  38.569  28.414  1.00  0.00     0.118 C 
BRANCH  38  39
ATOM     39  N   UNL A   1      45.284  38.524  28.803  1.00  0.00    -0.352 N 
ATOM     40  C   UNL A   1      45.906  37.690  29.714  1.00  0.00     0.251 C 
ATOM     41  H   UNL A   1      45.870  39.175  28.355  1.00  0.00     0.163 HD
ATOM     42  O   UNL A   1      46.988  37.970  30.194  1.00  0.00    -0.269 OA
BRANCH  40  43
ATOM     43  C   UNL A   1      45.207  36.448  30.075  1.00  0.00     0.039 A 
ATOM     44  C   UNL A   1      44.614  36.264  31.324  1.00  0.00     0.014 A 
ATOM     45  C   UNL A   1      45.066  35.511  29.060  1.00  0.00     0.014 A 
ATOM     46  C   UNL A   1      43.805  35.147  31.503  1.00  0.00     0.010 A 
ATOM     47  C   UNL A   1      44.059  34.601  29.150  1.00  0.00     0.010 A 
ATOM     48  C   UNL A   1      43.518  34.334  30.395  1.00  0.00    -0.014 A 
BRANCH  48  49
ATOM     49  C   UNL A   1      42.568  33.239  30.460  1.00  0.00     0.031 A 
ATOM     50  C   UNL A   1      41.181  33.679  30.739  1.00  0.00     0.074 A 
ATOM     51  C   UNL A   1      42.894  31.987  30.065  1.00  0.00     0.049 A 
ATOM     52  N   UNL A   1      40.540  33.568  31.855  1.00  0.00    -0.248 NA
ATOM     53  C   UNL A   1      40.501  34.527  29.746  1.00  0.00     0.031 C 
ATOM     54  C   UNL A   1      44.144  31.520  29.440  1.00  0.00     0.029 A 
ATOM     55  N   UNL A   1      42.112  30.881  30.001  1.00  0.00    -0.354 N 
ATOM     56  C   UNL A   1      39.269  34.069  31.594  1.00  0.00     0.074 A 
ATOM     57  C   UNL A   1      39.397  34.875  30.412  1.00  0.00     0.031 C 
ATOM     58  C   UNL A   1      43.933  30.332  28.834  1.00  0.00     0.029 A 
ATOM     59  C   UNL A   1      42.608  29.867  29.185  1.00  0.00     0.049 A 
ATOM     60  H   UNL A   1      41.263  30.800  30.492  1.00  0.00     0.167 HD
ATOM     61  C   UNL A   1      38.173  33.512  32.183  1.00  0.00     0.034 A 
ATOM     62  C   UNL A   1      41.950  28.746  28.797  1.00  0.00     0.034 A 
ATOM     63  C   UNL A   1      38.564  32.643  33.271  1.00  0.00     0.049 A 
ATOM     64  C   UNL A   1      40.840  28.552  29.756  1.00  0.00     0.074 A 
ATOM     65  C   UNL A   1      39.292  32.794  34.434  1.00  0.00     0.029 A 
ATOM     66  N   UNL A   1      38.547  31.293  33.007  1.00  0.00    -0.354 N 
ATOM     67  N   UNL A   1      41.023  28.286  31.020  1.00  0.00    -0.248 NA
ATOM     68  C   UNL A   1      39.548  29.123  29.414  1.00  0.00     0.031 C 
ATOM     69  C   UNL A   1      40.064  31.599  34.542  1.00  0.00     0.029 A 
ATOM     70  C   UNL A   1      39.704  30.748  33.494  1.00  0.00     0.049 A 
ATOM     71  H   UNL A   1      37.827  30.803  32.548  1.00  0.00     0.167 HD
ATOM     72  C   UNL A   1      40.093  29.083  31.673  1.00  0.00     0.074 A 
ATOM     73  C   UNL A   1      39.143  29.486  30.635  1.00  0.00     0.031 C 
ATOM     74  C   UNL A   1      40.352  29.590  32.915  1.00  0.00     0.034 A 
BRANCH  61  75
ATOM     75  C   UNL A   1      36.802  33.387  31.547  1.00  0.00     0.023 A 
ATOM     76  C   UNL A   1      36.687  32.481  30.466  1.00  0.00     0.012 A 
ATOM     77  C   UNL A   1      35.723  34.279  31.742  1.00  0.00     0.148 A 
ATOM     78  C   UNL A   1      35.604  32.521  29.582  1.00  0.00     0.002 A 
ATOM     79  C   UNL A   1      34.612  34.265  30.906  1.00  0.00     0.091 A 
ATOM     80  F   UNL A   1      35.800  35.246  32.658  1.00  0.00    -0.205 F 
ATOM     81  C   UNL A   1      34.564  33.413  29.803  1.00  0.00     0.022 A 
BRANCH  79  82
ATOM     82  S   UNL A   1      33.217  35.370  31.167  1.00  0.00     0.127 S 
ATOM     83  O   UNL A   1      32.384  35.065  30.008  1.00  0.00    -0.237 OA
ATOM     84  O   UNL A   1      32.699  34.893  32.450  1.00  0.00    -0.237 OA
ATOM     85  O   UNL A   1      33.780  36.714  31.213  1.00  0.00    -0.744 OA
ENDBRANCH  79  82
ENDBRANCH  61  75
BRANCH  62  86
ATOM     86  C   UNL A   1      42.031  27.979  27.532  1.00  0.00     0.023 A 
ATOM     87  C   UNL A   1      41.875  28.645  26.299  1.00  0.00     0.012 A 
ATOM     88  C   UNL A   1      42.556  26.667  27.517  1.00  0.00     0.148 A 
ATOM     89  C   UNL A   1      42.265  28.042  25.096  1.00  0.00     0.002 A 
ATOM     90  C   UNL A   1      42.941  26.071  26.318  1.00  0.00     0.091 A 
ATOM     91  F   UNL A   1      42.764  26.045  28.685  1.00  0.00    -0.205 F 
ATOM     92  C   UNL A   1      42.808  26.761  25.107  1.00  0.00     0.022 A 
BRANCH  90  93
ATOM     93  S   UNL A   1      43.685  24.436  26.253  1.00  0.00     0.127 S 
ATOM     94  O   UNL A   1      42.964  23.821  25.138  1.00  0.00    -0.237 OA
ATOM     95  O   UNL A   1      45.084  24.752  25.977  1.00  0.00    -0.237 OA
ATOM     96  O   UNL A   1      43.420  23.829  27.550  1.00  0.00    -0.744 OA
ENDBRANCH  90  93
ENDBRANCH  62  86
BRANCH  74  97
ATOM     97  C   UNL A   1      41.547  29.055  33.666  1.00  0.00     0.023 A 
ATOM     98  C   UNL A   1      42.738  29.794  33.841  1.00  0.00     0.012 A 
ATOM     99  C   UNL A   1      41.394  27.846  34.362  1.00  0.00     0.148 A 
ATOM    100  C   UNL A   1      43.755  29.325  34.680  1.00  0.00     0.002 A 
ATOM    101  C   UNL A   1      42.384  27.408  35.230  1.00  0.00     0.091 A 
ATOM    102  F   UNL A   1      40.255  27.158  34.186  1.00  0.00    -0.205 F 
ATOM    103  C   UNL A   1      43.572  28.139  35.386  1.00  0.00     0.022 A 
BRANCH 101 104
ATOM    104  S   UNL A   1      42.150  25.956  36.257  1.00  0.00     0.127 S 
ATOM    105  O   UNL A   1      40.975  26.325  37.043  1.00  0.00    -0.237 OA
ATOM    106  O   UNL A   1      41.918  24.905  35.265  1.00  0.00    -0.237 OA
ATOM    107  O   UNL A   1      43.385  25.795  37.015  1.00  0.00    -0.744 OA
ENDBRANCH 101 104
ENDBRANCH  74  97
ENDBRANCH  48  49
ENDBRANCH  40  43
ENDBRANCH  38  39
ENDBRANCH   1  38
TORSDOF 17
ENDMDL
