MODEL 1
REMARK VINA RESULT:     -11.9      0.000      0.000
REMARK SMILES CC[C@@H](Oc1cc(Cl)ccc1Cl)C(=O)NNC(=O)[C@@H]1[C@@H]2CC[C@@H](C2)[C@@H]1C(=O)NCCCNC(=O)c1ccc(-c2c3nc(c(-c4cccc(S(=O)(=O)[O-])c4F)c4ccc([nH]4)c(-c4cccc(S(=O)(=O)[O-])c4F)c4nc(c(-c5cccc(S(=O)(=O)[O-])c5F)c5ccc2[nH]5)C=C4)C=C3)cc1
REMARK SMILES IDX 29 1 28 2 26 3 27 4 25 6 19 7 20 8 21 9 24 10 23 11 22 12
REMARK SMILES IDX 17 13 16 14 18 16 15 17 13 18 14 19 3 21 2 22 1 23 4 24 5 25
REMARK SMILES IDX 6 26 11 27 7 28 10 29 12 30 8 31 9 32 30 33 31 34 32 35
REMARK SMILES IDX 33 36 34 38 35 39 36 40 97 41 37 42 96 43 38 44 39 45 40 46
REMARK SMILES IDX 90 47 41 48 95 49 89 50 91 51 42 52 94 53 88 54 87 55 43 57
REMARK SMILES IDX 75 58 55 59 74 60 56 61 59 62 73 63 92 64 57 65 58 66 72 68
REMARK SMILES IDX 93 69 60 70 44 71 45 72 53 73 46 74 48 75 54 76 47 77 49 78
REMARK SMILES IDX 50 79 51 80 52 81 76 82 77 83 85 84 78 85 80 86 86 87 79 88
REMARK SMILES IDX 81 89 82 90 83 91 84 92 61 93 62 94 70 95 63 96 65 97 71 98
REMARK SMILES IDX 64 99 66 100 67 101 68 102 69 103
REMARK H PARENT 28 5 16 15 15 20 32 37 91 56 59 67
REMARK Flexibility Score: inf
ROOT
ATOM      1  C   UNL A   1      37.445  20.964  24.303  1.00  0.00     0.117 C 
ENDROOT
BRANCH   1   2
ATOM      2  N   UNL A   1      36.839  21.861  25.261  1.00  0.00    -0.356 N 
ATOM      3  C   UNL A   1      35.551  22.036  25.647  1.00  0.00     0.224 C 
ATOM      4  O   UNL A   1      35.375  22.791  26.615  1.00  0.00    -0.275 OA
ATOM      5  H   UNL A   1      37.480  22.454  25.717  1.00  0.00     0.163 HD
BRANCH   3   6
ATOM      6  C   UNL A   1      34.319  21.466  24.931  1.00  0.00     0.094 C 
ATOM      7  C   UNL A   1      33.566  22.186  23.784  1.00  0.00     0.096 C 
ATOM      8  C   UNL A   1      32.098  22.190  24.305  1.00  0.00     0.002 C 
ATOM      9  C   UNL A   1      31.829  22.964  25.614  1.00  0.00     0.005 C 
ATOM     10  C   UNL A   1      32.035  20.755  24.874  1.00  0.00     0.009 C 
ATOM     11  C   UNL A   1      33.177  20.999  25.871  1.00  0.00     0.002 C 
ATOM     12  C   UNL A   1      32.583  22.154  26.682  1.00  0.00     0.005 C 
BRANCH   7  13
ATOM     13  C   UNL A   1      34.285  23.385  23.185  1.00  0.00     0.242 C 
ATOM     14  N   UNL A   1      33.635  24.594  23.136  1.00  0.00    -0.267 N 
ATOM     15  H   UNL A   1      33.729  25.272  23.844  1.00  0.00     0.191 HD
ATOM     16  O   UNL A   1      35.389  23.292  22.649  1.00  0.00    -0.273 OA
BRANCH  14  17
ATOM     17  N   UNL A   1      32.823  24.795  21.994  1.00  0.00    -0.264 N 
ATOM     18  C   UNL A   1      32.039  25.915  21.794  1.00  0.00     0.279 C 
ATOM     19  O   UNL A   1      31.543  26.095  20.677  1.00  0.00    -0.269 OA
ATOM     20  H   UNL A   1      32.816  24.095  21.303  1.00  0.00     0.191 HD
BRANCH  18  21
ATOM     21  C   UNL A   1      31.697  26.861  22.975  1.00  0.00     0.263 C 
BRANCH  21  22
ATOM     22  C   UNL A   1      30.836  26.096  24.001  1.00  0.00     0.052 C 
ATOM     23  C   UNL A   1      29.338  26.280  23.781  1.00  0.00     0.008 C 
ENDBRANCH  21  22
BRANCH  21  24
ATOM     24  O   UNL A   1      32.894  27.357  23.606  1.00  0.00    -0.479 OA
BRANCH  24  25
ATOM     25  C   UNL A   1      32.625  28.005  24.792  1.00  0.00     0.140 A 
ATOM     26  C   UNL A   1      31.955  29.231  24.733  1.00  0.00     0.068 A 
ATOM     27  C   UNL A   1      32.965  27.458  26.037  1.00  0.00     0.083 A 
ATOM     28  C   UNL A   1      31.732  29.956  25.904  1.00  0.00     0.044 A 
ATOM     29  C   UNL A   1      32.706  28.177  27.210  1.00  0.00     0.026 A 
ATOM     30  Cl  UNL A   1      33.712  25.911  26.172  1.00  0.00    -0.080 Cl
ATOM     31  Cl  UNL A   1      31.030  31.523  25.818  1.00  0.00    -0.084 Cl
ATOM     32  C   UNL A   1      32.108  29.438  27.142  1.00  0.00     0.022 A 
ENDBRANCH  24  25
ENDBRANCH  21  24
ENDBRANCH  18  21
ENDBRANCH  14  17
ENDBRANCH   7  13
ENDBRANCH   3   6
ENDBRANCH   1   2
BRANCH   1  33
ATOM     33  C   UNL A   1      38.012  19.708  24.926  1.00  0.00     0.042 C 
BRANCH  33  34
ATOM     34  C   UNL A   1      38.916  20.033  26.092  1.00  0.00     0.118 C 
BRANCH  34  35
ATOM     35  N   UNL A   1      40.144  19.239  26.063  1.00  0.00    -0.352 N 
ATOM     36  C   UNL A   1      41.452  19.659  26.100  1.00  0.00     0.251 C 
ATOM     37  H   UNL A   1      40.014  18.264  26.009  1.00  0.00     0.163 HD
ATOM     38  O   UNL A   1      42.354  18.884  25.791  1.00  0.00    -0.269 OA
BRANCH  36  39
ATOM     39  C   UNL A   1      41.748  21.052  26.494  1.00  0.00     0.039 A 
ATOM     40  C   UNL A   1      42.120  21.343  27.808  1.00  0.00     0.014 A 
ATOM     41  C   UNL A   1      41.702  22.066  25.537  1.00  0.00     0.014 A 
ATOM     42  C   UNL A   1      42.524  22.641  28.133  1.00  0.00     0.010 A 
ATOM     43  C   UNL A   1      42.246  23.306  25.825  1.00  0.00     0.010 A 
ATOM     44  C   UNL A   1      42.634  23.622  27.133  1.00  0.00    -0.014 A 
BRANCH  44  45
ATOM     45  C   UNL A   1      43.117  24.996  27.418  1.00  0.00     0.031 A 
ATOM     46  C   UNL A   1      42.194  25.987  28.078  1.00  0.00     0.074 A 
ATOM     47  C   UNL A   1      44.333  25.386  26.985  1.00  0.00     0.049 A 
ATOM     48  N   UNL A   1      42.380  27.259  28.316  1.00  0.00    -0.248 NA
ATOM     49  C   UNL A   1      40.864  25.496  28.483  1.00  0.00     0.031 C 
ATOM     50  C   UNL A   1      45.282  24.548  26.248  1.00  0.00     0.029 A 
ATOM     51  N   UNL A   1      44.969  26.598  27.080  1.00  0.00    -0.354 N 
ATOM     52  C   UNL A   1      41.181  27.726  28.840  1.00  0.00     0.074 A 
ATOM     53  C   UNL A   1      40.255  26.617  28.839  1.00  0.00     0.031 C 
ATOM     54  C   UNL A   1      46.383  25.265  25.972  1.00  0.00     0.029 A 
ATOM     55  C   UNL A   1      46.204  26.622  26.476  1.00  0.00     0.049 A 
ATOM     56  H   UNL A   1      44.578  27.377  27.537  1.00  0.00     0.167 HD
ATOM     57  C   UNL A   1      40.884  28.956  29.320  1.00  0.00     0.034 A 
ATOM     58  C   UNL A   1      47.089  27.629  26.335  1.00  0.00     0.034 A 
ATOM     59  C   UNL A   1      41.828  30.036  29.377  1.00  0.00     0.049 A 
ATOM     60  C   UNL A   1      46.762  28.971  26.932  1.00  0.00     0.074 A 
ATOM     61  C   UNL A   1      41.669  31.288  29.940  1.00  0.00     0.029 A 
ATOM     62  N   UNL A   1      43.108  29.991  28.847  1.00  0.00    -0.354 N 
ATOM     63  N   UNL A   1      45.681  29.348  27.570  1.00  0.00    -0.248 NA
ATOM     64  C   UNL A   1      47.790  30.016  26.822  1.00  0.00     0.031 C 
ATOM     65  C   UNL A   1      42.845  32.014  29.721  1.00  0.00     0.029 A 
ATOM     66  C   UNL A   1      43.749  31.199  29.058  1.00  0.00     0.049 A 
ATOM     67  H   UNL A   1      43.503  29.215  28.387  1.00  0.00     0.167 HD
ATOM     68  C   UNL A   1      45.912  30.659  27.971  1.00  0.00     0.074 A 
ATOM     69  C   UNL A   1      47.245  31.004  27.518  1.00  0.00     0.031 C 
ATOM     70  C   UNL A   1      45.094  31.506  28.643  1.00  0.00     0.034 A 
BRANCH  57  71
ATOM     71  C   UNL A   1      39.496  29.179  29.866  1.00  0.00     0.023 A 
ATOM     72  C   UNL A   1      39.166  28.714  31.157  1.00  0.00     0.012 A 
ATOM     73  C   UNL A   1      38.528  29.875  29.118  1.00  0.00     0.148 A 
ATOM     74  C   UNL A   1      37.884  28.897  31.673  1.00  0.00     0.002 A 
ATOM     75  C   UNL A   1      37.269  30.102  29.661  1.00  0.00     0.091 A 
ATOM     76  F   UNL A   1      38.851  30.291  27.884  1.00  0.00    -0.205 F 
ATOM     77  C   UNL A   1      36.941  29.600  30.931  1.00  0.00     0.022 A 
BRANCH  75  78
ATOM     78  S   UNL A   1      36.012  31.071  28.822  1.00  0.00     0.127 S 
ATOM     79  O   UNL A   1      35.534  30.124  27.815  1.00  0.00    -0.237 OA
ATOM     80  O   UNL A   1      35.063  31.342  29.902  1.00  0.00    -0.237 OA
ATOM     81  O   UNL A   1      36.692  32.248  28.301  1.00  0.00    -0.744 OA
ENDBRANCH  75  78
ENDBRANCH  57  71
BRANCH  58  82
ATOM     82  C   UNL A   1      48.396  27.383  25.662  1.00  0.00     0.023 A 
ATOM     83  C   UNL A   1      49.496  26.945  26.424  1.00  0.00     0.012 A 
ATOM     84  C   UNL A   1      48.544  27.541  24.271  1.00  0.00     0.148 A 
ATOM     85  C   UNL A   1      50.730  26.701  25.819  1.00  0.00     0.002 A 
ATOM     86  C   UNL A   1      49.760  27.241  23.665  1.00  0.00     0.091 A 
ATOM     87  F   UNL A   1      47.486  27.962  23.563  1.00  0.00    -0.205 F 
ATOM     88  C   UNL A   1      50.860  26.840  24.440  1.00  0.00     0.022 A 
BRANCH  86  89
ATOM     89  S   UNL A   1      49.982  27.260  21.883  1.00  0.00     0.127 S 
ATOM     90  O   UNL A   1      49.788  28.673  21.571  1.00  0.00    -0.237 OA
ATOM     91  O   UNL A   1      51.359  26.781  21.748  1.00  0.00    -0.237 OA
ATOM     92  O   UNL A   1      48.976  26.350  21.350  1.00  0.00    -0.744 OA
ENDBRANCH  86  89
ENDBRANCH  58  82
BRANCH  70  93
ATOM     93  C   UNL A   1      45.624  32.874  28.977  1.00  0.00     0.023 A 
ATOM     94  C   UNL A   1      46.417  33.063  30.126  1.00  0.00     0.012 A 
ATOM     95  C   UNL A   1      45.405  33.956  28.101  1.00  0.00     0.148 A 
ATOM     96  C   UNL A   1      46.954  34.317  30.416  1.00  0.00     0.002 A 
ATOM     97  C   UNL A   1      45.988  35.188  28.368  1.00  0.00     0.091 A 
ATOM     98  F   UNL A   1      44.633  33.758  27.022  1.00  0.00    -0.205 F 
ATOM     99  C   UNL A   1      46.751  35.374  29.531  1.00  0.00     0.022 A 
BRANCH  97 100
ATOM    100  S   UNL A   1      45.867  36.575  27.234  1.00  0.00     0.127 S 
ATOM    101  O   UNL A   1      46.574  37.623  27.969  1.00  0.00    -0.237 OA
ATOM    102  O   UNL A   1      46.572  36.073  26.055  1.00  0.00    -0.237 OA
ATOM    103  O   UNL A   1      44.443  36.808  27.033  1.00  0.00    -0.744 OA
ENDBRANCH  97 100
ENDBRANCH  70  93
ENDBRANCH  44  45
ENDBRANCH  36  39
ENDBRANCH  34  35
ENDBRANCH  33  34
ENDBRANCH   1  33
TORSDOF 19
ENDMDL
MODEL 2
REMARK VINA RESULT:     -11.9      6.320     11.456
REMARK SMILES CC[C@@H](Oc1cc(Cl)ccc1Cl)C(=O)NNC(=O)[C@@H]1[C@@H]2CC[C@@H](C2)[C@@H]1C(=O)NCCCNC(=O)c1ccc(-c2c3nc(c(-c4cccc(S(=O)(=O)[O-])c4F)c4ccc([nH]4)c(-c4cccc(S(=O)(=O)[O-])c4F)c4nc(c(-c5cccc(S(=O)(=O)[O-])c5F)c5ccc2[nH]5)C=C4)C=C3)cc1
REMARK SMILES IDX 29 1 28 2 26 3 27 4 25 6 19 7 20 8 21 9 24 10 23 11 22 12
REMARK SMILES IDX 17 13 16 14 18 16 15 17 13 18 14 19 3 21 2 22 1 23 4 24 5 25
REMARK SMILES IDX 6 26 11 27 7 28 10 29 12 30 8 31 9 32 30 33 31 34 32 35
REMARK SMILES IDX 33 36 34 38 35 39 36 40 97 41 37 42 96 43 38 44 39 45 40 46
REMARK SMILES IDX 90 47 41 48 95 49 89 50 91 51 42 52 94 53 88 54 87 55 43 57
REMARK SMILES IDX 75 58 55 59 74 60 56 61 59 62 73 63 92 64 57 65 58 66 72 68
REMARK SMILES IDX 93 69 60 70 44 71 45 72 53 73 46 74 48 75 54 76 47 77 49 78
REMARK SMILES IDX 50 79 51 80 52 81 76 82 77 83 85 84 78 85 80 86 86 87 79 88
REMARK SMILES IDX 81 89 82 90 83 91 84 92 61 93 62 94 70 95 63 96 65 97 71 98
REMARK SMILES IDX 64 99 66 100 67 101 68 102 69 103
REMARK H PARENT 28 5 16 15 15 20 32 37 91 56 59 67
REMARK Flexibility Score: inf
ROOT
ATOM      1  C   UNL A   1      32.243  31.020  26.645  1.00  0.00     0.117 C 
ENDROOT
BRANCH   1   2
ATOM      2  N   UNL A   1      33.107  30.124  25.910  1.00  0.00    -0.356 N 
ATOM      3  C   UNL A   1      32.853  29.235  24.918  1.00  0.00     0.224 C 
ATOM      4  O   UNL A   1      33.848  28.723  24.385  1.00  0.00    -0.275 OA
ATOM      5  H   UNL A   1      34.053  30.169  26.178  1.00  0.00     0.163 HD
BRANCH   3   6
ATOM      6  C   UNL A   1      31.462  28.751  24.487  1.00  0.00     0.094 C 
ATOM      7  C   UNL A   1      30.706  27.571  25.147  1.00  0.00     0.096 C 
ATOM      8  C   UNL A   1      30.369  26.669  23.922  1.00  0.00     0.002 C 
ATOM      9  C   UNL A   1      31.566  26.091  23.137  1.00  0.00     0.005 C 
ATOM     10  C   UNL A   1      29.948  27.766  22.918  1.00  0.00     0.009 C 
ATOM     11  C   UNL A   1      31.312  28.468  22.969  1.00  0.00     0.002 C 
ATOM     12  C   UNL A   1      32.219  27.329  22.498  1.00  0.00     0.005 C 
BRANCH   7  13
ATOM     13  C   UNL A   1      31.290  27.078  26.462  1.00  0.00     0.242 C 
ATOM     14  N   UNL A   1      31.770  25.793  26.537  1.00  0.00    -0.267 N 
ATOM     15  H   UNL A   1      32.718  25.575  26.382  1.00  0.00     0.191 HD
ATOM     16  O   UNL A   1      31.255  27.750  27.492  1.00  0.00    -0.273 OA
BRANCH  14  17
ATOM     17  N   UNL A   1      30.806  24.807  26.854  1.00  0.00    -0.264 N 
ATOM     18  C   UNL A   1      31.049  23.448  26.807  1.00  0.00     0.279 C 
ATOM     19  O   UNL A   1      30.219  22.683  27.309  1.00  0.00    -0.269 OA
ATOM     20  H   UNL A   1      29.908  25.108  27.124  1.00  0.00     0.191 HD
BRANCH  18  21
ATOM     21  C   UNL A   1      32.278  22.892  26.040  1.00  0.00     0.263 C 
BRANCH  21  22
ATOM     22  C   UNL A   1      31.911  21.529  25.420  1.00  0.00     0.052 C 
ATOM     23  C   UNL A   1      32.990  20.470  25.619  1.00  0.00     0.008 C 
ENDBRANCH  21  22
BRANCH  21  24
ATOM     24  O   UNL A   1      32.705  23.805  25.011  1.00  0.00    -0.479 OA
BRANCH  24  25
ATOM     25  C   UNL A   1      34.016  23.595  24.641  1.00  0.00     0.140 A 
ATOM     26  C   UNL A   1      35.009  23.788  25.607  1.00  0.00     0.068 A 
ATOM     27  C   UNL A   1      34.371  23.162  23.357  1.00  0.00     0.083 A 
ATOM     28  C   UNL A   1      36.352  23.661  25.254  1.00  0.00     0.044 A 
ATOM     29  C   UNL A   1      35.721  23.004  23.021  1.00  0.00     0.026 A 
ATOM     30  Cl  UNL A   1      33.183  22.823  22.155  1.00  0.00    -0.080 Cl
ATOM     31  Cl  UNL A   1      37.576  24.031  26.404  1.00  0.00    -0.084 Cl
ATOM     32  C   UNL A   1      36.715  23.275  23.966  1.00  0.00     0.022 A 
ENDBRANCH  24  25
ENDBRANCH  21  24
ENDBRANCH  18  21
ENDBRANCH  14  17
ENDBRANCH   7  13
ENDBRANCH   3   6
ENDBRANCH   1   2
BRANCH   1  33
ATOM     33  C   UNL A   1      32.947  31.756  27.764  1.00  0.00     0.042 C 
BRANCH  33  34
ATOM     34  C   UNL A   1      33.643  32.996  27.252  1.00  0.00     0.118 C 
BRANCH  34  35
ATOM     35  N   UNL A   1      33.056  34.215  27.808  1.00  0.00    -0.352 N 
ATOM     36  C   UNL A   1      33.248  34.787  29.042  1.00  0.00     0.251 C 
ATOM     37  H   UNL A   1      32.434  34.693  27.213  1.00  0.00     0.163 HD
ATOM     38  O   UNL A   1      32.473  35.650  29.446  1.00  0.00    -0.269 OA
BRANCH  36  39
ATOM     39  C   UNL A   1      34.381  34.333  29.876  1.00  0.00     0.039 A 
ATOM     40  C   UNL A   1      34.146  33.556  31.012  1.00  0.00     0.014 A 
ATOM     41  C   UNL A   1      35.687  34.643  29.496  1.00  0.00     0.014 A 
ATOM     42  C   UNL A   1      35.232  33.025  31.714  1.00  0.00     0.010 A 
ATOM     43  C   UNL A   1      36.750  33.994  30.100  1.00  0.00     0.010 A 
ATOM     44  C   UNL A   1      36.541  33.202  31.236  1.00  0.00    -0.014 A 
BRANCH  44  45
ATOM     45  C   UNL A   1      37.721  32.607  31.913  1.00  0.00     0.031 A 
ATOM     46  C   UNL A   1      38.454  31.463  31.259  1.00  0.00     0.074 A 
ATOM     47  C   UNL A   1      38.061  33.010  33.153  1.00  0.00     0.049 A 
ATOM     48  N   UNL A   1      39.434  30.735  31.727  1.00  0.00    -0.248 NA
ATOM     49  C   UNL A   1      37.994  31.050  29.921  1.00  0.00     0.031 C 
ATOM     50  C   UNL A   1      37.370  34.041  33.931  1.00  0.00     0.029 A 
ATOM     51  N   UNL A   1      39.061  32.581  33.990  1.00  0.00    -0.354 N 
ATOM     52  C   UNL A   1      39.664  29.753  30.771  1.00  0.00     0.074 A 
ATOM     53  C   UNL A   1      38.691  29.942  29.721  1.00  0.00     0.031 C 
ATOM     54  C   UNL A   1      37.975  34.175  35.123  1.00  0.00     0.029 A 
ATOM     55  C   UNL A   1      39.070  33.215  35.210  1.00  0.00     0.049 A 
ATOM     56  H   UNL A   1      39.710  31.885  33.739  1.00  0.00     0.167 HD
ATOM     57  C   UNL A   1      40.626  28.801  30.745  1.00  0.00     0.034 A 
ATOM     58  C   UNL A   1      39.866  33.036  36.282  1.00  0.00     0.034 A 
ATOM     59  C   UNL A   1      41.630  28.658  31.761  1.00  0.00     0.049 A 
ATOM     60  C   UNL A   1      40.968  32.014  36.206  1.00  0.00     0.074 A 
ATOM     61  C   UNL A   1      42.715  27.801  31.783  1.00  0.00     0.029 A 
ATOM     62  N   UNL A   1      41.670  29.389  32.938  1.00  0.00    -0.354 N 
ATOM     63  N   UNL A   1      41.272  31.202  35.223  1.00  0.00    -0.248 NA
ATOM     64  C   UNL A   1      41.859  31.909  37.369  1.00  0.00     0.031 C 
ATOM     65  C   UNL A   1      43.393  27.993  32.992  1.00  0.00     0.029 A 
ATOM     66  C   UNL A   1      42.753  28.996  33.702  1.00  0.00     0.049 A 
ATOM     67  H   UNL A   1      41.021  30.085  33.193  1.00  0.00     0.167 HD
ATOM     68  C   UNL A   1      42.410  30.517  35.632  1.00  0.00     0.074 A 
ATOM     69  C   UNL A   1      42.750  31.023  36.946  1.00  0.00     0.031 C 
ATOM     70  C   UNL A   1      43.104  29.548  34.986  1.00  0.00     0.034 A 
BRANCH  57  71
ATOM     71  C   UNL A   1      40.664  27.876  29.555  1.00  0.00     0.023 A 
ATOM     72  C   UNL A   1      39.827  26.741  29.520  1.00  0.00     0.012 A 
ATOM     73  C   UNL A   1      41.502  28.147  28.456  1.00  0.00     0.148 A 
ATOM     74  C   UNL A   1      39.859  25.866  28.435  1.00  0.00     0.002 A 
ATOM     75  C   UNL A   1      41.488  27.300  27.354  1.00  0.00     0.091 A 
ATOM     76  F   UNL A   1      42.308  29.218  28.514  1.00  0.00    -0.205 F 
ATOM     77  C   UNL A   1      40.680  26.151  27.349  1.00  0.00     0.022 A 
BRANCH  75  78
ATOM     78  S   UNL A   1      42.444  27.626  25.870  1.00  0.00     0.127 S 
ATOM     79  O   UNL A   1      43.812  27.456  26.356  1.00  0.00    -0.237 OA
ATOM     80  O   UNL A   1      41.981  26.569  24.970  1.00  0.00    -0.237 OA
ATOM     81  O   UNL A   1      42.091  28.976  25.452  1.00  0.00    -0.744 OA
ENDBRANCH  75  78
ENDBRANCH  57  71
BRANCH  58  82
ATOM     82  C   UNL A   1      39.692  33.893  37.490  1.00  0.00     0.023 A 
ATOM     83  C   UNL A   1      40.247  35.187  37.506  1.00  0.00     0.012 A 
ATOM     84  C   UNL A   1      38.951  33.450  38.602  1.00  0.00     0.148 A 
ATOM     85  C   UNL A   1      40.096  36.014  38.620  1.00  0.00     0.002 A 
ATOM     86  C   UNL A   1      38.754  34.299  39.685  1.00  0.00     0.091 A 
ATOM     87  F   UNL A   1      38.434  32.214  38.568  1.00  0.00    -0.205 F 
ATOM     88  C   UNL A   1      39.343  35.574  39.705  1.00  0.00     0.022 A 
BRANCH  86  89
ATOM     89  S   UNL A   1      37.688  33.872  41.067  1.00  0.00     0.127 S 
ATOM     90  O   UNL A   1      36.547  33.264  40.388  1.00  0.00    -0.237 OA
ATOM     91  O   UNL A   1      38.530  32.940  41.817  1.00  0.00    -0.237 OA
ATOM     92  O   UNL A   1      37.418  35.126  41.759  1.00  0.00    -0.744 OA
ENDBRANCH  86  89
ENDBRANCH  58  82
BRANCH  70  93
ATOM     93  C   UNL A   1      44.333  28.999  35.660  1.00  0.00     0.023 A 
ATOM     94  C   UNL A   1      45.592  29.582  35.417  1.00  0.00     0.012 A 
ATOM     95  C   UNL A   1      44.222  27.957  36.603  1.00  0.00     0.148 A 
ATOM     96  C   UNL A   1      46.727  29.112  36.077  1.00  0.00     0.002 A 
ATOM     97  C   UNL A   1      45.348  27.532  37.296  1.00  0.00     0.091 A 
ATOM     98  F   UNL A   1      43.016  27.405  36.807  1.00  0.00    -0.205 F 
ATOM     99  C   UNL A   1      46.604  28.098  37.024  1.00  0.00     0.022 A 
BRANCH  97 100
ATOM    100  S   UNL A   1      45.266  26.305  38.605  1.00  0.00     0.127 S 
ATOM    101  O   UNL A   1      46.681  26.110  38.918  1.00  0.00    -0.237 OA
ATOM    102  O   UNL A   1      44.503  27.006  39.637  1.00  0.00    -0.237 OA
ATOM    103  O   UNL A   1      44.589  25.150  38.032  1.00  0.00    -0.744 OA
ENDBRANCH  97 100
ENDBRANCH  70  93
ENDBRANCH  44  45
ENDBRANCH  36  39
ENDBRANCH  34  35
ENDBRANCH  33  34
ENDBRANCH   1  33
TORSDOF 19
ENDMDL
MODEL 3
REMARK VINA RESULT:     -11.6      5.376      9.004
REMARK SMILES CC[C@@H](Oc1cc(Cl)ccc1Cl)C(=O)NNC(=O)[C@@H]1[C@@H]2CC[C@@H](C2)[C@@H]1C(=O)NCCCNC(=O)c1ccc(-c2c3nc(c(-c4cccc(S(=O)(=O)[O-])c4F)c4ccc([nH]4)c(-c4cccc(S(=O)(=O)[O-])c4F)c4nc(c(-c5cccc(S(=O)(=O)[O-])c5F)c5ccc2[nH]5)C=C4)C=C3)cc1
REMARK SMILES IDX 29 1 28 2 26 3 27 4 25 6 19 7 20 8 21 9 24 10 23 11 22 12
REMARK SMILES IDX 17 13 16 14 18 16 15 17 13 18 14 19 3 21 2 22 1 23 4 24 5 25
REMARK SMILES IDX 6 26 11 27 7 28 10 29 12 30 8 31 9 32 30 33 31 34 32 35
REMARK SMILES IDX 33 36 34 38 35 39 36 40 97 41 37 42 96 43 38 44 39 45 40 46
REMARK SMILES IDX 90 47 41 48 95 49 89 50 91 51 42 52 94 53 88 54 87 55 43 57
REMARK SMILES IDX 75 58 55 59 74 60 56 61 59 62 73 63 92 64 57 65 58 66 72 68
REMARK SMILES IDX 93 69 60 70 44 71 45 72 53 73 46 74 48 75 54 76 47 77 49 78
REMARK SMILES IDX 50 79 51 80 52 81 76 82 77 83 85 84 78 85 80 86 86 87 79 88
REMARK SMILES IDX 81 89 82 90 83 91 84 92 61 93 62 94 70 95 63 96 65 97 71 98
REMARK SMILES IDX 64 99 66 100 67 101 68 102 69 103
REMARK H PARENT 28 5 16 15 15 20 32 37 91 56 59 67
REMARK Flexibility Score: inf
ROOT
ATOM      1  C   UNL A   1      31.563  27.842  27.453  1.00  0.00     0.117 C 
ENDROOT
BRANCH   1   2
ATOM      2  N   UNL A   1      32.585  27.086  26.765  1.00  0.00    -0.356 N 
ATOM      3  C   UNL A   1      32.766  26.796  25.453  1.00  0.00     0.224 C 
ATOM      4  O   UNL A   1      33.840  26.249  25.164  1.00  0.00    -0.275 OA
ATOM      5  H   UNL A   1      33.278  26.715  27.358  1.00  0.00     0.163 HD
BRANCH   3   6
ATOM      6  C   UNL A   1      31.726  26.996  24.343  1.00  0.00     0.094 C 
ATOM      7  C   UNL A   1      31.512  26.018  23.161  1.00  0.00     0.096 C 
ATOM      8  C   UNL A   1      31.633  26.962  21.926  1.00  0.00     0.002 C 
ATOM      9  C   UNL A   1      32.991  27.669  21.725  1.00  0.00     0.005 C 
ATOM     10  C   UNL A   1      30.827  28.168  22.460  1.00  0.00     0.009 C 
ATOM     11  C   UNL A   1      31.766  28.386  23.655  1.00  0.00     0.002 C 
ATOM     12  C   UNL A   1      33.085  28.632  22.919  1.00  0.00     0.005 C 
BRANCH   7  13
ATOM     13  C   UNL A   1      32.200  24.668  23.300  1.00  0.00     0.242 C 
ATOM     14  N   UNL A   1      31.549  23.655  23.959  1.00  0.00    -0.267 N 
ATOM     15  H   UNL A   1      31.000  22.987  23.487  1.00  0.00     0.191 HD
ATOM     16  O   UNL A   1      33.360  24.479  22.936  1.00  0.00    -0.273 OA
BRANCH  14  17
ATOM     17  N   UNL A   1      31.725  23.637  25.363  1.00  0.00    -0.264 N 
ATOM     18  C   UNL A   1      32.544  22.743  26.026  1.00  0.00     0.279 C 
ATOM     19  O   UNL A   1      32.798  22.949  27.217  1.00  0.00    -0.269 OA
ATOM     20  H   UNL A   1      31.235  24.301  25.899  1.00  0.00     0.191 HD
BRANCH  18  21
ATOM     21  C   UNL A   1      33.037  21.453  25.321  1.00  0.00     0.263 C 
BRANCH  21  22
ATOM     22  C   UNL A   1      34.407  21.051  25.907  1.00  0.00     0.052 C 
ATOM     23  C   UNL A   1      35.510  20.982  24.856  1.00  0.00     0.008 C 
ENDBRANCH  21  22
BRANCH  21  24
ATOM     24  O   UNL A   1      32.093  20.377  25.487  1.00  0.00    -0.479 OA
BRANCH  24  25
ATOM     25  C   UNL A   1      32.418  19.279  24.720  1.00  0.00     0.140 A 
ATOM     26  C   UNL A   1      32.714  18.082  25.380  1.00  0.00     0.068 A 
ATOM     27  C   UNL A   1      32.421  19.318  23.319  1.00  0.00     0.083 A 
ATOM     28  C   UNL A   1      33.122  16.968  24.646  1.00  0.00     0.044 A 
ATOM     29  C   UNL A   1      32.799  18.185  22.588  1.00  0.00     0.026 A 
ATOM     30  Cl  UNL A   1      31.979  20.741  22.453  1.00  0.00    -0.080 Cl
ATOM     31  Cl  UNL A   1      33.616  15.539  25.465  1.00  0.00    -0.084 Cl
ATOM     32  C   UNL A   1      33.171  17.014  23.255  1.00  0.00     0.022 A 
ENDBRANCH  24  25
ENDBRANCH  21  24
ENDBRANCH  18  21
ENDBRANCH  14  17
ENDBRANCH   7  13
ENDBRANCH   3   6
ENDBRANCH   1   2
BRANCH   1  33
ATOM     33  C   UNL A   1      31.528  29.304  27.066  1.00  0.00     0.042 C 
BRANCH  33  34
ATOM     34  C   UNL A   1      32.920  29.845  26.837  1.00  0.00     0.118 C 
BRANCH  34  35
ATOM     35  N   UNL A   1      32.961  31.302  26.956  1.00  0.00    -0.352 N 
ATOM     36  C   UNL A   1      33.852  32.093  27.642  1.00  0.00     0.251 C 
ATOM     37  H   UNL A   1      32.249  31.784  26.478  1.00  0.00     0.163 HD
ATOM     38  O   UNL A   1      33.582  33.271  27.862  1.00  0.00    -0.269 OA
BRANCH  36  39
ATOM     39  C   UNL A   1      35.118  31.500  28.122  1.00  0.00     0.039 A 
ATOM     40  C   UNL A   1      36.272  32.281  28.193  1.00  0.00     0.014 A 
ATOM     41  C   UNL A   1      35.141  30.173  28.549  1.00  0.00     0.014 A 
ATOM     42  C   UNL A   1      37.427  31.745  28.771  1.00  0.00     0.010 A 
ATOM     43  C   UNL A   1      36.233  29.698  29.255  1.00  0.00     0.010 A 
ATOM     44  C   UNL A   1      37.402  30.464  29.349  1.00  0.00    -0.014 A 
BRANCH  44  45
ATOM     45  C   UNL A   1      38.583  29.877  30.029  1.00  0.00     0.031 A 
ATOM     46  C   UNL A   1      38.956  30.348  31.411  1.00  0.00     0.074 A 
ATOM     47  C   UNL A   1      39.381  29.014  29.368  1.00  0.00     0.049 A 
ATOM     48  N   UNL A   1      40.004  30.046  32.132  1.00  0.00    -0.248 NA
ATOM     49  C   UNL A   1      38.057  31.327  32.050  1.00  0.00     0.031 C 
ATOM     50  C   UNL A   1      39.181  28.555  27.991  1.00  0.00     0.029 A 
ATOM     51  N   UNL A   1      40.538  28.388  29.759  1.00  0.00    -0.354 N 
ATOM     52  C   UNL A   1      39.917  30.834  33.274  1.00  0.00     0.074 A 
ATOM     53  C   UNL A   1      38.746  31.666  33.129  1.00  0.00     0.031 C 
ATOM     54  C   UNL A   1      40.170  27.711  27.659  1.00  0.00     0.029 A 
ATOM     55  C   UNL A   1      41.095  27.598  28.781  1.00  0.00     0.049 A 
ATOM     56  H   UNL A   1      40.932  28.495  30.655  1.00  0.00     0.167 HD
ATOM     57  C   UNL A   1      40.716  30.838  34.367  1.00  0.00     0.034 A 
ATOM     58  C   UNL A   1      42.231  26.871  28.786  1.00  0.00     0.034 A 
ATOM     59  C   UNL A   1      41.842  29.963  34.531  1.00  0.00     0.049 A 
ATOM     60  C   UNL A   1      43.069  26.844  30.034  1.00  0.00     0.074 A 
ATOM     61  C   UNL A   1      42.654  29.806  35.639  1.00  0.00     0.029 A 
ATOM     62  N   UNL A   1      42.317  29.099  33.557  1.00  0.00    -0.354 N 
ATOM     63  N   UNL A   1      42.881  27.475  31.168  1.00  0.00    -0.248 NA
ATOM     64  C   UNL A   1      44.256  25.977  30.019  1.00  0.00     0.031 C 
ATOM     65  C   UNL A   1      43.643  28.869  35.322  1.00  0.00     0.029 A 
ATOM     66  C   UNL A   1      43.421  28.413  34.032  1.00  0.00     0.049 A 
ATOM     67  H   UNL A   1      41.928  28.991  32.660  1.00  0.00     0.167 HD
ATOM     68  C   UNL A   1      43.901  27.054  32.013  1.00  0.00     0.074 A 
ATOM     69  C   UNL A   1      44.693  26.099  31.265  1.00  0.00     0.031 C 
ATOM     70  C   UNL A   1      44.166  27.430  33.289  1.00  0.00     0.034 A 
BRANCH  57  71
ATOM     71  C   UNL A   1      40.365  31.785  35.486  1.00  0.00     0.023 A 
ATOM     72  C   UNL A   1      41.135  32.951  35.687  1.00  0.00     0.012 A 
ATOM     73  C   UNL A   1      39.256  31.541  36.318  1.00  0.00     0.148 A 
ATOM     74  C   UNL A   1      40.835  33.831  36.726  1.00  0.00     0.002 A 
ATOM     75  C   UNL A   1      38.931  32.451  37.317  1.00  0.00     0.091 A 
ATOM     76  F   UNL A   1      38.549  30.417  36.128  1.00  0.00    -0.205 F 
ATOM     77  C   UNL A   1      39.728  33.587  37.532  1.00  0.00     0.022 A 
BRANCH  75  78
ATOM     78  S   UNL A   1      37.475  32.273  38.353  1.00  0.00     0.127 S 
ATOM     79  O   UNL A   1      37.294  30.822  38.359  1.00  0.00    -0.237 OA
ATOM     80  O   UNL A   1      37.934  32.835  39.624  1.00  0.00    -0.237 OA
ATOM     81  O   UNL A   1      36.420  33.033  37.699  1.00  0.00    -0.744 OA
ENDBRANCH  75  78
ENDBRANCH  57  71
BRANCH  58  82
ATOM     82  C   UNL A   1      42.598  26.057  27.592  1.00  0.00     0.023 A 
ATOM     83  C   UNL A   1      43.448  26.606  26.613  1.00  0.00     0.012 A 
ATOM     84  C   UNL A   1      42.142  24.733  27.441  1.00  0.00     0.148 A 
ATOM     85  C   UNL A   1      43.812  25.865  25.488  1.00  0.00     0.002 A 
ATOM     86  C   UNL A   1      42.554  23.980  26.347  1.00  0.00     0.091 A 
ATOM     87  F   UNL A   1      41.330  24.230  28.381  1.00  0.00    -0.205 F 
ATOM     88  C   UNL A   1      43.373  24.550  25.360  1.00  0.00     0.022 A 
BRANCH  86  89
ATOM     89  S   UNL A   1      42.151  22.239  26.166  1.00  0.00     0.127 S 
ATOM     90  O   UNL A   1      42.862  21.892  24.938  1.00  0.00    -0.237 OA
ATOM     91  O   UNL A   1      42.719  21.671  27.389  1.00  0.00    -0.237 OA
ATOM     92  O   UNL A   1      40.697  22.176  26.094  1.00  0.00    -0.744 OA
ENDBRANCH  86  89
ENDBRANCH  58  82
BRANCH  70  93
ATOM     93  C   UNL A   1      45.332  26.777  33.983  1.00  0.00     0.023 A 
ATOM     94  C   UNL A   1      46.599  27.392  33.965  1.00  0.00     0.012 A 
ATOM     95  C   UNL A   1      45.145  25.595  34.726  1.00  0.00     0.148 A 
ATOM     96  C   UNL A   1      47.671  26.821  34.648  1.00  0.00     0.002 A 
ATOM     97  C   UNL A   1      46.205  25.061  35.449  1.00  0.00     0.091 A 
ATOM     98  F   UNL A   1      43.935  25.017  34.717  1.00  0.00    -0.205 F 
ATOM     99  C   UNL A   1      47.472  25.664  35.399  1.00  0.00     0.022 A 
BRANCH  97 100
ATOM    100  S   UNL A   1      46.015  23.636  36.525  1.00  0.00     0.127 S 
ATOM    101  O   UNL A   1      47.368  23.483  37.057  1.00  0.00    -0.237 OA
ATOM    102  O   UNL A   1      45.028  24.111  37.494  1.00  0.00    -0.237 OA
ATOM    103  O   UNL A   1      45.553  22.548  35.674  1.00  0.00    -0.744 OA
ENDBRANCH  97 100
ENDBRANCH  70  93
ENDBRANCH  44  45
ENDBRANCH  36  39
ENDBRANCH  34  35
ENDBRANCH  33  34
ENDBRANCH   1  33
TORSDOF 19
ENDMDL
