MODEL 1
REMARK VINA RESULT:     -12.9      0.000      0.000
REMARK SMILES Cc1ccc(NC(=O)C[NH+]2CCC(C(=O)NCCCNC(=O)c3ccc(-c4c5nc(c(-c6cccc(S(=O)(=O)[O-])c6F)c6ccc([nH]6)c(-c6cccc(S(=O)(=O)[O-])c6F)c6nc(c(-c7cccc(S(=O)(=O)[O-])c7F)c7ccc4[nH]7)C=C6)C=C5)cc3)CC2)cc1Cl
REMARK SMILES IDX 18 1 17 2 16 3 14 4 15 5 13 7 10 8 11 9 87 10 12 12 86 13
REMARK SMILES IDX 9 14 7 15 6 16 8 18 5 19 1 20 2 21 3 22 89 23 4 24 88 25
REMARK SMILES IDX 90 26 19 27 20 28 21 29 22 31 23 32 24 33 85 34 25 35 84 36
REMARK SMILES IDX 26 37 27 38 28 39 78 40 29 41 83 42 77 43 79 44 30 45 82 46
REMARK SMILES IDX 76 47 75 48 31 50 63 51 43 52 62 53 44 54 47 55 61 56 80 57
REMARK SMILES IDX 45 58 46 59 60 61 81 62 48 63 32 64 33 65 41 66 34 67 36 68
REMARK SMILES IDX 42 69 35 70 37 71 38 72 39 73 40 74 64 75 65 76 73 77 66 78
REMARK SMILES IDX 68 79 74 80 67 81 69 82 70 83 71 84 72 85 49 86 50 87 58 88
REMARK SMILES IDX 51 89 53 90 59 91 52 92 54 93 55 94 56 95 57 96
REMARK H PARENT 16 6 10 11 6 17 20 30 79 49 47 60
REMARK Flexibility Score: inf
ROOT
ATOM      1  C   UNL A   1      31.897  31.623  26.844  1.00  0.00     0.042 C 
ENDROOT
BRANCH   1   2
ATOM      2  C   UNL A   1      32.340  30.246  26.389  1.00  0.00     0.117 C 
BRANCH   2   3
ATOM      3  N   UNL A   1      32.053  30.024  24.976  1.00  0.00    -0.356 N 
ATOM      4  C   UNL A   1      31.626  28.913  24.316  1.00  0.00     0.223 C 
ATOM      5  O   UNL A   1      31.479  28.983  23.094  1.00  0.00    -0.275 OA
ATOM      6  H   UNL A   1      32.192  30.813  24.402  1.00  0.00     0.163 HD
BRANCH   4   7
ATOM      7  C   UNL A   1      31.251  27.652  25.069  1.00  0.00     0.089 C 
ATOM      8  N   UNL A   1      31.141  24.742  24.843  1.00  0.00    -0.327 N 
ATOM      9  C   UNL A   1      29.898  25.487  25.034  1.00  0.00     0.263 C 
ATOM     10  C   UNL A   1      32.241  25.374  25.553  1.00  0.00     0.263 C 
ATOM     11  H   UNL A   1      31.352  24.778  23.846  1.00  0.00     0.348 HD
ATOM     12  C   UNL A   1      30.060  26.902  24.462  1.00  0.00     0.075 C 
ATOM     13  C   UNL A   1      32.514  26.825  25.258  1.00  0.00     0.075 C 
BRANCH   8  14
ATOM     14  C   UNL A   1      31.019  23.290  25.158  1.00  0.00     0.363 C 
BRANCH  14  15
ATOM     15  C   UNL A   1      31.386  22.877  26.598  1.00  0.00     0.279 C 
ATOM     16  N   UNL A   1      32.598  22.321  26.948  1.00  0.00    -0.321 N 
ATOM     17  H   UNL A   1      32.665  22.047  27.891  1.00  0.00     0.170 HD
ATOM     18  O   UNL A   1      30.606  23.111  27.531  1.00  0.00    -0.268 OA
BRANCH  16  19
ATOM     19  C   UNL A   1      33.756  22.079  26.186  1.00  0.00     0.042 A 
ATOM     20  C   UNL A   1      37.520  20.457  24.851  1.00  0.00     0.046 C 
ATOM     21  C   UNL A   1      36.202  21.109  25.169  1.00  0.00    -0.032 A 
ATOM     22  C   UNL A   1      35.020  20.369  25.016  1.00  0.00     0.007 A 
ATOM     23  C   UNL A   1      36.114  22.393  25.732  1.00  0.00     0.046 A 
ATOM     24  C   UNL A   1      33.802  20.864  25.492  1.00  0.00     0.026 A 
ATOM     25  C   UNL A   1      34.892  22.884  26.217  1.00  0.00     0.047 A 
ATOM     26  Cl  UNL A   1      37.520  23.368  25.971  1.00  0.00    -0.084 Cl
ENDBRANCH  16  19
ENDBRANCH  14  15
ENDBRANCH   8  14
ENDBRANCH   4   7
ENDBRANCH   2   3
ENDBRANCH   1   2
BRANCH   1  27
ATOM     27  C   UNL A   1      33.027  32.450  27.434  1.00  0.00     0.118 C 
BRANCH  27  28
ATOM     28  N   UNL A   1      32.649  33.841  27.659  1.00  0.00    -0.352 N 
ATOM     29  C   UNL A   1      33.129  34.735  28.586  1.00  0.00     0.251 C 
ATOM     30  H   UNL A   1      31.950  34.191  27.061  1.00  0.00     0.163 HD
ATOM     31  O   UNL A   1      32.562  35.813  28.749  1.00  0.00    -0.269 OA
BRANCH  29  32
ATOM     32  C   UNL A   1      34.305  34.377  29.405  1.00  0.00     0.039 A 
ATOM     33  C   UNL A   1      34.107  33.808  30.664  1.00  0.00     0.014 A 
ATOM     34  C   UNL A   1      35.599  34.560  28.909  1.00  0.00     0.014 A 
ATOM     35  C   UNL A   1      35.205  33.336  31.384  1.00  0.00     0.010 A 
ATOM     36  C   UNL A   1      36.679  34.000  29.582  1.00  0.00     0.010 A 
ATOM     37  C   UNL A   1      36.494  33.377  30.824  1.00  0.00    -0.014 A 
BRANCH  37  38
ATOM     38  C   UNL A   1      37.649  32.730  31.499  1.00  0.00     0.031 A 
ATOM     39  C   UNL A   1      38.356  31.570  30.853  1.00  0.00     0.074 A 
ATOM     40  C   UNL A   1      37.995  33.128  32.741  1.00  0.00     0.049 A 
ATOM     41  N   UNL A   1      39.341  30.847  31.320  1.00  0.00    -0.248 NA
ATOM     42  C   UNL A   1      37.884  31.147  29.523  1.00  0.00     0.031 C 
ATOM     43  C   UNL A   1      37.324  34.180  33.511  1.00  0.00     0.029 A 
ATOM     44  N   UNL A   1      38.972  32.672  33.590  1.00  0.00    -0.354 N 
ATOM     45  C   UNL A   1      39.581  29.867  30.364  1.00  0.00     0.074 A 
ATOM     46  C   UNL A   1      38.622  30.070  29.300  1.00  0.00     0.031 C 
ATOM     47  C   UNL A   1      37.911  34.290  34.713  1.00  0.00     0.029 A 
ATOM     48  C   UNL A   1      38.971  33.293  34.818  1.00  0.00     0.049 A 
ATOM     49  H   UNL A   1      39.616  31.969  33.343  1.00  0.00     0.167 HD
ATOM     50  C   UNL A   1      40.528  28.901  30.363  1.00  0.00     0.034 A 
ATOM     51  C   UNL A   1      39.722  33.072  35.915  1.00  0.00     0.034 A 
ATOM     52  C   UNL A   1      41.506  28.729  31.403  1.00  0.00     0.049 A 
ATOM     53  C   UNL A   1      40.787  32.011  35.867  1.00  0.00     0.074 A 
ATOM     54  C   UNL A   1      42.576  27.851  31.436  1.00  0.00     0.029 A 
ATOM     55  N   UNL A   1      41.527  29.432  32.596  1.00  0.00    -0.354 N 
ATOM     56  N   UNL A   1      41.121  31.221  34.875  1.00  0.00    -0.248 NA
ATOM     57  C   UNL A   1      41.601  31.829  37.077  1.00  0.00     0.031 C 
ATOM     58  C   UNL A   1      43.220  27.995  32.668  1.00  0.00     0.029 A 
ATOM     59  C   UNL A   1      42.574  28.988  33.386  1.00  0.00     0.049 A 
ATOM     60  H   UNL A   1      40.891  30.141  32.846  1.00  0.00     0.167 HD
ATOM     61  C   UNL A   1      42.198  30.471  35.332  1.00  0.00     0.074 A 
ATOM     62  C   UNL A   1      42.485  30.925  36.676  1.00  0.00     0.031 C 
ATOM     63  C   UNL A   1      42.877  29.480  34.704  1.00  0.00     0.034 A 
BRANCH  50  64
ATOM     64  C   UNL A   1      40.595  27.970  29.181  1.00  0.00     0.023 A 
ATOM     65  C   UNL A   1      39.657  26.925  29.063  1.00  0.00     0.012 A 
ATOM     66  C   UNL A   1      41.513  28.199  28.138  1.00  0.00     0.148 A 
ATOM     67  C   UNL A   1      39.643  26.110  27.932  1.00  0.00     0.002 A 
ATOM     68  C   UNL A   1      41.463  27.412  26.993  1.00  0.00     0.091 A 
ATOM     69  F   UNL A   1      42.407  29.187  28.280  1.00  0.00    -0.205 F 
ATOM     70  C   UNL A   1      40.535  26.362  26.893  1.00  0.00     0.022 A 
BRANCH  68  71
ATOM     71  S   UNL A   1      42.511  27.705  25.565  1.00  0.00     0.127 S 
ATOM     72  O   UNL A   1      42.247  26.515  24.757  1.00  0.00    -0.237 OA
ATOM     73  O   UNL A   1      41.951  28.945  25.027  1.00  0.00    -0.237 OA
ATOM     74  O   UNL A   1      43.870  27.818  26.075  1.00  0.00    -0.744 OA
ENDBRANCH  68  71
ENDBRANCH  50  64
BRANCH  51  75
ATOM     75  C   UNL A   1      39.515  33.885  37.148  1.00  0.00     0.023 A 
ATOM     76  C   UNL A   1      40.038  35.191  37.217  1.00  0.00     0.012 A 
ATOM     77  C   UNL A   1      38.812  33.370  38.253  1.00  0.00     0.148 A 
ATOM     78  C   UNL A   1      39.907  35.950  38.381  1.00  0.00     0.002 A 
ATOM     79  C   UNL A   1      38.630  34.153  39.387  1.00  0.00     0.091 A 
ATOM     80  F   UNL A   1      38.333  32.120  38.176  1.00  0.00    -0.205 F 
ATOM     81  C   UNL A   1      39.196  35.436  39.461  1.00  0.00     0.022 A 
BRANCH  79  82
ATOM     82  S   UNL A   1      37.613  33.619  40.766  1.00  0.00     0.127 S 
ATOM     83  O   UNL A   1      36.432  33.099  40.083  1.00  0.00    -0.237 OA
ATOM     84  O   UNL A   1      38.460  32.602  41.393  1.00  0.00    -0.237 OA
ATOM     85  O   UNL A   1      37.407  34.808  41.582  1.00  0.00    -0.744 OA
ENDBRANCH  79  82
ENDBRANCH  51  75
BRANCH  63  86
ATOM     86  C   UNL A   1      44.016  28.834  35.449  1.00  0.00     0.023 A 
ATOM     87  C   UNL A   1      45.326  29.330  35.291  1.00  0.00     0.012 A 
ATOM     88  C   UNL A   1      43.778  27.781  36.353  1.00  0.00     0.148 A 
ATOM     89  C   UNL A   1      46.387  28.762  35.995  1.00  0.00     0.002 A 
ATOM     90  C   UNL A   1      44.832  27.256  37.092  1.00  0.00     0.091 A 
ATOM     91  F   UNL A   1      42.528  27.315  36.478  1.00  0.00    -0.205 F 
ATOM     92  C   UNL A   1      46.139  27.735  36.903  1.00  0.00     0.022 A 
BRANCH  90  93
ATOM     93  S   UNL A   1      44.597  26.000  38.353  1.00  0.00     0.127 S 
ATOM     94  O   UNL A   1      43.880  24.965  37.611  1.00  0.00    -0.237 OA
ATOM     95  O   UNL A   1      45.973  25.655  38.707  1.00  0.00    -0.237 OA
ATOM     96  O   UNL A   1      43.839  26.638  39.421  1.00  0.00    -0.744 OA
ENDBRANCH  90  93
ENDBRANCH  63  86
ENDBRANCH  37  38
ENDBRANCH  29  32
ENDBRANCH  27  28
ENDBRANCH   1  27
TORSDOF 16
ENDMDL
MODEL 2
REMARK VINA RESULT:     -12.7      5.759      9.020
REMARK SMILES Cc1ccc(NC(=O)C[NH+]2CCC(C(=O)NCCCNC(=O)c3ccc(-c4c5nc(c(-c6cccc(S(=O)(=O)[O-])c6F)c6ccc([nH]6)c(-c6cccc(S(=O)(=O)[O-])c6F)c6nc(c(-c7cccc(S(=O)(=O)[O-])c7F)c7ccc4[nH]7)C=C6)C=C5)cc3)CC2)cc1Cl
REMARK SMILES IDX 18 1 17 2 16 3 14 4 15 5 13 7 10 8 11 9 87 10 12 12 86 13
REMARK SMILES IDX 9 14 7 15 6 16 8 18 5 19 1 20 2 21 3 22 89 23 4 24 88 25
REMARK SMILES IDX 90 26 19 27 20 28 21 29 22 31 23 32 24 33 85 34 25 35 84 36
REMARK SMILES IDX 26 37 27 38 28 39 78 40 29 41 83 42 77 43 79 44 30 45 82 46
REMARK SMILES IDX 76 47 75 48 31 50 63 51 43 52 62 53 44 54 47 55 61 56 80 57
REMARK SMILES IDX 45 58 46 59 60 61 81 62 48 63 32 64 33 65 41 66 34 67 36 68
REMARK SMILES IDX 42 69 35 70 37 71 38 72 39 73 40 74 64 75 65 76 73 77 66 78
REMARK SMILES IDX 68 79 74 80 67 81 69 82 70 83 71 84 72 85 49 86 50 87 58 88
REMARK SMILES IDX 51 89 53 90 59 91 52 92 54 93 55 94 56 95 57 96
REMARK H PARENT 16 6 10 11 6 17 20 30 79 49 47 60
REMARK Flexibility Score: inf
ROOT
ATOM      1  C   UNL A   1      36.205  21.362  24.731  1.00  0.00     0.042 C 
ENDROOT
BRANCH   1   2
ATOM      2  C   UNL A   1      35.011  21.548  25.648  1.00  0.00     0.117 C 
BRANCH   2   3
ATOM      3  N   UNL A   1      34.249  20.313  25.801  1.00  0.00    -0.356 N 
ATOM      4  C   UNL A   1      32.955  20.020  25.494  1.00  0.00     0.223 C 
ATOM      5  O   UNL A   1      32.541  18.888  25.748  1.00  0.00    -0.275 OA
ATOM      6  H   UNL A   1      34.757  19.566  26.192  1.00  0.00     0.163 HD
BRANCH   4   7
ATOM      7  C   UNL A   1      32.075  21.024  24.776  1.00  0.00     0.089 C 
ATOM      8  N   UNL A   1      32.107  23.616  23.431  1.00  0.00    -0.327 N 
ATOM      9  C   UNL A   1      31.307  23.455  24.644  1.00  0.00     0.263 C 
ATOM     10  C   UNL A   1      32.118  22.392  22.648  1.00  0.00     0.263 C 
ATOM     11  H   UNL A   1      33.063  23.800  23.736  1.00  0.00     0.348 HD
ATOM     12  C   UNL A   1      31.925  22.356  25.519  1.00  0.00     0.075 C 
ATOM     13  C   UNL A   1      32.563  21.131  23.338  1.00  0.00     0.075 C 
BRANCH   8  14
ATOM     14  C   UNL A   1      31.726  24.809  22.621  1.00  0.00     0.363 C 
BRANCH  14  15
ATOM     15  C   UNL A   1      32.888  25.573  21.956  1.00  0.00     0.279 C 
ATOM     16  N   UNL A   1      33.514  26.660  22.529  1.00  0.00    -0.321 N 
ATOM     17  H   UNL A   1      34.193  27.087  21.959  1.00  0.00     0.170 HD
ATOM     18  O   UNL A   1      33.362  25.175  20.884  1.00  0.00    -0.268 OA
BRANCH  16  19
ATOM     19  C   UNL A   1      33.347  27.262  23.790  1.00  0.00     0.042 A 
ATOM     20  C   UNL A   1      31.812  28.228  27.700  1.00  0.00     0.046 C 
ATOM     21  C   UNL A   1      32.476  27.998  26.370  1.00  0.00    -0.032 A 
ATOM     22  C   UNL A   1      33.229  26.831  26.176  1.00  0.00     0.007 A 
ATOM     23  C   UNL A   1      32.271  28.848  25.270  1.00  0.00     0.046 A 
ATOM     24  C   UNL A   1      33.688  26.482  24.902  1.00  0.00     0.026 A 
ATOM     25  C   UNL A   1      32.725  28.492  23.991  1.00  0.00     0.047 A 
ATOM     26  Cl  UNL A   1      31.344  30.299  25.414  1.00  0.00    -0.084 Cl
ENDBRANCH  16  19
ENDBRANCH  14  15
ENDBRANCH   8  14
ENDBRANCH   4   7
ENDBRANCH   2   3
ENDBRANCH   1   2
BRANCH   1  27
ATOM     27  C   UNL A   1      37.461  22.048  25.239  1.00  0.00     0.118 C 
BRANCH  27  28
ATOM     28  N   UNL A   1      38.499  21.102  25.637  1.00  0.00    -0.352 N 
ATOM     29  C   UNL A   1      39.703  21.338  26.254  1.00  0.00     0.251 C 
ATOM     30  H   UNL A   1      38.308  20.158  25.434  1.00  0.00     0.163 HD
ATOM     31  O   UNL A   1      40.532  20.435  26.348  1.00  0.00    -0.269 OA
BRANCH  29  32
ATOM     32  C   UNL A   1      40.006  22.688  26.772  1.00  0.00     0.039 A 
ATOM     33  C   UNL A   1      40.889  22.820  27.845  1.00  0.00     0.014 A 
ATOM     34  C   UNL A   1      39.457  23.822  26.168  1.00  0.00     0.014 A 
ATOM     35  C   UNL A   1      41.293  24.093  28.249  1.00  0.00     0.010 A 
ATOM     36  C   UNL A   1      39.936  25.082  26.506  1.00  0.00     0.010 A 
ATOM     37  C   UNL A   1      40.863  25.232  27.547  1.00  0.00    -0.014 A 
BRANCH  37  38
ATOM     38  C   UNL A   1      41.411  26.578  27.852  1.00  0.00     0.031 A 
ATOM     39  C   UNL A   1      42.845  26.907  27.536  1.00  0.00     0.074 A 
ATOM     40  C   UNL A   1      40.640  27.471  28.507  1.00  0.00     0.049 A 
ATOM     41  N   UNL A   1      43.508  28.007  27.784  1.00  0.00    -0.248 NA
ATOM     42  C   UNL A   1      43.648  25.861  26.878  1.00  0.00     0.031 C 
ATOM     43  C   UNL A   1      39.262  27.236  28.951  1.00  0.00     0.029 A 
ATOM     44  N   UNL A   1      40.913  28.744  28.944  1.00  0.00    -0.354 N 
ATOM     45  C   UNL A   1      44.807  27.774  27.351  1.00  0.00     0.074 A 
ATOM     46  C   UNL A   1      44.849  26.419  26.846  1.00  0.00     0.031 C 
ATOM     47  C   UNL A   1      38.813  28.326  29.593  1.00  0.00     0.029 A 
ATOM     48  C   UNL A   1      39.878  29.322  29.643  1.00  0.00     0.049 A 
ATOM     49  H   UNL A   1      41.768  29.200  28.772  1.00  0.00     0.167 HD
ATOM     50  C   UNL A   1      45.864  28.620  27.354  1.00  0.00     0.034 A 
ATOM     51  C   UNL A   1      39.800  30.510  30.273  1.00  0.00     0.034 A 
ATOM     52  C   UNL A   1      45.808  29.979  27.818  1.00  0.00     0.049 A 
ATOM     53  C   UNL A   1      40.983  31.438  30.228  1.00  0.00     0.074 A 
ATOM     54  C   UNL A   1      46.795  30.947  27.755  1.00  0.00     0.029 A 
ATOM     55  N   UNL A   1      44.717  30.559  28.444  1.00  0.00    -0.354 N 
ATOM     56  N   UNL A   1      42.144  31.268  29.642  1.00  0.00    -0.248 NA
ATOM     57  C   UNL A   1      40.837  32.736  30.902  1.00  0.00     0.031 C 
ATOM     58  C   UNL A   1      46.315  32.101  28.381  1.00  0.00     0.029 A 
ATOM     59  C   UNL A   1      45.015  31.863  28.800  1.00  0.00     0.049 A 
ATOM     60  H   UNL A   1      43.857  30.109  28.613  1.00  0.00     0.167 HD
ATOM     61  C   UNL A   1      42.853  32.444  29.855  1.00  0.00     0.074 A 
ATOM     62  C   UNL A   1      41.980  33.333  30.591  1.00  0.00     0.031 C 
ATOM     63  C   UNL A   1      44.122  32.754  29.491  1.00  0.00     0.034 A 
BRANCH  50  64
ATOM     64  C   UNL A   1      47.173  28.126  26.796  1.00  0.00     0.023 A 
ATOM     65  C   UNL A   1      48.165  27.642  27.672  1.00  0.00     0.012 A 
ATOM     66  C   UNL A   1      47.374  28.039  25.405  1.00  0.00     0.148 A 
ATOM     67  C   UNL A   1      49.346  27.095  27.172  1.00  0.00     0.002 A 
ATOM     68  C   UNL A   1      48.534  27.451  24.914  1.00  0.00     0.091 A 
ATOM     69  F   UNL A   1      46.424  28.521  24.592  1.00  0.00    -0.205 F 
ATOM     70  C   UNL A   1      49.524  26.987  25.796  1.00  0.00     0.022 A 
BRANCH  68  71
ATOM     71  S   UNL A   1      48.823  27.187  23.162  1.00  0.00     0.127 S 
ATOM     72  O   UNL A   1      50.284  27.208  23.097  1.00  0.00    -0.237 OA
ATOM     73  O   UNL A   1      48.221  25.870  22.949  1.00  0.00    -0.237 OA
ATOM     74  O   UNL A   1      48.157  28.283  22.471  1.00  0.00    -0.744 OA
ENDBRANCH  68  71
ENDBRANCH  50  64
BRANCH  51  75
ATOM     75  C   UNL A   1      38.550  30.907  30.983  1.00  0.00     0.023 A 
ATOM     76  C   UNL A   1      38.403  30.612  32.353  1.00  0.00     0.012 A 
ATOM     77  C   UNL A   1      37.504  31.565  30.309  1.00  0.00     0.148 A 
ATOM     78  C   UNL A   1      37.220  30.922  33.025  1.00  0.00     0.002 A 
ATOM     79  C   UNL A   1      36.353  31.927  30.998  1.00  0.00     0.091 A 
ATOM     80  F   UNL A   1      37.654  31.826  29.002  1.00  0.00    -0.205 F 
ATOM     81  C   UNL A   1      36.199  31.586  32.352  1.00  0.00     0.022 A 
BRANCH  79  82
ATOM     82  S   UNL A   1      35.051  32.904  30.241  1.00  0.00     0.127 S 
ATOM     83  O   UNL A   1      35.796  34.052  29.733  1.00  0.00    -0.237 OA
ATOM     84  O   UNL A   1      34.546  31.992  29.213  1.00  0.00    -0.237 OA
ATOM     85  O   UNL A   1      34.101  33.182  31.310  1.00  0.00    -0.744 OA
ENDBRANCH  79  82
ENDBRANCH  51  75
BRANCH  63  86
ATOM     86  C   UNL A   1      44.639  34.120  29.859  1.00  0.00     0.023 A 
ATOM     87  C   UNL A   1      45.371  34.294  31.050  1.00  0.00     0.012 A 
ATOM     88  C   UNL A   1      44.457  35.215  28.992  1.00  0.00     0.148 A 
ATOM     89  C   UNL A   1      45.883  35.545  31.391  1.00  0.00     0.002 A 
ATOM     90  C   UNL A   1      45.015  36.447  29.312  1.00  0.00     0.091 A 
ATOM     91  F   UNL A   1      43.745  35.032  27.871  1.00  0.00    -0.205 F 
ATOM     92  C   UNL A   1      45.715  36.618  30.517  1.00  0.00     0.022 A 
BRANCH  90  93
ATOM     93  S   UNL A   1      44.936  37.860  28.206  1.00  0.00     0.127 S 
ATOM     94  O   UNL A   1      45.496  37.305  26.975  1.00  0.00    -0.237 OA
ATOM     95  O   UNL A   1      43.500  38.133  28.155  1.00  0.00    -0.237 OA
ATOM     96  O   UNL A   1      45.729  38.908  28.833  1.00  0.00    -0.744 OA
ENDBRANCH  90  93
ENDBRANCH  63  86
ENDBRANCH  37  38
ENDBRANCH  29  32
ENDBRANCH  27  28
ENDBRANCH   1  27
TORSDOF 16
ENDMDL
MODEL 3
REMARK VINA RESULT:     -12.6      5.748     11.076
REMARK SMILES Cc1ccc(NC(=O)C[NH+]2CCC(C(=O)NCCCNC(=O)c3ccc(-c4c5nc(c(-c6cccc(S(=O)(=O)[O-])c6F)c6ccc([nH]6)c(-c6cccc(S(=O)(=O)[O-])c6F)c6nc(c(-c7cccc(S(=O)(=O)[O-])c7F)c7ccc4[nH]7)C=C6)C=C5)cc3)CC2)cc1Cl
REMARK SMILES IDX 18 1 17 2 16 3 14 4 15 5 13 7 10 8 11 9 87 10 12 12 86 13
REMARK SMILES IDX 9 14 7 15 6 16 8 18 5 19 1 20 2 21 3 22 89 23 4 24 88 25
REMARK SMILES IDX 90 26 19 27 20 28 21 29 22 31 23 32 24 33 85 34 25 35 84 36
REMARK SMILES IDX 26 37 27 38 28 39 78 40 29 41 83 42 77 43 79 44 30 45 82 46
REMARK SMILES IDX 76 47 75 48 31 50 63 51 43 52 62 53 44 54 47 55 61 56 80 57
REMARK SMILES IDX 45 58 46 59 60 61 81 62 48 63 32 64 33 65 41 66 34 67 36 68
REMARK SMILES IDX 42 69 35 70 37 71 38 72 39 73 40 74 64 75 65 76 73 77 66 78
REMARK SMILES IDX 68 79 74 80 67 81 69 82 70 83 71 84 72 85 49 86 50 87 58 88
REMARK SMILES IDX 51 89 53 90 59 91 52 92 54 93 55 94 56 95 57 96
REMARK H PARENT 16 6 10 11 6 17 20 30 79 49 47 60
REMARK Flexibility Score: inf
ROOT
ATOM      1  C   UNL A   1      35.853  21.301  24.623  1.00  0.00     0.042 C 
ENDROOT
BRANCH   1   2
ATOM      2  C   UNL A   1      34.862  21.271  25.770  1.00  0.00     0.117 C 
BRANCH   2   3
ATOM      3  N   UNL A   1      34.093  20.032  25.790  1.00  0.00    -0.356 N 
ATOM      4  C   UNL A   1      32.813  19.770  25.409  1.00  0.00     0.223 C 
ATOM      5  O   UNL A   1      32.387  18.622  25.552  1.00  0.00    -0.275 OA
ATOM      6  H   UNL A   1      34.584  19.252  26.138  1.00  0.00     0.163 HD
BRANCH   4   7
ATOM      7  C   UNL A   1      31.963  20.833  24.741  1.00  0.00     0.089 C 
ATOM      8  N   UNL A   1      32.050  23.528  23.618  1.00  0.00    -0.327 N 
ATOM      9  C   UNL A   1      31.202  23.270  24.780  1.00  0.00     0.263 C 
ATOM     10  C   UNL A   1      32.092  22.372  22.737  1.00  0.00     0.263 C 
ATOM     11  H   UNL A   1      32.994  23.682  23.975  1.00  0.00     0.348 HD
ATOM     12  C   UNL A   1      31.783  22.100  25.585  1.00  0.00     0.075 C 
ATOM     13  C   UNL A   1      32.509  21.056  23.338  1.00  0.00     0.075 C 
BRANCH   8  14
ATOM     14  C   UNL A   1      31.703  24.784  22.894  1.00  0.00     0.363 C 
BRANCH  14  15
ATOM     15  C   UNL A   1      32.891  25.596  22.341  1.00  0.00     0.279 C 
ATOM     16  N   UNL A   1      33.285  26.817  22.848  1.00  0.00    -0.321 N 
ATOM     17  H   UNL A   1      34.016  27.249  22.350  1.00  0.00     0.170 HD
ATOM     18  O   UNL A   1      33.602  25.126  21.443  1.00  0.00    -0.268 OA
BRANCH  16  19
ATOM     19  C   UNL A   1      32.817  27.550  23.954  1.00  0.00     0.042 A 
ATOM     20  C   UNL A   1      31.900  30.811  26.618  1.00  0.00     0.046 C 
ATOM     21  C   UNL A   1      32.131  29.574  25.795  1.00  0.00    -0.032 A 
ATOM     22  C   UNL A   1      31.367  29.373  24.636  1.00  0.00     0.007 A 
ATOM     23  C   UNL A   1      33.168  28.668  26.073  1.00  0.00     0.046 A 
ATOM     24  C   UNL A   1      31.688  28.350  23.739  1.00  0.00     0.026 A 
ATOM     25  C   UNL A   1      33.494  27.647  25.167  1.00  0.00     0.047 A 
ATOM     26  Cl  UNL A   1      34.168  28.847  27.471  1.00  0.00    -0.084 Cl
ENDBRANCH  16  19
ENDBRANCH  14  15
ENDBRANCH   8  14
ENDBRANCH   4   7
ENDBRANCH   2   3
ENDBRANCH   1   2
BRANCH   1  27
ATOM     27  C   UNL A   1      37.218  21.831  25.026  1.00  0.00     0.118 C 
BRANCH  27  28
ATOM     28  N   UNL A   1      38.130  20.774  25.453  1.00  0.00    -0.352 N 
ATOM     29  C   UNL A   1      39.327  20.874  26.121  1.00  0.00     0.251 C 
ATOM     30  H   UNL A   1      37.848  19.858  25.230  1.00  0.00     0.163 HD
ATOM     31  O   UNL A   1      40.048  19.885  26.237  1.00  0.00    -0.269 OA
BRANCH  29  32
ATOM     32  C   UNL A   1      39.752  22.178  26.668  1.00  0.00     0.039 A 
ATOM     33  C   UNL A   1      40.780  22.215  27.612  1.00  0.00     0.014 A 
ATOM     34  C   UNL A   1      39.169  23.364  26.213  1.00  0.00     0.014 A 
ATOM     35  C   UNL A   1      41.285  23.447  28.028  1.00  0.00     0.010 A 
ATOM     36  C   UNL A   1      39.741  24.586  26.553  1.00  0.00     0.010 A 
ATOM     37  C   UNL A   1      40.808  24.641  27.460  1.00  0.00    -0.014 A 
BRANCH  37  38
ATOM     38  C   UNL A   1      41.446  25.948  27.762  1.00  0.00     0.031 A 
ATOM     39  C   UNL A   1      40.707  26.991  28.555  1.00  0.00     0.074 A 
ATOM     40  C   UNL A   1      42.656  26.229  27.235  1.00  0.00     0.049 A 
ATOM     41  N   UNL A   1      41.082  28.206  28.862  1.00  0.00    -0.248 NA
ATOM     42  C   UNL A   1      39.363  26.640  29.045  1.00  0.00     0.031 C 
ATOM     43  C   UNL A   1      43.433  25.333  26.372  1.00  0.00     0.029 A 
ATOM     44  N   UNL A   1      43.431  27.359  27.317  1.00  0.00    -0.354 N 
ATOM     45  C   UNL A   1      40.013  28.773  29.546  1.00  0.00     0.074 A 
ATOM     46  C   UNL A   1      38.962  27.781  29.588  1.00  0.00     0.031 C 
ATOM     47  C   UNL A   1      44.570  25.946  26.008  1.00  0.00     0.029 A 
ATOM     48  C   UNL A   1      44.589  27.290  26.576  1.00  0.00     0.049 A 
ATOM     49  H   UNL A   1      43.183  28.143  27.857  1.00  0.00     0.167 HD
ATOM     50  C   UNL A   1      39.925  30.001  30.107  1.00  0.00     0.034 A 
ATOM     51  C   UNL A   1      45.548  28.211  26.359  1.00  0.00     0.034 A 
ATOM     52  C   UNL A   1      40.988  30.970  30.100  1.00  0.00     0.049 A 
ATOM     53  C   UNL A   1      45.432  29.555  27.024  1.00  0.00     0.074 A 
ATOM     54  C   UNL A   1      41.033  32.197  30.739  1.00  0.00     0.029 A 
ATOM     55  N   UNL A   1      42.181  30.833  29.409  1.00  0.00    -0.354 N 
ATOM     56  N   UNL A   1      44.496  30.001  27.826  1.00  0.00    -0.248 NA
ATOM     57  C   UNL A   1      46.519  30.513  26.782  1.00  0.00     0.031 C 
ATOM     58  C   UNL A   1      42.237  32.820  30.402  1.00  0.00     0.029 A 
ATOM     59  C   UNL A   1      42.958  31.965  29.583  1.00  0.00     0.049 A 
ATOM     60  H   UNL A   1      42.437  30.048  28.874  1.00  0.00     0.167 HD
ATOM     61  C   UNL A   1      44.895  31.277  28.204  1.00  0.00     0.074 A 
ATOM     62  C   UNL A   1      46.174  31.520  27.573  1.00  0.00     0.031 C 
ATOM     63  C   UNL A   1      44.251  32.177  28.987  1.00  0.00     0.034 A 
BRANCH  50  64
ATOM     64  C   UNL A   1      38.652  30.367  30.823  1.00  0.00     0.023 A 
ATOM     65  C   UNL A   1      38.514  30.073  32.194  1.00  0.00     0.012 A 
ATOM     66  C   UNL A   1      37.642  31.097  30.165  1.00  0.00     0.148 A 
ATOM     67  C   UNL A   1      37.382  30.485  32.896  1.00  0.00     0.002 A 
ATOM     68  C   UNL A   1      36.539  31.544  30.882  1.00  0.00     0.091 A 
ATOM     69  F   UNL A   1      37.787  31.349  28.857  1.00  0.00    -0.205 F 
ATOM     70  C   UNL A   1      36.404  31.231  32.245  1.00  0.00     0.022 A 
BRANCH  68  71
ATOM     71  S   UNL A   1      35.264  32.581  30.159  1.00  0.00     0.127 S 
ATOM     72  O   UNL A   1      34.336  32.732  31.279  1.00  0.00    -0.237 OA
ATOM     73  O   UNL A   1      36.013  33.791  29.819  1.00  0.00    -0.237 OA
ATOM     74  O   UNL A   1      34.742  31.844  29.017  1.00  0.00    -0.744 OA
ENDBRANCH  68  71
ENDBRANCH  50  64
BRANCH  51  75
ATOM     75  C   UNL A   1      46.717  27.891  25.490  1.00  0.00     0.023 A 
ATOM     76  C   UNL A   1      46.619  28.070  24.096  1.00  0.00     0.012 A 
ATOM     77  C   UNL A   1      47.921  27.404  26.034  1.00  0.00     0.148 A 
ATOM     78  C   UNL A   1      47.679  27.723  23.257  1.00  0.00     0.002 A 
ATOM     79  C   UNL A   1      48.995  27.120  25.200  1.00  0.00     0.091 A 
ATOM     80  F   UNL A   1      47.992  27.227  27.362  1.00  0.00    -0.205 F 
ATOM     81  C   UNL A   1      48.869  27.258  23.809  1.00  0.00     0.022 A 
BRANCH  79  82
ATOM     82  S   UNL A   1      50.605  26.647  25.840  1.00  0.00     0.127 S 
ATOM     83  O   UNL A   1      51.380  26.491  24.613  1.00  0.00    -0.237 OA
ATOM     84  O   UNL A   1      50.963  27.811  26.652  1.00  0.00    -0.237 OA
ATOM     85  O   UNL A   1      50.376  25.431  26.609  1.00  0.00    -0.744 OA
ENDBRANCH  79  82
ENDBRANCH  51  75
BRANCH  63  86
ATOM     86  C   UNL A   1      44.927  33.501  29.231  1.00  0.00     0.023 A 
ATOM     87  C   UNL A   1      45.775  33.658  30.345  1.00  0.00     0.012 A 
ATOM     88  C   UNL A   1      44.775  34.564  28.321  1.00  0.00     0.148 A 
ATOM     89  C   UNL A   1      46.433  34.867  30.570  1.00  0.00     0.002 A 
ATOM     90  C   UNL A   1      45.475  35.748  28.522  1.00  0.00     0.091 A 
ATOM     91  F   UNL A   1      43.953  34.399  27.275  1.00  0.00    -0.205 F 
ATOM     92  C   UNL A   1      46.292  35.906  29.653  1.00  0.00     0.022 A 
BRANCH  90  93
ATOM     93  S   UNL A   1      45.435  37.106  27.347  1.00  0.00     0.127 S 
ATOM     94  O   UNL A   1      44.001  37.233  27.090  1.00  0.00    -0.237 OA
ATOM     95  O   UNL A   1      46.016  38.202  28.121  1.00  0.00    -0.237 OA
ATOM     96  O   UNL A   1      46.235  36.678  26.208  1.00  0.00    -0.744 OA
ENDBRANCH  90  93
ENDBRANCH  63  86
ENDBRANCH  37  38
ENDBRANCH  29  32
ENDBRANCH  27  28
ENDBRANCH   1  27
TORSDOF 16
ENDMDL
