MODEL 1
REMARK VINA RESULT:     -13.7      0.000      0.000
REMARK SMILES CC(C)Oc1ccc(/C=C(\NC(=O)c2ccccc2)C(=O)NCCCNC(=O)c2ccc(-c3c4nc(c(-c5cccc(S(=O)(=O)[O-])c5F)c5ccc([nH]5)c(-c5cccc(S(=O)(=O)[O-])c5F)c5nc(c(-c6cccc(S(=O)(=O)[O-])c6F)c6ccc3[nH]6)C=C5)C=C4)cc2)cc1
REMARK SMILES IDX 24 1 23 2 22 3 20 4 21 5 10 7 9 8 8 9 5 10 6 11 93 12 7 13
REMARK SMILES IDX 92 14 4 15 2 16 1 17 3 18 11 19 12 20 13 22 14 23 15 24
REMARK SMILES IDX 19 25 16 26 18 27 17 28 25 29 26 30 27 31 28 33 29 34 30 35
REMARK SMILES IDX 91 36 31 37 90 38 32 39 33 40 34 41 84 42 35 43 89 44 83 45
REMARK SMILES IDX 85 46 36 47 88 48 82 49 81 50 37 52 69 53 49 54 68 55 50 56
REMARK SMILES IDX 53 57 67 58 86 59 51 60 52 61 66 63 87 64 54 65 38 66 39 67
REMARK SMILES IDX 47 68 40 69 42 70 48 71 41 72 43 73 44 74 45 75 46 76 70 77
REMARK SMILES IDX 71 78 79 79 72 80 74 81 80 82 73 83 75 84 76 85 77 86 78 87
REMARK SMILES IDX 55 88 56 89 64 90 57 91 59 92 65 93 58 94 60 95 61 96 62 97
REMARK SMILES IDX 63 98
REMARK H PARENT 22 6 11 21 26 32 85 51 53 62
REMARK Flexibility Score: inf
ROOT
ATOM      1  C   UNL A   1      31.862  32.012  27.053  1.00  0.00     0.042 C 
ENDROOT
BRANCH   1   2
ATOM      2  C   UNL A   1      32.413  30.407  26.668  1.00  0.00     0.118 C 
BRANCH   2   3
ATOM      3  N   UNL A   1      33.381  29.640  24.984  1.00  0.00    -0.351 N 
ATOM      4  C   UNL A   1      33.740  28.583  24.095  1.00  0.00     0.267 C 
ATOM      5  O   UNL A   1      34.302  28.959  23.054  1.00  0.00    -0.268 OA
ATOM      6  H   UNL A   1      33.827  30.427  24.597  1.00  0.00     0.163 HD
BRANCH   4   7
ATOM      7  C   UNL A   1      33.510  27.072  24.275  1.00  0.00     0.107 C 
ATOM      8  C   UNL A   1      33.413  26.595  25.534  1.00  0.00     0.040 C 
BRANCH   8   9
ATOM      9  C   UNL A   1      33.385  25.151  25.853  1.00  0.00    -0.023 A 
ATOM     10  C   UNL A   1      33.291  22.364  26.251  1.00  0.00     0.119 A 
ATOM     11  C   UNL A   1      34.500  22.985  25.958  1.00  0.00     0.047 A 
ATOM     12  C   UNL A   1      32.153  23.148  26.440  1.00  0.00     0.047 A 
ATOM     13  C   UNL A   1      34.551  24.368  25.794  1.00  0.00     0.012 A 
ATOM     14  C   UNL A   1      32.193  24.534  26.225  1.00  0.00     0.012 A 
BRANCH  10  15
ATOM     15  O   UNL A   1      33.355  21.018  26.450  1.00  0.00    -0.491 OA
BRANCH  15  16
ATOM     16  C   UNL A   1      33.415  20.132  25.322  1.00  0.00     0.167 C 
ATOM     17  C   UNL A   1      32.459  20.528  24.203  1.00  0.00     0.052 C 
ATOM     18  C   UNL A   1      34.826  19.825  24.824  1.00  0.00     0.052 C 
ENDBRANCH  15  16
ENDBRANCH  10  15
ENDBRANCH   8   9
BRANCH   7  19
ATOM     19  N   UNL A   1      33.424  26.193  23.214  1.00  0.00    -0.317 N 
ATOM     20  C   UNL A   1      32.321  26.002  22.460  1.00  0.00     0.255 C 
ATOM     21  H   UNL A   1      34.226  25.666  22.991  1.00  0.00     0.170 HD
ATOM     22  O   UNL A   1      32.249  25.352  21.435  1.00  0.00    -0.269 OA
BRANCH  20  23
ATOM     23  C   UNL A   1      31.217  26.740  23.002  1.00  0.00     0.040 A 
ATOM     24  C   UNL A   1      30.896  28.364  22.228  1.00  0.00     0.014 A 
ATOM     25  C   UNL A   1      29.889  25.852  23.884  1.00  0.00     0.014 A 
ATOM     26  C   UNL A   1      29.270  29.117  22.390  1.00  0.00     0.001 A 
ATOM     27  C   UNL A   1      28.244  26.615  23.983  1.00  0.00     0.001 A 
ATOM     28  C   UNL A   1      27.947  28.247  23.284  1.00  0.00     0.000 A 
ENDBRANCH  20  23
ENDBRANCH   7  19
ENDBRANCH   4   7
ENDBRANCH   2   3
ENDBRANCH   1   2
BRANCH   1  29
ATOM     29  C   UNL A   1      33.007  32.868  27.569  1.00  0.00     0.118 C 
BRANCH  29  30
ATOM     30  N   UNL A   1      32.605  34.237  27.834  1.00  0.00    -0.352 N 
ATOM     31  C   UNL A   1      33.248  35.126  28.655  1.00  0.00     0.251 C 
ATOM     32  H   UNL A   1      31.792  34.558  27.380  1.00  0.00     0.163 HD
ATOM     33  O   UNL A   1      32.859  36.279  28.790  1.00  0.00    -0.269 OA
BRANCH  31  34
ATOM     34  C   UNL A   1      34.365  34.599  29.452  1.00  0.00     0.039 A 
ATOM     35  C   UNL A   1      34.037  33.896  30.611  1.00  0.00     0.014 A 
ATOM     36  C   UNL A   1      35.678  34.650  28.974  1.00  0.00     0.014 A 
ATOM     37  C   UNL A   1      35.036  33.216  31.293  1.00  0.00     0.010 A 
ATOM     38  C   UNL A   1      36.660  33.906  29.619  1.00  0.00     0.010 A 
ATOM     39  C   UNL A   1      36.348  33.200  30.793  1.00  0.00    -0.014 A 
BRANCH  39  40
ATOM     40  C   UNL A   1      37.397  32.477  31.543  1.00  0.00     0.031 A 
ATOM     41  C   UNL A   1      38.136  31.356  30.874  1.00  0.00     0.074 A 
ATOM     42  C   UNL A   1      37.694  32.850  32.802  1.00  0.00     0.049 A 
ATOM     43  N   UNL A   1      39.161  30.673  31.308  1.00  0.00    -0.248 NA
ATOM     44  C   UNL A   1      37.652  30.936  29.549  1.00  0.00     0.031 C 
ATOM     45  C   UNL A   1      37.001  33.896  33.559  1.00  0.00     0.029 A 
ATOM     46  N   UNL A   1      38.659  32.402  33.665  1.00  0.00    -0.354 N 
ATOM     47  C   UNL A   1      39.423  29.726  30.328  1.00  0.00     0.074 A 
ATOM     48  C   UNL A   1      38.430  29.896  29.293  1.00  0.00     0.031 C 
ATOM     49  C   UNL A   1      37.587  34.031  34.760  1.00  0.00     0.029 A 
ATOM     50  C   UNL A   1      38.677  33.069  34.868  1.00  0.00     0.049 A 
ATOM     51  H   UNL A   1      39.282  31.671  33.445  1.00  0.00     0.167 HD
ATOM     52  C   UNL A   1      40.419  28.811  30.283  1.00  0.00     0.034 A 
ATOM     53  C   UNL A   1      39.493  32.921  35.931  1.00  0.00     0.034 A 
ATOM     54  C   UNL A   1      41.415  28.675  31.310  1.00  0.00     0.049 A 
ATOM     55  C   UNL A   1      40.605  31.910  35.847  1.00  0.00     0.074 A 
ATOM     56  C   UNL A   1      42.514  27.838  31.336  1.00  0.00     0.029 A 
ATOM     57  N   UNL A   1      41.416  29.381  32.503  1.00  0.00    -0.354 N 
ATOM     58  N   UNL A   1      40.934  31.127  34.847  1.00  0.00    -0.248 NA
ATOM     59  C   UNL A   1      41.478  31.785  37.021  1.00  0.00     0.031 C 
ATOM     60  C   UNL A   1      43.155  28.005  32.568  1.00  0.00     0.029 A 
ATOM     61  C   UNL A   1      42.483  28.983  33.287  1.00  0.00     0.049 A 
ATOM     62  H   UNL A   1      40.756  30.066  32.755  1.00  0.00     0.167 HD
ATOM     63  C   UNL A   1      42.075  30.446  35.255  1.00  0.00     0.074 A 
ATOM     64  C   UNL A   1      42.387  30.923  36.588  1.00  0.00     0.031 C 
ATOM     65  C   UNL A   1      42.794  29.505  34.594  1.00  0.00     0.034 A 
BRANCH  52  66
ATOM     66  C   UNL A   1      40.473  27.900  29.085  1.00  0.00     0.023 A 
ATOM     67  C   UNL A   1      39.581  26.813  28.977  1.00  0.00     0.012 A 
ATOM     68  C   UNL A   1      41.407  28.131  28.056  1.00  0.00     0.148 A 
ATOM     69  C   UNL A   1      39.650  25.942  27.891  1.00  0.00     0.002 A 
ATOM     70  C   UNL A   1      41.434  27.288  26.950  1.00  0.00     0.091 A 
ATOM     71  F   UNL A   1      42.265  29.152  28.186  1.00  0.00    -0.205 F 
ATOM     72  C   UNL A   1      40.569  26.184  26.875  1.00  0.00     0.022 A 
BRANCH  70  73
ATOM     73  S   UNL A   1      42.527  27.564  25.553  1.00  0.00     0.127 S 
ATOM     74  O   UNL A   1      42.271  26.375  24.740  1.00  0.00    -0.237 OA
ATOM     75  O   UNL A   1      42.001  28.809  24.995  1.00  0.00    -0.237 OA
ATOM     76  O   UNL A   1      43.870  27.665  26.106  1.00  0.00    -0.744 OA
ENDBRANCH  70  73
ENDBRANCH  52  66
BRANCH  53  77
ATOM     77  C   UNL A   1      39.337  33.800  37.126  1.00  0.00     0.023 A 
ATOM     78  C   UNL A   1      39.795  35.131  37.075  1.00  0.00     0.012 A 
ATOM     79  C   UNL A   1      38.718  33.333  38.302  1.00  0.00     0.148 A 
ATOM     80  C   UNL A   1      39.670  35.972  38.182  1.00  0.00     0.002 A 
ATOM     81  C   UNL A   1      38.548  34.191  39.383  1.00  0.00     0.091 A 
ATOM     82  F   UNL A   1      38.297  32.062  38.335  1.00  0.00    -0.205 F 
ATOM     83  C   UNL A   1      39.038  35.505  39.331  1.00  0.00     0.022 A 
BRANCH  81  84
ATOM     84  S   UNL A   1      37.645  33.717  40.861  1.00  0.00     0.127 S 
ATOM     85  O   UNL A   1      37.494  34.999  41.544  1.00  0.00    -0.237 OA
ATOM     86  O   UNL A   1      36.411  33.171  40.295  1.00  0.00    -0.237 OA
ATOM     87  O   UNL A   1      38.483  32.738  41.539  1.00  0.00    -0.744 OA
ENDBRANCH  81  84
ENDBRANCH  53  77
BRANCH  65  88
ATOM     88  C   UNL A   1      44.017  28.957  35.281  1.00  0.00     0.023 A 
ATOM     89  C   UNL A   1      45.273  29.561  35.077  1.00  0.00     0.012 A 
ATOM     90  C   UNL A   1      43.901  27.890  36.193  1.00  0.00     0.148 A 
ATOM     91  C   UNL A   1      46.402  29.087  35.745  1.00  0.00     0.002 A 
ATOM     92  C   UNL A   1      45.018  27.461  36.897  1.00  0.00     0.091 A 
ATOM     93  F   UNL A   1      42.699  27.318  36.359  1.00  0.00    -0.205 F 
ATOM     94  C   UNL A   1      46.272  28.049  36.663  1.00  0.00     0.022 A 
BRANCH  92  95
ATOM     95  S   UNL A   1      44.923  26.205  38.178  1.00  0.00     0.127 S 
ATOM     96  O   UNL A   1      44.510  25.031  37.412  1.00  0.00    -0.237 OA
ATOM     97  O   UNL A   1      46.302  26.160  38.668  1.00  0.00    -0.237 OA
ATOM     98  O   UNL A   1      43.952  26.691  39.147  1.00  0.00    -0.744 OA
ENDBRANCH  92  95
ENDBRANCH  65  88
ENDBRANCH  39  40
ENDBRANCH  31  34
ENDBRANCH  29  30
ENDBRANCH   1  29
TORSDOF 18
ENDMDL
MODEL 2
REMARK VINA RESULT:     -13.4      6.196     11.599
REMARK SMILES CC(C)Oc1ccc(/C=C(\NC(=O)c2ccccc2)C(=O)NCCCNC(=O)c2ccc(-c3c4nc(c(-c5cccc(S(=O)(=O)[O-])c5F)c5ccc([nH]5)c(-c5cccc(S(=O)(=O)[O-])c5F)c5nc(c(-c6cccc(S(=O)(=O)[O-])c6F)c6ccc3[nH]6)C=C5)C=C4)cc2)cc1
REMARK SMILES IDX 24 1 23 2 22 3 20 4 21 5 10 7 9 8 8 9 5 10 6 11 93 12 7 13
REMARK SMILES IDX 92 14 4 15 2 16 1 17 3 18 11 19 12 20 13 22 14 23 15 24
REMARK SMILES IDX 19 25 16 26 18 27 17 28 25 29 26 30 27 31 28 33 29 34 30 35
REMARK SMILES IDX 91 36 31 37 90 38 32 39 33 40 34 41 84 42 35 43 89 44 83 45
REMARK SMILES IDX 85 46 36 47 88 48 82 49 81 50 37 52 69 53 49 54 68 55 50 56
REMARK SMILES IDX 53 57 67 58 86 59 51 60 52 61 66 63 87 64 54 65 38 66 39 67
REMARK SMILES IDX 47 68 40 69 42 70 48 71 41 72 43 73 44 74 45 75 46 76 70 77
REMARK SMILES IDX 71 78 79 79 72 80 74 81 80 82 73 83 75 84 76 85 77 86 78 87
REMARK SMILES IDX 55 88 56 89 64 90 57 91 59 92 65 93 58 94 60 95 61 96 62 97
REMARK SMILES IDX 63 98
REMARK H PARENT 22 6 11 21 26 32 85 51 53 62
REMARK Flexibility Score: inf
ROOT
ATOM      1  C   UNL A   1      38.133  19.692  24.903  1.00  0.00     0.042 C 
ENDROOT
BRANCH   1   2
ATOM      2  C   UNL A   1      36.708  20.689  24.864  1.00  0.00     0.118 C 
BRANCH   2   3
ATOM      3  N   UNL A   1      35.679  21.697  26.377  1.00  0.00    -0.351 N 
ATOM      4  C   UNL A   1      34.711  22.631  26.851  1.00  0.00     0.267 C 
ATOM      5  O   UNL A   1      34.508  22.581  28.075  1.00  0.00    -0.268 OA
ATOM      6  H   UNL A   1      36.072  21.333  27.203  1.00  0.00     0.163 HD
BRANCH   4   7
ATOM      7  C   UNL A   1      33.909  23.662  26.038  1.00  0.00     0.107 C 
ATOM      8  C   UNL A   1      34.573  24.393  25.118  1.00  0.00     0.040 C 
BRANCH   8   9
ATOM      9  C   UNL A   1      33.969  25.543  24.408  1.00  0.00    -0.023 A 
ATOM     10  C   UNL A   1      32.627  27.653  23.112  1.00  0.00     0.119 A 
ATOM     11  C   UNL A   1      33.013  27.785  24.441  1.00  0.00     0.047 A 
ATOM     12  C   UNL A   1      32.997  26.507  22.408  1.00  0.00     0.047 A 
ATOM     13  C   UNL A   1      33.706  26.754  25.071  1.00  0.00     0.012 A 
ATOM     14  C   UNL A   1      33.650  25.448  23.055  1.00  0.00     0.012 A 
BRANCH  10  15
ATOM     15  O   UNL A   1      32.006  28.737  22.569  1.00  0.00    -0.491 OA
BRANCH  15  16
ATOM     16  C   UNL A   1      30.634  29.010  22.893  1.00  0.00     0.167 C 
ATOM     17  C   UNL A   1      29.962  29.941  21.891  1.00  0.00     0.052 C 
ATOM     18  C   UNL A   1      29.796  27.776  23.221  1.00  0.00     0.052 C 
ENDBRANCH  15  16
ENDBRANCH  10  15
ENDBRANCH   8   9
BRANCH   7  19
ATOM     19  N   UNL A   1      32.559  23.881  26.225  1.00  0.00    -0.317 N 
ATOM     20  C   UNL A   1      31.575  23.115  25.708  1.00  0.00     0.255 C 
ATOM     21  H   UNL A   1      32.293  24.654  26.776  1.00  0.00     0.170 HD
ATOM     22  O   UNL A   1      30.390  23.187  25.967  1.00  0.00    -0.269 OA
BRANCH  20  23
ATOM     23  C   UNL A   1      32.128  22.125  24.830  1.00  0.00     0.040 A 
ATOM     24  C   UNL A   1      32.382  20.471  25.563  1.00  0.00     0.014 A 
ATOM     25  C   UNL A   1      31.948  22.324  23.025  1.00  0.00     0.014 A 
ATOM     26  C   UNL A   1      32.512  19.035  24.487  1.00  0.00     0.001 A 
ATOM     27  C   UNL A   1      32.031  20.847  21.970  1.00  0.00     0.001 A 
ATOM     28  C   UNL A   1      32.353  19.227  22.686  1.00  0.00     0.000 A 
ENDBRANCH  20  23
ENDBRANCH   7  19
ENDBRANCH   4   7
ENDBRANCH   2   3
ENDBRANCH   1   2
BRANCH   1  29
ATOM     29  C   UNL A   1      39.017  20.057  26.085  1.00  0.00     0.118 C 
BRANCH  29  30
ATOM     30  N   UNL A   1      40.197  19.218  26.182  1.00  0.00    -0.352 N 
ATOM     31  C   UNL A   1      41.454  19.625  26.545  1.00  0.00     0.251 C 
ATOM     32  H   UNL A   1      40.083  18.264  25.965  1.00  0.00     0.163 HD
ATOM     33  O   UNL A   1      42.386  18.838  26.638  1.00  0.00    -0.269 OA
BRANCH  31  34
ATOM     34  C   UNL A   1      41.656  21.071  26.712  1.00  0.00     0.039 A 
ATOM     35  C   UNL A   1      42.285  21.490  27.884  1.00  0.00     0.014 A 
ATOM     36  C   UNL A   1      41.390  21.961  25.667  1.00  0.00     0.014 A 
ATOM     37  C   UNL A   1      42.671  22.817  28.006  1.00  0.00     0.010 A 
ATOM     38  C   UNL A   1      41.847  23.271  25.763  1.00  0.00     0.010 A 
ATOM     39  C   UNL A   1      42.473  23.711  26.941  1.00  0.00    -0.014 A 
BRANCH  39  40
ATOM     40  C   UNL A   1      42.884  25.122  27.098  1.00  0.00     0.031 A 
ATOM     41  C   UNL A   1      41.969  26.079  27.803  1.00  0.00     0.074 A 
ATOM     42  C   UNL A   1      44.083  25.523  26.633  1.00  0.00     0.049 A 
ATOM     43  N   UNL A   1      42.185  27.320  28.146  1.00  0.00    -0.248 NA
ATOM     44  C   UNL A   1      40.630  25.582  28.158  1.00  0.00     0.031 C 
ATOM     45  C   UNL A   1      45.025  24.682  25.890  1.00  0.00     0.029 A 
ATOM     46  N   UNL A   1      44.719  26.734  26.721  1.00  0.00    -0.354 N 
ATOM     47  C   UNL A   1      41.002  27.760  28.726  1.00  0.00     0.074 A 
ATOM     48  C   UNL A   1      40.061  26.667  28.657  1.00  0.00     0.031 C 
ATOM     49  C   UNL A   1      46.132  25.393  25.622  1.00  0.00     0.029 A 
ATOM     50  C   UNL A   1      45.970  26.743  26.150  1.00  0.00     0.049 A 
ATOM     51  H   UNL A   1      44.318  27.523  27.154  1.00  0.00     0.167 HD
ATOM     52  C   UNL A   1      40.734  28.962  29.288  1.00  0.00     0.034 A 
ATOM     53  C   UNL A   1      46.883  27.732  26.073  1.00  0.00     0.034 A 
ATOM     54  C   UNL A   1      41.693  30.028  29.372  1.00  0.00     0.049 A 
ATOM     55  C   UNL A   1      46.566  29.052  26.725  1.00  0.00     0.074 A 
ATOM     56  C   UNL A   1      41.559  31.258  29.986  1.00  0.00     0.029 A 
ATOM     57  N   UNL A   1      42.957  29.995  28.803  1.00  0.00    -0.354 N 
ATOM     58  N   UNL A   1      45.500  29.402  27.405  1.00  0.00    -0.248 NA
ATOM     59  C   UNL A   1      47.589  30.101  26.628  1.00  0.00     0.031 C 
ATOM     60  C   UNL A   1      42.728  31.989  29.748  1.00  0.00     0.029 A 
ATOM     61  C   UNL A   1      43.608  31.194  29.028  1.00  0.00     0.049 A 
ATOM     62  H   UNL A   1      43.336  29.232  28.312  1.00  0.00     0.167 HD
ATOM     63  C   UNL A   1      45.740  30.696  27.851  1.00  0.00     0.074 A 
ATOM     64  C   UNL A   1      47.061  31.059  27.377  1.00  0.00     0.031 C 
ATOM     65  C   UNL A   1      44.940  31.514  28.579  1.00  0.00     0.034 A 
BRANCH  52  66
ATOM     66  C   UNL A   1      39.354  29.171  29.854  1.00  0.00     0.023 A 
ATOM     67  C   UNL A   1      39.050  28.743  31.163  1.00  0.00     0.012 A 
ATOM     68  C   UNL A   1      38.358  29.806  29.088  1.00  0.00     0.148 A 
ATOM     69  C   UNL A   1      37.765  28.897  31.681  1.00  0.00     0.002 A 
ATOM     70  C   UNL A   1      37.093  30.003  29.631  1.00  0.00     0.091 A 
ATOM     71  F   UNL A   1      38.655  30.183  27.836  1.00  0.00    -0.205 F 
ATOM     72  C   UNL A   1      36.790  29.535  30.919  1.00  0.00     0.022 A 
BRANCH  70  73
ATOM     73  S   UNL A   1      35.795  30.884  28.759  1.00  0.00     0.127 S 
ATOM     74  O   UNL A   1      35.125  29.796  28.048  1.00  0.00    -0.237 OA
ATOM     75  O   UNL A   1      35.023  31.460  29.860  1.00  0.00    -0.237 OA
ATOM     76  O   UNL A   1      36.469  31.860  27.914  1.00  0.00    -0.744 OA
ENDBRANCH  70  73
ENDBRANCH  52  66
BRANCH  53  77
ATOM     77  C   UNL A   1      48.203  27.488  25.425  1.00  0.00     0.023 A 
ATOM     78  C   UNL A   1      49.296  27.072  26.211  1.00  0.00     0.012 A 
ATOM     79  C   UNL A   1      48.377  27.641  24.036  1.00  0.00     0.148 A 
ATOM     80  C   UNL A   1      50.546  26.845  25.631  1.00  0.00     0.002 A 
ATOM     81  C   UNL A   1      49.610  27.363  23.457  1.00  0.00     0.091 A 
ATOM     82  F   UNL A   1      47.328  28.046  23.307  1.00  0.00    -0.205 F 
ATOM     83  C   UNL A   1      50.700  26.981  24.254  1.00  0.00     0.022 A 
BRANCH  81  84
ATOM     84  S   UNL A   1      49.874  27.397  21.680  1.00  0.00     0.127 S 
ATOM     85  O   UNL A   1      49.740  28.821  21.385  1.00  0.00    -0.237 OA
ATOM     86  O   UNL A   1      51.234  26.869  21.571  1.00  0.00    -0.237 OA
ATOM     87  O   UNL A   1      48.845  26.537  21.113  1.00  0.00    -0.744 OA
ENDBRANCH  81  84
ENDBRANCH  53  77
BRANCH  65  88
ATOM     88  C   UNL A   1      45.483  32.869  28.947  1.00  0.00     0.023 A 
ATOM     89  C   UNL A   1      46.226  33.035  30.132  1.00  0.00     0.012 A 
ATOM     90  C   UNL A   1      45.323  33.960  28.071  1.00  0.00     0.148 A 
ATOM     91  C   UNL A   1      46.771  34.277  30.457  1.00  0.00     0.002 A 
ATOM     92  C   UNL A   1      45.916  35.179  28.372  1.00  0.00     0.091 A 
ATOM     93  F   UNL A   1      44.597  33.785  26.957  1.00  0.00    -0.205 F 
ATOM     94  C   UNL A   1      46.629  35.343  29.572  1.00  0.00     0.022 A 
BRANCH  92  95
ATOM     95  S   UNL A   1      45.878  36.572  27.240  1.00  0.00     0.127 S 
ATOM     96  O   UNL A   1      46.663  37.568  27.967  1.00  0.00    -0.237 OA
ATOM     97  O   UNL A   1      46.535  36.024  26.054  1.00  0.00    -0.237 OA
ATOM     98  O   UNL A   1      44.472  36.902  27.055  1.00  0.00    -0.744 OA
ENDBRANCH  92  95
ENDBRANCH  65  88
ENDBRANCH  39  40
ENDBRANCH  31  34
ENDBRANCH  29  30
ENDBRANCH   1  29
TORSDOF 18
ENDMDL
MODEL 3
REMARK VINA RESULT:     -13.4      1.726      7.651
REMARK SMILES CC(C)Oc1ccc(/C=C(\NC(=O)c2ccccc2)C(=O)NCCCNC(=O)c2ccc(-c3c4nc(c(-c5cccc(S(=O)(=O)[O-])c5F)c5ccc([nH]5)c(-c5cccc(S(=O)(=O)[O-])c5F)c5nc(c(-c6cccc(S(=O)(=O)[O-])c6F)c6ccc3[nH]6)C=C5)C=C4)cc2)cc1
REMARK SMILES IDX 24 1 23 2 22 3 20 4 21 5 10 7 9 8 8 9 5 10 6 11 93 12 7 13
REMARK SMILES IDX 92 14 4 15 2 16 1 17 3 18 11 19 12 20 13 22 14 23 15 24
REMARK SMILES IDX 19 25 16 26 18 27 17 28 25 29 26 30 27 31 28 33 29 34 30 35
REMARK SMILES IDX 91 36 31 37 90 38 32 39 33 40 34 41 84 42 35 43 89 44 83 45
REMARK SMILES IDX 85 46 36 47 88 48 82 49 81 50 37 52 69 53 49 54 68 55 50 56
REMARK SMILES IDX 53 57 67 58 86 59 51 60 52 61 66 63 87 64 54 65 38 66 39 67
REMARK SMILES IDX 47 68 40 69 42 70 48 71 41 72 43 73 44 74 45 75 46 76 70 77
REMARK SMILES IDX 71 78 79 79 72 80 74 81 80 82 73 83 75 84 76 85 77 86 78 87
REMARK SMILES IDX 55 88 56 89 64 90 57 91 59 92 65 93 58 94 60 95 61 96 62 97
REMARK SMILES IDX 63 98
REMARK H PARENT 22 6 11 21 26 32 85 51 53 62
REMARK Flexibility Score: inf
ROOT
ATOM      1  C   UNL A   1      31.437  31.878  26.550  1.00  0.00     0.042 C 
ENDROOT
BRANCH   1   2
ATOM      2  C   UNL A   1      31.693  30.317  25.825  1.00  0.00     0.118 C 
BRANCH   2   3
ATOM      3  N   UNL A   1      33.100  29.649  24.433  1.00  0.00    -0.351 N 
ATOM      4  C   UNL A   1      33.757  28.633  23.676  1.00  0.00     0.267 C 
ATOM      5  O   UNL A   1      34.511  29.063  22.790  1.00  0.00    -0.268 OA
ATOM      6  H   UNL A   1      33.549  30.476  24.145  1.00  0.00     0.163 HD
BRANCH   4   7
ATOM      7  C   UNL A   1      33.634  27.107  23.830  1.00  0.00     0.107 C 
ATOM      8  C   UNL A   1      33.712  26.591  25.075  1.00  0.00     0.040 C 
BRANCH   8   9
ATOM      9  C   UNL A   1      33.802  25.139  25.345  1.00  0.00    -0.023 A 
ATOM     10  C   UNL A   1      33.937  22.342  25.649  1.00  0.00     0.119 A 
ATOM     11  C   UNL A   1      35.093  23.071  25.395  1.00  0.00     0.047 A 
ATOM     12  C   UNL A   1      32.735  23.020  25.846  1.00  0.00     0.047 A 
ATOM     13  C   UNL A   1      35.030  24.459  25.278  1.00  0.00     0.012 A 
ATOM     14  C   UNL A   1      32.661  24.411  25.678  1.00  0.00     0.012 A 
BRANCH  10  15
ATOM     15  O   UNL A   1      34.111  20.999  25.803  1.00  0.00    -0.491 OA
BRANCH  15  16
ATOM     16  C   UNL A   1      33.868  20.116  24.698  1.00  0.00     0.167 C 
ATOM     17  C   UNL A   1      34.722  18.854  24.748  1.00  0.00     0.052 C 
ATOM     18  C   UNL A   1      32.393  19.832  24.419  1.00  0.00     0.052 C 
ENDBRANCH  15  16
ENDBRANCH  10  15
ENDBRANCH   8   9
BRANCH   7  19
ATOM     19  N   UNL A   1      33.474  26.254  22.757  1.00  0.00    -0.317 N 
ATOM     20  C   UNL A   1      32.312  26.054  22.099  1.00  0.00     0.255 C 
ATOM     21  H   UNL A   1      34.264  25.754  22.447  1.00  0.00     0.170 HD
ATOM     22  O   UNL A   1      32.163  25.430  21.067  1.00  0.00    -0.269 OA
BRANCH  20  23
ATOM     23  C   UNL A   1      31.244  26.748  22.758  1.00  0.00     0.040 A 
ATOM     24  C   UNL A   1      30.815  28.382  22.062  1.00  0.00     0.014 A 
ATOM     25  C   UNL A   1      30.023  25.803  23.732  1.00  0.00     0.014 A 
ATOM     26  C   UNL A   1      29.193  29.087  22.390  1.00  0.00     0.001 A 
ATOM     27  C   UNL A   1      28.376  26.520  24.000  1.00  0.00     0.001 A 
ATOM     28  C   UNL A   1      27.978  28.161  23.376  1.00  0.00     0.000 A 
ENDBRANCH  20  23
ENDBRANCH   7  19
ENDBRANCH   4   7
ENDBRANCH   2   3
ENDBRANCH   1   2
BRANCH   1  29
ATOM     29  C   UNL A   1      32.748  32.465  27.048  1.00  0.00     0.118 C 
BRANCH  29  30
ATOM     30  N   UNL A   1      32.568  33.730  27.735  1.00  0.00    -0.352 N 
ATOM     31  C   UNL A   1      33.447  34.307  28.614  1.00  0.00     0.251 C 
ATOM     32  H   UNL A   1      31.733  34.221  27.553  1.00  0.00     0.163 HD
ATOM     33  O   UNL A   1      33.230  35.400  29.120  1.00  0.00    -0.269 OA
BRANCH  31  34
ATOM     34  C   UNL A   1      34.612  33.502  29.006  1.00  0.00     0.039 A 
ATOM     35  C   UNL A   1      35.860  33.942  28.567  1.00  0.00     0.014 A 
ATOM     36  C   UNL A   1      34.486  32.451  29.919  1.00  0.00     0.014 A 
ATOM     37  C   UNL A   1      37.003  33.333  29.064  1.00  0.00     0.010 A 
ATOM     38  C   UNL A   1      35.636  31.895  30.470  1.00  0.00     0.010 A 
ATOM     39  C   UNL A   1      36.901  32.321  30.031  1.00  0.00    -0.014 A 
BRANCH  39  40
ATOM     40  C   UNL A   1      38.133  31.680  30.539  1.00  0.00     0.031 A 
ATOM     41  C   UNL A   1      38.672  32.085  31.879  1.00  0.00     0.074 A 
ATOM     42  C   UNL A   1      38.739  30.726  29.806  1.00  0.00     0.049 A 
ATOM     43  N   UNL A   1      39.664  31.571  32.555  1.00  0.00    -0.248 NA
ATOM     44  C   UNL A   1      38.019  33.224  32.543  1.00  0.00     0.031 C 
ATOM     45  C   UNL A   1      38.323  30.296  28.469  1.00  0.00     0.029 A 
ATOM     46  N   UNL A   1      39.827  29.940  30.083  1.00  0.00    -0.354 N 
ATOM     47  C   UNL A   1      39.774  32.343  33.704  1.00  0.00     0.074 A 
ATOM     48  C   UNL A   1      38.774  33.380  33.619  1.00  0.00     0.031 C 
ATOM     49  C   UNL A   1      39.124  29.300  28.058  1.00  0.00     0.029 A 
ATOM     50  C   UNL A   1      40.124  29.038  29.088  1.00  0.00     0.049 A 
ATOM     51  H   UNL A   1      40.347  30.013  30.917  1.00  0.00     0.167 HD
ATOM     52  C   UNL A   1      40.620  32.184  34.748  1.00  0.00     0.034 A 
ATOM     53  C   UNL A   1      41.090  28.100  29.025  1.00  0.00     0.034 A 
ATOM     54  C   UNL A   1      41.591  31.129  34.827  1.00  0.00     0.049 A 
ATOM     55  C   UNL A   1      42.004  27.933  30.210  1.00  0.00     0.074 A 
ATOM     56  C   UNL A   1      42.447  30.824  35.868  1.00  0.00     0.029 A 
ATOM     57  N   UNL A   1      41.850  30.221  33.812  1.00  0.00    -0.354 N 
ATOM     58  N   UNL A   1      41.996  28.571  31.356  1.00  0.00    -0.248 NA
ATOM     59  C   UNL A   1      43.038  26.895  30.107  1.00  0.00     0.031 C 
ATOM     60  C   UNL A   1      43.257  29.758  35.463  1.00  0.00     0.029 A 
ATOM     61  C   UNL A   1      42.870  29.367  34.189  1.00  0.00     0.049 A 
ATOM     62  H   UNL A   1      41.376  30.187  32.950  1.00  0.00     0.167 HD
ATOM     63  C   UNL A   1      42.994  27.987  32.126  1.00  0.00     0.074 A 
ATOM     64  C   UNL A   1      43.574  26.931  31.319  1.00  0.00     0.031 C 
ATOM     65  C   UNL A   1      43.401  28.298  33.381  1.00  0.00     0.034 A 
BRANCH  52  66
ATOM     66  C   UNL A   1      40.520  33.174  35.880  1.00  0.00     0.023 A 
ATOM     67  C   UNL A   1      41.188  34.413  35.802  1.00  0.00     0.012 A 
ATOM     68  C   UNL A   1      39.750  32.876  37.021  1.00  0.00     0.148 A 
ATOM     69  C   UNL A   1      41.133  35.318  36.861  1.00  0.00     0.002 A 
ATOM     70  C   UNL A   1      39.657  33.805  38.050  1.00  0.00     0.091 A 
ATOM     71  F   UNL A   1      39.143  31.683  37.090  1.00  0.00    -0.205 F 
ATOM     72  C   UNL A   1      40.361  35.018  37.980  1.00  0.00     0.022 A 
BRANCH  70  73
ATOM     73  S   UNL A   1      38.624  33.546  39.496  1.00  0.00     0.127 S 
ATOM     74  O   UNL A   1      37.332  33.242  38.883  1.00  0.00    -0.237 OA
ATOM     75  O   UNL A   1      39.278  32.406  40.138  1.00  0.00    -0.237 OA
ATOM     76  O   UNL A   1      38.679  34.786  40.257  1.00  0.00    -0.744 OA
ENDBRANCH  70  73
ENDBRANCH  52  66
BRANCH  53  77
ATOM     77  C   UNL A   1      41.191  27.203  27.839  1.00  0.00     0.023 A 
ATOM     78  C   UNL A   1      41.821  27.667  26.668  1.00  0.00     0.012 A 
ATOM     79  C   UNL A   1      40.689  25.887  27.870  1.00  0.00     0.148 A 
ATOM     80  C   UNL A   1      41.922  26.852  25.540  1.00  0.00     0.002 A 
ATOM     81  C   UNL A   1      40.839  25.062  26.762  1.00  0.00     0.091 A 
ATOM     82  F   UNL A   1      40.085  25.467  28.990  1.00  0.00    -0.205 F 
ATOM     83  C   UNL A   1      41.440  25.547  25.590  1.00  0.00     0.022 A 
BRANCH  81  84
ATOM     84  S   UNL A   1      40.355  23.332  26.772  1.00  0.00     0.127 S 
ATOM     85  O   UNL A   1      40.530  22.980  28.179  1.00  0.00    -0.237 OA
ATOM     86  O   UNL A   1      38.963  23.409  26.324  1.00  0.00    -0.237 OA
ATOM     87  O   UNL A   1      41.253  22.665  25.840  1.00  0.00    -0.744 OA
ENDBRANCH  81  84
ENDBRANCH  53  77
BRANCH  65  88
ATOM     88  C   UNL A   1      44.500  27.462  33.983  1.00  0.00     0.023 A 
ATOM     89  C   UNL A   1      45.829  27.928  33.971  1.00  0.00     0.012 A 
ATOM     90  C   UNL A   1      44.196  26.251  34.634  1.00  0.00     0.148 A 
ATOM     91  C   UNL A   1      46.845  27.181  34.567  1.00  0.00     0.002 A 
ATOM     92  C   UNL A   1      45.202  25.541  35.275  1.00  0.00     0.091 A 
ATOM     93  F   UNL A   1      42.927  25.818  34.618  1.00  0.00    -0.205 F 
ATOM     94  C   UNL A   1      46.530  25.998  35.230  1.00  0.00     0.022 A 
BRANCH  92  95
ATOM     95  S   UNL A   1      44.872  24.066  36.244  1.00  0.00     0.127 S 
ATOM     96  O   UNL A   1      46.160  23.379  36.188  1.00  0.00    -0.237 OA
ATOM     97  O   UNL A   1      44.536  24.627  37.553  1.00  0.00    -0.237 OA
ATOM     98  O   UNL A   1      43.771  23.384  35.578  1.00  0.00    -0.744 OA
ENDBRANCH  92  95
ENDBRANCH  65  88
ENDBRANCH  39  40
ENDBRANCH  31  34
ENDBRANCH  29  30
ENDBRANCH   1  29
TORSDOF 18
ENDMDL
