MODEL 1
REMARK VINA RESULT:     -12.0      0.000      0.000
REMARK SMILES O=C(NCCCNC(=O)[C@@H]1CS[C@H](c2cc(Br)ccc2O)[NH2+]1)c1ccc(-c2c3nc(c(-c4cccc(S(=O)(=O)[O-])c4F)c4ccc([nH]4)c(-c4cccc(S(=O)(=O)[O-])c4F)c4nc(c(-c5cccc(S(=O)(=O)[O-])c5F)c5ccc2[nH]5)C=C4)C=C3)cc1
REMARK SMILES IDX 4 1 3 2 1 3 2 4 23 6 24 7 85 8 25 9 84 10 26 11 27 12 28 13
REMARK SMILES IDX 78 14 29 15 83 16 77 17 79 18 30 19 82 20 76 21 75 22 31 24
REMARK SMILES IDX 63 25 43 26 62 27 44 28 47 29 61 30 80 31 45 32 46 33 60 35
REMARK SMILES IDX 81 36 48 37 32 38 33 39 41 40 34 41 36 42 42 43 35 44 37 45
REMARK SMILES IDX 38 46 39 47 40 48 64 49 65 50 73 51 66 52 68 53 74 54 67 55
REMARK SMILES IDX 69 56 70 57 71 58 72 59 49 60 50 61 58 62 51 63 53 64 59 65
REMARK SMILES IDX 52 66 54 67 55 68 56 69 57 70 5 71 6 72 7 73 8 74 9 76 10 77
REMARK SMILES IDX 11 78 22 79 12 80 13 81 14 84 15 85 20 86 16 87 19 88 17 89
REMARK SMILES IDX 18 90 21 91
REMARK H PARENT 3 5 79 23 47 34 7 75 22 82 22 83 21 92
REMARK Flexibility Score: inf
ROOT
ATOM      1  C   UNL A   1      32.648  32.379  27.243  1.00  0.00     0.118 C 
ENDROOT
BRANCH   1   2
ATOM      2  N   UNL A   1      32.510  33.788  27.575  1.00  0.00    -0.352 N 
ATOM      3  O   UNL A   1      32.757  35.646  28.817  1.00  0.00    -0.269 OA
ATOM      4  C   UNL A   1      33.153  34.515  28.548  1.00  0.00     0.251 C 
ATOM      5  H   UNL A   1      31.866  34.292  27.028  1.00  0.00     0.163 HD
BRANCH   4   6
ATOM      6  C   UNL A   1      34.302  33.928  29.272  1.00  0.00     0.039 A 
ATOM      7  C   UNL A   1      34.101  32.955  30.255  1.00  0.00     0.014 A 
ATOM      8  C   UNL A   1      35.597  34.334  28.940  1.00  0.00     0.014 A 
ATOM      9  C   UNL A   1      35.184  32.472  30.982  1.00  0.00     0.010 A 
ATOM     10  C   UNL A   1      36.690  33.789  29.619  1.00  0.00     0.010 A 
ATOM     11  C   UNL A   1      36.492  32.866  30.657  1.00  0.00    -0.014 A 
BRANCH  11  12
ATOM     12  C   UNL A   1      37.638  32.210  31.337  1.00  0.00     0.031 A 
ATOM     13  C   UNL A   1      38.388  31.075  30.697  1.00  0.00     0.074 A 
ATOM     14  C   UNL A   1      37.983  32.647  32.564  1.00  0.00     0.049 A 
ATOM     15  N   UNL A   1      39.423  30.419  31.155  1.00  0.00    -0.248 NA
ATOM     16  C   UNL A   1      37.919  30.610  29.382  1.00  0.00     0.031 C 
ATOM     17  C   UNL A   1      37.287  33.701  33.307  1.00  0.00     0.029 A 
ATOM     18  N   UNL A   1      38.993  32.261  33.407  1.00  0.00    -0.354 N 
ATOM     19  C   UNL A   1      39.708  29.441  30.211  1.00  0.00     0.074 A 
ATOM     20  C   UNL A   1      38.736  29.589  29.148  1.00  0.00     0.031 C 
ATOM     21  C   UNL A   1      37.896  33.888  34.486  1.00  0.00     0.029 A 
ATOM     22  C   UNL A   1      38.995  32.937  34.605  1.00  0.00     0.049 A 
ATOM     23  H   UNL A   1      39.653  31.567  33.178  1.00  0.00     0.167 HD
ATOM     24  C   UNL A   1      40.698  28.518  30.225  1.00  0.00     0.034 A 
ATOM     25  C   UNL A   1      39.780  32.796  35.690  1.00  0.00     0.034 A 
ATOM     26  C   UNL A   1      41.685  28.404  31.267  1.00  0.00     0.049 A 
ATOM     27  C   UNL A   1      40.885  31.781  35.657  1.00  0.00     0.074 A 
ATOM     28  C   UNL A   1      42.781  27.561  31.324  1.00  0.00     0.029 A 
ATOM     29  N   UNL A   1      41.690  29.142  32.441  1.00  0.00    -0.354 N 
ATOM     30  N   UNL A   1      41.239  30.981  34.682  1.00  0.00    -0.248 NA
ATOM     31  C   UNL A   1      41.717  31.668  36.863  1.00  0.00     0.031 C 
ATOM     32  C   UNL A   1      43.435  27.772  32.542  1.00  0.00     0.029 A 
ATOM     33  C   UNL A   1      42.757  28.760  33.236  1.00  0.00     0.049 A 
ATOM     34  H   UNL A   1      41.031  29.836  32.674  1.00  0.00     0.167 HD
ATOM     35  C   UNL A   1      42.344  30.281  35.148  1.00  0.00     0.074 A 
ATOM     36  C   UNL A   1      42.624  30.780  36.479  1.00  0.00     0.031 C 
ATOM     37  C   UNL A   1      43.051  29.297  34.539  1.00  0.00     0.034 A 
BRANCH  24  38
ATOM     38  C   UNL A   1      40.809  27.569  29.061  1.00  0.00     0.023 A 
ATOM     39  C   UNL A   1      39.914  26.484  28.962  1.00  0.00     0.012 A 
ATOM     40  C   UNL A   1      41.714  27.818  28.009  1.00  0.00     0.148 A 
ATOM     41  C   UNL A   1      39.925  25.655  27.840  1.00  0.00     0.002 A 
ATOM     42  C   UNL A   1      41.695  27.008  26.878  1.00  0.00     0.091 A 
ATOM     43  F   UNL A   1      42.567  28.845  28.132  1.00  0.00    -0.205 F 
ATOM     44  C   UNL A   1      40.806  25.923  26.796  1.00  0.00     0.022 A 
BRANCH  42  45
ATOM     45  S   UNL A   1      42.736  27.313  25.446  1.00  0.00     0.127 S 
ATOM     46  O   UNL A   1      44.040  27.530  26.073  1.00  0.00    -0.237 OA
ATOM     47  O   UNL A   1      42.619  26.054  24.709  1.00  0.00    -0.237 OA
ATOM     48  O   UNL A   1      42.168  28.471  24.773  1.00  0.00    -0.744 OA
ENDBRANCH  42  45
ENDBRANCH  24  38
BRANCH  25  49
ATOM     49  C   UNL A   1      39.562  33.662  36.882  1.00  0.00     0.023 A 
ATOM     50  C   UNL A   1      39.957  35.013  36.842  1.00  0.00     0.012 A 
ATOM     51  C   UNL A   1      38.935  33.164  38.041  1.00  0.00     0.148 A 
ATOM     52  C   UNL A   1      39.759  35.842  37.946  1.00  0.00     0.002 A 
ATOM     53  C   UNL A   1      38.684  34.012  39.112  1.00  0.00     0.091 A 
ATOM     54  F   UNL A   1      38.584  31.870  38.070  1.00  0.00    -0.205 F 
ATOM     55  C   UNL A   1      39.111  35.347  39.076  1.00  0.00     0.022 A 
BRANCH  53  56
ATOM     56  S   UNL A   1      37.722  33.478  40.531  1.00  0.00     0.127 S 
ATOM     57  O   UNL A   1      37.611  34.712  41.302  1.00  0.00    -0.237 OA
ATOM     58  O   UNL A   1      36.476  33.024  39.910  1.00  0.00    -0.237 OA
ATOM     59  O   UNL A   1      38.504  32.408  41.139  1.00  0.00    -0.744 OA
ENDBRANCH  53  56
ENDBRANCH  25  49
BRANCH  37  60
ATOM     60  C   UNL A   1      44.202  28.701  35.303  1.00  0.00     0.023 A 
ATOM     61  C   UNL A   1      45.496  29.231  35.134  1.00  0.00     0.012 A 
ATOM     62  C   UNL A   1      43.995  27.659  36.227  1.00  0.00     0.148 A 
ATOM     63  C   UNL A   1      46.574  28.710  35.847  1.00  0.00     0.002 A 
ATOM     64  C   UNL A   1      45.066  27.177  36.970  1.00  0.00     0.091 A 
ATOM     65  F   UNL A   1      42.758  27.155  36.358  1.00  0.00    -0.205 F 
ATOM     66  C   UNL A   1      46.357  27.692  36.773  1.00  0.00     0.022 A 
BRANCH  64  67
ATOM     67  S   UNL A   1      44.863  25.929  38.247  1.00  0.00     0.127 S 
ATOM     68  O   UNL A   1      43.884  26.561  39.128  1.00  0.00    -0.237 OA
ATOM     69  O   UNL A   1      44.353  24.786  37.488  1.00  0.00    -0.237 OA
ATOM     70  O   UNL A   1      46.186  25.727  38.821  1.00  0.00    -0.744 OA
ENDBRANCH  64  67
ENDBRANCH  37  60
ENDBRANCH  11  12
ENDBRANCH   4   6
ENDBRANCH   1   2
BRANCH   1  71
ATOM     71  C   UNL A   1      31.418  31.830  26.523  1.00  0.00     0.042 C 
BRANCH  71  72
ATOM     72  C   UNL A   1      31.689  30.527  25.776  1.00  0.00     0.118 C 
BRANCH  72  73
ATOM     73  N   UNL A   1      31.537  29.393  26.668  1.00  0.00    -0.351 N 
ATOM     74  C   UNL A   1      31.941  28.100  26.487  1.00  0.00     0.279 C 
ATOM     75  H   UNL A   1      31.082  29.581  27.521  1.00  0.00     0.163 HD
ATOM     76  O   UNL A   1      31.501  27.261  27.275  1.00  0.00    -0.268 OA
BRANCH  74  77
ATOM     77  C   UNL A   1      33.002  27.785  25.418  1.00  0.00     0.283 C 
ATOM     78  C   UNL A   1      33.244  28.957  24.465  1.00  0.00     0.151 C 
ATOM     79  N   UNL A   1      32.560  26.557  24.686  1.00  0.00    -0.320 N 
ATOM     80  S   UNL A   1      33.263  28.189  22.833  1.00  0.00    -0.087 SA
ATOM     81  C   UNL A   1      32.043  26.934  23.359  1.00  0.00     0.278 C 
ATOM     82  H   UNL A   1      31.826  26.089  25.217  1.00  0.00     0.348 HD
ATOM     83  H   UNL A   1      33.355  25.925  24.574  1.00  0.00     0.348 HD
BRANCH  81  84
ATOM     84  C   UNL A   1      30.596  27.418  23.280  1.00  0.00     0.063 A 
ATOM     85  C   UNL A   1      30.288  28.598  22.564  1.00  0.00     0.030 A 
ATOM     86  C   UNL A   1      29.499  26.721  23.811  1.00  0.00     0.125 A 
ATOM     87  C   UNL A   1      28.984  29.097  22.492  1.00  0.00     0.018 A 
ATOM     88  C   UNL A   1      28.194  27.222  23.753  1.00  0.00     0.048 A 
ATOM     89  Br  UNL A   1      28.643  30.699  21.548  1.00  0.00    -0.051 Br
ATOM     90  C   UNL A   1      27.935  28.424  23.106  1.00  0.00     0.019 A 
BRANCH  86  91
ATOM     91  O   UNL A   1      29.641  25.511  24.422  1.00  0.00    -0.507 OA
ATOM     92  H   UNL A   1      29.009  25.227  25.054  1.00  0.00     0.293 HD
ENDBRANCH  86  91
ENDBRANCH  81  84
ENDBRANCH  74  77
ENDBRANCH  72  73
ENDBRANCH  71  72
ENDBRANCH   1  71
TORSDOF 15
ENDMDL
MODEL 2
REMARK VINA RESULT:     -11.9      6.685     11.593
REMARK SMILES O=C(NCCCNC(=O)[C@@H]1CS[C@H](c2cc(Br)ccc2O)[NH2+]1)c1ccc(-c2c3nc(c(-c4cccc(S(=O)(=O)[O-])c4F)c4ccc([nH]4)c(-c4cccc(S(=O)(=O)[O-])c4F)c4nc(c(-c5cccc(S(=O)(=O)[O-])c5F)c5ccc2[nH]5)C=C4)C=C3)cc1
REMARK SMILES IDX 4 1 3 2 1 3 2 4 23 6 24 7 85 8 25 9 84 10 26 11 27 12 28 13
REMARK SMILES IDX 78 14 29 15 83 16 77 17 79 18 30 19 82 20 76 21 75 22 31 24
REMARK SMILES IDX 63 25 43 26 62 27 44 28 47 29 61 30 80 31 45 32 46 33 60 35
REMARK SMILES IDX 81 36 48 37 32 38 33 39 41 40 34 41 36 42 42 43 35 44 37 45
REMARK SMILES IDX 38 46 39 47 40 48 64 49 65 50 73 51 66 52 68 53 74 54 67 55
REMARK SMILES IDX 69 56 70 57 71 58 72 59 49 60 50 61 58 62 51 63 53 64 59 65
REMARK SMILES IDX 52 66 54 67 55 68 56 69 57 70 5 71 6 72 7 73 8 74 9 76 10 77
REMARK SMILES IDX 11 78 22 79 12 80 13 81 14 84 15 85 20 86 16 87 19 88 17 89
REMARK SMILES IDX 18 90 21 91
REMARK H PARENT 3 5 79 23 47 34 7 75 22 82 22 83 21 92
REMARK Flexibility Score: inf
ROOT
ATOM      1  C   UNL A   1      38.549  20.273  25.836  1.00  0.00     0.118 C 
ENDROOT
BRANCH   1   2
ATOM      2  N   UNL A   1      39.648  19.331  25.976  1.00  0.00    -0.352 N 
ATOM      3  O   UNL A   1      41.792  18.662  26.045  1.00  0.00    -0.269 OA
ATOM      4  C   UNL A   1      40.986  19.582  26.154  1.00  0.00     0.251 C 
ATOM      5  H   UNL A   1      39.397  18.380  25.938  1.00  0.00     0.163 HD
BRANCH   4   6
ATOM      6  C   UNL A   1      41.447  20.955  26.458  1.00  0.00     0.039 A 
ATOM      7  C   UNL A   1      41.730  21.855  25.427  1.00  0.00     0.014 A 
ATOM      8  C   UNL A   1      41.566  21.355  27.791  1.00  0.00     0.014 A 
ATOM      9  C   UNL A   1      42.239  23.114  25.727  1.00  0.00     0.010 A 
ATOM     10  C   UNL A   1      42.003  22.648  28.091  1.00  0.00     0.010 A 
ATOM     11  C   UNL A   1      42.360  23.533  27.062  1.00  0.00    -0.014 A 
BRANCH  11  12
ATOM     12  C   UNL A   1      42.746  24.937  27.349  1.00  0.00     0.031 A 
ATOM     13  C   UNL A   1      41.788  25.902  27.991  1.00  0.00     0.074 A 
ATOM     14  C   UNL A   1      43.984  25.339  27.002  1.00  0.00     0.049 A 
ATOM     15  N   UNL A   1      41.988  27.151  28.326  1.00  0.00    -0.248 NA
ATOM     16  C   UNL A   1      40.433  25.413  28.290  1.00  0.00     0.031 C 
ATOM     17  C   UNL A   1      44.977  24.505  26.319  1.00  0.00     0.029 A 
ATOM     18  N   UNL A   1      44.620  26.543  27.162  1.00  0.00    -0.354 N 
ATOM     19  C   UNL A   1      40.782  27.610  28.838  1.00  0.00     0.074 A 
ATOM     20  C   UNL A   1      39.849  26.504  28.772  1.00  0.00     0.031 C 
ATOM     21  C   UNL A   1      46.099  25.215  26.131  1.00  0.00     0.029 A 
ATOM     22  C   UNL A   1      45.891  26.567  26.637  1.00  0.00     0.049 A 
ATOM     23  H   UNL A   1      44.207  27.317  27.611  1.00  0.00     0.167 HD
ATOM     24  C   UNL A   1      40.486  28.837  29.330  1.00  0.00     0.034 A 
ATOM     25  C   UNL A   1      46.785  27.570  26.549  1.00  0.00     0.034 A 
ATOM     26  C   UNL A   1      41.431  29.919  29.429  1.00  0.00     0.049 A 
ATOM     27  C   UNL A   1      46.433  28.907  27.131  1.00  0.00     0.074 A 
ATOM     28  C   UNL A   1      41.250  31.168  29.998  1.00  0.00     0.029 A 
ATOM     29  N   UNL A   1      42.727  29.890  28.936  1.00  0.00    -0.354 N 
ATOM     30  N   UNL A   1      45.342  29.269  27.762  1.00  0.00    -0.248 NA
ATOM     31  C   UNL A   1      47.443  29.967  27.017  1.00  0.00     0.031 C 
ATOM     32  C   UNL A   1      42.428  31.902  29.828  1.00  0.00     0.029 A 
ATOM     33  C   UNL A   1      43.349  31.105  29.170  1.00  0.00     0.049 A 
ATOM     34  H   UNL A   1      43.143  29.119  28.486  1.00  0.00     0.167 HD
ATOM     35  C   UNL A   1      45.541  30.592  28.134  1.00  0.00     0.074 A 
ATOM     36  C   UNL A   1      46.872  30.956  27.692  1.00  0.00     0.031 C 
ATOM     37  C   UNL A   1      44.690  31.438  28.765  1.00  0.00     0.034 A 
BRANCH  24  38
ATOM     38  C   UNL A   1      39.094  29.084  29.848  1.00  0.00     0.023 A 
ATOM     39  C   UNL A   1      38.774  28.732  31.175  1.00  0.00     0.012 A 
ATOM     40  C   UNL A   1      38.143  29.769  29.065  1.00  0.00     0.148 A 
ATOM     41  C   UNL A   1      37.526  29.048  31.711  1.00  0.00     0.002 A 
ATOM     42  C   UNL A   1      36.914  30.112  29.619  1.00  0.00     0.091 A 
ATOM     43  F   UNL A   1      38.462  30.079  27.800  1.00  0.00    -0.205 F 
ATOM     44  C   UNL A   1      36.602  29.747  30.939  1.00  0.00     0.022 A 
BRANCH  42  45
ATOM     45  S   UNL A   1      35.683  31.076  28.733  1.00  0.00     0.127 S 
ATOM     46  O   UNL A   1      35.026  30.046  27.930  1.00  0.00    -0.237 OA
ATOM     47  O   UNL A   1      34.867  31.609  29.825  1.00  0.00    -0.237 OA
ATOM     48  O   UNL A   1      36.421  32.077  27.978  1.00  0.00    -0.744 OA
ENDBRANCH  42  45
ENDBRANCH  24  38
BRANCH  25  49
ATOM     49  C   UNL A   1      48.109  27.330  25.912  1.00  0.00     0.023 A 
ATOM     50  C   UNL A   1      49.193  26.897  26.699  1.00  0.00     0.012 A 
ATOM     51  C   UNL A   1      48.292  27.496  24.525  1.00  0.00     0.148 A 
ATOM     52  C   UNL A   1      50.441  26.663  26.120  1.00  0.00     0.002 A 
ATOM     53  C   UNL A   1      49.520  27.200  23.947  1.00  0.00     0.091 A 
ATOM     54  F   UNL A   1      47.256  27.929  23.792  1.00  0.00    -0.205 F 
ATOM     55  C   UNL A   1      50.602  26.801  24.744  1.00  0.00     0.022 A 
BRANCH  53  56
ATOM     56  S   UNL A   1      49.750  27.212  22.166  1.00  0.00     0.127 S 
ATOM     57  O   UNL A   1      48.736  26.261  21.724  1.00  0.00    -0.237 OA
ATOM     58  O   UNL A   1      49.475  28.610  21.826  1.00  0.00    -0.237 OA
ATOM     59  O   UNL A   1      51.138  26.815  21.959  1.00  0.00    -0.744 OA
ENDBRANCH  53  56
ENDBRANCH  25  49
BRANCH  37  60
ATOM     60  C   UNL A   1      45.176  32.839  29.023  1.00  0.00     0.023 A 
ATOM     61  C   UNL A   1      45.854  33.128  30.223  1.00  0.00     0.012 A 
ATOM     62  C   UNL A   1      45.013  33.850  28.058  1.00  0.00     0.148 A 
ATOM     63  C   UNL A   1      46.333  34.412  30.475  1.00  0.00     0.002 A 
ATOM     64  C   UNL A   1      45.535  35.116  28.294  1.00  0.00     0.091 A 
ATOM     65  F   UNL A   1      44.347  33.559  26.930  1.00  0.00    -0.205 F 
ATOM     66  C   UNL A   1      46.184  35.402  29.506  1.00  0.00     0.022 A 
BRANCH  64  67
ATOM     67  S   UNL A   1      45.467  36.426  27.066  1.00  0.00     0.127 S 
ATOM     68  O   UNL A   1      46.106  35.790  25.917  1.00  0.00    -0.237 OA
ATOM     69  O   UNL A   1      44.027  36.645  26.922  1.00  0.00    -0.237 OA
ATOM     70  O   UNL A   1      46.191  37.551  27.644  1.00  0.00    -0.744 OA
ENDBRANCH  64  67
ENDBRANCH  37  60
ENDBRANCH  11  12
ENDBRANCH   4   6
ENDBRANCH   1   2
BRANCH   1  71
ATOM     71  C   UNL A   1      37.677  19.971  24.618  1.00  0.00     0.042 C 
BRANCH  71  72
ATOM     72  C   UNL A   1      36.237  19.618  24.980  1.00  0.00     0.118 C 
BRANCH  72  73
ATOM     73  N   UNL A   1      35.613  20.717  25.693  1.00  0.00    -0.351 N 
ATOM     74  C   UNL A   1      35.114  21.888  25.195  1.00  0.00     0.279 C 
ATOM     75  H   UNL A   1      35.539  20.604  26.668  1.00  0.00     0.163 HD
ATOM     76  O   UNL A   1      34.842  22.772  26.009  1.00  0.00    -0.268 OA
BRANCH  74  77
ATOM     77  C   UNL A   1      34.799  21.993  23.693  1.00  0.00     0.283 C 
ATOM     78  C   UNL A   1      34.790  23.440  23.193  1.00  0.00     0.151 C 
ATOM     79  N   UNL A   1      33.485  21.317  23.453  1.00  0.00    -0.320 N 
ATOM     80  S   UNL A   1      33.304  23.536  22.176  1.00  0.00    -0.087 SA
ATOM     81  C   UNL A   1      32.439  22.333  23.245  1.00  0.00     0.278 C 
ATOM     82  H   UNL A   1      33.246  20.743  24.261  1.00  0.00     0.348 HD
ATOM     83  H   UNL A   1      33.555  20.726  22.624  1.00  0.00     0.348 HD
BRANCH  81  84
ATOM     84  C   UNL A   1      31.811  22.960  24.489  1.00  0.00     0.063 A 
ATOM     85  C   UNL A   1      31.536  24.348  24.512  1.00  0.00     0.030 A 
ATOM     86  C   UNL A   1      31.397  22.236  25.618  1.00  0.00     0.125 A 
ATOM     87  C   UNL A   1      30.993  24.972  25.639  1.00  0.00     0.018 A 
ATOM     88  C   UNL A   1      30.865  22.857  26.753  1.00  0.00     0.048 A 
ATOM     89  Br  UNL A   1      30.682  26.837  25.620  1.00  0.00    -0.051 Br
ATOM     90  C   UNL A   1      30.677  24.233  26.772  1.00  0.00     0.019 A 
BRANCH  86  91
ATOM     91  O   UNL A   1      31.494  20.877  25.677  1.00  0.00    -0.507 OA
ATOM     92  H   UNL A   1      31.694  20.387  24.905  1.00  0.00     0.293 HD
ENDBRANCH  86  91
ENDBRANCH  81  84
ENDBRANCH  74  77
ENDBRANCH  72  73
ENDBRANCH  71  72
ENDBRANCH   1  71
TORSDOF 15
ENDMDL
MODEL 3
REMARK VINA RESULT:     -11.9      3.992      9.128
REMARK SMILES O=C(NCCCNC(=O)[C@@H]1CS[C@H](c2cc(Br)ccc2O)[NH2+]1)c1ccc(-c2c3nc(c(-c4cccc(S(=O)(=O)[O-])c4F)c4ccc([nH]4)c(-c4cccc(S(=O)(=O)[O-])c4F)c4nc(c(-c5cccc(S(=O)(=O)[O-])c5F)c5ccc2[nH]5)C=C4)C=C3)cc1
REMARK SMILES IDX 4 1 3 2 1 3 2 4 23 6 24 7 85 8 25 9 84 10 26 11 27 12 28 13
REMARK SMILES IDX 78 14 29 15 83 16 77 17 79 18 30 19 82 20 76 21 75 22 31 24
REMARK SMILES IDX 63 25 43 26 62 27 44 28 47 29 61 30 80 31 45 32 46 33 60 35
REMARK SMILES IDX 81 36 48 37 32 38 33 39 41 40 34 41 36 42 42 43 35 44 37 45
REMARK SMILES IDX 38 46 39 47 40 48 64 49 65 50 73 51 66 52 68 53 74 54 67 55
REMARK SMILES IDX 69 56 70 57 71 58 72 59 49 60 50 61 58 62 51 63 53 64 59 65
REMARK SMILES IDX 52 66 54 67 55 68 56 69 57 70 5 71 6 72 7 73 8 74 9 76 10 77
REMARK SMILES IDX 11 78 22 79 12 80 13 81 14 84 15 85 20 86 16 87 19 88 17 89
REMARK SMILES IDX 18 90 21 91
REMARK H PARENT 3 5 79 23 47 34 7 75 22 82 22 83 21 92
REMARK Flexibility Score: inf
ROOT
ATOM      1  C   UNL A   1      33.527  28.654  27.298  1.00  0.00     0.118 C 
ENDROOT
BRANCH   1   2
ATOM      2  N   UNL A   1      33.519  30.105  27.394  1.00  0.00    -0.352 N 
ATOM      3  O   UNL A   1      34.169  32.124  28.139  1.00  0.00    -0.269 OA
ATOM      4  C   UNL A   1      34.445  30.939  27.973  1.00  0.00     0.251 C 
ATOM      5  H   UNL A   1      32.743  30.552  26.987  1.00  0.00     0.163 HD
BRANCH   4   6
ATOM      6  C   UNL A   1      35.755  30.403  28.404  1.00  0.00     0.039 A 
ATOM      7  C   UNL A   1      36.896  30.597  27.621  1.00  0.00     0.014 A 
ATOM      8  C   UNL A   1      35.847  29.726  29.623  1.00  0.00     0.014 A 
ATOM      9  C   UNL A   1      38.102  30.019  28.000  1.00  0.00     0.010 A 
ATOM     10  C   UNL A   1      37.078  29.213  30.040  1.00  0.00     0.010 A 
ATOM     11  C   UNL A   1      38.212  29.340  29.224  1.00  0.00    -0.014 A 
BRANCH  11  12
ATOM     12  C   UNL A   1      39.548  28.879  29.680  1.00  0.00     0.031 A 
ATOM     13  C   UNL A   1      40.286  29.577  30.789  1.00  0.00     0.074 A 
ATOM     14  C   UNL A   1      40.100  27.818  29.059  1.00  0.00     0.049 A 
ATOM     15  N   UNL A   1      41.447  29.277  31.312  1.00  0.00    -0.248 NA
ATOM     16  C   UNL A   1      39.652  30.765  31.382  1.00  0.00     0.031 C 
ATOM     17  C   UNL A   1      39.500  27.100  27.931  1.00  0.00     0.029 A 
ATOM     18  N   UNL A   1      41.284  27.162  29.275  1.00  0.00    -0.354 N 
ATOM     19  C   UNL A   1      41.703  30.254  32.266  1.00  0.00     0.074 A 
ATOM     20  C   UNL A   1      40.573  31.160  32.252  1.00  0.00     0.031 C 
ATOM     21  C   UNL A   1      40.310  26.097  27.563  1.00  0.00     0.029 A 
ATOM     22  C   UNL A   1      41.507  26.128  28.396  1.00  0.00     0.049 A 
ATOM     23  H   UNL A   1      41.915  27.407  29.991  1.00  0.00     0.167 HD
ATOM     24  C   UNL A   1      42.774  30.372  33.086  1.00  0.00     0.034 A 
ATOM     25  C   UNL A   1      42.566  25.308  28.257  1.00  0.00     0.034 A 
ATOM     26  C   UNL A   1      43.874  29.444  33.121  1.00  0.00     0.049 A 
ATOM     27  C   UNL A   1      43.722  25.452  29.202  1.00  0.00     0.074 A 
ATOM     28  C   UNL A   1      44.959  29.430  33.981  1.00  0.00     0.029 A 
ATOM     29  N   UNL A   1      44.041  28.377  32.252  1.00  0.00    -0.354 N 
ATOM     30  N   UNL A   1      43.865  26.280  30.208  1.00  0.00    -0.248 NA
ATOM     31  C   UNL A   1      44.851  24.530  29.015  1.00  0.00     0.031 C 
ATOM     32  C   UNL A   1      45.793  28.368  33.617  1.00  0.00     0.029 A 
ATOM     33  C   UNL A   1      45.219  27.709  32.542  1.00  0.00     0.049 A 
ATOM     34  H   UNL A   1      43.413  28.129  31.535  1.00  0.00     0.167 HD
ATOM     35  C   UNL A   1      45.091  25.969  30.783  1.00  0.00     0.074 A 
ATOM     36  C   UNL A   1      45.632  24.851  30.037  1.00  0.00     0.031 C 
ATOM     37  C   UNL A   1      45.723  26.570  31.821  1.00  0.00     0.034 A 
BRANCH  24  38
ATOM     38  C   UNL A   1      42.808  31.523  34.057  1.00  0.00     0.023 A 
ATOM     39  C   UNL A   1      43.318  32.769  33.638  1.00  0.00     0.012 A 
ATOM     40  C   UNL A   1      42.231  31.406  35.337  1.00  0.00     0.148 A 
ATOM     41  C   UNL A   1      43.261  33.878  34.482  1.00  0.00     0.002 A 
ATOM     42  C   UNL A   1      42.147  32.525  36.159  1.00  0.00     0.091 A 
ATOM     43  F   UNL A   1      41.768  30.208  35.721  1.00  0.00    -0.205 F 
ATOM     44  C   UNL A   1      42.667  33.759  35.736  1.00  0.00     0.022 A 
BRANCH  42  45
ATOM     45  S   UNL A   1      41.334  32.495  37.761  1.00  0.00     0.127 S 
ATOM     46  O   UNL A   1      40.007  31.993  37.407  1.00  0.00    -0.237 OA
ATOM     47  O   UNL A   1      42.163  31.549  38.508  1.00  0.00    -0.237 OA
ATOM     48  O   UNL A   1      41.369  33.862  38.258  1.00  0.00    -0.744 OA
ENDBRANCH  42  45
ENDBRANCH  24  38
BRANCH  25  49
ATOM     49  C   UNL A   1      42.559  24.260  27.198  1.00  0.00     0.023 A 
ATOM     50  C   UNL A   1      43.207  24.505  25.973  1.00  0.00     0.012 A 
ATOM     51  C   UNL A   1      41.943  23.012  27.412  1.00  0.00     0.148 A 
ATOM     52  C   UNL A   1      43.215  23.535  24.969  1.00  0.00     0.002 A 
ATOM     53  C   UNL A   1      42.009  22.029  26.432  1.00  0.00     0.091 A 
ATOM     54  F   UNL A   1      41.311  22.802  28.576  1.00  0.00    -0.205 F 
ATOM     55  C   UNL A   1      42.629  22.294  25.202  1.00  0.00     0.022 A 
BRANCH  53  56
ATOM     56  S   UNL A   1      41.408  20.362  26.727  1.00  0.00     0.127 S 
ATOM     57  O   UNL A   1      39.969  20.577  26.843  1.00  0.00    -0.237 OA
ATOM     58  O   UNL A   1      41.831  19.660  25.514  1.00  0.00    -0.237 OA
ATOM     59  O   UNL A   1      42.092  19.920  27.936  1.00  0.00    -0.744 OA
ENDBRANCH  53  56
ENDBRANCH  25  49
BRANCH  37  60
ATOM     60  C   UNL A   1      47.068  26.024  32.218  1.00  0.00     0.023 A 
ATOM     61  C   UNL A   1      48.229  26.515  31.588  1.00  0.00     0.012 A 
ATOM     62  C   UNL A   1      47.188  25.074  33.248  1.00  0.00     0.148 A 
ATOM     63  C   UNL A   1      49.487  26.041  31.954  1.00  0.00     0.002 A 
ATOM     64  C   UNL A   1      48.449  24.641  33.641  1.00  0.00     0.091 A 
ATOM     65  F   UNL A   1      46.069  24.605  33.822  1.00  0.00    -0.205 F 
ATOM     66  C   UNL A   1      49.598  25.115  32.988  1.00  0.00     0.022 A 
BRANCH  64  67
ATOM     67  S   UNL A   1      48.690  23.517  35.022  1.00  0.00     0.127 S 
ATOM     68  O   UNL A   1      50.146  23.389  35.051  1.00  0.00    -0.237 OA
ATOM     69  O   UNL A   1      48.121  24.271  36.141  1.00  0.00    -0.237 OA
ATOM     70  O   UNL A   1      47.960  22.304  34.681  1.00  0.00    -0.744 OA
ENDBRANCH  64  67
ENDBRANCH  37  60
ENDBRANCH  11  12
ENDBRANCH   4   6
ENDBRANCH   1   2
BRANCH   1  71
ATOM     71  C   UNL A   1      32.167  28.043  27.636  1.00  0.00     0.042 C 
BRANCH  71  72
ATOM     72  C   UNL A   1      31.430  27.502  26.415  1.00  0.00     0.118 C 
BRANCH  72  73
ATOM     73  N   UNL A   1      31.253  26.067  26.528  1.00  0.00    -0.351 N 
ATOM     74  C   UNL A   1      31.340  25.114  25.552  1.00  0.00     0.279 C 
ATOM     75  H   UNL A   1      31.041  25.733  27.430  1.00  0.00     0.163 HD
ATOM     76  O   UNL A   1      30.923  23.988  25.831  1.00  0.00    -0.268 OA
BRANCH  74  77
ATOM     77  C   UNL A   1      32.056  25.449  24.233  1.00  0.00     0.283 C 
ATOM     78  C   UNL A   1      31.531  24.629  23.053  1.00  0.00     0.151 C 
ATOM     79  N   UNL A   1      33.523  25.239  24.445  1.00  0.00    -0.320 N 
ATOM     80  S   UNL A   1      33.028  24.084  22.205  1.00  0.00    -0.087 SA
ATOM     81  C   UNL A   1      33.942  23.990  23.785  1.00  0.00     0.278 C 
ATOM     82  H   UNL A   1      33.718  25.179  25.443  1.00  0.00     0.348 HD
ATOM     83  H   UNL A   1      34.039  26.024  24.044  1.00  0.00     0.348 HD
BRANCH  81  84
ATOM     84  C   UNL A   1      33.716  22.684  24.546  1.00  0.00     0.063 A 
ATOM     85  C   UNL A   1      33.296  21.529  23.846  1.00  0.00     0.030 A 
ATOM     86  C   UNL A   1      33.975  22.510  25.914  1.00  0.00     0.125 A 
ATOM     87  C   UNL A   1      33.044  20.320  24.504  1.00  0.00     0.018 A 
ATOM     88  C   UNL A   1      33.712  21.308  26.580  1.00  0.00     0.048 A 
ATOM     89  Br  UNL A   1      32.451  18.821  23.517  1.00  0.00    -0.051 Br
ATOM     90  C   UNL A   1      33.229  20.211  25.877  1.00  0.00     0.019 A 
BRANCH  86  91
ATOM     91  O   UNL A   1      34.496  23.509  26.682  1.00  0.00    -0.507 OA
ATOM     92  H   UNL A   1      35.223  24.011  26.369  1.00  0.00     0.293 HD
ENDBRANCH  86  91
ENDBRANCH  81  84
ENDBRANCH  74  77
ENDBRANCH  72  73
ENDBRANCH  71  72
ENDBRANCH   1  71
TORSDOF 15
ENDMDL
