MODEL 1
REMARK VINA RESULT:     -12.7      0.000      0.000
REMARK SMILES Cc1cc(F)cc(NC(=O)N[C@@H]2COC[C@H]2C(=O)NCCCNC(=O)c2ccc(-c3c4nc(c(-c5cccc(S(=O)(=O)[O-])c5F)c5ccc([nH]5)c(-c5cccc(S(=O)(=O)[O-])c5F)c5nc(c(-c6cccc(S(=O)(=O)[O-])c6F)c6ccc3[nH]6)C=C5)C=C4)cc2)c1
REMARK SMILES IDX 21 1 20 2 19 3 17 4 18 5 16 7 12 8 13 9 14 10 15 11 11 12
REMARK SMILES IDX 8 13 9 14 10 16 7 18 1 19 2 20 3 21 89 22 4 23 5 24 6 25
REMARK SMILES IDX 22 26 23 27 24 28 25 30 26 31 27 32 88 33 28 34 87 35 29 36
REMARK SMILES IDX 30 37 31 38 81 39 32 40 86 41 80 42 82 43 33 44 85 45 79 46
REMARK SMILES IDX 78 47 34 49 66 50 46 51 65 52 47 53 50 54 64 55 83 56 48 57
REMARK SMILES IDX 49 58 63 60 84 61 51 62 35 63 36 64 44 65 37 66 39 67 45 68
REMARK SMILES IDX 38 69 40 70 41 71 42 72 43 73 67 74 68 75 76 76 69 77 71 78
REMARK SMILES IDX 77 79 70 80 72 81 73 82 74 83 75 84 52 85 53 86 61 87 54 88
REMARK SMILES IDX 56 89 62 90 55 91 57 92 58 93 59 94 60 95
REMARK H PARENT 19 6 8 15 11 17 23 29 82 48 50 59
REMARK Flexibility Score: inf
ROOT
ATOM      1  C   UNL A   1      31.445  32.190  26.460  1.00  0.00     0.042 C 
ENDROOT
BRANCH   1   2
ATOM      2  C   UNL A   1      31.421  30.684  26.286  1.00  0.00     0.117 C 
BRANCH   2   3
ATOM      3  N   UNL A   1      32.712  30.079  26.584  1.00  0.00    -0.356 N 
ATOM      4  C   UNL A   1      33.221  28.840  26.353  1.00  0.00     0.227 C 
ATOM      5  O   UNL A   1      34.365  28.622  26.760  1.00  0.00    -0.275 OA
ATOM      6  H   UNL A   1      33.338  30.686  27.042  1.00  0.00     0.163 HD
BRANCH   4   7
ATOM      7  C   UNL A   1      32.445  27.749  25.635  1.00  0.00     0.129 C 
ATOM      8  C   UNL A   1      33.321  26.595  25.197  1.00  0.00     0.124 C 
ATOM      9  C   UNL A   1      32.816  25.366  25.938  1.00  0.00     0.186 C 
ATOM     10  O   UNL A   1      31.669  25.752  26.718  1.00  0.00    -0.378 OA
ATOM     11  C   UNL A   1      31.389  27.151  26.540  1.00  0.00     0.176 C 
BRANCH   8  12
ATOM     12  N   UNL A   1      33.576  26.438  23.754  1.00  0.00    -0.332 N 
ATOM     13  N   UNL A   1      32.078  27.319  22.067  1.00  0.00    -0.308 N 
ATOM     14  C   UNL A   1      33.170  26.716  22.526  1.00  0.00     0.319 C 
ATOM     15  H   UNL A   1      32.204  27.539  21.116  1.00  0.00     0.171 HD
ATOM     16  O   UNL A   1      33.979  26.391  21.642  1.00  0.00    -0.248 OA
ATOM     17  H   UNL A   1      34.394  25.899  23.666  1.00  0.00     0.165 HD
BRANCH  13  18
ATOM     18  C   UNL A   1      30.813  27.748  22.477  1.00  0.00     0.046 A 
ATOM     19  C   UNL A   1      28.734  30.953  22.175  1.00  0.00     0.044 C 
ATOM     20  C   UNL A   1      29.169  29.570  22.544  1.00  0.00    -0.046 A 
ATOM     21  C   UNL A   1      28.300  28.758  23.275  1.00  0.00     0.042 A 
ATOM     22  C   UNL A   1      30.432  29.067  22.175  1.00  0.00     0.029 A 
ATOM     23  C   UNL A   1      28.663  27.452  23.531  1.00  0.00     0.125 A 
ATOM     24  F   UNL A   1      27.823  26.654  24.204  1.00  0.00    -0.207 F 
ATOM     25  C   UNL A   1      29.883  26.950  23.093  1.00  0.00     0.065 A 
ENDBRANCH  13  18
ENDBRANCH   8  12
ENDBRANCH   4   7
ENDBRANCH   2   3
ENDBRANCH   1   2
BRANCH   1  26
ATOM     26  C   UNL A   1      32.596  32.634  27.341  1.00  0.00     0.118 C 
BRANCH  26  27
ATOM     27  N   UNL A   1      32.459  34.033  27.742  1.00  0.00    -0.352 N 
ATOM     28  C   UNL A   1      33.136  34.709  28.727  1.00  0.00     0.251 C 
ATOM     29  H   UNL A   1      31.794  34.559  27.241  1.00  0.00     0.163 HD
ATOM     30  O   UNL A   1      32.737  35.793  29.137  1.00  0.00    -0.269 OA
BRANCH  28  31
ATOM     31  C   UNL A   1      34.355  34.090  29.275  1.00  0.00     0.039 A 
ATOM     32  C   UNL A   1      35.608  34.426  28.764  1.00  0.00     0.014 A 
ATOM     33  C   UNL A   1      34.231  33.225  30.364  1.00  0.00     0.014 A 
ATOM     34  C   UNL A   1      36.752  33.934  29.395  1.00  0.00     0.010 A 
ATOM     35  C   UNL A   1      35.362  32.848  31.061  1.00  0.00     0.010 A 
ATOM     36  C   UNL A   1      36.635  33.167  30.564  1.00  0.00    -0.014 A 
BRANCH  36  37
ATOM     37  C   UNL A   1      37.804  32.604  31.279  1.00  0.00     0.031 A 
ATOM     38  C   UNL A   1      38.544  31.455  30.646  1.00  0.00     0.074 A 
ATOM     39  C   UNL A   1      38.099  33.008  32.529  1.00  0.00     0.049 A 
ATOM     40  N   UNL A   1      39.434  30.656  31.169  1.00  0.00    -0.248 NA
ATOM     41  C   UNL A   1      38.180  31.119  29.257  1.00  0.00     0.031 C 
ATOM     42  C   UNL A   1      37.398  34.057  33.274  1.00  0.00     0.029 A 
ATOM     43  N   UNL A   1      39.044  32.550  33.412  1.00  0.00    -0.354 N 
ATOM     44  C   UNL A   1      39.675  29.684  30.204  1.00  0.00     0.074 A 
ATOM     45  C   UNL A   1      38.806  29.965  29.086  1.00  0.00     0.031 C 
ATOM     46  C   UNL A   1      37.939  34.162  34.499  1.00  0.00     0.029 A 
ATOM     47  C   UNL A   1      38.995  33.166  34.640  1.00  0.00     0.049 A 
ATOM     48  H   UNL A   1      39.696  31.847  33.186  1.00  0.00     0.167 HD
ATOM     49  C   UNL A   1      40.568  28.667  30.232  1.00  0.00     0.034 A 
ATOM     50  C   UNL A   1      39.716  32.938  35.756  1.00  0.00     0.034 A 
ATOM     51  C   UNL A   1      41.492  28.461  31.309  1.00  0.00     0.049 A 
ATOM     52  C   UNL A   1      40.775  31.868  35.726  1.00  0.00     0.074 A 
ATOM     53  C   UNL A   1      42.519  27.541  31.397  1.00  0.00     0.029 A 
ATOM     54  N   UNL A   1      41.511  29.203  32.480  1.00  0.00    -0.354 N 
ATOM     55  N   UNL A   1      41.087  31.044  34.754  1.00  0.00    -0.248 NA
ATOM     56  C   UNL A   1      41.607  31.720  36.928  1.00  0.00     0.031 C 
ATOM     57  C   UNL A   1      43.157  27.723  32.629  1.00  0.00     0.029 A 
ATOM     58  C   UNL A   1      42.539  28.769  33.296  1.00  0.00     0.049 A 
ATOM     59  H   UNL A   1      40.886  29.932  32.698  1.00  0.00     0.167 HD
ATOM     60  C   UNL A   1      42.178  30.313  35.208  1.00  0.00     0.074 A 
ATOM     61  C   UNL A   1      42.479  30.797  36.540  1.00  0.00     0.031 C 
ATOM     62  C   UNL A   1      42.862  29.322  34.585  1.00  0.00     0.034 A 
BRANCH  49  63
ATOM     63  C   UNL A   1      40.626  27.755  29.036  1.00  0.00     0.023 A 
ATOM     64  C   UNL A   1      39.734  26.667  28.941  1.00  0.00     0.012 A 
ATOM     65  C   UNL A   1      41.543  27.988  27.991  1.00  0.00     0.148 A 
ATOM     66  C   UNL A   1      39.784  25.797  27.854  1.00  0.00     0.002 A 
ATOM     67  C   UNL A   1      41.551  27.147  26.884  1.00  0.00     0.091 A 
ATOM     68  F   UNL A   1      42.401  29.011  28.107  1.00  0.00    -0.205 F 
ATOM     69  C   UNL A   1      40.684  26.043  26.821  1.00  0.00     0.022 A 
BRANCH  67  70
ATOM     70  S   UNL A   1      42.613  27.430  25.464  1.00  0.00     0.127 S 
ATOM     71  O   UNL A   1      43.942  27.365  26.072  1.00  0.00    -0.237 OA
ATOM     72  O   UNL A   1      42.283  26.295  24.601  1.00  0.00    -0.237 OA
ATOM     73  O   UNL A   1      42.229  28.728  24.930  1.00  0.00    -0.744 OA
ENDBRANCH  67  70
ENDBRANCH  49  63
BRANCH  50  74
ATOM     74  C   UNL A   1      39.518  33.797  36.957  1.00  0.00     0.023 A 
ATOM     75  C   UNL A   1      39.930  35.144  36.912  1.00  0.00     0.012 A 
ATOM     76  C   UNL A   1      38.886  33.312  38.118  1.00  0.00     0.148 A 
ATOM     77  C   UNL A   1      39.746  35.983  38.011  1.00  0.00     0.002 A 
ATOM     78  C   UNL A   1      38.658  34.169  39.191  1.00  0.00     0.091 A 
ATOM     79  F   UNL A   1      38.505  32.027  38.145  1.00  0.00    -0.205 F 
ATOM     80  C   UNL A   1      39.102  35.499  39.145  1.00  0.00     0.022 A 
BRANCH  78  81
ATOM     81  S   UNL A   1      37.718  33.671  40.639  1.00  0.00     0.127 S 
ATOM     82  O   UNL A   1      38.609  32.687  41.250  1.00  0.00    -0.237 OA
ATOM     83  O   UNL A   1      37.600  34.933  41.370  1.00  0.00    -0.237 OA
ATOM     84  O   UNL A   1      36.456  33.154  40.129  1.00  0.00    -0.744 OA
ENDBRANCH  78  81
ENDBRANCH  50  74
BRANCH  62  85
ATOM     85  C   UNL A   1      44.047  28.731  35.298  1.00  0.00     0.023 A 
ATOM     86  C   UNL A   1      45.327  29.290  35.119  1.00  0.00     0.012 A 
ATOM     87  C   UNL A   1      43.863  27.695  36.236  1.00  0.00     0.148 A 
ATOM     88  C   UNL A   1      46.413  28.813  35.852  1.00  0.00     0.002 A 
ATOM     89  C   UNL A   1      44.940  27.259  36.997  1.00  0.00     0.091 A 
ATOM     90  F   UNL A   1      42.639  27.167  36.374  1.00  0.00    -0.205 F 
ATOM     91  C   UNL A   1      46.217  27.810  36.800  1.00  0.00     0.022 A 
BRANCH  89  92
ATOM     92  S   UNL A   1      44.759  26.047  38.310  1.00  0.00     0.127 S 
ATOM     93  O   UNL A   1      46.134  25.923  38.791  1.00  0.00    -0.237 OA
ATOM     94  O   UNL A   1      43.848  26.725  39.234  1.00  0.00    -0.237 OA
ATOM     95  O   UNL A   1      44.206  24.854  37.684  1.00  0.00    -0.744 OA
ENDBRANCH  89  92
ENDBRANCH  62  85
ENDBRANCH  36  37
ENDBRANCH  28  31
ENDBRANCH  26  27
ENDBRANCH   1  26
TORSDOF 15
ENDMDL
MODEL 2
REMARK VINA RESULT:     -12.6      2.564      3.679
REMARK SMILES Cc1cc(F)cc(NC(=O)N[C@@H]2COC[C@H]2C(=O)NCCCNC(=O)c2ccc(-c3c4nc(c(-c5cccc(S(=O)(=O)[O-])c5F)c5ccc([nH]5)c(-c5cccc(S(=O)(=O)[O-])c5F)c5nc(c(-c6cccc(S(=O)(=O)[O-])c6F)c6ccc3[nH]6)C=C5)C=C4)cc2)c1
REMARK SMILES IDX 21 1 20 2 19 3 17 4 18 5 16 7 12 8 13 9 14 10 15 11 11 12
REMARK SMILES IDX 8 13 9 14 10 16 7 18 1 19 2 20 3 21 89 22 4 23 5 24 6 25
REMARK SMILES IDX 22 26 23 27 24 28 25 30 26 31 27 32 88 33 28 34 87 35 29 36
REMARK SMILES IDX 30 37 31 38 81 39 32 40 86 41 80 42 82 43 33 44 85 45 79 46
REMARK SMILES IDX 78 47 34 49 66 50 46 51 65 52 47 53 50 54 64 55 83 56 48 57
REMARK SMILES IDX 49 58 63 60 84 61 51 62 35 63 36 64 44 65 37 66 39 67 45 68
REMARK SMILES IDX 38 69 40 70 41 71 42 72 43 73 67 74 68 75 76 76 69 77 71 78
REMARK SMILES IDX 77 79 70 80 72 81 73 82 74 83 75 84 52 85 53 86 61 87 54 88
REMARK SMILES IDX 56 89 62 90 55 91 57 92 58 93 59 94 60 95
REMARK H PARENT 19 6 8 15 11 17 23 29 82 48 50 59
REMARK Flexibility Score: inf
ROOT
ATOM      1  C   UNL A   1      32.772  27.946  25.292  1.00  0.00     0.042 C 
ENDROOT
BRANCH   1   2
ATOM      2  C   UNL A   1      33.565  26.821  25.927  1.00  0.00     0.117 C 
BRANCH   2   3
ATOM      3  N   UNL A   1      34.177  25.954  24.929  1.00  0.00    -0.356 N 
ATOM      4  C   UNL A   1      34.471  24.627  24.922  1.00  0.00     0.227 C 
ATOM      5  O   UNL A   1      35.026  24.184  23.913  1.00  0.00    -0.275 OA
ATOM      6  H   UNL A   1      34.424  26.420  24.097  1.00  0.00     0.163 HD
BRANCH   4   7
ATOM      7  C   UNL A   1      34.152  23.704  26.085  1.00  0.00     0.129 C 
ATOM      8  C   UNL A   1      32.976  22.793  25.807  1.00  0.00     0.124 C 
ATOM      9  C   UNL A   1      33.512  21.370  25.857  1.00  0.00     0.186 C 
ATOM     10  O   UNL A   1      34.908  21.428  26.209  1.00  0.00    -0.378 OA
ATOM     11  C   UNL A   1      35.322  22.794  26.390  1.00  0.00     0.176 C 
BRANCH   8  12
ATOM     12  N   UNL A   1      31.722  23.051  26.536  1.00  0.00    -0.332 N 
ATOM     13  N   UNL A   1      29.972  24.471  25.649  1.00  0.00    -0.308 N 
ATOM     14  C   UNL A   1      30.538  23.642  26.520  1.00  0.00     0.319 C 
ATOM     15  H   UNL A   1      29.011  24.545  25.848  1.00  0.00     0.171 HD
ATOM     16  O   UNL A   1      29.806  23.328  27.472  1.00  0.00    -0.248 OA
ATOM     17  H   UNL A   1      31.795  22.589  27.402  1.00  0.00     0.165 HD
BRANCH  13  18
ATOM     18  C   UNL A   1      30.278  25.272  24.546  1.00  0.00     0.046 A 
ATOM     19  C   UNL A   1      32.562  25.020  21.479  1.00  0.00     0.044 C 
ATOM     20  C   UNL A   1      31.588  25.544  22.488  1.00  0.00    -0.046 A 
ATOM     21  C   UNL A   1      31.018  26.802  22.291  1.00  0.00     0.042 A 
ATOM     22  C   UNL A   1      31.234  24.800  23.630  1.00  0.00     0.029 A 
ATOM     23  C   UNL A   1      30.050  27.241  23.169  1.00  0.00     0.125 A 
ATOM     24  F   UNL A   1      29.472  28.433  22.973  1.00  0.00    -0.207 F 
ATOM     25  C   UNL A   1      29.658  26.460  24.251  1.00  0.00     0.065 A 
ENDBRANCH  13  18
ENDBRANCH   8  12
ENDBRANCH   4   7
ENDBRANCH   2   3
ENDBRANCH   1   2
BRANCH   1  26
ATOM     26  C   UNL A   1      33.591  29.216  25.178  1.00  0.00     0.118 C 
BRANCH  26  27
ATOM     27  N   UNL A   1      32.875  30.371  25.716  1.00  0.00    -0.352 N 
ATOM     28  C   UNL A   1      33.151  31.093  26.851  1.00  0.00     0.251 C 
ATOM     29  H   UNL A   1      32.092  30.669  25.198  1.00  0.00     0.163 HD
ATOM     30  O   UNL A   1      32.321  31.859  27.329  1.00  0.00    -0.269 OA
BRANCH  28  31
ATOM     31  C   UNL A   1      34.472  30.918  27.476  1.00  0.00     0.039 A 
ATOM     32  C   UNL A   1      35.331  32.006  27.628  1.00  0.00     0.014 A 
ATOM     33  C   UNL A   1      34.810  29.660  27.981  1.00  0.00     0.014 A 
ATOM     34  C   UNL A   1      36.515  31.841  28.349  1.00  0.00     0.010 A 
ATOM     35  C   UNL A   1      35.914  29.534  28.801  1.00  0.00     0.010 A 
ATOM     36  C   UNL A   1      36.798  30.612  28.965  1.00  0.00    -0.014 A 
BRANCH  36  37
ATOM     37  C   UNL A   1      38.038  30.362  29.735  1.00  0.00     0.031 A 
ATOM     38  C   UNL A   1      39.056  29.412  29.163  1.00  0.00     0.074 A 
ATOM     39  C   UNL A   1      38.176  30.852  30.982  1.00  0.00     0.049 A 
ATOM     40  N   UNL A   1      40.091  28.862  29.739  1.00  0.00    -0.248 NA
ATOM     41  C   UNL A   1      38.840  28.970  27.772  1.00  0.00     0.031 C 
ATOM     42  C   UNL A   1      37.215  31.716  31.671  1.00  0.00     0.029 A 
ATOM     43  N   UNL A   1      39.167  30.653  31.909  1.00  0.00    -0.354 N 
ATOM     44  C   UNL A   1      40.596  27.957  28.812  1.00  0.00     0.074 A 
ATOM     45  C   UNL A   1      39.731  27.998  27.657  1.00  0.00     0.031 C 
ATOM     46  C   UNL A   1      37.665  31.974  32.910  1.00  0.00     0.029 A 
ATOM     47  C   UNL A   1      38.923  31.264  33.117  1.00  0.00     0.049 A 
ATOM     48  H   UNL A   1      39.977  30.124  31.727  1.00  0.00     0.167 HD
ATOM     49  C   UNL A   1      41.705  27.187  28.901  1.00  0.00     0.034 A 
ATOM     50  C   UNL A   1      39.632  31.241  34.263  1.00  0.00     0.034 A 
ATOM     51  C   UNL A   1      42.608  27.232  30.014  1.00  0.00     0.049 A 
ATOM     52  C   UNL A   1      40.917  30.457  34.301  1.00  0.00     0.074 A 
ATOM     53  C   UNL A   1      43.821  26.588  30.165  1.00  0.00     0.029 A 
ATOM     54  N   UNL A   1      42.401  27.981  31.162  1.00  0.00    -0.354 N 
ATOM     55  N   UNL A   1      41.456  29.713  33.364  1.00  0.00    -0.248 NA
ATOM     56  C   UNL A   1      41.712  30.539  35.534  1.00  0.00     0.031 C 
ATOM     57  C   UNL A   1      44.347  26.945  31.411  1.00  0.00     0.029 A 
ATOM     58  C   UNL A   1      43.470  27.825  32.025  1.00  0.00     0.049 A 
ATOM     59  H   UNL A   1      41.611  28.542  31.337  1.00  0.00     0.167 HD
ATOM     60  C   UNL A   1      42.672  29.276  33.877  1.00  0.00     0.074 A 
ATOM     61  C   UNL A   1      42.794  29.846  35.203  1.00  0.00     0.031 C 
ATOM     62  C   UNL A   1      43.599  28.466  33.308  1.00  0.00     0.034 A 
BRANCH  49  63
ATOM     63  C   UNL A   1      42.029  26.291  27.735  1.00  0.00     0.023 A 
ATOM     64  C   UNL A   1      42.773  26.798  26.649  1.00  0.00     0.012 A 
ATOM     65  C   UNL A   1      41.624  24.942  27.723  1.00  0.00     0.148 A 
ATOM     66  C   UNL A   1      43.067  25.994  25.550  1.00  0.00     0.002 A 
ATOM     67  C   UNL A   1      41.967  24.132  26.646  1.00  0.00     0.091 A 
ATOM     68  F   UNL A   1      40.896  24.481  28.749  1.00  0.00    -0.205 F 
ATOM     69  C   UNL A   1      42.674  24.660  25.553  1.00  0.00     0.022 A 
BRANCH  67  70
ATOM     70  S   UNL A   1      41.580  22.378  26.596  1.00  0.00     0.127 S 
ATOM     71  O   UNL A   1      40.120  22.400  26.513  1.00  0.00    -0.237 OA
ATOM     72  O   UNL A   1      42.253  21.949  25.370  1.00  0.00    -0.237 OA
ATOM     73  O   UNL A   1      42.131  21.813  27.819  1.00  0.00    -0.744 OA
ENDBRANCH  67  70
ENDBRANCH  49  63
BRANCH  50  74
ATOM     74  C   UNL A   1      39.185  32.052  35.430  1.00  0.00     0.023 A 
ATOM     75  C   UNL A   1      38.291  31.481  36.358  1.00  0.00     0.012 A 
ATOM     76  C   UNL A   1      39.670  33.354  35.656  1.00  0.00     0.148 A 
ATOM     77  C   UNL A   1      37.863  32.204  37.472  1.00  0.00     0.002 A 
ATOM     78  C   UNL A   1      39.281  34.049  36.797  1.00  0.00     0.091 A 
ATOM     79  F   UNL A   1      40.516  33.881  34.760  1.00  0.00    -0.205 F 
ATOM     80  C   UNL A   1      38.364  33.482  37.697  1.00  0.00     0.022 A 
BRANCH  78  81
ATOM     81  S   UNL A   1      39.977  35.645  37.238  1.00  0.00     0.127 S 
ATOM     82  O   UNL A   1      41.393  35.322  37.392  1.00  0.00    -0.237 OA
ATOM     83  O   UNL A   1      39.653  36.451  36.061  1.00  0.00    -0.237 OA
ATOM     84  O   UNL A   1      39.284  36.053  38.452  1.00  0.00    -0.744 OA
ENDBRANCH  78  81
ENDBRANCH  50  74
BRANCH  62  85
ATOM     85  C   UNL A   1      44.861  28.193  34.078  1.00  0.00     0.023 A 
ATOM     86  C   UNL A   1      45.942  29.092  33.999  1.00  0.00     0.012 A 
ATOM     87  C   UNL A   1      44.923  27.104  34.971  1.00  0.00     0.148 A 
ATOM     88  C   UNL A   1      47.077  28.900  34.786  1.00  0.00     0.002 A 
ATOM     89  C   UNL A   1      46.036  26.948  35.786  1.00  0.00     0.091 A 
ATOM     90  F   UNL A   1      43.888  26.253  35.014  1.00  0.00    -0.205 F 
ATOM     91  C   UNL A   1      47.118  27.839  35.689  1.00  0.00     0.022 A 
BRANCH  89  92
ATOM     92  S   UNL A   1      46.130  25.674  37.049  1.00  0.00     0.127 S 
ATOM     93  O   UNL A   1      47.428  25.956  37.660  1.00  0.00    -0.237 OA
ATOM     94  O   UNL A   1      44.976  25.989  37.893  1.00  0.00    -0.237 OA
ATOM     95  O   UNL A   1      46.033  24.402  36.346  1.00  0.00    -0.744 OA
ENDBRANCH  89  92
ENDBRANCH  62  85
ENDBRANCH  36  37
ENDBRANCH  28  31
ENDBRANCH  26  27
ENDBRANCH   1  26
TORSDOF 15
ENDMDL
MODEL 3
REMARK VINA RESULT:     -12.5      3.570      8.871
REMARK SMILES Cc1cc(F)cc(NC(=O)N[C@@H]2COC[C@H]2C(=O)NCCCNC(=O)c2ccc(-c3c4nc(c(-c5cccc(S(=O)(=O)[O-])c5F)c5ccc([nH]5)c(-c5cccc(S(=O)(=O)[O-])c5F)c5nc(c(-c6cccc(S(=O)(=O)[O-])c6F)c6ccc3[nH]6)C=C5)C=C4)cc2)c1
REMARK SMILES IDX 21 1 20 2 19 3 17 4 18 5 16 7 12 8 13 9 14 10 15 11 11 12
REMARK SMILES IDX 8 13 9 14 10 16 7 18 1 19 2 20 3 21 89 22 4 23 5 24 6 25
REMARK SMILES IDX 22 26 23 27 24 28 25 30 26 31 27 32 88 33 28 34 87 35 29 36
REMARK SMILES IDX 30 37 31 38 81 39 32 40 86 41 80 42 82 43 33 44 85 45 79 46
REMARK SMILES IDX 78 47 34 49 66 50 46 51 65 52 47 53 50 54 64 55 83 56 48 57
REMARK SMILES IDX 49 58 63 60 84 61 51 62 35 63 36 64 44 65 37 66 39 67 45 68
REMARK SMILES IDX 38 69 40 70 41 71 42 72 43 73 67 74 68 75 76 76 69 77 71 78
REMARK SMILES IDX 77 79 70 80 72 81 73 82 74 83 75 84 52 85 53 86 61 87 54 88
REMARK SMILES IDX 56 89 62 90 55 91 57 92 58 93 59 94 60 95
REMARK H PARENT 19 6 8 15 11 17 23 29 82 48 50 59
REMARK Flexibility Score: inf
ROOT
ATOM      1  C   UNL A   1      33.665  27.844  25.852  1.00  0.00     0.042 C 
ENDROOT
BRANCH   1   2
ATOM      2  C   UNL A   1      33.463  26.351  26.017  1.00  0.00     0.117 C 
BRANCH   2   3
ATOM      3  N   UNL A   1      34.339  25.582  25.143  1.00  0.00    -0.356 N 
ATOM      4  C   UNL A   1      34.702  24.272  25.129  1.00  0.00     0.227 C 
ATOM      5  O   UNL A   1      35.500  23.924  24.255  1.00  0.00    -0.275 OA
ATOM      6  H   UNL A   1      34.746  26.114  24.421  1.00  0.00     0.163 HD
BRANCH   4   7
ATOM      7  C   UNL A   1      34.175  23.258  26.130  1.00  0.00     0.129 C 
ATOM      8  C   UNL A   1      32.878  22.615  25.688  1.00  0.00     0.124 C 
ATOM      9  C   UNL A   1      33.165  21.129  25.532  1.00  0.00     0.186 C 
ATOM     10  O   UNL A   1      34.531  20.892  25.921  1.00  0.00    -0.378 OA
ATOM     11  C   UNL A   1      35.160  22.124  26.319  1.00  0.00     0.176 C 
BRANCH   8  12
ATOM     12  N   UNL A   1      31.651  22.978  26.419  1.00  0.00    -0.332 N 
ATOM     13  N   UNL A   1      30.054  24.584  25.561  1.00  0.00    -0.308 N 
ATOM     14  C   UNL A   1      30.531  23.682  26.412  1.00  0.00     0.319 C 
ATOM     15  H   UNL A   1      29.104  24.747  25.758  1.00  0.00     0.171 HD
ATOM     16  O   UNL A   1      29.765  23.419  27.353  1.00  0.00    -0.248 OA
ATOM     17  H   UNL A   1      31.673  22.489  27.273  1.00  0.00     0.165 HD
BRANCH  13  18
ATOM     18  C   UNL A   1      30.444  25.378  24.479  1.00  0.00     0.046 A 
ATOM     19  C   UNL A   1      30.170  29.075  23.508  1.00  0.00     0.044 C 
ATOM     20  C   UNL A   1      30.475  27.611  23.459  1.00  0.00    -0.046 A 
ATOM     21  C   UNL A   1      31.138  27.093  22.346  1.00  0.00     0.042 A 
ATOM     22  C   UNL A   1      30.108  26.743  24.505  1.00  0.00     0.029 A 
ATOM     23  C   UNL A   1      31.504  25.763  22.345  1.00  0.00     0.125 A 
ATOM     24  F   UNL A   1      32.169  25.261  21.297  1.00  0.00    -0.207 F 
ATOM     25  C   UNL A   1      31.198  24.937  23.421  1.00  0.00     0.065 A 
ENDBRANCH  13  18
ENDBRANCH   8  12
ENDBRANCH   4   7
ENDBRANCH   2   3
ENDBRANCH   1   2
BRANCH   1  26
ATOM     26  C   UNL A   1      33.855  28.536  27.187  1.00  0.00     0.118 C 
BRANCH  26  27
ATOM     27  N   UNL A   1      33.845  29.991  27.046  1.00  0.00    -0.352 N 
ATOM     28  C   UNL A   1      34.672  30.912  27.642  1.00  0.00     0.251 C 
ATOM     29  H   UNL A   1      33.156  30.359  26.447  1.00  0.00     0.163 HD
ATOM     30  O   UNL A   1      34.386  32.104  27.651  1.00  0.00    -0.269 OA
BRANCH  28  31
ATOM     31  C   UNL A   1      35.910  30.422  28.271  1.00  0.00     0.039 A 
ATOM     32  C   UNL A   1      35.875  29.829  29.532  1.00  0.00     0.014 A 
ATOM     33  C   UNL A   1      37.101  30.496  27.544  1.00  0.00     0.014 A 
ATOM     34  C   UNL A   1      37.037  29.248  30.042  1.00  0.00     0.010 A 
ATOM     35  C   UNL A   1      38.210  29.808  27.993  1.00  0.00     0.010 A 
ATOM     36  C   UNL A   1      38.203  29.209  29.262  1.00  0.00    -0.014 A 
BRANCH  36  37
ATOM     37  C   UNL A   1      39.474  28.618  29.742  1.00  0.00     0.031 A 
ATOM     38  C   UNL A   1      40.208  29.312  30.859  1.00  0.00     0.074 A 
ATOM     39  C   UNL A   1      40.032  27.579  29.092  1.00  0.00     0.049 A 
ATOM     40  N   UNL A   1      41.427  29.129  31.288  1.00  0.00    -0.248 NA
ATOM     41  C   UNL A   1      39.493  30.409  31.539  1.00  0.00     0.031 C 
ATOM     42  C   UNL A   1      39.451  26.879  27.944  1.00  0.00     0.029 A 
ATOM     43  N   UNL A   1      41.240  26.958  29.282  1.00  0.00    -0.354 N 
ATOM     44  C   UNL A   1      41.647  30.131  32.226  1.00  0.00     0.074 A 
ATOM     45  C   UNL A   1      40.456  30.946  32.271  1.00  0.00     0.031 C 
ATOM     46  C   UNL A   1      40.302  25.925  27.535  1.00  0.00     0.029 A 
ATOM     47  C   UNL A   1      41.503  25.970  28.362  1.00  0.00     0.049 A 
ATOM     48  H   UNL A   1      41.861  27.196  30.009  1.00  0.00     0.167 HD
ATOM     49  C   UNL A   1      42.732  30.333  33.009  1.00  0.00     0.034 A 
ATOM     50  C   UNL A   1      42.597  25.199  28.202  1.00  0.00     0.034 A 
ATOM     51  C   UNL A   1      43.867  29.456  33.024  1.00  0.00     0.049 A 
ATOM     52  C   UNL A   1      43.750  25.376  29.153  1.00  0.00     0.074 A 
ATOM     53  C   UNL A   1      44.971  29.490  33.854  1.00  0.00     0.029 A 
ATOM     54  N   UNL A   1      44.031  28.372  32.175  1.00  0.00    -0.354 N 
ATOM     55  N   UNL A   1      43.888  26.242  30.130  1.00  0.00    -0.248 NA
ATOM     56  C   UNL A   1      44.881  24.449  29.010  1.00  0.00     0.031 C 
ATOM     57  C   UNL A   1      45.809  28.427  33.502  1.00  0.00     0.029 A 
ATOM     58  C   UNL A   1      45.215  27.721  32.467  1.00  0.00     0.049 A 
ATOM     59  H   UNL A   1      43.399  28.104  31.470  1.00  0.00     0.167 HD
ATOM     60  C   UNL A   1      45.096  25.934  30.745  1.00  0.00     0.074 A 
ATOM     61  C   UNL A   1      45.647  24.798  30.036  1.00  0.00     0.031 C 
ATOM     62  C   UNL A   1      45.701  26.545  31.793  1.00  0.00     0.034 A 
BRANCH  49  63
ATOM     63  C   UNL A   1      42.704  31.504  33.955  1.00  0.00     0.023 A 
ATOM     64  C   UNL A   1      43.251  32.741  33.553  1.00  0.00     0.012 A 
ATOM     65  C   UNL A   1      42.112  31.393  35.229  1.00  0.00     0.148 A 
ATOM     66  C   UNL A   1      43.255  33.833  34.419  1.00  0.00     0.002 A 
ATOM     67  C   UNL A   1      42.074  32.502  36.066  1.00  0.00     0.091 A 
ATOM     68  F   UNL A   1      41.620  30.206  35.606  1.00  0.00    -0.205 F 
ATOM     69  C   UNL A   1      42.658  33.717  35.670  1.00  0.00     0.022 A 
BRANCH  67  70
ATOM     70  S   UNL A   1      41.250  32.477  37.663  1.00  0.00     0.127 S 
ATOM     71  O   UNL A   1      42.125  31.594  38.433  1.00  0.00    -0.237 OA
ATOM     72  O   UNL A   1      41.304  33.884  38.059  1.00  0.00    -0.237 OA
ATOM     73  O   UNL A   1      39.909  31.970  37.412  1.00  0.00    -0.744 OA
ENDBRANCH  67  70
ENDBRANCH  49  63
BRANCH  50  74
ATOM     74  C   UNL A   1      42.612  24.138  27.156  1.00  0.00     0.023 A 
ATOM     75  C   UNL A   1      43.275  24.386  25.938  1.00  0.00     0.012 A 
ATOM     76  C   UNL A   1      42.022  22.878  27.372  1.00  0.00     0.148 A 
ATOM     77  C   UNL A   1      43.324  23.410  24.942  1.00  0.00     0.002 A 
ATOM     78  C   UNL A   1      42.121  21.892  26.396  1.00  0.00     0.091 A 
ATOM     79  F   UNL A   1      41.391  22.662  28.535  1.00  0.00    -0.205 F 
ATOM     80  C   UNL A   1      42.757  22.162  25.174  1.00  0.00     0.022 A 
BRANCH  78  81
ATOM     81  S   UNL A   1      41.537  20.213  26.658  1.00  0.00     0.127 S 
ATOM     82  O   UNL A   1      41.937  19.559  25.414  1.00  0.00    -0.237 OA
ATOM     83  O   UNL A   1      42.301  19.809  27.839  1.00  0.00    -0.237 OA
ATOM     84  O   UNL A   1      40.103  20.327  26.882  1.00  0.00    -0.744 OA
ENDBRANCH  78  81
ENDBRANCH  50  74
BRANCH  62  85
ATOM     85  C   UNL A   1      46.998  25.967  32.290  1.00  0.00     0.023 A 
ATOM     86  C   UNL A   1      48.221  26.456  31.794  1.00  0.00     0.012 A 
ATOM     87  C   UNL A   1      46.997  25.023  33.337  1.00  0.00     0.148 A 
ATOM     88  C   UNL A   1      49.428  25.999  32.321  1.00  0.00     0.002 A 
ATOM     89  C   UNL A   1      48.202  24.609  33.889  1.00  0.00     0.091 A 
ATOM     90  F   UNL A   1      45.818  24.560  33.779  1.00  0.00    -0.205 F 
ATOM     91  C   UNL A   1      49.418  25.088  33.377  1.00  0.00     0.022 A 
BRANCH  89  92
ATOM     92  S   UNL A   1      48.280  23.521  35.316  1.00  0.00     0.127 S 
ATOM     93  O   UNL A   1      47.546  24.293  36.318  1.00  0.00    -0.237 OA
ATOM     94  O   UNL A   1      47.582  22.327  34.834  1.00  0.00    -0.237 OA
ATOM     95  O   UNL A   1      49.695  23.322  35.594  1.00  0.00    -0.744 OA
ENDBRANCH  89  92
ENDBRANCH  62  85
ENDBRANCH  36  37
ENDBRANCH  28  31
ENDBRANCH  26  27
ENDBRANCH   1  26
TORSDOF 15
ENDMDL
