MODEL 1
REMARK VINA RESULT:     -12.2      0.000      0.000
REMARK SMILES COc1cc2c[nH]nc2cc1C(=O)NCCCNC(=O)c1ccc(-c2c3nc(c(-c4cccc(S(=O)(=O)[O-])c4F)c4ccc([nH]4)c(-c4cccc(S(=O)(=O)[O-])c4F)c4nc(c(-c5cccc(S(=O)(=O)[O-])c5F)c5ccc2[nH]5)C=C4)C=C3)cc1
REMARK SMILES IDX 17 1 16 2 15 3 14 4 12 5 13 6 11 8 3 9 4 10 5 11 10 12 6 13
REMARK SMILES IDX 9 14 7 15 8 16 2 18 1 19 18 20 19 21 20 23 21 24 22 25 83 26
REMARK SMILES IDX 23 27 82 28 24 29 25 30 26 31 76 32 27 33 81 34 75 35 77 36
REMARK SMILES IDX 28 37 80 38 74 39 73 40 29 42 61 43 41 44 60 45 42 46 45 47
REMARK SMILES IDX 59 48 78 49 43 50 44 51 58 53 79 54 46 55 30 56 31 57 39 58
REMARK SMILES IDX 32 59 34 60 40 61 33 62 35 63 36 64 37 65 38 66 62 67 63 68
REMARK SMILES IDX 71 69 64 70 66 71 72 72 65 73 67 74 68 75 69 76 70 77 47 78
REMARK SMILES IDX 48 79 56 80 49 81 51 82 57 83 50 84 52 85 53 86 54 87 55 88
REMARK H PARENT 14 7 7 17 18 22 77 41 45 52
REMARK Flexibility Score: inf
ROOT
ATOM      1  C   UNL A   1      37.195  21.973  24.351  1.00  0.00     0.118 C 
ENDROOT
BRANCH   1   2
ATOM      2  C   UNL A   1      35.681  21.822  24.410  1.00  0.00     0.042 C 
BRANCH   2   3
ATOM      3  C   UNL A   1      35.137  21.285  25.721  1.00  0.00     0.118 C 
BRANCH   3   4
ATOM      4  N   UNL A   1      34.127  20.249  25.579  1.00  0.00    -0.352 N 
ATOM      5  C   UNL A   1      32.806  20.346  25.222  1.00  0.00     0.255 C 
ATOM      6  O   UNL A   1      32.165  19.305  25.074  1.00  0.00    -0.269 OA
ATOM      7  H   UNL A   1      34.440  19.335  25.768  1.00  0.00     0.163 HD
BRANCH   5   8
ATOM      8  C   UNL A   1      32.100  21.648  25.071  1.00  0.00     0.084 A 
ATOM      9  C   UNL A   1      32.117  22.450  23.875  1.00  0.00     0.132 A 
ATOM     10  C   UNL A   1      31.563  23.748  23.786  1.00  0.00     0.059 A 
ATOM     11  C   UNL A   1      30.902  24.091  24.955  1.00  0.00     0.023 A 
ATOM     12  C   UNL A   1      31.374  22.034  26.233  1.00  0.00     0.048 A 
ATOM     13  C   UNL A   1      30.257  25.272  25.185  1.00  0.00     0.114 A 
ATOM     14  C   UNL A   1      30.767  23.295  26.145  1.00  0.00     0.093 A 
ATOM     15  N   UNL A   1      29.749  25.144  26.446  1.00  0.00    -0.285 N 
ATOM     16  N   UNL A   1      30.023  23.967  27.040  1.00  0.00    -0.176 NA
ATOM     17  H   UNL A   1      29.227  25.853  26.884  1.00  0.00     0.189 HD
BRANCH   9  18
ATOM     18  O   UNL A   1      32.737  22.047  22.712  1.00  0.00    -0.496 OA
ATOM     19  C   UNL A   1      33.184  23.149  21.926  1.00  0.00     0.278 C 
ENDBRANCH   9  18
ENDBRANCH   5   8
ENDBRANCH   3   4
ENDBRANCH   2   3
ENDBRANCH   1   2
BRANCH   1  20
ATOM     20  N   UNL A   1      37.937  20.932  25.055  1.00  0.00    -0.352 N 
ATOM     21  C   UNL A   1      38.937  20.994  26.004  1.00  0.00     0.251 C 
ATOM     22  H   UNL A   1      37.675  20.016  24.806  1.00  0.00     0.163 HD
ATOM     23  O   UNL A   1      39.460  19.956  26.387  1.00  0.00    -0.269 OA
BRANCH  21  24
ATOM     24  C   UNL A   1      39.413  22.296  26.527  1.00  0.00     0.039 A 
ATOM     25  C   UNL A   1      40.537  22.323  27.361  1.00  0.00     0.014 A 
ATOM     26  C   UNL A   1      38.778  23.491  26.202  1.00  0.00     0.014 A 
ATOM     27  C   UNL A   1      41.077  23.548  27.768  1.00  0.00     0.010 A 
ATOM     28  C   UNL A   1      39.390  24.705  26.490  1.00  0.00     0.010 A 
ATOM     29  C   UNL A   1      40.544  24.754  27.284  1.00  0.00    -0.014 A 
BRANCH  29  30
ATOM     30  C   UNL A   1      41.168  26.073  27.581  1.00  0.00     0.031 A 
ATOM     31  C   UNL A   1      42.593  26.350  27.169  1.00  0.00     0.074 A 
ATOM     32  C   UNL A   1      40.500  26.976  28.329  1.00  0.00     0.049 A 
ATOM     33  N   UNL A   1      43.343  27.388  27.439  1.00  0.00    -0.248 NA
ATOM     34  C   UNL A   1      43.281  25.306  26.391  1.00  0.00     0.031 C 
ATOM     35  C   UNL A   1      39.156  26.793  28.885  1.00  0.00     0.029 A 
ATOM     36  N   UNL A   1      40.872  28.220  28.778  1.00  0.00    -0.354 N 
ATOM     37  C   UNL A   1      44.599  27.094  26.920  1.00  0.00     0.074 A 
ATOM     38  C   UNL A   1      44.523  25.764  26.356  1.00  0.00     0.031 C 
ATOM     39  C   UNL A   1      38.813  27.885  29.585  1.00  0.00     0.029 A 
ATOM     40  C   UNL A   1      39.921  28.835  29.560  1.00  0.00     0.049 A 
ATOM     41  H   UNL A   1      41.740  28.632  28.562  1.00  0.00     0.167 HD
ATOM     42  C   UNL A   1      45.708  27.871  26.878  1.00  0.00     0.034 A 
ATOM     43  C   UNL A   1      39.936  30.028  30.188  1.00  0.00     0.034 A 
ATOM     44  C   UNL A   1      45.756  29.223  27.360  1.00  0.00     0.049 A 
ATOM     45  C   UNL A   1      41.146  30.912  30.043  1.00  0.00     0.074 A 
ATOM     46  C   UNL A   1      46.788  30.138  27.253  1.00  0.00     0.029 A 
ATOM     47  N   UNL A   1      44.725  29.858  28.034  1.00  0.00    -0.354 N 
ATOM     48  N   UNL A   1      42.263  30.681  29.397  1.00  0.00    -0.248 NA
ATOM     49  C   UNL A   1      41.083  32.234  30.681  1.00  0.00     0.031 C 
ATOM     50  C   UNL A   1      46.385  31.324  27.875  1.00  0.00     0.029 A 
ATOM     51  C   UNL A   1      45.096  31.153  28.352  1.00  0.00     0.049 A 
ATOM     52  H   UNL A   1      43.857  29.449  28.253  1.00  0.00     0.167 HD
ATOM     53  C   UNL A   1      43.020  31.840  29.520  1.00  0.00     0.074 A 
ATOM     54  C   UNL A   1      42.226  32.780  30.284  1.00  0.00     0.031 C 
ATOM     55  C   UNL A   1      44.270  32.097  29.059  1.00  0.00     0.034 A 
BRANCH  42  56
ATOM     56  C   UNL A   1      46.938  27.303  26.219  1.00  0.00     0.023 A 
ATOM     57  C   UNL A   1      47.142  27.503  24.837  1.00  0.00     0.012 A 
ATOM     58  C   UNL A   1      47.916  26.619  26.968  1.00  0.00     0.148 A 
ATOM     59  C   UNL A   1      48.277  26.997  24.205  1.00  0.00     0.002 A 
ATOM     60  C   UNL A   1      49.067  26.159  26.338  1.00  0.00     0.091 A 
ATOM     61  F   UNL A   1      47.698  26.420  28.275  1.00  0.00    -0.205 F 
ATOM     62  C   UNL A   1      49.243  26.336  24.956  1.00  0.00     0.022 A 
BRANCH  60  63
ATOM     63  S   UNL A   1      50.410  25.366  27.231  1.00  0.00     0.127 S 
ATOM     64  O   UNL A   1      50.795  26.414  28.176  1.00  0.00    -0.237 OA
ATOM     65  O   UNL A   1      49.741  24.215  27.837  1.00  0.00    -0.237 OA
ATOM     66  O   UNL A   1      51.412  25.028  26.230  1.00  0.00    -0.744 OA
ENDBRANCH  60  63
ENDBRANCH  42  56
BRANCH  43  67
ATOM     67  C   UNL A   1      38.733  30.492  30.937  1.00  0.00     0.023 A 
ATOM     68  C   UNL A   1      38.667  30.277  32.329  1.00  0.00     0.012 A 
ATOM     69  C   UNL A   1      37.676  31.166  30.296  1.00  0.00     0.148 A 
ATOM     70  C   UNL A   1      37.556  30.697  33.063  1.00  0.00     0.002 A 
ATOM     71  C   UNL A   1      36.597  31.629  31.043  1.00  0.00     0.091 A 
ATOM     72  F   UNL A   1      37.750  31.350  28.971  1.00  0.00    -0.205 F 
ATOM     73  C   UNL A   1      36.528  31.380  32.422  1.00  0.00     0.022 A 
BRANCH  71  74
ATOM     74  S   UNL A   1      35.292  32.634  30.326  1.00  0.00     0.127 S 
ATOM     75  O   UNL A   1      36.018  33.844  29.949  1.00  0.00    -0.237 OA
ATOM     76  O   UNL A   1      34.851  31.804  29.204  1.00  0.00    -0.237 OA
ATOM     77  O   UNL A   1      34.298  32.792  31.379  1.00  0.00    -0.744 OA
ENDBRANCH  71  74
ENDBRANCH  43  67
BRANCH  55  78
ATOM     78  C   UNL A   1      44.851  33.458  29.333  1.00  0.00     0.023 A 
ATOM     79  C   UNL A   1      45.525  33.698  30.546  1.00  0.00     0.012 A 
ATOM     80  C   UNL A   1      44.803  34.470  28.354  1.00  0.00     0.148 A 
ATOM     81  C   UNL A   1      46.119  34.934  30.793  1.00  0.00     0.002 A 
ATOM     82  C   UNL A   1      45.438  35.684  28.588  1.00  0.00     0.091 A 
ATOM     83  F   UNL A   1      44.140  34.227  27.215  1.00  0.00    -0.205 F 
ATOM     84  C   UNL A   1      46.086  35.921  29.811  1.00  0.00     0.022 A 
BRANCH  82  85
ATOM     85  S   UNL A   1      45.531  36.974  27.342  1.00  0.00     0.127 S 
ATOM     86  O   UNL A   1      44.125  37.344  27.189  1.00  0.00    -0.237 OA
ATOM     87  O   UNL A   1      46.359  37.985  28.001  1.00  0.00    -0.237 OA
ATOM     88  O   UNL A   1      46.148  36.359  26.175  1.00  0.00    -0.744 OA
ENDBRANCH  82  85
ENDBRANCH  55  78
ENDBRANCH  29  30
ENDBRANCH  21  24
ENDBRANCH   1  20
TORSDOF 14
ENDMDL
MODEL 2
REMARK VINA RESULT:     -12.2      1.406      1.703
REMARK SMILES COc1cc2c[nH]nc2cc1C(=O)NCCCNC(=O)c1ccc(-c2c3nc(c(-c4cccc(S(=O)(=O)[O-])c4F)c4ccc([nH]4)c(-c4cccc(S(=O)(=O)[O-])c4F)c4nc(c(-c5cccc(S(=O)(=O)[O-])c5F)c5ccc2[nH]5)C=C4)C=C3)cc1
REMARK SMILES IDX 17 1 16 2 15 3 14 4 12 5 13 6 11 8 3 9 4 10 5 11 10 12 6 13
REMARK SMILES IDX 9 14 7 15 8 16 2 18 1 19 18 20 19 21 20 23 21 24 22 25 83 26
REMARK SMILES IDX 23 27 82 28 24 29 25 30 26 31 76 32 27 33 81 34 75 35 77 36
REMARK SMILES IDX 28 37 80 38 74 39 73 40 29 42 61 43 41 44 60 45 42 46 45 47
REMARK SMILES IDX 59 48 78 49 43 50 44 51 58 53 79 54 46 55 30 56 31 57 39 58
REMARK SMILES IDX 32 59 34 60 40 61 33 62 35 63 36 64 37 65 38 66 62 67 63 68
REMARK SMILES IDX 71 69 64 70 66 71 72 72 65 73 67 74 68 75 69 76 70 77 47 78
REMARK SMILES IDX 48 79 56 80 49 81 51 82 57 83 50 84 52 85 53 86 54 87 55 88
REMARK H PARENT 14 7 7 17 18 22 77 41 45 52
REMARK Flexibility Score: inf
ROOT
ATOM      1  C   UNL A   1      37.208  22.032  24.435  1.00  0.00     0.118 C 
ENDROOT
BRANCH   1   2
ATOM      2  C   UNL A   1      35.713  21.744  24.435  1.00  0.00     0.042 C 
BRANCH   2   3
ATOM      3  C   UNL A   1      35.139  21.314  25.772  1.00  0.00     0.118 C 
BRANCH   3   4
ATOM      4  N   UNL A   1      34.137  20.265  25.693  1.00  0.00    -0.352 N 
ATOM      5  C   UNL A   1      32.813  20.332  25.338  1.00  0.00     0.255 C 
ATOM      6  O   UNL A   1      32.180  19.280  25.250  1.00  0.00    -0.269 OA
ATOM      7  H   UNL A   1      34.458  19.365  25.932  1.00  0.00     0.163 HD
BRANCH   5   8
ATOM      8  C   UNL A   1      32.097  21.618  25.118  1.00  0.00     0.084 A 
ATOM      9  C   UNL A   1      32.085  22.341  23.872  1.00  0.00     0.132 A 
ATOM     10  C   UNL A   1      31.522  23.629  23.712  1.00  0.00     0.059 A 
ATOM     11  C   UNL A   1      30.882  24.043  24.870  1.00  0.00     0.023 A 
ATOM     12  C   UNL A   1      31.393  22.075  26.267  1.00  0.00     0.048 A 
ATOM     13  C   UNL A   1      30.235  25.234  25.037  1.00  0.00     0.114 A 
ATOM     14  C   UNL A   1      30.777  23.325  26.111  1.00  0.00     0.093 A 
ATOM     15  N   UNL A   1      29.755  25.185  26.313  1.00  0.00    -0.285 N 
ATOM     16  N   UNL A   1      30.048  24.050  26.976  1.00  0.00    -0.176 NA
ATOM     17  H   UNL A   1      29.238  25.919  26.716  1.00  0.00     0.189 HD
BRANCH   9  18
ATOM     18  O   UNL A   1      32.683  21.867  22.725  1.00  0.00    -0.496 OA
ATOM     19  C   UNL A   1      31.822  21.010  21.978  1.00  0.00     0.278 C 
ENDBRANCH   9  18
ENDBRANCH   5   8
ENDBRANCH   3   4
ENDBRANCH   2   3
ENDBRANCH   1   2
BRANCH   1  20
ATOM     20  N   UNL A   1      38.026  21.000  25.063  1.00  0.00    -0.352 N 
ATOM     21  C   UNL A   1      39.074  21.070  25.957  1.00  0.00     0.251 C 
ATOM     22  H   UNL A   1      37.785  20.082  24.798  1.00  0.00     0.163 HD
ATOM     23  O   UNL A   1      39.656  20.043  26.277  1.00  0.00    -0.269 OA
BRANCH  21  24
ATOM     24  C   UNL A   1      39.530  22.374  26.496  1.00  0.00     0.039 A 
ATOM     25  C   UNL A   1      40.692  22.416  27.276  1.00  0.00     0.014 A 
ATOM     26  C   UNL A   1      38.839  23.554  26.239  1.00  0.00     0.014 A 
ATOM     27  C   UNL A   1      41.208  23.648  27.694  1.00  0.00     0.010 A 
ATOM     28  C   UNL A   1      39.422  24.780  26.535  1.00  0.00     0.010 A 
ATOM     29  C   UNL A   1      40.612  24.847  27.273  1.00  0.00    -0.014 A 
BRANCH  29  30
ATOM     30  C   UNL A   1      41.204  26.179  27.581  1.00  0.00     0.031 A 
ATOM     31  C   UNL A   1      42.616  26.498  27.159  1.00  0.00     0.074 A 
ATOM     32  C   UNL A   1      40.519  27.055  28.347  1.00  0.00     0.049 A 
ATOM     33  N   UNL A   1      43.342  27.552  27.434  1.00  0.00    -0.248 NA
ATOM     34  C   UNL A   1      43.324  25.482  26.362  1.00  0.00     0.031 C 
ATOM     35  C   UNL A   1      39.187  26.829  28.913  1.00  0.00     0.029 A 
ATOM     36  N   UNL A   1      40.863  28.302  28.807  1.00  0.00    -0.354 N 
ATOM     37  C   UNL A   1      44.600  27.298  26.899  1.00  0.00     0.074 A 
ATOM     38  C   UNL A   1      44.553  25.974  26.320  1.00  0.00     0.031 C 
ATOM     39  C   UNL A   1      38.822  27.904  29.630  1.00  0.00     0.029 A 
ATOM     40  C   UNL A   1      39.904  28.883  29.606  1.00  0.00     0.049 A 
ATOM     41  H   UNL A   1      41.717  28.740  28.588  1.00  0.00     0.167 HD
ATOM     42  C   UNL A   1      45.687  28.105  26.856  1.00  0.00     0.034 A 
ATOM     43  C   UNL A   1      39.894  30.068  30.248  1.00  0.00     0.034 A 
ATOM     44  C   UNL A   1      45.705  29.452  27.354  1.00  0.00     0.049 A 
ATOM     45  C   UNL A   1      41.078  30.985  30.103  1.00  0.00     0.074 A 
ATOM     46  C   UNL A   1      46.711  30.394  27.249  1.00  0.00     0.029 A 
ATOM     47  N   UNL A   1      44.664  30.051  28.046  1.00  0.00    -0.354 N 
ATOM     48  N   UNL A   1      42.195  30.792  29.442  1.00  0.00    -0.248 NA
ATOM     49  C   UNL A   1      40.988  32.298  30.757  1.00  0.00     0.031 C 
ATOM     50  C   UNL A   1      46.283  31.562  27.889  1.00  0.00     0.029 A 
ATOM     51  C   UNL A   1      45.004  31.351  28.377  1.00  0.00     0.049 A 
ATOM     52  H   UNL A   1      43.809  29.617  28.268  1.00  0.00     0.167 HD
ATOM     53  C   UNL A   1      42.923  31.969  29.573  1.00  0.00     0.074 A 
ATOM     54  C   UNL A   1      42.111  32.878  30.356  1.00  0.00     0.031 C 
ATOM     55  C   UNL A   1      44.160  32.265  29.103  1.00  0.00     0.034 A 
BRANCH  42  56
ATOM     56  C   UNL A   1      46.925  27.577  26.178  1.00  0.00     0.023 A 
ATOM     57  C   UNL A   1      47.817  26.757  26.900  1.00  0.00     0.012 A 
ATOM     58  C   UNL A   1      47.182  27.845  24.819  1.00  0.00     0.148 A 
ATOM     59  C   UNL A   1      48.965  26.247  26.294  1.00  0.00     0.002 A 
ATOM     60  C   UNL A   1      48.305  27.295  24.210  1.00  0.00     0.091 A 
ATOM     61  F   UNL A   1      46.336  28.643  24.153  1.00  0.00    -0.205 F 
ATOM     62  C   UNL A   1      49.202  26.507  24.949  1.00  0.00     0.022 A 
BRANCH  60  63
ATOM     63  S   UNL A   1      48.658  27.501  22.460  1.00  0.00     0.127 S 
ATOM     64  O   UNL A   1      49.940  28.203  22.499  1.00  0.00    -0.237 OA
ATOM     65  O   UNL A   1      48.736  26.116  21.996  1.00  0.00    -0.237 OA
ATOM     66  O   UNL A   1      47.543  28.262  21.913  1.00  0.00    -0.744 OA
ENDBRANCH  60  63
ENDBRANCH  42  56
BRANCH  43  67
ATOM     67  C   UNL A   1      38.687  30.491  31.015  1.00  0.00     0.023 A 
ATOM     68  C   UNL A   1      38.623  30.221  32.397  1.00  0.00     0.012 A 
ATOM     69  C   UNL A   1      37.623  31.180  30.400  1.00  0.00     0.148 A 
ATOM     70  C   UNL A   1      37.508  30.601  33.146  1.00  0.00     0.002 A 
ATOM     71  C   UNL A   1      36.540  31.603  31.164  1.00  0.00     0.091 A 
ATOM     72  F   UNL A   1      37.696  31.416  29.083  1.00  0.00    -0.205 F 
ATOM     73  C   UNL A   1      36.473  31.299  32.533  1.00  0.00     0.022 A 
BRANCH  71  74
ATOM     74  S   UNL A   1      35.226  32.623  30.487  1.00  0.00     0.127 S 
ATOM     75  O   UNL A   1      34.770  31.815  29.359  1.00  0.00    -0.237 OA
ATOM     76  O   UNL A   1      34.290  32.698  31.609  1.00  0.00    -0.237 OA
ATOM     77  O   UNL A   1      35.853  33.893  30.146  1.00  0.00    -0.744 OA
ENDBRANCH  71  74
ENDBRANCH  43  67
BRANCH  55  78
ATOM     78  C   UNL A   1      44.708  33.637  29.388  1.00  0.00     0.023 A 
ATOM     79  C   UNL A   1      45.421  33.870  30.580  1.00  0.00     0.012 A 
ATOM     80  C   UNL A   1      44.590  34.670  28.437  1.00  0.00     0.148 A 
ATOM     81  C   UNL A   1      45.984  35.119  30.835  1.00  0.00     0.002 A 
ATOM     82  C   UNL A   1      45.195  35.897  28.676  1.00  0.00     0.091 A 
ATOM     83  F   UNL A   1      43.891  34.432  27.318  1.00  0.00    -0.205 F 
ATOM     84  C   UNL A   1      45.882  36.127  29.879  1.00  0.00     0.022 A 
BRANCH  82  85
ATOM     85  S   UNL A   1      45.197  37.220  27.460  1.00  0.00     0.127 S 
ATOM     86  O   UNL A   1      45.857  38.299  28.193  1.00  0.00    -0.237 OA
ATOM     87  O   UNL A   1      45.993  36.643  26.375  1.00  0.00    -0.237 OA
ATOM     88  O   UNL A   1      43.800  37.454  27.123  1.00  0.00    -0.744 OA
ENDBRANCH  82  85
ENDBRANCH  55  78
ENDBRANCH  29  30
ENDBRANCH  21  24
ENDBRANCH   1  20
TORSDOF 14
ENDMDL
MODEL 3
REMARK VINA RESULT:     -12.1      5.389     10.386
REMARK SMILES COc1cc2c[nH]nc2cc1C(=O)NCCCNC(=O)c1ccc(-c2c3nc(c(-c4cccc(S(=O)(=O)[O-])c4F)c4ccc([nH]4)c(-c4cccc(S(=O)(=O)[O-])c4F)c4nc(c(-c5cccc(S(=O)(=O)[O-])c5F)c5ccc2[nH]5)C=C4)C=C3)cc1
REMARK SMILES IDX 17 1 16 2 15 3 14 4 12 5 13 6 11 8 3 9 4 10 5 11 10 12 6 13
REMARK SMILES IDX 9 14 7 15 8 16 2 18 1 19 18 20 19 21 20 23 21 24 22 25 83 26
REMARK SMILES IDX 23 27 82 28 24 29 25 30 26 31 76 32 27 33 81 34 75 35 77 36
REMARK SMILES IDX 28 37 80 38 74 39 73 40 29 42 61 43 41 44 60 45 42 46 45 47
REMARK SMILES IDX 59 48 78 49 43 50 44 51 58 53 79 54 46 55 30 56 31 57 39 58
REMARK SMILES IDX 32 59 34 60 40 61 33 62 35 63 36 64 37 65 38 66 62 67 63 68
REMARK SMILES IDX 71 69 64 70 66 71 72 72 65 73 67 74 68 75 69 76 70 77 47 78
REMARK SMILES IDX 48 79 56 80 49 81 51 82 57 83 50 84 52 85 53 86 54 87 55 88
REMARK H PARENT 14 7 7 17 18 22 77 41 45 52
REMARK Flexibility Score: inf
ROOT
ATOM      1  C   UNL A   1      32.117  30.081  26.367  1.00  0.00     0.118 C 
ENDROOT
BRANCH   1   2
ATOM      2  C   UNL A   1      32.937  29.703  25.142  1.00  0.00     0.042 C 
BRANCH   2   3
ATOM      3  C   UNL A   1      33.524  28.304  25.165  1.00  0.00     0.118 C 
BRANCH   3   4
ATOM      4  N   UNL A   1      33.695  27.696  23.856  1.00  0.00    -0.352 N 
ATOM      5  C   UNL A   1      32.783  27.494  22.851  1.00  0.00     0.255 C 
ATOM      6  O   UNL A   1      33.188  27.040  21.780  1.00  0.00    -0.269 OA
ATOM      7  H   UNL A   1      34.606  27.380  23.660  1.00  0.00     0.163 HD
BRANCH   5   8
ATOM      8  C   UNL A   1      31.324  27.736  23.018  1.00  0.00     0.084 A 
ATOM      9  C   UNL A   1      30.452  26.928  23.832  1.00  0.00     0.132 A 
ATOM     10  C   UNL A   1      29.046  27.079  23.874  1.00  0.00     0.059 A 
ATOM     11  C   UNL A   1      28.638  28.174  23.129  1.00  0.00     0.023 A 
ATOM     12  C   UNL A   1      30.854  28.872  22.300  1.00  0.00     0.048 A 
ATOM     13  C   UNL A   1      27.347  28.592  22.973  1.00  0.00     0.114 A 
ATOM     14  C   UNL A   1      29.469  29.074  22.376  1.00  0.00     0.093 A 
ATOM     15  N   UNL A   1      27.441  29.703  22.186  1.00  0.00    -0.285 N 
ATOM     16  N   UNL A   1      28.698  30.027  21.826  1.00  0.00    -0.176 NA
ATOM     17  H   UNL A   1      26.655  30.224  21.905  1.00  0.00     0.189 HD
BRANCH   9  18
ATOM     18  O   UNL A   1      30.906  25.882  24.605  1.00  0.00    -0.496 OA
ATOM     19  C   UNL A   1      30.696  26.106  25.998  1.00  0.00     0.278 C 
ENDBRANCH   9  18
ENDBRANCH   5   8
ENDBRANCH   3   4
ENDBRANCH   2   3
ENDBRANCH   1   2
BRANCH   1  20
ATOM     20  N   UNL A   1      32.145  31.501  26.703  1.00  0.00    -0.352 N 
ATOM     21  C   UNL A   1      33.066  32.270  27.383  1.00  0.00     0.251 C 
ATOM     22  H   UNL A   1      31.359  32.003  26.385  1.00  0.00     0.163 HD
ATOM     23  O   UNL A   1      32.813  33.447  27.605  1.00  0.00    -0.269 OA
BRANCH  21  24
ATOM     24  C   UNL A   1      34.330  31.681  27.886  1.00  0.00     0.039 A 
ATOM     25  C   UNL A   1      35.454  32.502  28.023  1.00  0.00     0.014 A 
ATOM     26  C   UNL A   1      34.422  30.336  28.232  1.00  0.00     0.014 A 
ATOM     27  C   UNL A   1      36.621  31.998  28.608  1.00  0.00     0.010 A 
ATOM     28  C   UNL A   1      35.528  29.873  28.935  1.00  0.00     0.010 A 
ATOM     29  C   UNL A   1      36.648  30.694  29.128  1.00  0.00    -0.014 A 
BRANCH  29  30
ATOM     30  C   UNL A   1      37.820  30.162  29.877  1.00  0.00     0.031 A 
ATOM     31  C   UNL A   1      38.085  30.613  31.292  1.00  0.00     0.074 A 
ATOM     32  C   UNL A   1      38.714  29.370  29.248  1.00  0.00     0.049 A 
ATOM     33  N   UNL A   1      39.111  30.353  32.062  1.00  0.00    -0.248 NA
ATOM     34  C   UNL A   1      37.093  31.511  31.907  1.00  0.00     0.031 C 
ATOM     35  C   UNL A   1      38.635  28.945  27.848  1.00  0.00     0.029 A 
ATOM     36  N   UNL A   1      39.883  28.806  29.696  1.00  0.00    -0.354 N 
ATOM     37  C   UNL A   1      38.916  31.100  33.219  1.00  0.00     0.074 A 
ATOM     38  C   UNL A   1      37.697  31.855  33.034  1.00  0.00     0.031 C 
ATOM     39  C   UNL A   1      39.698  28.179  27.557  1.00  0.00     0.029 A 
ATOM     40  C   UNL A   1      40.554  28.082  28.735  1.00  0.00     0.049 A 
ATOM     41  H   UNL A   1      40.212  28.911  30.618  1.00  0.00     0.167 HD
ATOM     42  C   UNL A   1      39.659  31.128  34.351  1.00  0.00     0.034 A 
ATOM     43  C   UNL A   1      41.725  27.417  28.793  1.00  0.00     0.034 A 
ATOM     44  C   UNL A   1      40.821  30.311  34.567  1.00  0.00     0.049 A 
ATOM     45  C   UNL A   1      42.481  27.387  30.094  1.00  0.00     0.074 A 
ATOM     46  C   UNL A   1      41.572  30.171  35.719  1.00  0.00     0.029 A 
ATOM     47  N   UNL A   1      41.397  29.490  33.610  1.00  0.00    -0.354 N 
ATOM     48  N   UNL A   1      42.185  27.963  31.234  1.00  0.00    -0.248 NA
ATOM     49  C   UNL A   1      43.712  26.584  30.130  1.00  0.00     0.031 C 
ATOM     50  C   UNL A   1      42.612  29.273  35.456  1.00  0.00     0.029 A 
ATOM     51  C   UNL A   1      42.496  28.841  34.145  1.00  0.00     0.049 A 
ATOM     52  H   UNL A   1      41.072  29.384  32.687  1.00  0.00     0.167 HD
ATOM     53  C   UNL A   1      43.171  27.565  32.130  1.00  0.00     0.074 A 
ATOM     54  C   UNL A   1      44.061  26.681  31.406  1.00  0.00     0.031 C 
ATOM     55  C   UNL A   1      43.336  27.916  33.429  1.00  0.00     0.034 A 
BRANCH  42  56
ATOM     56  C   UNL A   1      39.192  32.016  35.475  1.00  0.00     0.023 A 
ATOM     57  C   UNL A   1      38.254  31.524  36.407  1.00  0.00     0.012 A 
ATOM     58  C   UNL A   1      39.714  33.314  35.644  1.00  0.00     0.148 A 
ATOM     59  C   UNL A   1      37.813  32.321  37.462  1.00  0.00     0.002 A 
ATOM     60  C   UNL A   1      39.304  34.085  36.726  1.00  0.00     0.091 A 
ATOM     61  F   UNL A   1      40.589  33.774  34.739  1.00  0.00    -0.205 F 
ATOM     62  C   UNL A   1      38.345  33.595  37.627  1.00  0.00     0.022 A 
BRANCH  60  63
ATOM     63  S   UNL A   1      39.990  35.709  37.075  1.00  0.00     0.127 S 
ATOM     64  O   UNL A   1      41.412  35.402  37.226  1.00  0.00    -0.237 OA
ATOM     65  O   UNL A   1      39.653  36.453  35.861  1.00  0.00    -0.237 OA
ATOM     66  O   UNL A   1      39.319  36.177  38.279  1.00  0.00    -0.744 OA
ENDBRANCH  60  63
ENDBRANCH  42  56
BRANCH  43  67
ATOM     67  C   UNL A   1      42.209  26.654  27.607  1.00  0.00     0.023 A 
ATOM     68  C   UNL A   1      42.980  27.319  26.632  1.00  0.00     0.012 A 
ATOM     69  C   UNL A   1      41.943  25.280  27.452  1.00  0.00     0.148 A 
ATOM     70  C   UNL A   1      43.449  26.637  25.508  1.00  0.00     0.002 A 
ATOM     71  C   UNL A   1      42.459  24.595  26.357  1.00  0.00     0.091 A 
ATOM     72  F   UNL A   1      41.198  24.668  28.383  1.00  0.00    -0.205 F 
ATOM     73  C   UNL A   1      43.197  25.275  25.376  1.00  0.00     0.022 A 
BRANCH  71  74
ATOM     74  S   UNL A   1      42.299  22.815  26.173  1.00  0.00     0.127 S 
ATOM     75  O   UNL A   1      40.848  22.647  26.136  1.00  0.00    -0.237 OA
ATOM     76  O   UNL A   1      42.980  22.578  24.900  1.00  0.00    -0.237 OA
ATOM     77  O   UNL A   1      42.975  22.241  27.329  1.00  0.00    -0.744 OA
ENDBRANCH  71  74
ENDBRANCH  43  67
BRANCH  55  78
ATOM     78  C   UNL A   1      44.501  27.321  34.172  1.00  0.00     0.023 A 
ATOM     79  C   UNL A   1      45.735  28.001  34.198  1.00  0.00     0.012 A 
ATOM     80  C   UNL A   1      44.350  26.132  34.914  1.00  0.00     0.148 A 
ATOM     81  C   UNL A   1      46.808  27.494  34.928  1.00  0.00     0.002 A 
ATOM     82  C   UNL A   1      45.409  25.657  35.677  1.00  0.00     0.091 A 
ATOM     83  F   UNL A   1      43.174  25.490  34.859  1.00  0.00    -0.205 F 
ATOM     84  C   UNL A   1      46.642  26.331  35.676  1.00  0.00     0.022 A 
BRANCH  82  85
ATOM     85  S   UNL A   1      45.255  24.222  36.747  1.00  0.00     0.127 S 
ATOM     86  O   UNL A   1      46.622  24.067  37.238  1.00  0.00    -0.237 OA
ATOM     87  O   UNL A   1      44.294  24.684  37.750  1.00  0.00    -0.237 OA
ATOM     88  O   UNL A   1      44.767  23.143  35.898  1.00  0.00    -0.744 OA
ENDBRANCH  82  85
ENDBRANCH  55  78
ENDBRANCH  29  30
ENDBRANCH  21  24
ENDBRANCH   1  20
TORSDOF 14
ENDMDL
