MODEL 1
REMARK VINA RESULT:     -12.6      0.000      0.000
REMARK SMILES C[C@@H](C(=O)NCCCNC(=O)c1ccc(-c2c3nc(c(-c4cccc(S(=O)(=O)[O-])c4F)c4ccc([nH]4)c(-c4cccc(S(=O)(=O)[O-])c4F)c4nc(c(-c5cccc(S(=O)(=O)[O-])c5F)c5ccc2[nH]5)C=C4)C=C3)cc1)c1ccc(-c2cccc(OC(=O)NC3CC3)c2)c(F)c1
REMARK SMILES IDX 6 1 5 2 3 3 4 4 2 6 1 7 75 8 76 9 94 10 77 11 92 12 78 13
REMARK SMILES IDX 93 14 79 15 80 16 91 17 81 18 83 19 82 20 84 21 85 22 86 23
REMARK SMILES IDX 87 24 88 26 89 27 90 28 7 29 8 30 9 31 10 32 11 34 12 35
REMARK SMILES IDX 13 36 74 37 14 38 73 39 15 40 16 41 17 42 67 43 18 44 72 45
REMARK SMILES IDX 66 46 68 47 19 48 71 49 65 50 64 51 20 53 52 54 32 55 51 56
REMARK SMILES IDX 33 57 36 58 50 59 69 60 34 61 35 62 49 64 70 65 37 66 21 67
REMARK SMILES IDX 22 68 30 69 23 70 25 71 31 72 24 73 26 74 27 75 28 76 29 77
REMARK SMILES IDX 53 78 54 79 62 80 55 81 57 82 63 83 56 84 58 85 59 86 60 87
REMARK SMILES IDX 61 88 38 89 39 90 47 91 40 92 42 93 48 94 41 95 43 96 44 97
REMARK SMILES IDX 45 98 46 99
REMARK H PARENT 5 5 87 25 9 33 68 52 36 63
REMARK Flexibility Score: inf
ROOT
ATOM      1  C   UNL A   1      31.501  29.858  25.535  1.00  0.00     0.117 C 
ENDROOT
BRANCH   1   2
ATOM      2  N   UNL A   1      30.981  28.945  24.537  1.00  0.00    -0.356 N 
ATOM      3  C   UNL A   1      31.631  28.206  23.590  1.00  0.00     0.227 C 
ATOM      4  O   UNL A   1      30.920  27.643  22.755  1.00  0.00    -0.274 OA
ATOM      5  H   UNL A   1      30.002  28.839  24.542  1.00  0.00     0.163 HD
BRANCH   3   6
ATOM      6  C   UNL A   1      33.163  28.051  23.644  1.00  0.00     0.105 C 
ATOM      7  C   UNL A   1      33.811  28.679  22.404  1.00  0.00     0.023 C 
BRANCH   6   8
ATOM      8  C   UNL A   1      33.592  26.596  23.871  1.00  0.00    -0.033 A 
ATOM      9  C   UNL A   1      33.766  25.732  22.774  1.00  0.00     0.005 A 
ATOM     10  C   UNL A   1      33.797  26.068  25.153  1.00  0.00     0.044 A 
ATOM     11  C   UNL A   1      34.162  24.400  22.950  1.00  0.00     0.012 A 
ATOM     12  C   UNL A   1      34.174  24.741  25.323  1.00  0.00     0.131 A 
ATOM     13  C   UNL A   1      34.360  23.882  24.235  1.00  0.00     0.018 A 
ATOM     14  F   UNL A   1      34.340  24.289  26.576  1.00  0.00    -0.206 F 
BRANCH  13  15
ATOM     15  C   UNL A   1      34.659  22.466  24.450  1.00  0.00    -0.012 A 
ATOM     16  C   UNL A   1      35.964  21.996  24.654  1.00  0.00     0.009 A 
ATOM     17  C   UNL A   1      33.597  21.548  24.467  1.00  0.00     0.056 A 
ATOM     18  C   UNL A   1      36.197  20.638  24.883  1.00  0.00     0.004 A 
ATOM     19  C   UNL A   1      33.828  20.199  24.693  1.00  0.00     0.133 A 
ATOM     20  C   UNL A   1      35.129  19.738  24.904  1.00  0.00     0.047 A 
BRANCH  19  21
ATOM     21  O   UNL A   1      32.809  19.219  24.731  1.00  0.00    -0.410 OA
BRANCH  21  22
ATOM     22  C   UNL A   1      32.455  18.366  23.690  1.00  0.00     0.412 C 
ATOM     23  O   UNL A   1      32.191  18.689  22.535  1.00  0.00    -0.224 OA
ATOM     24  N   UNL A   1      32.403  17.044  24.044  1.00  0.00    -0.318 N 
ATOM     25  H   UNL A   1      32.100  16.432  23.335  1.00  0.00     0.167 HD
BRANCH  24  26
ATOM     26  C   UNL A   1      32.721  16.422  25.282  1.00  0.00     0.085 C 
ATOM     27  C   UNL A   1      32.834  14.947  25.548  1.00  0.00     0.027 C 
ATOM     28  C   UNL A   1      34.076  15.776  25.432  1.00  0.00     0.027 C 
ENDBRANCH  24  26
ENDBRANCH  21  22
ENDBRANCH  19  21
ENDBRANCH  13  15
ENDBRANCH   6   8
ENDBRANCH   3   6
ENDBRANCH   1   2
BRANCH   1  29
ATOM     29  C   UNL A   1      31.971  29.109  26.781  1.00  0.00     0.042 C 
BRANCH  29  30
ATOM     30  C   UNL A   1      33.437  29.344  27.132  1.00  0.00     0.118 C 
BRANCH  30  31
ATOM     31  N   UNL A   1      33.750  30.756  27.302  1.00  0.00    -0.352 N 
ATOM     32  C   UNL A   1      34.822  31.350  27.919  1.00  0.00     0.251 C 
ATOM     33  H   UNL A   1      33.093  31.378  26.915  1.00  0.00     0.163 HD
ATOM     34  O   UNL A   1      34.799  32.558  28.141  1.00  0.00    -0.269 OA
BRANCH  32  35
ATOM     35  C   UNL A   1      35.988  30.541  28.338  1.00  0.00     0.039 A 
ATOM     36  C   UNL A   1      37.136  30.552  27.541  1.00  0.00     0.014 A 
ATOM     37  C   UNL A   1      35.955  29.775  29.507  1.00  0.00     0.014 A 
ATOM     38  C   UNL A   1      38.279  29.869  27.964  1.00  0.00     0.010 A 
ATOM     39  C   UNL A   1      37.117  29.154  29.962  1.00  0.00     0.010 A 
ATOM     40  C   UNL A   1      38.296  29.208  29.204  1.00  0.00    -0.014 A 
BRANCH  40  41
ATOM     41  C   UNL A   1      39.556  28.647  29.757  1.00  0.00     0.031 A 
ATOM     42  C   UNL A   1      40.288  29.345  30.872  1.00  0.00     0.074 A 
ATOM     43  C   UNL A   1      40.096  27.556  29.176  1.00  0.00     0.049 A 
ATOM     44  N   UNL A   1      41.435  29.035  31.419  1.00  0.00    -0.248 NA
ATOM     45  C   UNL A   1      39.664  30.554  31.434  1.00  0.00     0.031 C 
ATOM     46  C   UNL A   1      39.521  26.833  28.039  1.00  0.00     0.029 A 
ATOM     47  N   UNL A   1      41.267  26.885  29.432  1.00  0.00    -0.354 N 
ATOM     48  C   UNL A   1      41.691  30.027  32.358  1.00  0.00     0.074 A 
ATOM     49  C   UNL A   1      40.583  30.955  32.303  1.00  0.00     0.031 C 
ATOM     50  C   UNL A   1      40.342  25.830  27.690  1.00  0.00     0.029 A 
ATOM     51  C   UNL A   1      41.523  25.863  28.546  1.00  0.00     0.049 A 
ATOM     52  H   UNL A   1      41.867  27.113  30.180  1.00  0.00     0.167 HD
ATOM     53  C   UNL A   1      42.747  30.144  33.196  1.00  0.00     0.034 A 
ATOM     54  C   UNL A   1      42.600  25.064  28.410  1.00  0.00     0.034 A 
ATOM     55  C   UNL A   1      43.830  29.199  33.273  1.00  0.00     0.049 A 
ATOM     56  C   UNL A   1      43.751  25.219  29.367  1.00  0.00     0.074 A 
ATOM     57  C   UNL A   1      44.882  29.174  34.172  1.00  0.00     0.029 A 
ATOM     58  N   UNL A   1      44.020  28.136  32.406  1.00  0.00    -0.354 N 
ATOM     59  N   UNL A   1      43.878  26.043  30.377  1.00  0.00    -0.248 NA
ATOM     60  C   UNL A   1      44.898  24.317  29.180  1.00  0.00     0.031 C 
ATOM     61  C   UNL A   1      45.735  28.126  33.819  1.00  0.00     0.029 A 
ATOM     62  C   UNL A   1      45.193  27.472  32.725  1.00  0.00     0.049 A 
ATOM     63  H   UNL A   1      43.412  27.889  31.672  1.00  0.00     0.167 HD
ATOM     64  C   UNL A   1      45.105  25.742  30.960  1.00  0.00     0.074 A 
ATOM     65  C   UNL A   1      45.665  24.637  30.213  1.00  0.00     0.031 C 
ATOM     66  C   UNL A   1      45.722  26.343  32.006  1.00  0.00     0.034 A 
BRANCH  53  67
ATOM     67  C   UNL A   1      42.792  31.319  34.136  1.00  0.00     0.023 A 
ATOM     68  C   UNL A   1      43.439  32.507  33.741  1.00  0.00     0.012 A 
ATOM     69  C   UNL A   1      42.078  31.288  35.351  1.00  0.00     0.148 A 
ATOM     70  C   UNL A   1      43.384  33.643  34.547  1.00  0.00     0.002 A 
ATOM     71  C   UNL A   1      41.992  32.437  36.127  1.00  0.00     0.091 A 
ATOM     72  F   UNL A   1      41.484  30.142  35.712  1.00  0.00    -0.205 F 
ATOM     73  C   UNL A   1      42.650  33.612  35.731  1.00  0.00     0.022 A 
BRANCH  71  74
ATOM     74  S   UNL A   1      41.002  32.528  37.624  1.00  0.00     0.127 S 
ATOM     75  O   UNL A   1      40.851  33.974  37.788  1.00  0.00    -0.237 OA
ATOM     76  O   UNL A   1      39.782  31.828  37.225  1.00  0.00    -0.237 OA
ATOM     77  O   UNL A   1      41.778  31.866  38.663  1.00  0.00    -0.744 OA
ENDBRANCH  71  74
ENDBRANCH  53  67
BRANCH  54  78
ATOM     78  C   UNL A   1      42.649  24.038  27.328  1.00  0.00     0.023 A 
ATOM     79  C   UNL A   1      43.286  24.339  26.109  1.00  0.00     0.012 A 
ATOM     80  C   UNL A   1      42.050  22.774  27.495  1.00  0.00     0.148 A 
ATOM     81  C   UNL A   1      43.281  23.421  25.058  1.00  0.00     0.002 A 
ATOM     82  C   UNL A   1      42.105  21.840  26.467  1.00  0.00     0.091 A 
ATOM     83  F   UNL A   1      41.436  22.508  28.655  1.00  0.00    -0.205 F 
ATOM     84  C   UNL A   1      42.698  22.170  25.238  1.00  0.00     0.022 A 
BRANCH  82  85
ATOM     85  S   UNL A   1      41.504  20.160  26.669  1.00  0.00     0.127 S 
ATOM     86  O   UNL A   1      40.064  20.371  26.794  1.00  0.00    -0.237 OA
ATOM     87  O   UNL A   1      41.930  19.533  25.417  1.00  0.00    -0.237 OA
ATOM     88  O   UNL A   1      42.178  19.644  27.853  1.00  0.00    -0.744 OA
ENDBRANCH  82  85
ENDBRANCH  54  78
BRANCH  66  89
ATOM     89  C   UNL A   1      47.066  25.811  32.427  1.00  0.00     0.023 A 
ATOM     90  C   UNL A   1      47.153  24.902  33.501  1.00  0.00     0.012 A 
ATOM     91  C   UNL A   1      48.232  26.153  31.714  1.00  0.00     0.148 A 
ATOM     92  C   UNL A   1      48.384  24.365  33.876  1.00  0.00     0.002 A 
ATOM     93  C   UNL A   1      49.446  25.574  32.060  1.00  0.00     0.091 A 
ATOM     94  F   UNL A   1      48.129  27.030  30.705  1.00  0.00    -0.205 F 
ATOM     95  C   UNL A   1      49.527  24.691  33.150  1.00  0.00     0.022 A 
BRANCH  93  96
ATOM     96  S   UNL A   1      50.955  25.857  31.128  1.00  0.00     0.127 S 
ATOM     97  O   UNL A   1      51.209  27.272  31.395  1.00  0.00    -0.237 OA
ATOM     98  O   UNL A   1      51.892  24.938  31.774  1.00  0.00    -0.237 OA
ATOM     99  O   UNL A   1      50.642  25.535  29.743  1.00  0.00    -0.744 OA
ENDBRANCH  93  96
ENDBRANCH  66  89
ENDBRANCH  40  41
ENDBRANCH  32  35
ENDBRANCH  30  31
ENDBRANCH  29  30
ENDBRANCH   1  29
TORSDOF 18
ENDMDL
MODEL 2
REMARK VINA RESULT:     -12.2      4.813      9.145
REMARK SMILES C[C@@H](C(=O)NCCCNC(=O)c1ccc(-c2c3nc(c(-c4cccc(S(=O)(=O)[O-])c4F)c4ccc([nH]4)c(-c4cccc(S(=O)(=O)[O-])c4F)c4nc(c(-c5cccc(S(=O)(=O)[O-])c5F)c5ccc2[nH]5)C=C4)C=C3)cc1)c1ccc(-c2cccc(OC(=O)NC3CC3)c2)c(F)c1
REMARK SMILES IDX 6 1 5 2 3 3 4 4 2 6 1 7 75 8 76 9 94 10 77 11 92 12 78 13
REMARK SMILES IDX 93 14 79 15 80 16 91 17 81 18 83 19 82 20 84 21 85 22 86 23
REMARK SMILES IDX 87 24 88 26 89 27 90 28 7 29 8 30 9 31 10 32 11 34 12 35
REMARK SMILES IDX 13 36 74 37 14 38 73 39 15 40 16 41 17 42 67 43 18 44 72 45
REMARK SMILES IDX 66 46 68 47 19 48 71 49 65 50 64 51 20 53 52 54 32 55 51 56
REMARK SMILES IDX 33 57 36 58 50 59 69 60 34 61 35 62 49 64 70 65 37 66 21 67
REMARK SMILES IDX 22 68 30 69 23 70 25 71 31 72 24 73 26 74 27 75 28 76 29 77
REMARK SMILES IDX 53 78 54 79 62 80 55 81 57 82 63 83 56 84 58 85 59 86 60 87
REMARK SMILES IDX 61 88 38 89 39 90 47 91 40 92 42 93 48 94 41 95 43 96 44 97
REMARK SMILES IDX 45 98 46 99
REMARK H PARENT 5 5 87 25 9 33 68 52 36 63
REMARK Flexibility Score: inf
ROOT
ATOM      1  C   UNL A   1      36.134  21.475  25.079  1.00  0.00     0.117 C 
ENDROOT
BRANCH   1   2
ATOM      2  N   UNL A   1      35.516  21.334  26.383  1.00  0.00    -0.356 N 
ATOM      3  C   UNL A   1      34.216  21.489  26.767  1.00  0.00     0.227 C 
ATOM      4  O   UNL A   1      34.000  21.478  27.981  1.00  0.00    -0.274 OA
ATOM      5  H   UNL A   1      36.134  21.087  27.109  1.00  0.00     0.163 HD
BRANCH   3   6
ATOM      6  C   UNL A   1      33.101  21.595  25.707  1.00  0.00     0.105 C 
ATOM      7  C   UNL A   1      33.517  20.879  24.416  1.00  0.00     0.023 C 
BRANCH   6   8
ATOM      8  C   UNL A   1      32.661  23.045  25.472  1.00  0.00    -0.033 A 
ATOM      9  C   UNL A   1      31.380  23.468  25.874  1.00  0.00     0.005 A 
ATOM     10  C   UNL A   1      33.484  23.983  24.835  1.00  0.00     0.044 A 
ATOM     11  C   UNL A   1      30.952  24.787  25.677  1.00  0.00     0.012 A 
ATOM     12  C   UNL A   1      33.049  25.287  24.628  1.00  0.00     0.131 A 
ATOM     13  C   UNL A   1      31.782  25.714  25.037  1.00  0.00     0.018 A 
ATOM     14  F   UNL A   1      33.878  26.134  23.998  1.00  0.00    -0.206 F 
BRANCH  13  15
ATOM     15  C   UNL A   1      31.314  27.062  24.714  1.00  0.00    -0.012 A 
ATOM     16  C   UNL A   1      31.861  28.209  25.308  1.00  0.00     0.009 A 
ATOM     17  C   UNL A   1      30.290  27.213  23.766  1.00  0.00     0.056 A 
ATOM     18  C   UNL A   1      31.401  29.478  24.947  1.00  0.00     0.004 A 
ATOM     19  C   UNL A   1      29.832  28.472  23.409  1.00  0.00     0.133 A 
ATOM     20  C   UNL A   1      30.387  29.611  23.996  1.00  0.00     0.047 A 
BRANCH  19  21
ATOM     21  O   UNL A   1      28.811  28.700  22.457  1.00  0.00    -0.410 OA
BRANCH  21  22
ATOM     22  C   UNL A   1      27.554  29.239  22.719  1.00  0.00     0.412 C 
ATOM     23  O   UNL A   1      26.652  28.714  23.367  1.00  0.00    -0.224 OA
ATOM     24  N   UNL A   1      27.351  30.476  22.169  1.00  0.00    -0.318 N 
ATOM     25  H   UNL A   1      26.448  30.848  22.297  1.00  0.00     0.167 HD
BRANCH  24  26
ATOM     26  C   UNL A   1      28.248  31.306  21.442  1.00  0.00     0.085 C 
ATOM     27  C   UNL A   1      27.889  32.483  20.580  1.00  0.00     0.027 C 
ATOM     28  C   UNL A   1      28.483  32.711  21.936  1.00  0.00     0.027 C 
ENDBRANCH  24  26
ENDBRANCH  21  22
ENDBRANCH  19  21
ENDBRANCH  13  15
ENDBRANCH   6   8
ENDBRANCH   3   6
ENDBRANCH   1   2
BRANCH   1  29
ATOM     29  C   UNL A   1      37.289  20.489  24.904  1.00  0.00     0.042 C 
BRANCH  29  30
ATOM     30  C   UNL A   1      38.557  20.877  25.657  1.00  0.00     0.118 C 
BRANCH  30  31
ATOM     31  N   UNL A   1      39.478  19.760  25.811  1.00  0.00    -0.352 N 
ATOM     32  C   UNL A   1      40.826  19.761  26.070  1.00  0.00     0.251 C 
ATOM     33  H   UNL A   1      39.072  18.869  25.713  1.00  0.00     0.163 HD
ATOM     34  O   UNL A   1      41.465  18.719  25.954  1.00  0.00    -0.269 OA
BRANCH  32  35
ATOM     35  C   UNL A   1      41.512  21.013  26.461  1.00  0.00     0.039 A 
ATOM     36  C   UNL A   1      41.954  21.878  25.456  1.00  0.00     0.014 A 
ATOM     37  C   UNL A   1      41.721  21.335  27.805  1.00  0.00     0.014 A 
ATOM     38  C   UNL A   1      42.523  23.107  25.802  1.00  0.00     0.010 A 
ATOM     39  C   UNL A   1      42.222  22.589  28.146  1.00  0.00     0.010 A 
ATOM     40  C   UNL A   1      42.613  23.495  27.149  1.00  0.00    -0.014 A 
BRANCH  40  41
ATOM     41  C   UNL A   1      43.030  24.871  27.525  1.00  0.00     0.031 A 
ATOM     42  C   UNL A   1      42.045  25.841  28.119  1.00  0.00     0.074 A 
ATOM     43  C   UNL A   1      44.282  25.279  27.228  1.00  0.00     0.049 A 
ATOM     44  N   UNL A   1      42.221  27.099  28.433  1.00  0.00    -0.248 NA
ATOM     45  C   UNL A   1      40.684  25.345  28.380  1.00  0.00     0.031 C 
ATOM     46  C   UNL A   1      45.306  24.455  26.582  1.00  0.00     0.029 A 
ATOM     47  N   UNL A   1      44.895  26.497  27.392  1.00  0.00    -0.354 N 
ATOM     48  C   UNL A   1      40.990  27.556  28.888  1.00  0.00     0.074 A 
ATOM     49  C   UNL A   1      40.071  26.442  28.805  1.00  0.00     0.031 C 
ATOM     50  C   UNL A   1      46.414  25.191  26.396  1.00  0.00     0.029 A 
ATOM     51  C   UNL A   1      46.167  26.549  26.866  1.00  0.00     0.049 A 
ATOM     52  H   UNL A   1      44.467  27.260  27.844  1.00  0.00     0.167 HD
ATOM     53  C   UNL A   1      40.662  28.787  29.346  1.00  0.00     0.034 A 
ATOM     54  C   UNL A   1      47.026  27.580  26.742  1.00  0.00     0.034 A 
ATOM     55  C   UNL A   1      41.588  29.882  29.461  1.00  0.00     0.049 A 
ATOM     56  C   UNL A   1      46.629  28.932  27.270  1.00  0.00     0.074 A 
ATOM     57  C   UNL A   1      41.374  31.129  30.023  1.00  0.00     0.029 A 
ATOM     58  N   UNL A   1      42.888  29.877  28.983  1.00  0.00    -0.354 N 
ATOM     59  N   UNL A   1      45.524  29.288  27.879  1.00  0.00    -0.248 NA
ATOM     60  C   UNL A   1      47.606  30.020  27.115  1.00  0.00     0.031 C 
ATOM     61  C   UNL A   1      42.527  31.896  29.839  1.00  0.00     0.029 A 
ATOM     62  C   UNL A   1      43.475  31.112  29.201  1.00  0.00     0.049 A 
ATOM     63  H   UNL A   1      43.330  29.110  28.551  1.00  0.00     0.167 HD
ATOM     64  C   UNL A   1      45.685  30.631  28.202  1.00  0.00     0.074 A 
ATOM     65  C   UNL A   1      47.006  31.015  27.754  1.00  0.00     0.031 C 
ATOM     66  C   UNL A   1      44.807  31.475  28.795  1.00  0.00     0.034 A 
BRANCH  53  67
ATOM     67  C   UNL A   1      39.246  29.033  29.794  1.00  0.00     0.023 A 
ATOM     68  C   UNL A   1      38.852  28.669  31.096  1.00  0.00     0.012 A 
ATOM     69  C   UNL A   1      38.351  29.746  28.971  1.00  0.00     0.148 A 
ATOM     70  C   UNL A   1      37.582  29.000  31.569  1.00  0.00     0.002 A 
ATOM     71  C   UNL A   1      37.106  30.111  29.465  1.00  0.00     0.091 A 
ATOM     72  F   UNL A   1      38.745  30.069  27.730  1.00  0.00    -0.205 F 
ATOM     73  C   UNL A   1      36.716  29.732  30.760  1.00  0.00     0.022 A 
BRANCH  71  74
ATOM     74  S   UNL A   1      35.950  31.126  28.536  1.00  0.00     0.127 S 
ATOM     75  O   UNL A   1      36.743  32.332  28.299  1.00  0.00    -0.237 OA
ATOM     76  O   UNL A   1      35.713  30.308  27.348  1.00  0.00    -0.237 OA
ATOM     77  O   UNL A   1      34.790  31.309  29.397  1.00  0.00    -0.744 OA
ENDBRANCH  71  74
ENDBRANCH  53  67
BRANCH  54  78
ATOM     78  C   UNL A   1      48.354  27.384  26.091  1.00  0.00     0.023 A 
ATOM     79  C   UNL A   1      49.480  27.077  26.879  1.00  0.00     0.012 A 
ATOM     80  C   UNL A   1      48.510  27.520  24.697  1.00  0.00     0.148 A 
ATOM     81  C   UNL A   1      50.744  26.961  26.300  1.00  0.00     0.002 A 
ATOM     82  C   UNL A   1      49.760  27.339  24.118  1.00  0.00     0.091 A 
ATOM     83  F   UNL A   1      47.432  27.826  23.963  1.00  0.00    -0.205 F 
ATOM     84  C   UNL A   1      50.884  27.084  24.920  1.00  0.00     0.022 A 
BRANCH  82  85
ATOM     85  S   UNL A   1      49.999  27.340  22.339  1.00  0.00     0.127 S 
ATOM     86  O   UNL A   1      49.750  28.740  22.005  1.00  0.00    -0.237 OA
ATOM     87  O   UNL A   1      51.395  26.916  22.220  1.00  0.00    -0.237 OA
ATOM     88  O   UNL A   1      49.038  26.379  21.816  1.00  0.00    -0.744 OA
ENDBRANCH  82  85
ENDBRANCH  54  78
BRANCH  66  89
ATOM     89  C   UNL A   1      45.245  32.899  29.019  1.00  0.00     0.023 A 
ATOM     90  C   UNL A   1      45.975  33.231  30.179  1.00  0.00     0.012 A 
ATOM     91  C   UNL A   1      45.000  33.889  28.048  1.00  0.00     0.148 A 
ATOM     92  C   UNL A   1      46.427  34.534  30.382  1.00  0.00     0.002 A 
ATOM     93  C   UNL A   1      45.499  35.172  28.233  1.00  0.00     0.091 A 
ATOM     94  F   UNL A   1      44.293  33.555  26.960  1.00  0.00    -0.205 F 
ATOM     95  C   UNL A   1      46.200  35.501  29.405  1.00  0.00     0.022 A 
BRANCH  93  96
ATOM     96  S   UNL A   1      45.340  36.461  26.991  1.00  0.00     0.127 S 
ATOM     97  O   UNL A   1      46.068  37.566  27.614  1.00  0.00    -0.237 OA
ATOM     98  O   UNL A   1      46.012  35.862  25.838  1.00  0.00    -0.237 OA
ATOM     99  O   UNL A   1      43.911  36.681  26.817  1.00  0.00    -0.744 OA
ENDBRANCH  93  96
ENDBRANCH  66  89
ENDBRANCH  40  41
ENDBRANCH  32  35
ENDBRANCH  30  31
ENDBRANCH  29  30
ENDBRANCH   1  29
TORSDOF 18
ENDMDL
MODEL 3
REMARK VINA RESULT:     -12.0      3.469      8.469
REMARK SMILES C[C@@H](C(=O)NCCCNC(=O)c1ccc(-c2c3nc(c(-c4cccc(S(=O)(=O)[O-])c4F)c4ccc([nH]4)c(-c4cccc(S(=O)(=O)[O-])c4F)c4nc(c(-c5cccc(S(=O)(=O)[O-])c5F)c5ccc2[nH]5)C=C4)C=C3)cc1)c1ccc(-c2cccc(OC(=O)NC3CC3)c2)c(F)c1
REMARK SMILES IDX 6 1 5 2 3 3 4 4 2 6 1 7 75 8 76 9 94 10 77 11 92 12 78 13
REMARK SMILES IDX 93 14 79 15 80 16 91 17 81 18 83 19 82 20 84 21 85 22 86 23
REMARK SMILES IDX 87 24 88 26 89 27 90 28 7 29 8 30 9 31 10 32 11 34 12 35
REMARK SMILES IDX 13 36 74 37 14 38 73 39 15 40 16 41 17 42 67 43 18 44 72 45
REMARK SMILES IDX 66 46 68 47 19 48 71 49 65 50 64 51 20 53 52 54 32 55 51 56
REMARK SMILES IDX 33 57 36 58 50 59 69 60 34 61 35 62 49 64 70 65 37 66 21 67
REMARK SMILES IDX 22 68 30 69 23 70 25 71 31 72 24 73 26 74 27 75 28 76 29 77
REMARK SMILES IDX 53 78 54 79 62 80 55 81 57 82 63 83 56 84 58 85 59 86 60 87
REMARK SMILES IDX 61 88 38 89 39 90 47 91 40 92 42 93 48 94 41 95 43 96 44 97
REMARK SMILES IDX 45 98 46 99
REMARK H PARENT 5 5 87 25 9 33 68 52 36 63
REMARK Flexibility Score: inf
ROOT
ATOM      1  C   UNL A   1      32.457  30.119  25.690  1.00  0.00     0.117 C 
ENDROOT
BRANCH   1   2
ATOM      2  N   UNL A   1      31.551  28.999  25.520  1.00  0.00    -0.356 N 
ATOM      3  C   UNL A   1      31.619  27.928  24.676  1.00  0.00     0.227 C 
ATOM      4  O   UNL A   1      30.616  27.213  24.621  1.00  0.00    -0.274 OA
ATOM      5  H   UNL A   1      30.760  29.013  26.106  1.00  0.00     0.163 HD
BRANCH   3   6
ATOM      6  C   UNL A   1      32.921  27.625  23.910  1.00  0.00     0.105 C 
ATOM      7  C   UNL A   1      32.792  28.049  22.442  1.00  0.00     0.023 C 
BRANCH   6   8
ATOM      8  C   UNL A   1      33.365  26.167  24.074  1.00  0.00    -0.033 A 
ATOM      9  C   UNL A   1      33.504  25.340  22.943  1.00  0.00     0.005 A 
ATOM     10  C   UNL A   1      33.619  25.599  25.329  1.00  0.00     0.044 A 
ATOM     11  C   UNL A   1      33.913  24.005  23.063  1.00  0.00     0.012 A 
ATOM     12  C   UNL A   1      34.010  24.269  25.443  1.00  0.00     0.131 A 
ATOM     13  C   UNL A   1      34.160  23.448  24.322  1.00  0.00     0.018 A 
ATOM     14  F   UNL A   1      34.223  23.779  26.675  1.00  0.00    -0.206 F 
BRANCH  13  15
ATOM     15  C   UNL A   1      34.474  22.027  24.480  1.00  0.00    -0.012 A 
ATOM     16  C   UNL A   1      35.740  21.577  24.883  1.00  0.00     0.009 A 
ATOM     17  C   UNL A   1      33.466  21.082  24.233  1.00  0.00     0.056 A 
ATOM     18  C   UNL A   1      35.984  20.212  25.048  1.00  0.00     0.004 A 
ATOM     19  C   UNL A   1      33.709  19.726  24.396  1.00  0.00     0.133 A 
ATOM     20  C   UNL A   1      34.968  19.285  24.805  1.00  0.00     0.047 A 
BRANCH  19  21
ATOM     21  O   UNL A   1      32.740  18.719  24.173  1.00  0.00    -0.410 OA
BRANCH  21  22
ATOM     22  C   UNL A   1      32.760  17.778  23.147  1.00  0.00     0.412 C 
ATOM     23  O   UNL A   1      32.574  17.992  21.952  1.00  0.00    -0.224 OA
ATOM     24  N   UNL A   1      33.008  16.499  23.567  1.00  0.00    -0.318 N 
ATOM     25  H   UNL A   1      32.969  15.811  22.863  1.00  0.00     0.167 HD
BRANCH  24  26
ATOM     26  C   UNL A   1      33.312  16.012  24.868  1.00  0.00     0.085 C 
ATOM     27  C   UNL A   1      32.410  16.024  26.069  1.00  0.00     0.027 C 
ATOM     28  C   UNL A   1      32.644  14.742  25.332  1.00  0.00     0.027 C 
ENDBRANCH  24  26
ENDBRANCH  21  22
ENDBRANCH  19  21
ENDBRANCH  13  15
ENDBRANCH   6   8
ENDBRANCH   3   6
ENDBRANCH   1   2
BRANCH   1  29
ATOM     29  C   UNL A   1      31.880  31.156  26.653  1.00  0.00     0.042 C 
BRANCH  29  30
ATOM     30  C   UNL A   1      32.932  31.907  27.462  1.00  0.00     0.118 C 
BRANCH  30  31
ATOM     31  N   UNL A   1      32.592  33.310  27.654  1.00  0.00    -0.352 N 
ATOM     32  C   UNL A   1      33.112  34.228  28.532  1.00  0.00     0.251 C 
ATOM     33  H   UNL A   1      31.880  33.650  27.066  1.00  0.00     0.163 HD
ATOM     34  O   UNL A   1      32.545  35.307  28.685  1.00  0.00    -0.269 OA
BRANCH  32  35
ATOM     35  C   UNL A   1      34.332  33.914  29.308  1.00  0.00     0.039 A 
ATOM     36  C   UNL A   1      34.202  33.216  30.512  1.00  0.00     0.014 A 
ATOM     37  C   UNL A   1      35.597  34.302  28.857  1.00  0.00     0.014 A 
ATOM     38  C   UNL A   1      35.345  32.831  31.217  1.00  0.00     0.010 A 
ATOM     39  C   UNL A   1      36.737  33.854  29.523  1.00  0.00     0.010 A 
ATOM     40  C   UNL A   1      36.624  33.100  30.700  1.00  0.00    -0.014 A 
BRANCH  40  41
ATOM     41  C   UNL A   1      37.842  32.527  31.329  1.00  0.00     0.031 A 
ATOM     42  C   UNL A   1      38.563  31.365  30.701  1.00  0.00     0.074 A 
ATOM     43  C   UNL A   1      38.236  32.995  32.532  1.00  0.00     0.049 A 
ATOM     44  N   UNL A   1      39.592  30.697  31.155  1.00  0.00    -0.248 NA
ATOM     45  C   UNL A   1      38.055  30.877  29.409  1.00  0.00     0.031 C 
ATOM     46  C   UNL A   1      37.576  34.067  33.280  1.00  0.00     0.029 A 
ATOM     47  N   UNL A   1      39.263  32.604  33.358  1.00  0.00    -0.354 N 
ATOM     48  C   UNL A   1      39.831  29.689  30.229  1.00  0.00     0.074 A 
ATOM     49  C   UNL A   1      38.836  29.827  29.189  1.00  0.00     0.031 C 
ATOM     50  C   UNL A   1      38.203  34.242  34.453  1.00  0.00     0.029 A 
ATOM     51  C   UNL A   1      39.282  33.266  34.565  1.00  0.00     0.049 A 
ATOM     52  H   UNL A   1      39.922  31.916  33.110  1.00  0.00     0.167 HD
ATOM     53  C   UNL A   1      40.801  28.745  30.241  1.00  0.00     0.034 A 
ATOM     54  C   UNL A   1      40.056  33.089  35.654  1.00  0.00     0.034 A 
ATOM     55  C   UNL A   1      41.812  28.633  31.258  1.00  0.00     0.049 A 
ATOM     56  C   UNL A   1      41.129  32.034  35.626  1.00  0.00     0.074 A 
ATOM     57  C   UNL A   1      42.904  27.783  31.291  1.00  0.00     0.029 A 
ATOM     58  N   UNL A   1      41.843  29.368  32.432  1.00  0.00    -0.354 N 
ATOM     59  N   UNL A   1      41.462  31.222  34.652  1.00  0.00    -0.248 NA
ATOM     60  C   UNL A   1      41.949  31.886  36.838  1.00  0.00     0.031 C 
ATOM     61  C   UNL A   1      43.566  27.966  32.507  1.00  0.00     0.029 A 
ATOM     62  C   UNL A   1      42.911  28.962  33.213  1.00  0.00     0.049 A 
ATOM     63  H   UNL A   1      41.200  30.073  32.675  1.00  0.00     0.167 HD
ATOM     64  C   UNL A   1      42.544  30.488  35.125  1.00  0.00     0.074 A 
ATOM     65  C   UNL A   1      42.833  30.975  36.456  1.00  0.00     0.031 C 
ATOM     66  C   UNL A   1      43.222  29.484  34.518  1.00  0.00     0.034 A 
BRANCH  53  67
ATOM     67  C   UNL A   1      40.856  27.757  29.106  1.00  0.00     0.023 A 
ATOM     68  C   UNL A   1      39.921  26.704  29.049  1.00  0.00     0.012 A 
ATOM     69  C   UNL A   1      41.746  27.953  28.031  1.00  0.00     0.148 A 
ATOM     70  C   UNL A   1      39.878  25.854  27.944  1.00  0.00     0.002 A 
ATOM     71  C   UNL A   1      41.668  27.130  26.915  1.00  0.00     0.091 A 
ATOM     72  F   UNL A   1      42.636  28.953  28.115  1.00  0.00    -0.205 F 
ATOM     73  C   UNL A   1      40.741  26.076  26.873  1.00  0.00     0.022 A 
BRANCH  71  74
ATOM     74  S   UNL A   1      42.675  27.383  25.448  1.00  0.00     0.127 S 
ATOM     75  O   UNL A   1      42.392  26.167  24.685  1.00  0.00    -0.237 OA
ATOM     76  O   UNL A   1      42.095  28.602  24.888  1.00  0.00    -0.237 OA
ATOM     77  O   UNL A   1      44.047  27.514  25.916  1.00  0.00    -0.744 OA
ENDBRANCH  71  74
ENDBRANCH  53  67
BRANCH  54  78
ATOM     78  C   UNL A   1      39.852  33.927  36.872  1.00  0.00     0.023 A 
ATOM     79  C   UNL A   1      40.378  35.232  36.917  1.00  0.00     0.012 A 
ATOM     80  C   UNL A   1      39.159  33.428  37.992  1.00  0.00     0.148 A 
ATOM     81  C   UNL A   1      40.262  36.006  38.072  1.00  0.00     0.002 A 
ATOM     82  C   UNL A   1      38.990  34.228  39.116  1.00  0.00     0.091 A 
ATOM     83  F   UNL A   1      38.677  32.179  37.939  1.00  0.00    -0.205 F 
ATOM     84  C   UNL A   1      39.563  35.509  39.168  1.00  0.00     0.022 A 
BRANCH  82  85
ATOM     85  S   UNL A   1      37.984  33.717  40.511  1.00  0.00     0.127 S 
ATOM     86  O   UNL A   1      36.749  33.301  39.853  1.00  0.00    -0.237 OA
ATOM     87  O   UNL A   1      38.780  32.626  41.076  1.00  0.00    -0.237 OA
ATOM     88  O   UNL A   1      37.885  34.888  41.372  1.00  0.00    -0.744 OA
ENDBRANCH  82  85
ENDBRANCH  54  78
BRANCH  66  89
ATOM     89  C   UNL A   1      44.361  28.850  35.273  1.00  0.00     0.023 A 
ATOM     90  C   UNL A   1      45.626  29.474  35.284  1.00  0.00     0.012 A 
ATOM     91  C   UNL A   1      44.161  27.680  36.032  1.00  0.00     0.148 A 
ATOM     92  C   UNL A   1      46.680  28.926  36.014  1.00  0.00     0.002 A 
ATOM     93  C   UNL A   1      45.201  27.170  36.797  1.00  0.00     0.091 A 
ATOM     94  F   UNL A   1      42.955  27.096  35.997  1.00  0.00    -0.205 F 
ATOM     95  C   UNL A   1      46.465  27.783  36.779  1.00  0.00     0.022 A 
BRANCH  93  96
ATOM     96  S   UNL A   1      44.998  25.757  37.888  1.00  0.00     0.127 S 
ATOM     97  O   UNL A   1      45.160  24.638  36.960  1.00  0.00    -0.237 OA
ATOM     98  O   UNL A   1      46.104  25.933  38.829  1.00  0.00    -0.237 OA
ATOM     99  O   UNL A   1      43.672  25.886  38.476  1.00  0.00    -0.744 OA
ENDBRANCH  93  96
ENDBRANCH  66  89
ENDBRANCH  40  41
ENDBRANCH  32  35
ENDBRANCH  30  31
ENDBRANCH  29  30
ENDBRANCH   1  29
TORSDOF 18
ENDMDL
