MODEL 1
REMARK VINA RESULT:     -11.5      0.000      0.000
REMARK SMILES COc1cccc([C@@H]2CC(c3cccc(C)c3)=NN2C(=O)CCC(=O)NCCCNC(=O)c2ccc(-c3c4nc(c(-c5cccc(S(=O)(=O)[O-])c5F)c5ccc([nH]5)c(-c5cccc(S(=O)(=O)[O-])c5F)c5nc(c(-c6cccc(S(=O)(=O)[O-])c6F)c6ccc3[nH]6)C=C5)C=C4)cc2)c1
REMARK SMILES IDX 27 1 26 2 24 3 25 4 23 6 22 7 20 8 21 9 19 10 8 11 9 12
REMARK SMILES IDX 10 13 18 14 7 15 3 16 4 17 96 18 5 19 6 20 2 21 1 22 11 23
REMARK SMILES IDX 12 24 17 25 13 26 15 27 14 28 16 29 28 30 29 31 30 32 31 33
REMARK SMILES IDX 32 35 33 36 34 37 95 38 35 39 94 40 36 41 37 42 38 43 88 44
REMARK SMILES IDX 39 45 93 46 87 47 89 48 40 49 92 50 86 51 85 52 41 54 73 55
REMARK SMILES IDX 53 56 72 57 54 58 57 59 71 60 90 61 55 62 56 63 70 65 91 66
REMARK SMILES IDX 58 67 42 68 43 69 51 70 44 71 46 72 52 73 45 74 47 75 48 76
REMARK SMILES IDX 49 77 50 78 74 79 75 80 83 81 76 82 78 83 84 84 77 85 79 86
REMARK SMILES IDX 80 87 81 88 82 89 59 90 60 91 68 92 61 93 63 94 69 95 62 96
REMARK SMILES IDX 64 97 65 98 66 99 67 100
REMARK H PARENT 26 5 30 34 89 53 57 64
REMARK Flexibility Score: inf
ROOT
ATOM      1  C   UNL A   1      39.067  22.495  26.479  1.00  0.00     0.117 C 
ENDROOT
BRANCH   1   2
ATOM      2  N   UNL A   1      38.512  22.213  25.166  1.00  0.00    -0.356 N 
ATOM      3  C   UNL A   1      37.209  22.232  24.755  1.00  0.00     0.220 C 
ATOM      4  O   UNL A   1      36.967  22.331  23.548  1.00  0.00    -0.275 OA
ATOM      5  H   UNL A   1      39.170  21.974  24.473  1.00  0.00     0.163 HD
BRANCH   3   6
ATOM      6  C   UNL A   1      36.074  22.024  25.740  1.00  0.00     0.110 C 
BRANCH   6   7
ATOM      7  C   UNL A   1      35.459  23.336  26.227  1.00  0.00     0.112 C 
BRANCH   7   8
ATOM      8  C   UNL A   1      34.129  23.144  26.933  1.00  0.00     0.243 C 
ATOM      9  O   UNL A   1      34.046  22.246  27.774  1.00  0.00    -0.273 OA
BRANCH   8  10
ATOM     10  N   UNL A   1      33.060  23.922  26.503  1.00  0.00    -0.225 N 
ATOM     11  C   UNL A   1      31.678  23.494  26.260  1.00  0.00     0.147 C 
ATOM     12  C   UNL A   1      30.928  24.793  25.992  1.00  0.00     0.091 C 
ATOM     13  C   UNL A   1      32.077  25.764  26.002  1.00  0.00     0.071 C 
ATOM     14  N   UNL A   1      33.250  25.245  26.180  1.00  0.00    -0.174 NA
BRANCH  11  15
ATOM     15  C   UNL A   1      31.720  22.484  25.130  1.00  0.00    -0.019 A 
ATOM     16  C   UNL A   1      32.238  20.199  24.503  1.00  0.00     0.119 A 
ATOM     17  C   UNL A   1      32.601  20.644  23.231  1.00  0.00     0.046 A 
ATOM     18  C   UNL A   1      31.783  21.119  25.446  1.00  0.00     0.052 A 
ATOM     19  C   UNL A   1      32.465  21.987  22.882  1.00  0.00     0.004 A 
ATOM     20  C   UNL A   1      32.007  22.902  23.820  1.00  0.00     0.006 A 
BRANCH  16  21
ATOM     21  O   UNL A   1      32.441  18.867  24.745  1.00  0.00    -0.497 OA
ATOM     22  C   UNL A   1      32.796  18.080  23.614  1.00  0.00     0.278 C 
ENDBRANCH  16  21
ENDBRANCH  11  15
BRANCH  13  23
ATOM     23  C   UNL A   1      31.840  27.212  25.924  1.00  0.00    -0.002 A 
ATOM     24  C   UNL A   1      32.311  28.394  27.221  1.00  0.00     0.010 A 
ATOM     25  C   UNL A   1      31.006  27.851  24.486  1.00  0.00     0.013 A 
ATOM     26  C   UNL A   1      31.925  30.351  26.867  1.00  0.00     0.001 A 
ATOM     27  C   UNL A   1      30.646  29.585  24.252  1.00  0.00    -0.050 A 
ATOM     28  C   UNL A   1      31.095  30.830  25.381  1.00  0.00     0.003 A 
ATOM     29  C   UNL A   1      29.692  30.051  23.184  1.00  0.00     0.044 C 
ENDBRANCH  13  23
ENDBRANCH   8  10
ENDBRANCH   7   8
ENDBRANCH   6   7
ENDBRANCH   3   6
ENDBRANCH   1   2
BRANCH   1  30
ATOM     30  C   UNL A   1      40.567  22.756  26.633  1.00  0.00     0.042 C 
BRANCH  30  31
ATOM     31  C   UNL A   1      41.633  21.660  26.509  1.00  0.00     0.118 C 
BRANCH  31  32
ATOM     32  N   UNL A   1      42.550  21.708  25.377  1.00  0.00    -0.352 N 
ATOM     33  C   UNL A   1      43.476  22.685  24.997  1.00  0.00     0.251 C 
ATOM     34  H   UNL A   1      42.512  20.924  24.784  1.00  0.00     0.163 HD
ATOM     35  O   UNL A   1      43.892  22.607  23.843  1.00  0.00    -0.269 OA
BRANCH  33  36
ATOM     36  C   UNL A   1      43.865  23.858  25.995  1.00  0.00     0.039 A 
ATOM     37  C   UNL A   1      43.060  25.265  25.227  1.00  0.00     0.014 A 
ATOM     38  C   UNL A   1      44.665  24.138  27.842  1.00  0.00     0.014 A 
ATOM     39  C   UNL A   1      42.966  26.765  26.103  1.00  0.00     0.010 A 
ATOM     40  C   UNL A   1      44.427  25.741  28.645  1.00  0.00     0.010 A 
ATOM     41  C   UNL A   1      43.599  27.027  27.752  1.00  0.00    -0.014 A 
BRANCH  41  42
ATOM     42  C   UNL A   1      43.620  28.463  28.232  1.00  0.00     0.031 A 
ATOM     43  C   UNL A   1      44.801  29.371  27.954  1.00  0.00     0.074 A 
ATOM     44  C   UNL A   1      42.531  29.009  28.823  1.00  0.00     0.049 A 
ATOM     45  N   UNL A   1      45.049  30.571  28.422  1.00  0.00    -0.248 NA
ATOM     46  C   UNL A   1      45.862  28.871  27.070  1.00  0.00     0.031 C 
ATOM     47  C   UNL A   1      41.302  28.297  29.181  1.00  0.00     0.029 A 
ATOM     48  N   UNL A   1      42.249  30.309  29.186  1.00  0.00    -0.354 N 
ATOM     49  C   UNL A   1      46.339  30.890  28.004  1.00  0.00     0.074 A 
ATOM     50  C   UNL A   1      46.827  29.758  27.255  1.00  0.00     0.031 C 
ATOM     51  C   UNL A   1      40.357  29.171  29.543  1.00  0.00     0.029 A 
ATOM     52  C   UNL A   1      40.970  30.483  29.675  1.00  0.00     0.049 A 
ATOM     53  H   UNL A   1      42.899  31.043  29.105  1.00  0.00     0.167 HD
ATOM     54  C   UNL A   1      47.046  32.030  28.196  1.00  0.00     0.034 A 
ATOM     55  C   UNL A   1      40.367  31.542  30.251  1.00  0.00     0.034 A 
ATOM     56  C   UNL A   1      46.503  33.214  28.803  1.00  0.00     0.049 A 
ATOM     57  C   UNL A   1      41.166  32.794  30.452  1.00  0.00     0.074 A 
ATOM     58  C   UNL A   1      47.114  34.440  28.993  1.00  0.00     0.029 A 
ATOM     59  N   UNL A   1      45.214  33.328  29.297  1.00  0.00    -0.354 N 
ATOM     60  N   UNL A   1      42.394  33.055  30.078  1.00  0.00    -0.248 NA
ATOM     61  C   UNL A   1      40.504  33.893  31.168  1.00  0.00     0.031 C 
ATOM     62  C   UNL A   1      46.211  35.281  29.648  1.00  0.00     0.029 A 
ATOM     63  C   UNL A   1      45.015  34.600  29.806  1.00  0.00     0.049 A 
ATOM     64  H   UNL A   1      44.539  32.612  29.288  1.00  0.00     0.167 HD
ATOM     65  C   UNL A   1      42.646  34.355  30.492  1.00  0.00     0.074 A 
ATOM     66  C   UNL A   1      41.432  34.839  31.117  1.00  0.00     0.031 C 
ATOM     67  C   UNL A   1      43.785  35.078  30.381  1.00  0.00     0.034 A 
BRANCH  54  68
ATOM     68  C   UNL A   1      48.491  32.058  27.754  1.00  0.00     0.023 A 
ATOM     69  C   UNL A   1      48.868  32.632  26.524  1.00  0.00     0.012 A 
ATOM     70  C   UNL A   1      49.491  31.545  28.607  1.00  0.00     0.148 A 
ATOM     71  C   UNL A   1      50.205  32.648  26.127  1.00  0.00     0.002 A 
ATOM     72  C   UNL A   1      50.826  31.620  28.233  1.00  0.00     0.091 A 
ATOM     73  F   UNL A   1      49.117  30.992  29.769  1.00  0.00    -0.205 F 
ATOM     74  C   UNL A   1      51.184  32.154  26.986  1.00  0.00     0.022 A 
BRANCH  72  75
ATOM     75  S   UNL A   1      52.167  31.095  29.307  1.00  0.00     0.127 S 
ATOM     76  O   UNL A   1      53.340  31.458  28.513  1.00  0.00    -0.237 OA
ATOM     77  O   UNL A   1      51.951  31.927  30.491  1.00  0.00    -0.237 OA
ATOM     78  O   UNL A   1      51.981  29.667  29.520  1.00  0.00    -0.744 OA
ENDBRANCH  72  75
ENDBRANCH  54  68
BRANCH  55  79
ATOM     79  C   UNL A   1      38.964  31.435  30.759  1.00  0.00     0.023 A 
ATOM     80  C   UNL A   1      38.707  30.886  32.031  1.00  0.00     0.012 A 
ATOM     81  C   UNL A   1      37.877  31.885  29.980  1.00  0.00     0.148 A 
ATOM     82  C   UNL A   1      37.398  30.767  32.503  1.00  0.00     0.002 A 
ATOM     83  C   UNL A   1      36.586  31.835  30.489  1.00  0.00     0.091 A 
ATOM     84  F   UNL A   1      38.131  32.374  28.758  1.00  0.00    -0.205 F 
ATOM     85  C   UNL A   1      36.340  31.256  31.741  1.00  0.00     0.022 A 
BRANCH  83  86
ATOM     86  S   UNL A   1      35.191  32.579  29.637  1.00  0.00     0.127 S 
ATOM     87  O   UNL A   1      34.891  31.573  28.621  1.00  0.00    -0.237 OA
ATOM     88  O   UNL A   1      34.205  32.684  30.712  1.00  0.00    -0.237 OA
ATOM     89  O   UNL A   1      35.673  33.859  29.135  1.00  0.00    -0.744 OA
ENDBRANCH  83  86
ENDBRANCH  55  79
BRANCH  67  90
ATOM     90  C   UNL A   1      43.754  36.497  30.876  1.00  0.00     0.023 A 
ATOM     91  C   UNL A   1      44.021  36.788  32.228  1.00  0.00     0.012 A 
ATOM     92  C   UNL A   1      43.508  37.549  29.972  1.00  0.00     0.148 A 
ATOM     93  C   UNL A   1      44.002  38.106  32.681  1.00  0.00     0.002 A 
ATOM     94  C   UNL A   1      43.553  38.861  30.418  1.00  0.00     0.091 A 
ATOM     95  F   UNL A   1      43.242  37.244  28.695  1.00  0.00    -0.205 F 
ATOM     96  C   UNL A   1      43.780  39.141  31.775  1.00  0.00     0.022 A 
BRANCH  94  97
ATOM     97  S   UNL A   1      43.380  40.259  29.306  1.00  0.00     0.127 S 
ATOM     98  O   UNL A   1      44.475  40.029  28.366  1.00  0.00    -0.237 OA
ATOM     99  O   UNL A   1      42.042  40.047  28.753  1.00  0.00    -0.237 OA
ATOM    100  O   UNL A   1      43.514  41.453  30.132  1.00  0.00    -0.744 OA
ENDBRANCH  94  97
ENDBRANCH  67  90
ENDBRANCH  41  42
ENDBRANCH  33  36
ENDBRANCH  31  32
ENDBRANCH  30  31
ENDBRANCH   1  30
TORSDOF 19
ENDMDL
MODEL 2
REMARK VINA RESULT:     -11.3      5.048      8.277
REMARK SMILES COc1cccc([C@@H]2CC(c3cccc(C)c3)=NN2C(=O)CCC(=O)NCCCNC(=O)c2ccc(-c3c4nc(c(-c5cccc(S(=O)(=O)[O-])c5F)c5ccc([nH]5)c(-c5cccc(S(=O)(=O)[O-])c5F)c5nc(c(-c6cccc(S(=O)(=O)[O-])c6F)c6ccc3[nH]6)C=C5)C=C4)cc2)c1
REMARK SMILES IDX 27 1 26 2 24 3 25 4 23 6 22 7 20 8 21 9 19 10 8 11 9 12
REMARK SMILES IDX 10 13 18 14 7 15 3 16 4 17 96 18 5 19 6 20 2 21 1 22 11 23
REMARK SMILES IDX 12 24 17 25 13 26 15 27 14 28 16 29 28 30 29 31 30 32 31 33
REMARK SMILES IDX 32 35 33 36 34 37 95 38 35 39 94 40 36 41 37 42 38 43 88 44
REMARK SMILES IDX 39 45 93 46 87 47 89 48 40 49 92 50 86 51 85 52 41 54 73 55
REMARK SMILES IDX 53 56 72 57 54 58 57 59 71 60 90 61 55 62 56 63 70 65 91 66
REMARK SMILES IDX 58 67 42 68 43 69 51 70 44 71 46 72 52 73 45 74 47 75 48 76
REMARK SMILES IDX 49 77 50 78 74 79 75 80 83 81 76 82 78 83 84 84 77 85 79 86
REMARK SMILES IDX 80 87 81 88 82 89 59 90 60 91 68 92 61 93 63 94 69 95 62 96
REMARK SMILES IDX 64 97 65 98 66 99 67 100
REMARK H PARENT 26 5 30 34 89 53 57 64
REMARK Flexibility Score: inf
ROOT
ATOM      1  C   UNL A   1      38.118  21.312  25.496  1.00  0.00     0.117 C 
ENDROOT
BRANCH   1   2
ATOM      2  N   UNL A   1      37.644  21.711  24.182  1.00  0.00    -0.356 N 
ATOM      3  C   UNL A   1      36.519  22.408  23.842  1.00  0.00     0.220 C 
ATOM      4  O   UNL A   1      36.474  22.965  22.740  1.00  0.00    -0.275 OA
ATOM      5  H   UNL A   1      38.217  21.439  23.428  1.00  0.00     0.163 HD
BRANCH   3   6
ATOM      6  C   UNL A   1      35.299  22.413  24.743  1.00  0.00     0.110 C 
BRANCH   6   7
ATOM      7  C   UNL A   1      35.210  23.662  25.620  1.00  0.00     0.112 C 
BRANCH   7   8
ATOM      8  C   UNL A   1      34.021  23.643  26.564  1.00  0.00     0.243 C 
ATOM      9  O   UNL A   1      34.103  22.951  27.581  1.00  0.00    -0.273 OA
BRANCH   8  10
ATOM     10  N   UNL A   1      32.876  24.321  26.163  1.00  0.00    -0.225 N 
ATOM     11  C   UNL A   1      31.508  23.798  26.069  1.00  0.00     0.147 C 
ATOM     12  C   UNL A   1      30.661  25.026  25.761  1.00  0.00     0.091 C 
ATOM     13  C   UNL A   1      31.745  26.056  25.598  1.00  0.00     0.071 C 
ATOM     14  N   UNL A   1      32.958  25.621  25.720  1.00  0.00    -0.174 NA
BRANCH  11  15
ATOM     15  C   UNL A   1      31.526  22.700  25.024  1.00  0.00    -0.019 A 
ATOM     16  C   UNL A   1      32.132  20.401  24.543  1.00  0.00     0.119 A 
ATOM     17  C   UNL A   1      32.370  20.756  23.214  1.00  0.00     0.046 A 
ATOM     18  C   UNL A   1      31.695  21.372  25.443  1.00  0.00     0.052 A 
ATOM     19  C   UNL A   1      32.127  22.055  22.770  1.00  0.00     0.004 A 
ATOM     20  C   UNL A   1      31.687  23.020  23.666  1.00  0.00     0.006 A 
BRANCH  16  21
ATOM     21  O   UNL A   1      32.432  19.108  24.873  1.00  0.00    -0.497 OA
ATOM     22  C   UNL A   1      33.818  18.788  24.927  1.00  0.00     0.278 C 
ENDBRANCH  16  21
ENDBRANCH  11  15
BRANCH  13  23
ATOM     23  C   UNL A   1      31.412  27.477  25.424  1.00  0.00    -0.002 A 
ATOM     24  C   UNL A   1      31.804  28.772  26.637  1.00  0.00     0.010 A 
ATOM     25  C   UNL A   1      30.539  27.962  23.950  1.00  0.00     0.013 A 
ATOM     26  C   UNL A   1      31.290  30.671  26.154  1.00  0.00     0.001 A 
ATOM     27  C   UNL A   1      30.065  29.649  23.602  1.00  0.00    -0.050 A 
ATOM     28  C   UNL A   1      30.431  30.994  24.642  1.00  0.00     0.003 A 
ATOM     29  C   UNL A   1      29.083  29.979  22.508  1.00  0.00     0.044 C 
ENDBRANCH  13  23
ENDBRANCH   8  10
ENDBRANCH   7   8
ENDBRANCH   6   7
ENDBRANCH   3   6
ENDBRANCH   1   2
BRANCH   1  30
ATOM     30  C   UNL A   1      39.557  20.823  25.673  1.00  0.00     0.042 C 
BRANCH  30  31
ATOM     31  C   UNL A   1      40.696  21.713  26.186  1.00  0.00     0.118 C 
BRANCH  31  32
ATOM     32  N   UNL A   1      41.942  21.753  25.431  1.00  0.00    -0.352 N 
ATOM     33  C   UNL A   1      42.784  22.825  25.121  1.00  0.00     0.251 C 
ATOM     34  H   UNL A   1      42.239  20.882  25.083  1.00  0.00     0.163 HD
ATOM     35  O   UNL A   1      43.596  22.624  24.220  1.00  0.00    -0.269 OA
BRANCH  33  36
ATOM     36  C   UNL A   1      42.605  24.226  25.847  1.00  0.00     0.039 A 
ATOM     37  C   UNL A   1      41.772  23.743  27.361  1.00  0.00     0.014 A 
ATOM     38  C   UNL A   1      43.243  26.151  25.710  1.00  0.00     0.014 A 
ATOM     39  C   UNL A   1      41.594  24.913  28.636  1.00  0.00     0.010 A 
ATOM     40  C   UNL A   1      43.038  27.226  27.150  1.00  0.00     0.010 A 
ATOM     41  C   UNL A   1      42.200  26.592  28.576  1.00  0.00    -0.014 A 
BRANCH  41  42
ATOM     42  C   UNL A   1      41.735  27.504  29.690  1.00  0.00     0.031 A 
ATOM     43  C   UNL A   1      40.371  28.163  29.654  1.00  0.00     0.074 A 
ATOM     44  C   UNL A   1      42.481  27.662  30.810  1.00  0.00     0.049 A 
ATOM     45  N   UNL A   1      39.878  29.088  30.442  1.00  0.00    -0.248 NA
ATOM     46  C   UNL A   1      39.445  27.772  28.583  1.00  0.00     0.031 C 
ATOM     47  C   UNL A   1      43.821  27.115  31.031  1.00  0.00     0.029 A 
ATOM     48  N   UNL A   1      42.204  28.289  32.006  1.00  0.00    -0.354 N 
ATOM     49  C   UNL A   1      38.666  29.475  29.875  1.00  0.00     0.074 A 
ATOM     50  C   UNL A   1      38.500  28.695  28.673  1.00  0.00     0.031 C 
ATOM     51  C   UNL A   1      44.174  27.275  32.311  1.00  0.00     0.029 A 
ATOM     52  C   UNL A   1      43.198  28.141  32.952  1.00  0.00     0.049 A 
ATOM     53  H   UNL A   1      41.376  28.794  32.170  1.00  0.00     0.167 HD
ATOM     54  C   UNL A   1      37.756  30.372  30.325  1.00  0.00     0.034 A 
ATOM     55  C   UNL A   1      43.371  28.702  34.166  1.00  0.00     0.034 A 
ATOM     56  C   UNL A   1      37.846  31.030  31.599  1.00  0.00     0.049 A 
ATOM     57  C   UNL A   1      42.352  29.690  34.646  1.00  0.00     0.074 A 
ATOM     58  C   UNL A   1      36.949  31.912  32.176  1.00  0.00     0.029 A 
ATOM     59  N   UNL A   1      38.880  30.861  32.506  1.00  0.00    -0.354 N 
ATOM     60  N   UNL A   1      41.233  30.062  34.073  1.00  0.00    -0.248 NA
ATOM     61  C   UNL A   1      42.622  30.349  35.931  1.00  0.00     0.031 C 
ATOM     62  C   UNL A   1      37.467  32.315  33.410  1.00  0.00     0.029 A 
ATOM     63  C   UNL A   1      38.652  31.634  33.630  1.00  0.00     0.049 A 
ATOM     64  H   UNL A   1      39.661  30.277  32.369  1.00  0.00     0.167 HD
ATOM     65  C   UNL A   1      40.655  30.981  34.936  1.00  0.00     0.074 A 
ATOM     66  C   UNL A   1      41.530  31.085  36.086  1.00  0.00     0.031 C 
ATOM     67  C   UNL A   1      39.510  31.689  34.784  1.00  0.00     0.034 A 
BRANCH  54  68
ATOM     68  C   UNL A   1      36.583  30.708  29.433  1.00  0.00     0.023 A 
ATOM     69  C   UNL A   1      35.848  29.697  28.783  1.00  0.00     0.012 A 
ATOM     70  C   UNL A   1      36.182  32.052  29.285  1.00  0.00     0.148 A 
ATOM     71  C   UNL A   1      34.768  30.022  27.960  1.00  0.00     0.002 A 
ATOM     72  C   UNL A   1      35.069  32.363  28.514  1.00  0.00     0.091 A 
ATOM     73  F   UNL A   1      36.897  33.004  29.902  1.00  0.00    -0.205 F 
ATOM     74  C   UNL A   1      34.372  31.351  27.835  1.00  0.00     0.022 A 
BRANCH  72  75
ATOM     75  S   UNL A   1      34.425  34.033  28.367  1.00  0.00     0.127 S 
ATOM     76  O   UNL A   1      34.887  34.638  29.616  1.00  0.00    -0.237 OA
ATOM     77  O   UNL A   1      35.107  34.517  27.166  1.00  0.00    -0.237 OA
ATOM     78  O   UNL A   1      32.981  33.902  28.239  1.00  0.00    -0.744 OA
ENDBRANCH  72  75
ENDBRANCH  54  68
BRANCH  55  79
ATOM     79  C   UNL A   1      44.597  28.410  34.971  1.00  0.00     0.023 A 
ATOM     80  C   UNL A   1      45.746  29.214  34.834  1.00  0.00     0.012 A 
ATOM     81  C   UNL A   1      44.625  27.334  35.883  1.00  0.00     0.148 A 
ATOM     82  C   UNL A   1      46.901  28.936  35.570  1.00  0.00     0.002 A 
ATOM     83  C   UNL A   1      45.749  27.112  36.667  1.00  0.00     0.091 A 
ATOM     84  F   UNL A   1      43.538  26.556  35.981  1.00  0.00    -0.205 F 
ATOM     85  C   UNL A   1      46.897  27.897  36.497  1.00  0.00     0.022 A 
BRANCH  83  86
ATOM     86  S   UNL A   1      45.771  25.895  37.987  1.00  0.00     0.127 S 
ATOM     87  O   UNL A   1      47.108  26.084  38.544  1.00  0.00    -0.237 OA
ATOM     88  O   UNL A   1      44.676  26.358  38.840  1.00  0.00    -0.237 OA
ATOM     89  O   UNL A   1      45.531  24.611  37.344  1.00  0.00    -0.744 OA
ENDBRANCH  83  86
ENDBRANCH  55  79
BRANCH  67  90
ATOM     90  C   UNL A   1      39.095  32.582  35.919  1.00  0.00     0.023 A 
ATOM     91  C   UNL A   1      38.206  32.116  36.907  1.00  0.00     0.012 A 
ATOM     92  C   UNL A   1      39.639  33.877  36.027  1.00  0.00     0.148 A 
ATOM     93  C   UNL A   1      37.832  32.944  37.964  1.00  0.00     0.002 A 
ATOM     94  C   UNL A   1      39.310  34.672  37.114  1.00  0.00     0.091 A 
ATOM     95  F   UNL A   1      40.470  34.302  35.065  1.00  0.00    -0.205 F 
ATOM     96  C   UNL A   1      38.392  34.215  38.074  1.00  0.00     0.022 A 
BRANCH  94  97
ATOM     97  S   UNL A   1      40.059  36.278  37.391  1.00  0.00     0.127 S 
ATOM     98  O   UNL A   1      39.971  36.881  36.063  1.00  0.00    -0.237 OA
ATOM     99  O   UNL A   1      39.166  36.864  38.391  1.00  0.00    -0.237 OA
ATOM    100  O   UNL A   1      41.413  36.018  37.865  1.00  0.00    -0.744 OA
ENDBRANCH  94  97
ENDBRANCH  67  90
ENDBRANCH  41  42
ENDBRANCH  33  36
ENDBRANCH  31  32
ENDBRANCH  30  31
ENDBRANCH   1  30
TORSDOF 19
ENDMDL
MODEL 3
REMARK VINA RESULT:     -11.2      1.454      7.470
REMARK SMILES COc1cccc([C@@H]2CC(c3cccc(C)c3)=NN2C(=O)CCC(=O)NCCCNC(=O)c2ccc(-c3c4nc(c(-c5cccc(S(=O)(=O)[O-])c5F)c5ccc([nH]5)c(-c5cccc(S(=O)(=O)[O-])c5F)c5nc(c(-c6cccc(S(=O)(=O)[O-])c6F)c6ccc3[nH]6)C=C5)C=C4)cc2)c1
REMARK SMILES IDX 27 1 26 2 24 3 25 4 23 6 22 7 20 8 21 9 19 10 8 11 9 12
REMARK SMILES IDX 10 13 18 14 7 15 3 16 4 17 96 18 5 19 6 20 2 21 1 22 11 23
REMARK SMILES IDX 12 24 17 25 13 26 15 27 14 28 16 29 28 30 29 31 30 32 31 33
REMARK SMILES IDX 32 35 33 36 34 37 95 38 35 39 94 40 36 41 37 42 38 43 88 44
REMARK SMILES IDX 39 45 93 46 87 47 89 48 40 49 92 50 86 51 85 52 41 54 73 55
REMARK SMILES IDX 53 56 72 57 54 58 57 59 71 60 90 61 55 62 56 63 70 65 91 66
REMARK SMILES IDX 58 67 42 68 43 69 51 70 44 71 46 72 52 73 45 74 47 75 48 76
REMARK SMILES IDX 49 77 50 78 74 79 75 80 83 81 76 82 78 83 84 84 77 85 79 86
REMARK SMILES IDX 80 87 81 88 82 89 59 90 60 91 68 92 61 93 63 94 69 95 62 96
REMARK SMILES IDX 64 97 65 98 66 99 67 100
REMARK H PARENT 26 5 30 34 89 53 57 64
REMARK Flexibility Score: inf
ROOT
ATOM      1  C   UNL A   1      39.345  21.479  26.134  1.00  0.00     0.117 C 
ENDROOT
BRANCH   1   2
ATOM      2  N   UNL A   1      39.534  22.916  26.230  1.00  0.00    -0.356 N 
ATOM      3  C   UNL A   1      38.604  23.901  26.412  1.00  0.00     0.220 C 
ATOM      4  O   UNL A   1      38.976  25.001  26.833  1.00  0.00    -0.275 OA
ATOM      5  H   UNL A   1      40.466  23.225  26.152  1.00  0.00     0.163 HD
BRANCH   3   6
ATOM      6  C   UNL A   1      37.158  23.697  26.002  1.00  0.00     0.110 C 
BRANCH   6   7
ATOM      7  C   UNL A   1      37.011  22.870  24.725  1.00  0.00     0.112 C 
BRANCH   7   8
ATOM      8  C   UNL A   1      35.792  23.252  23.904  1.00  0.00     0.243 C 
ATOM      9  O   UNL A   1      35.857  23.121  22.680  1.00  0.00    -0.273 OA
BRANCH   8  10
ATOM     10  N   UNL A   1      34.723  23.830  24.579  1.00  0.00    -0.225 N 
ATOM     11  C   UNL A   1      33.813  23.190  25.537  1.00  0.00     0.147 C 
ATOM     12  C   UNL A   1      32.975  24.341  26.079  1.00  0.00     0.091 C 
ATOM     13  C   UNL A   1      33.480  25.461  25.212  1.00  0.00     0.071 C 
ATOM     14  N   UNL A   1      34.363  25.133  24.325  1.00  0.00    -0.174 NA
BRANCH  11  15
ATOM     15  C   UNL A   1      33.075  22.100  24.785  1.00  0.00    -0.019 A 
ATOM     16  C   UNL A   1      32.983  19.733  24.264  1.00  0.00     0.119 A 
ATOM     17  C   UNL A   1      32.440  20.042  23.016  1.00  0.00     0.046 A 
ATOM     18  C   UNL A   1      33.285  20.763  25.153  1.00  0.00     0.052 A 
ATOM     19  C   UNL A   1      32.152  21.362  22.672  1.00  0.00     0.004 A 
ATOM     20  C   UNL A   1      32.449  22.388  23.561  1.00  0.00     0.006 A 
BRANCH  16  21
ATOM     21  O   UNL A   1      33.252  18.409  24.482  1.00  0.00    -0.497 OA
ATOM     22  C   UNL A   1      32.585  17.817  25.591  1.00  0.00     0.278 C 
ENDBRANCH  16  21
ENDBRANCH  11  15
BRANCH  13  23
ATOM     23  C   UNL A   1      33.060  26.849  25.456  1.00  0.00    -0.002 A 
ATOM     24  C   UNL A   1      33.676  27.875  26.823  1.00  0.00     0.010 A 
ATOM     25  C   UNL A   1      31.845  27.563  24.368  1.00  0.00     0.013 A 
ATOM     26  C   UNL A   1      32.989  29.778  26.927  1.00  0.00     0.001 A 
ATOM     27  C   UNL A   1      31.237  29.234  24.541  1.00  0.00    -0.050 A 
ATOM     28  C   UNL A   1      31.786  30.345  25.762  1.00  0.00     0.003 A 
ATOM     29  C   UNL A   1      30.012  29.704  23.801  1.00  0.00     0.044 C 
ENDBRANCH  13  23
ENDBRANCH   8  10
ENDBRANCH   7   8
ENDBRANCH   6   7
ENDBRANCH   3   6
ENDBRANCH   1   2
BRANCH   1  30
ATOM     30  C   UNL A   1      40.516  20.535  26.418  1.00  0.00     0.042 C 
BRANCH  30  31
ATOM     31  C   UNL A   1      41.962  21.013  26.596  1.00  0.00     0.118 C 
BRANCH  31  32
ATOM     32  N   UNL A   1      42.724  21.381  25.409  1.00  0.00    -0.352 N 
ATOM     33  C   UNL A   1      43.424  22.552  25.104  1.00  0.00     0.251 C 
ATOM     34  H   UNL A   1      42.749  20.692  24.707  1.00  0.00     0.163 HD
ATOM     35  O   UNL A   1      43.712  22.710  23.919  1.00  0.00    -0.269 OA
BRANCH  33  36
ATOM     36  C   UNL A   1      43.724  23.629  26.233  1.00  0.00     0.039 A 
ATOM     37  C   UNL A   1      43.265  25.154  25.407  1.00  0.00     0.014 A 
ATOM     38  C   UNL A   1      44.142  23.736  28.219  1.00  0.00     0.014 A 
ATOM     39  C   UNL A   1      43.158  26.619  26.339  1.00  0.00     0.010 A 
ATOM     40  C   UNL A   1      43.922  25.324  29.056  1.00  0.00     0.010 A 
ATOM     41  C   UNL A   1      43.454  26.737  28.096  1.00  0.00    -0.014 A 
BRANCH  41  42
ATOM     42  C   UNL A   1      43.536  28.139  28.661  1.00  0.00     0.031 A 
ATOM     43  C   UNL A   1      42.332  28.805  29.297  1.00  0.00     0.074 A 
ATOM     44  C   UNL A   1      44.721  28.791  28.720  1.00  0.00     0.049 A 
ATOM     45  N   UNL A   1      42.186  30.048  29.688  1.00  0.00    -0.248 NA
ATOM     46  C   UNL A   1      41.121  27.997  29.492  1.00  0.00     0.031 C 
ATOM     47  C   UNL A   1      45.988  28.319  28.157  1.00  0.00     0.029 A 
ATOM     48  N   UNL A   1      45.077  29.977  29.326  1.00  0.00    -0.354 N 
ATOM     49  C   UNL A   1      40.844  30.190  30.032  1.00  0.00     0.074 A 
ATOM     50  C   UNL A   1      40.215  28.914  29.796  1.00  0.00     0.031 C 
ATOM     51  C   UNL A   1      46.992  29.096  28.580  1.00  0.00     0.029 A 
ATOM     52  C   UNL A   1      46.426  30.257  29.246  1.00  0.00     0.049 A 
ATOM     53  H   UNL A   1      44.430  30.568  29.773  1.00  0.00     0.167 HD
ATOM     54  C   UNL A   1      40.196  31.271  30.530  1.00  0.00     0.034 A 
ATOM     55  C   UNL A   1      47.136  31.354  29.580  1.00  0.00     0.034 A 
ATOM     56  C   UNL A   1      40.853  32.490  30.914  1.00  0.00     0.049 A 
ATOM     57  C   UNL A   1      46.400  32.537  30.131  1.00  0.00     0.074 A 
ATOM     58  C   UNL A   1      40.299  33.623  31.481  1.00  0.00     0.029 A 
ATOM     59  N   UNL A   1      42.212  32.727  30.793  1.00  0.00    -0.354 N 
ATOM     60  N   UNL A   1      45.126  32.655  30.414  1.00  0.00    -0.248 NA
ATOM     61  C   UNL A   1      47.192  33.746  30.395  1.00  0.00     0.031 C 
ATOM     62  C   UNL A   1      41.316  34.565  31.656  1.00  0.00     0.029 A 
ATOM     63  C   UNL A   1      42.514  33.994  31.260  1.00  0.00     0.049 A 
ATOM     64  H   UNL A   1      42.867  32.088  30.428  1.00  0.00     0.167 HD
ATOM     65  C   UNL A   1      44.967  33.941  30.909  1.00  0.00     0.074 A 
ATOM     66  C   UNL A   1      46.280  34.553  30.919  1.00  0.00     0.031 C 
ATOM     67  C   UNL A   1      43.833  34.567  31.306  1.00  0.00     0.034 A 
BRANCH  54  68
ATOM     68  C   UNL A   1      38.694  31.196  30.683  1.00  0.00     0.023 A 
ATOM     69  C   UNL A   1      38.103  30.485  31.746  1.00  0.00     0.012 A 
ATOM     70  C   UNL A   1      37.865  31.888  29.775  1.00  0.00     0.148 A 
ATOM     71  C   UNL A   1      36.715  30.421  31.873  1.00  0.00     0.002 A 
ATOM     72  C   UNL A   1      36.486  31.871  29.944  1.00  0.00     0.091 A 
ATOM     73  F   UNL A   1      38.441  32.552  28.763  1.00  0.00    -0.205 F 
ATOM     74  C   UNL A   1      35.908  31.123  30.981  1.00  0.00     0.022 A 
BRANCH  72  75
ATOM     75  S   UNL A   1      35.369  32.817  28.903  1.00  0.00     0.127 S 
ATOM     76  O   UNL A   1      35.512  32.132  27.619  1.00  0.00    -0.237 OA
ATOM     77  O   UNL A   1      34.083  32.605  29.567  1.00  0.00    -0.237 OA
ATOM     78  O   UNL A   1      35.852  34.190  28.931  1.00  0.00    -0.744 OA
ENDBRANCH  72  75
ENDBRANCH  54  68
BRANCH  55  79
ATOM     79  C   UNL A   1      48.607  31.416  29.321  1.00  0.00     0.023 A 
ATOM     80  C   UNL A   1      49.524  31.237  30.376  1.00  0.00     0.012 A 
ATOM     81  C   UNL A   1      49.103  31.647  28.020  1.00  0.00     0.148 A 
ATOM     82  C   UNL A   1      50.900  31.312  30.143  1.00  0.00     0.002 A 
ATOM     83  C   UNL A   1      50.471  31.642  27.784  1.00  0.00     0.091 A 
ATOM     84  F   UNL A   1      48.221  31.848  27.031  1.00  0.00    -0.205 F 
ATOM     85  C   UNL A   1      51.373  31.497  28.846  1.00  0.00     0.022 A 
BRANCH  83  86
ATOM     86  S   UNL A   1      51.157  31.722  26.126  1.00  0.00     0.127 S 
ATOM     87  O   UNL A   1      52.572  31.960  26.400  1.00  0.00    -0.237 OA
ATOM     88  O   UNL A   1      50.844  30.390  25.608  1.00  0.00    -0.237 OA
ATOM     89  O   UNL A   1      50.451  32.808  25.459  1.00  0.00    -0.744 OA
ENDBRANCH  83  86
ENDBRANCH  55  79
BRANCH  67  90
ATOM     90  C   UNL A   1      43.969  35.959  31.856  1.00  0.00     0.023 A 
ATOM     91  C   UNL A   1      44.165  36.166  33.235  1.00  0.00     0.012 A 
ATOM     92  C   UNL A   1      43.953  37.063  30.981  1.00  0.00     0.148 A 
ATOM     93  C   UNL A   1      44.302  37.458  33.741  1.00  0.00     0.002 A 
ATOM     94  C   UNL A   1      44.151  38.340  31.484  1.00  0.00     0.091 A 
ATOM     95  F   UNL A   1      43.748  36.840  29.676  1.00  0.00    -0.205 F 
ATOM     96  C   UNL A   1      44.307  38.542  32.865  1.00  0.00     0.022 A 
BRANCH  94  97
ATOM     97  S   UNL A   1      44.275  39.781  30.422  1.00  0.00     0.127 S 
ATOM     98  O   UNL A   1      44.783  40.791  31.349  1.00  0.00    -0.237 OA
ATOM     99  O   UNL A   1      45.236  39.336  29.413  1.00  0.00    -0.237 OA
ATOM    100  O   UNL A   1      42.931  40.027  29.914  1.00  0.00    -0.744 OA
ENDBRANCH  94  97
ENDBRANCH  67  90
ENDBRANCH  41  42
ENDBRANCH  33  36
ENDBRANCH  31  32
ENDBRANCH  30  31
ENDBRANCH   1  30
TORSDOF 19
ENDMDL
