MODEL 1
REMARK VINA RESULT:     -12.8      0.000      0.000
REMARK SMILES C[C@@H](C(=O)NCCCNC(=O)c1ccc(-c2c3nc(c(-c4cccc(S(=O)(=O)[O-])c4F)c4ccc([nH]4)c(-c4cccc(S(=O)(=O)[O-])c4F)c4nc(c(-c5cccc(S(=O)(=O)[O-])c5F)c5ccc2[nH]5)C=C4)C=C3)cc1)c1ccccc1-c1ccn(C(F)F)c(=O)c1
REMARK SMILES IDX 7 1 6 2 5 3 3 4 4 5 2 7 1 8 75 9 76 10 80 11 77 12 79 13
REMARK SMILES IDX 78 14 81 15 82 16 90 17 83 18 88 19 84 20 89 21 85 22 86 23
REMARK SMILES IDX 87 24 8 25 9 26 10 27 11 29 12 30 13 31 74 32 14 33 73 34
REMARK SMILES IDX 15 35 16 36 17 37 67 38 18 39 72 40 66 41 68 42 19 43 71 44
REMARK SMILES IDX 65 45 64 46 20 48 52 49 32 50 51 51 33 52 36 53 50 54 69 55
REMARK SMILES IDX 34 56 35 57 49 59 70 60 37 61 21 62 22 63 30 64 23 65 25 66
REMARK SMILES IDX 31 67 24 68 26 69 27 70 28 71 29 72 53 73 54 74 62 75 55 76
REMARK SMILES IDX 57 77 63 78 56 79 58 80 59 81 60 82 61 83 38 84 39 85 47 86
REMARK SMILES IDX 40 87 42 88 48 89 41 90 43 91 44 92 45 93 46 94
REMARK H PARENT 5 6 9 28 68 47 36 58
REMARK Flexibility Score: inf
ROOT
ATOM      1  C   UNL A   1      31.028  32.183  26.277  1.00  0.00     0.042 C 
ENDROOT
BRANCH   1   2
ATOM      2  C   UNL A   1      30.951  30.947  25.369  1.00  0.00     0.117 C 
BRANCH   2   3
ATOM      3  N   UNL A   1      32.201  30.196  25.277  1.00  0.00    -0.356 N 
ATOM      4  C   UNL A   1      32.492  28.883  25.562  1.00  0.00     0.227 C 
ATOM      5  O   UNL A   1      33.656  28.525  25.374  1.00  0.00    -0.274 OA
ATOM      6  H   UNL A   1      32.968  30.722  24.954  1.00  0.00     0.163 HD
BRANCH   4   7
ATOM      7  C   UNL A   1      31.381  27.941  26.085  1.00  0.00     0.106 C 
ATOM      8  C   UNL A   1      31.594  27.856  27.591  1.00  0.00     0.023 C 
BRANCH   7   9
ATOM      9  C   UNL A   1      31.229  26.589  25.333  1.00  0.00    -0.028 A 
ATOM     10  C   UNL A   1      31.875  25.467  25.905  1.00  0.00     0.005 A 
ATOM     11  C   UNL A   1      30.553  26.376  24.093  1.00  0.00    -0.014 A 
ATOM     12  C   UNL A   1      31.801  24.189  25.338  1.00  0.00     0.000 A 
ATOM     13  C   UNL A   1      30.504  25.083  23.530  1.00  0.00     0.009 A 
ATOM     14  C   UNL A   1      31.109  23.996  24.153  1.00  0.00     0.001 A 
BRANCH  11  15
ATOM     15  C   UNL A   1      29.824  27.418  23.333  1.00  0.00    -0.011 A 
ATOM     16  C   UNL A   1      30.470  28.431  22.516  1.00  0.00     0.027 A 
ATOM     17  C   UNL A   1      28.497  27.490  23.534  1.00  0.00     0.080 A 
ATOM     18  C   UNL A   1      29.817  29.565  22.223  1.00  0.00     0.095 A 
ATOM     19  C   UNL A   1      27.732  28.699  23.119  1.00  0.00     0.255 A 
ATOM     20  N   UNL A   1      28.495  29.734  22.593  1.00  0.00    -0.258 N 
ATOM     21  O   UNL A   1      26.529  28.718  23.336  1.00  0.00    -0.269 OA
BRANCH  20  22
ATOM     22  C   UNL A   1      27.838  31.019  22.475  1.00  0.00     0.451 C 
ATOM     23  F   UNL A   1      28.152  31.802  23.533  1.00  0.00    -0.185 F 
ATOM     24  F   UNL A   1      28.251  31.635  21.342  1.00  0.00    -0.185 F 
ENDBRANCH  20  22
ENDBRANCH  11  15
ENDBRANCH   7   9
ENDBRANCH   4   7
ENDBRANCH   2   3
ENDBRANCH   1   2
BRANCH   1  25
ATOM     25  C   UNL A   1      32.384  32.421  26.924  1.00  0.00     0.118 C 
BRANCH  25  26
ATOM     26  N   UNL A   1      32.511  33.775  27.435  1.00  0.00    -0.352 N 
ATOM     27  C   UNL A   1      33.382  34.280  28.371  1.00  0.00     0.251 C 
ATOM     28  H   UNL A   1      31.880  34.427  27.055  1.00  0.00     0.163 HD
ATOM     29  O   UNL A   1      33.170  35.393  28.846  1.00  0.00    -0.269 OA
BRANCH  27  30
ATOM     30  C   UNL A   1      34.551  33.490  28.827  1.00  0.00     0.039 A 
ATOM     31  C   UNL A   1      35.824  33.856  28.380  1.00  0.00     0.014 A 
ATOM     32  C   UNL A   1      34.405  32.386  29.670  1.00  0.00     0.014 A 
ATOM     33  C   UNL A   1      36.951  33.169  28.841  1.00  0.00     0.010 A 
ATOM     34  C   UNL A   1      35.534  31.748  30.188  1.00  0.00     0.010 A 
ATOM     35  C   UNL A   1      36.820  32.138  29.787  1.00  0.00    -0.014 A 
BRANCH  35  36
ATOM     36  C   UNL A   1      38.015  31.514  30.417  1.00  0.00     0.031 A 
ATOM     37  C   UNL A   1      38.771  30.416  29.718  1.00  0.00     0.074 A 
ATOM     38  C   UNL A   1      38.355  31.871  31.673  1.00  0.00     0.049 A 
ATOM     39  N   UNL A   1      39.789  29.716  30.151  1.00  0.00    -0.248 NA
ATOM     40  C   UNL A   1      38.320  30.041  28.367  1.00  0.00     0.031 C 
ATOM     41  C   UNL A   1      37.654  32.869  32.486  1.00  0.00     0.029 A 
ATOM     42  N   UNL A   1      39.349  31.412  32.503  1.00  0.00    -0.354 N 
ATOM     43  C   UNL A   1      40.075  28.795  29.150  1.00  0.00     0.074 A 
ATOM     44  C   UNL A   1      39.118  29.018  28.087  1.00  0.00     0.031 C 
ATOM     45  C   UNL A   1      38.231  32.938  33.695  1.00  0.00     0.029 A 
ATOM     46  C   UNL A   1      39.313  31.963  33.765  1.00  0.00     0.049 A 
ATOM     47  H   UNL A   1      40.024  30.752  32.223  1.00  0.00     0.167 HD
ATOM     48  C   UNL A   1      41.053  27.861  29.115  1.00  0.00     0.034 A 
ATOM     49  C   UNL A   1      40.045  31.695  34.865  1.00  0.00     0.034 A 
ATOM     50  C   UNL A   1      42.028  27.669  30.156  1.00  0.00     0.049 A 
ATOM     51  C   UNL A   1      41.135  30.658  34.782  1.00  0.00     0.074 A 
ATOM     52  C   UNL A   1      43.129  26.830  30.153  1.00  0.00     0.029 A 
ATOM     53  N   UNL A   1      42.008  28.297  31.389  1.00  0.00    -0.354 N 
ATOM     54  N   UNL A   1      41.517  29.944  33.752  1.00  0.00    -0.248 NA
ATOM     55  C   UNL A   1      41.914  30.410  36.004  1.00  0.00     0.031 C 
ATOM     56  C   UNL A   1      43.747  26.916  31.404  1.00  0.00     0.029 A 
ATOM     57  C   UNL A   1      43.054  27.837  32.170  1.00  0.00     0.049 A 
ATOM     58  H   UNL A   1      41.346  28.971  31.670  1.00  0.00     0.167 HD
ATOM     59  C   UNL A   1      42.594  29.183  34.195  1.00  0.00     0.074 A 
ATOM     60  C   UNL A   1      42.827  29.551  35.575  1.00  0.00     0.031 C 
ATOM     61  C   UNL A   1      43.309  28.245  33.527  1.00  0.00     0.034 A 
BRANCH  48  62
ATOM     62  C   UNL A   1      41.163  26.981  27.897  1.00  0.00     0.023 A 
ATOM     63  C   UNL A   1      41.864  27.440  26.764  1.00  0.00     0.012 A 
ATOM     64  C   UNL A   1      40.688  25.655  27.928  1.00  0.00     0.148 A 
ATOM     65  C   UNL A   1      42.079  26.598  25.674  1.00  0.00     0.002 A 
ATOM     66  C   UNL A   1      40.942  24.808  26.856  1.00  0.00     0.091 A 
ATOM     67  F   UNL A   1      40.012  25.245  29.010  1.00  0.00    -0.205 F 
ATOM     68  C   UNL A   1      41.631  25.280  25.726  1.00  0.00     0.022 A 
BRANCH  66  69
ATOM     69  S   UNL A   1      40.484  23.071  26.857  1.00  0.00     0.127 S 
ATOM     70  O   UNL A   1      39.050  23.145  26.583  1.00  0.00    -0.237 OA
ATOM     71  O   UNL A   1      41.288  22.543  25.755  1.00  0.00    -0.237 OA
ATOM     72  O   UNL A   1      40.837  22.560  28.173  1.00  0.00    -0.744 OA
ENDBRANCH  66  69
ENDBRANCH  48  62
BRANCH  49  73
ATOM     73  C   UNL A   1      39.790  32.428  36.140  1.00  0.00     0.023 A 
ATOM     74  C   UNL A   1      40.585  33.543  36.471  1.00  0.00     0.012 A 
ATOM     75  C   UNL A   1      38.774  32.025  37.029  1.00  0.00     0.148 A 
ATOM     76  C   UNL A   1      40.408  34.209  37.685  1.00  0.00     0.002 A 
ATOM     77  C   UNL A   1      38.556  32.736  38.204  1.00  0.00     0.091 A 
ATOM     78  F   UNL A   1      38.034  30.952  36.711  1.00  0.00    -0.205 F 
ATOM     79  C   UNL A   1      39.390  33.811  38.547  1.00  0.00     0.022 A 
BRANCH  77  80
ATOM     80  S   UNL A   1      37.168  32.386  39.290  1.00  0.00     0.127 S 
ATOM     81  O   UNL A   1      37.403  30.988  39.638  1.00  0.00    -0.237 OA
ATOM     82  O   UNL A   1      37.383  33.338  40.382  1.00  0.00    -0.237 OA
ATOM     83  O   UNL A   1      35.975  32.663  38.500  1.00  0.00    -0.744 OA
ENDBRANCH  77  80
ENDBRANCH  49  73
BRANCH  61  84
ATOM     84  C   UNL A   1      44.428  27.558  34.266  1.00  0.00     0.023 A 
ATOM     85  C   UNL A   1      45.700  28.162  34.324  1.00  0.00     0.012 A 
ATOM     86  C   UNL A   1      44.200  26.357  34.966  1.00  0.00     0.148 A 
ATOM     87  C   UNL A   1      46.736  27.565  35.042  1.00  0.00     0.002 A 
ATOM     88  C   UNL A   1      45.223  25.794  35.721  1.00  0.00     0.091 A 
ATOM     89  F   UNL A   1      42.987  25.791  34.887  1.00  0.00    -0.205 F 
ATOM     90  C   UNL A   1      46.495  26.390  35.748  1.00  0.00     0.022 A 
BRANCH  88  91
ATOM     91  S   UNL A   1      44.985  24.334  36.739  1.00  0.00     0.127 S 
ATOM     92  O   UNL A   1      44.079  24.836  37.772  1.00  0.00    -0.237 OA
ATOM     93  O   UNL A   1      44.375  23.397  35.796  1.00  0.00    -0.237 OA
ATOM     94  O   UNL A   1      46.308  23.948  37.210  1.00  0.00    -0.744 OA
ENDBRANCH  88  91
ENDBRANCH  61  84
ENDBRANCH  35  36
ENDBRANCH  27  30
ENDBRANCH  25  26
ENDBRANCH   1  25
TORSDOF 16
ENDMDL
MODEL 2
REMARK VINA RESULT:     -12.7      6.435     11.593
REMARK SMILES C[C@@H](C(=O)NCCCNC(=O)c1ccc(-c2c3nc(c(-c4cccc(S(=O)(=O)[O-])c4F)c4ccc([nH]4)c(-c4cccc(S(=O)(=O)[O-])c4F)c4nc(c(-c5cccc(S(=O)(=O)[O-])c5F)c5ccc2[nH]5)C=C4)C=C3)cc1)c1ccccc1-c1ccn(C(F)F)c(=O)c1
REMARK SMILES IDX 7 1 6 2 5 3 3 4 4 5 2 7 1 8 75 9 76 10 80 11 77 12 79 13
REMARK SMILES IDX 78 14 81 15 82 16 90 17 83 18 88 19 84 20 89 21 85 22 86 23
REMARK SMILES IDX 87 24 8 25 9 26 10 27 11 29 12 30 13 31 74 32 14 33 73 34
REMARK SMILES IDX 15 35 16 36 17 37 67 38 18 39 72 40 66 41 68 42 19 43 71 44
REMARK SMILES IDX 65 45 64 46 20 48 52 49 32 50 51 51 33 52 36 53 50 54 69 55
REMARK SMILES IDX 34 56 35 57 49 59 70 60 37 61 21 62 22 63 30 64 23 65 25 66
REMARK SMILES IDX 31 67 24 68 26 69 27 70 28 71 29 72 53 73 54 74 62 75 55 76
REMARK SMILES IDX 57 77 63 78 56 79 58 80 59 81 60 82 61 83 38 84 39 85 47 86
REMARK SMILES IDX 40 87 42 88 48 89 41 90 43 91 44 92 45 93 46 94
REMARK H PARENT 5 6 9 28 68 47 36 58
REMARK Flexibility Score: inf
ROOT
ATOM      1  C   UNL A   1      37.770  19.210  24.733  1.00  0.00     0.042 C 
ENDROOT
BRANCH   1   2
ATOM      2  C   UNL A   1      36.282  19.534  24.935  1.00  0.00     0.117 C 
BRANCH   2   3
ATOM      3  N   UNL A   1      36.037  20.759  25.690  1.00  0.00    -0.356 N 
ATOM      4  C   UNL A   1      35.602  22.000  25.287  1.00  0.00     0.227 C 
ATOM      5  O   UNL A   1      35.478  22.853  26.169  1.00  0.00    -0.274 OA
ATOM      6  H   UNL A   1      36.211  20.684  26.657  1.00  0.00     0.163 HD
BRANCH   4   7
ATOM      7  C   UNL A   1      35.295  22.264  23.794  1.00  0.00     0.106 C 
ATOM      8  C   UNL A   1      36.519  22.986  23.246  1.00  0.00     0.023 C 
BRANCH   7   9
ATOM      9  C   UNL A   1      33.917  22.916  23.490  1.00  0.00    -0.028 A 
ATOM     10  C   UNL A   1      33.921  24.297  23.177  1.00  0.00     0.005 A 
ATOM     11  C   UNL A   1      32.641  22.278  23.553  1.00  0.00    -0.014 A 
ATOM     12  C   UNL A   1      32.752  24.999  22.865  1.00  0.00     0.000 A 
ATOM     13  C   UNL A   1      31.471  23.008  23.251  1.00  0.00     0.009 A 
ATOM     14  C   UNL A   1      31.526  24.352  22.897  1.00  0.00     0.001 A 
BRANCH  11  15
ATOM     15  C   UNL A   1      32.421  20.847  23.869  1.00  0.00    -0.011 A 
ATOM     16  C   UNL A   1      32.470  20.294  25.212  1.00  0.00     0.027 A 
ATOM     17  C   UNL A   1      32.302  20.012  22.823  1.00  0.00     0.080 A 
ATOM     18  C   UNL A   1      32.694  18.983  25.384  1.00  0.00     0.095 A 
ATOM     19  C   UNL A   1      32.442  18.541  23.009  1.00  0.00     0.255 A 
ATOM     20  N   UNL A   1      32.766  18.131  24.295  1.00  0.00    -0.258 N 
ATOM     21  O   UNL A   1      32.338  17.826  22.021  1.00  0.00    -0.269 OA
BRANCH  20  22
ATOM     22  C   UNL A   1      33.212  16.761  24.440  1.00  0.00     0.451 C 
ATOM     23  F   UNL A   1      34.286  16.704  25.261  1.00  0.00    -0.185 F 
ATOM     24  F   UNL A   1      32.216  16.016  24.977  1.00  0.00    -0.185 F 
ENDBRANCH  20  22
ENDBRANCH  11  15
ENDBRANCH   7   9
ENDBRANCH   4   7
ENDBRANCH   2   3
ENDBRANCH   1   2
BRANCH   1  25
ATOM     25  C   UNL A   1      38.715  19.900  25.704  1.00  0.00     0.118 C 
BRANCH  25  26
ATOM     26  N   UNL A   1      39.933  19.137  25.912  1.00  0.00    -0.352 N 
ATOM     27  C   UNL A   1      41.208  19.575  26.181  1.00  0.00     0.251 C 
ATOM     28  H   UNL A   1      39.831  18.159  25.851  1.00  0.00     0.163 HD
ATOM     29  O   UNL A   1      42.146  18.788  26.080  1.00  0.00    -0.269 OA
BRANCH  27  30
ATOM     30  C   UNL A   1      41.462  20.985  26.564  1.00  0.00     0.039 A 
ATOM     31  C   UNL A   1      41.811  21.268  27.888  1.00  0.00     0.014 A 
ATOM     32  C   UNL A   1      41.342  22.028  25.642  1.00  0.00     0.014 A 
ATOM     33  C   UNL A   1      42.116  22.580  28.264  1.00  0.00     0.010 A 
ATOM     34  C   UNL A   1      41.719  23.323  25.999  1.00  0.00     0.010 A 
ATOM     35  C   UNL A   1      42.120  23.613  27.312  1.00  0.00    -0.014 A 
BRANCH  35  36
ATOM     36  C   UNL A   1      42.608  24.976  27.655  1.00  0.00     0.031 A 
ATOM     37  C   UNL A   1      41.683  25.997  28.263  1.00  0.00     0.074 A 
ATOM     38  C   UNL A   1      43.868  25.324  27.319  1.00  0.00     0.049 A 
ATOM     39  N   UNL A   1      41.924  27.249  28.559  1.00  0.00    -0.248 NA
ATOM     40  C   UNL A   1      40.307  25.566  28.563  1.00  0.00     0.031 C 
ATOM     41  C   UNL A   1      44.837  24.448  26.656  1.00  0.00     0.029 A 
ATOM     42  N   UNL A   1      44.539  26.516  27.451  1.00  0.00    -0.354 N 
ATOM     43  C   UNL A   1      40.727  27.766  29.039  1.00  0.00     0.074 A 
ATOM     44  C   UNL A   1      39.755  26.695  28.990  1.00  0.00     0.031 C 
ATOM     45  C   UNL A   1      45.969  25.132  26.431  1.00  0.00     0.029 A 
ATOM     46  C   UNL A   1      45.797  26.505  26.891  1.00  0.00     0.049 A 
ATOM     47  H   UNL A   1      44.157  27.303  27.904  1.00  0.00     0.167 HD
ATOM     48  C   UNL A   1      40.467  29.014  29.494  1.00  0.00     0.034 A 
ATOM     49  C   UNL A   1      46.700  27.494  26.735  1.00  0.00     0.034 A 
ATOM     50  C   UNL A   1      41.446  30.065  29.580  1.00  0.00     0.049 A 
ATOM     51  C   UNL A   1      46.380  28.867  27.267  1.00  0.00     0.074 A 
ATOM     52  C   UNL A   1      41.303  31.324  30.139  1.00  0.00     0.029 A 
ATOM     53  N   UNL A   1      42.732  29.997  29.072  1.00  0.00    -0.354 N 
ATOM     54  N   UNL A   1      45.311  29.275  27.904  1.00  0.00    -0.248 NA
ATOM     55  C   UNL A   1      47.402  29.908  27.084  1.00  0.00     0.031 C 
ATOM     56  C   UNL A   1      42.489  32.032  29.927  1.00  0.00     0.029 A 
ATOM     57  C   UNL A   1      43.382  31.202  29.272  1.00  0.00     0.049 A 
ATOM     58  H   UNL A   1      43.126  29.208  28.634  1.00  0.00     0.167 HD
ATOM     59  C   UNL A   1      45.542  30.610  28.219  1.00  0.00     0.074 A 
ATOM     60  C   UNL A   1      46.868  30.931  27.736  1.00  0.00     0.031 C 
ATOM     61  C   UNL A   1      44.720  31.498  28.831  1.00  0.00     0.034 A 
BRANCH  48  62
ATOM     62  C   UNL A   1      39.075  29.328  29.977  1.00  0.00     0.023 A 
ATOM     63  C   UNL A   1      38.706  29.007  31.298  1.00  0.00     0.012 A 
ATOM     64  C   UNL A   1      38.183  30.057  29.166  1.00  0.00     0.148 A 
ATOM     65  C   UNL A   1      37.464  29.395  31.801  1.00  0.00     0.002 A 
ATOM     66  C   UNL A   1      36.965  30.477  29.687  1.00  0.00     0.091 A 
ATOM     67  F   UNL A   1      38.551  30.338  27.908  1.00  0.00    -0.205 F 
ATOM     68  C   UNL A   1      36.602  30.141  31.002  1.00  0.00     0.022 A 
BRANCH  66  69
ATOM     69  S   UNL A   1      35.819  31.513  28.770  1.00  0.00     0.127 S 
ATOM     70  O   UNL A   1      35.451  30.634  27.661  1.00  0.00    -0.237 OA
ATOM     71  O   UNL A   1      34.757  31.734  29.751  1.00  0.00    -0.237 OA
ATOM     72  O   UNL A   1      36.564  32.705  28.393  1.00  0.00    -0.744 OA
ENDBRANCH  66  69
ENDBRANCH  48  62
BRANCH  49  73
ATOM     73  C   UNL A   1      48.005  27.226  26.061  1.00  0.00     0.023 A 
ATOM     74  C   UNL A   1      49.093  26.749  26.818  1.00  0.00     0.012 A 
ATOM     75  C   UNL A   1      48.179  27.448  24.680  1.00  0.00     0.148 A 
ATOM     76  C   UNL A   1      50.341  26.549  26.225  1.00  0.00     0.002 A 
ATOM     77  C   UNL A   1      49.405  27.180  24.082  1.00  0.00     0.091 A 
ATOM     78  F   UNL A   1      47.141  27.919  23.973  1.00  0.00    -0.205 F 
ATOM     79  C   UNL A   1      50.495  26.757  24.857  1.00  0.00     0.022 A 
BRANCH  77  80
ATOM     80  S   UNL A   1      49.640  27.270  22.303  1.00  0.00     0.127 S 
ATOM     81  O   UNL A   1      51.068  26.998  22.174  1.00  0.00    -0.237 OA
ATOM     82  O   UNL A   1      48.763  26.201  21.821  1.00  0.00    -0.237 OA
ATOM     83  O   UNL A   1      49.201  28.605  21.918  1.00  0.00    -0.744 OA
ENDBRANCH  77  80
ENDBRANCH  49  73
BRANCH  61  84
ATOM     84  C   UNL A   1      45.231  32.901  29.034  1.00  0.00     0.023 A 
ATOM     85  C   UNL A   1      45.999  33.205  30.176  1.00  0.00     0.012 A 
ATOM     86  C   UNL A   1      45.017  33.896  28.060  1.00  0.00     0.148 A 
ATOM     87  C   UNL A   1      46.519  34.486  30.360  1.00  0.00     0.002 A 
ATOM     88  C   UNL A   1      45.581  35.155  28.225  1.00  0.00     0.091 A 
ATOM     89  F   UNL A   1      44.273  33.590  26.988  1.00  0.00    -0.205 F 
ATOM     90  C   UNL A   1      46.321  35.456  29.381  1.00  0.00     0.022 A 
BRANCH  88  91
ATOM     91  S   UNL A   1      45.461  36.441  26.977  1.00  0.00     0.127 S 
ATOM     92  O   UNL A   1      46.186  37.541  27.612  1.00  0.00    -0.237 OA
ATOM     93  O   UNL A   1      46.150  35.832  25.840  1.00  0.00    -0.237 OA
ATOM     94  O   UNL A   1      44.038  36.674  26.771  1.00  0.00    -0.744 OA
ENDBRANCH  88  91
ENDBRANCH  61  84
ENDBRANCH  35  36
ENDBRANCH  27  30
ENDBRANCH  25  26
ENDBRANCH   1  25
TORSDOF 16
ENDMDL
MODEL 3
REMARK VINA RESULT:     -12.6      1.506      1.766
REMARK SMILES C[C@@H](C(=O)NCCCNC(=O)c1ccc(-c2c3nc(c(-c4cccc(S(=O)(=O)[O-])c4F)c4ccc([nH]4)c(-c4cccc(S(=O)(=O)[O-])c4F)c4nc(c(-c5cccc(S(=O)(=O)[O-])c5F)c5ccc2[nH]5)C=C4)C=C3)cc1)c1ccccc1-c1ccn(C(F)F)c(=O)c1
REMARK SMILES IDX 7 1 6 2 5 3 3 4 4 5 2 7 1 8 75 9 76 10 80 11 77 12 79 13
REMARK SMILES IDX 78 14 81 15 82 16 90 17 83 18 88 19 84 20 89 21 85 22 86 23
REMARK SMILES IDX 87 24 8 25 9 26 10 27 11 29 12 30 13 31 74 32 14 33 73 34
REMARK SMILES IDX 15 35 16 36 17 37 67 38 18 39 72 40 66 41 68 42 19 43 71 44
REMARK SMILES IDX 65 45 64 46 20 48 52 49 32 50 51 51 33 52 36 53 50 54 69 55
REMARK SMILES IDX 34 56 35 57 49 59 70 60 37 61 21 62 22 63 30 64 23 65 25 66
REMARK SMILES IDX 31 67 24 68 26 69 27 70 28 71 29 72 53 73 54 74 62 75 55 76
REMARK SMILES IDX 57 77 63 78 56 79 58 80 59 81 60 82 61 83 38 84 39 85 47 86
REMARK SMILES IDX 40 87 42 88 48 89 41 90 43 91 44 92 45 93 46 94
REMARK H PARENT 5 6 9 28 68 47 36 58
REMARK Flexibility Score: inf
ROOT
ATOM      1  C   UNL A   1      31.056  32.140  26.584  1.00  0.00     0.042 C 
ENDROOT
BRANCH   1   2
ATOM      2  C   UNL A   1      31.031  31.104  25.452  1.00  0.00     0.117 C 
BRANCH   2   3
ATOM      3  N   UNL A   1      32.252  30.309  25.344  1.00  0.00    -0.356 N 
ATOM      4  C   UNL A   1      32.498  28.984  25.620  1.00  0.00     0.227 C 
ATOM      5  O   UNL A   1      33.647  28.585  25.419  1.00  0.00    -0.274 OA
ATOM      6  H   UNL A   1      33.034  30.808  25.014  1.00  0.00     0.163 HD
BRANCH   4   7
ATOM      7  C   UNL A   1      31.360  28.081  26.152  1.00  0.00     0.106 C 
ATOM      8  C   UNL A   1      31.524  28.065  27.666  1.00  0.00     0.023 C 
BRANCH   7   9
ATOM      9  C   UNL A   1      31.214  26.697  25.460  1.00  0.00    -0.028 A 
ATOM     10  C   UNL A   1      31.799  25.590  26.121  1.00  0.00     0.005 A 
ATOM     11  C   UNL A   1      30.601  26.437  24.197  1.00  0.00    -0.014 A 
ATOM     12  C   UNL A   1      31.722  24.288  25.615  1.00  0.00     0.000 A 
ATOM     13  C   UNL A   1      30.548  25.119  23.695  1.00  0.00     0.009 A 
ATOM     14  C   UNL A   1      31.092  24.051  24.403  1.00  0.00     0.001 A 
BRANCH  11  15
ATOM     15  C   UNL A   1      29.941  27.456  23.347  1.00  0.00    -0.011 A 
ATOM     16  C   UNL A   1      30.655  28.389  22.492  1.00  0.00     0.027 A 
ATOM     17  C   UNL A   1      28.612  27.592  23.495  1.00  0.00     0.080 A 
ATOM     18  C   UNL A   1      30.059  29.527  22.105  1.00  0.00     0.095 A 
ATOM     19  C   UNL A   1      27.912  28.801  22.978  1.00  0.00     0.255 A 
ATOM     20  N   UNL A   1      28.733  29.769  22.416  1.00  0.00    -0.258 N 
ATOM     21  O   UNL A   1      26.703  28.880  23.150  1.00  0.00    -0.269 OA
BRANCH  20  22
ATOM     22  C   UNL A   1      28.134  31.069  22.195  1.00  0.00     0.451 C 
ATOM     23  F   UNL A   1      29.065  32.041  22.330  1.00  0.00    -0.185 F 
ATOM     24  F   UNL A   1      27.628  31.125  20.939  1.00  0.00    -0.185 F 
ENDBRANCH  20  22
ENDBRANCH  11  15
ENDBRANCH   7   9
ENDBRANCH   4   7
ENDBRANCH   2   3
ENDBRANCH   1   2
BRANCH   1  25
ATOM     25  C   UNL A   1      32.444  32.592  27.010  1.00  0.00     0.118 C 
BRANCH  25  26
ATOM     26  N   UNL A   1      32.434  33.938  27.556  1.00  0.00    -0.352 N 
ATOM     27  C   UNL A   1      33.187  34.480  28.571  1.00  0.00     0.251 C 
ATOM     28  H   UNL A   1      31.790  34.555  27.138  1.00  0.00     0.163 HD
ATOM     29  O   UNL A   1      32.859  35.563  29.048  1.00  0.00    -0.269 OA
BRANCH  27  30
ATOM     30  C   UNL A   1      34.369  33.761  29.106  1.00  0.00     0.039 A 
ATOM     31  C   UNL A   1      35.644  34.179  28.713  1.00  0.00     0.014 A 
ATOM     32  C   UNL A   1      34.235  32.673  29.972  1.00  0.00     0.014 A 
ATOM     33  C   UNL A   1      36.778  33.562  29.249  1.00  0.00     0.010 A 
ATOM     34  C   UNL A   1      35.365  32.106  30.563  1.00  0.00     0.010 A 
ATOM     35  C   UNL A   1      36.649  32.550  30.216  1.00  0.00    -0.014 A 
BRANCH  35  36
ATOM     36  C   UNL A   1      37.839  32.003  30.922  1.00  0.00     0.031 A 
ATOM     37  C   UNL A   1      38.626  30.860  30.338  1.00  0.00     0.074 A 
ATOM     38  C   UNL A   1      38.148  32.475  32.148  1.00  0.00     0.049 A 
ATOM     39  N   UNL A   1      39.645  30.218  30.850  1.00  0.00    -0.248 NA
ATOM     40  C   UNL A   1      38.210  30.361  29.016  1.00  0.00     0.031 C 
ATOM     41  C   UNL A   1      37.415  33.528  32.855  1.00  0.00     0.029 A 
ATOM     42  N   UNL A   1      39.131  32.106  33.035  1.00  0.00    -0.354 N 
ATOM     43  C   UNL A   1      39.965  29.218  29.941  1.00  0.00     0.074 A 
ATOM     44  C   UNL A   1      39.028  29.331  28.843  1.00  0.00     0.031 C 
ATOM     45  C   UNL A   1      37.966  33.713  34.065  1.00  0.00     0.029 A 
ATOM     46  C   UNL A   1      39.060  32.766  34.242  1.00  0.00     0.049 A 
ATOM     47  H   UNL A   1      39.821  31.436  32.827  1.00  0.00     0.167 HD
ATOM     48  C   UNL A   1      40.958  28.300  30.007  1.00  0.00     0.034 A 
ATOM     49  C   UNL A   1      39.772  32.607  35.376  1.00  0.00     0.034 A 
ATOM     50  C   UNL A   1      41.913  28.217  31.080  1.00  0.00     0.049 A 
ATOM     51  C   UNL A   1      40.879  31.585  35.406  1.00  0.00     0.074 A 
ATOM     52  C   UNL A   1      43.026  27.398  31.173  1.00  0.00     0.029 A 
ATOM     53  N   UNL A   1      41.857  28.950  32.252  1.00  0.00    -0.354 N 
ATOM     54  N   UNL A   1      41.293  30.790  34.451  1.00  0.00    -0.248 NA
ATOM     55  C   UNL A   1      41.636  31.458  36.661  1.00  0.00     0.031 C 
ATOM     56  C   UNL A   1      43.616  27.604  32.423  1.00  0.00     0.029 A 
ATOM     57  C   UNL A   1      42.893  28.578  33.091  1.00  0.00     0.049 A 
ATOM     58  H   UNL A   1      41.181  29.635  32.459  1.00  0.00     0.167 HD
ATOM     59  C   UNL A   1      42.371  30.088  34.980  1.00  0.00     0.074 A 
ATOM     60  C   UNL A   1      42.570  30.580  36.327  1.00  0.00     0.031 C 
ATOM     61  C   UNL A   1      43.113  29.107  34.412  1.00  0.00     0.034 A 
BRANCH  48  62
ATOM     62  C   UNL A   1      41.106  27.319  28.874  1.00  0.00     0.023 A 
ATOM     63  C   UNL A   1      40.243  26.208  28.794  1.00  0.00     0.012 A 
ATOM     64  C   UNL A   1      42.011  27.570  27.824  1.00  0.00     0.148 A 
ATOM     65  C   UNL A   1      40.285  25.355  27.692  1.00  0.00     0.002 A 
ATOM     66  C   UNL A   1      42.019  26.740  26.709  1.00  0.00     0.091 A 
ATOM     67  F   UNL A   1      42.833  28.624  27.928  1.00  0.00    -0.205 F 
ATOM     68  C   UNL A   1      41.162  25.628  26.646  1.00  0.00     0.022 A 
BRANCH  66  69
ATOM     69  S   UNL A   1      43.048  27.051  25.270  1.00  0.00     0.127 S 
ATOM     70  O   UNL A   1      43.003  25.757  24.591  1.00  0.00    -0.237 OA
ATOM     71  O   UNL A   1      42.312  28.119  24.594  1.00  0.00    -0.237 OA
ATOM     72  O   UNL A   1      44.355  27.436  25.782  1.00  0.00    -0.744 OA
ENDBRANCH  66  69
ENDBRANCH  48  62
BRANCH  49  73
ATOM     73  C   UNL A   1      39.480  33.445  36.576  1.00  0.00     0.023 A 
ATOM     74  C   UNL A   1      39.882  34.795  36.595  1.00  0.00     0.012 A 
ATOM     75  C   UNL A   1      38.814  32.914  37.699  1.00  0.00     0.148 A 
ATOM     76  C   UNL A   1      39.676  35.584  37.729  1.00  0.00     0.002 A 
ATOM     77  C   UNL A   1      38.549  33.725  38.797  1.00  0.00     0.091 A 
ATOM     78  F   UNL A   1      38.451  31.624  37.676  1.00  0.00    -0.205 F 
ATOM     79  C   UNL A   1      39.003  35.052  38.825  1.00  0.00     0.022 A 
BRANCH  77  80
ATOM     80  S   UNL A   1      37.551  33.162  40.181  1.00  0.00     0.127 S 
ATOM     81  O   UNL A   1      38.347  32.052  40.695  1.00  0.00    -0.237 OA
ATOM     82  O   UNL A   1      37.520  34.347  41.041  1.00  0.00    -0.237 OA
ATOM     83  O   UNL A   1      36.254  32.818  39.614  1.00  0.00    -0.744 OA
ENDBRANCH  77  80
ENDBRANCH  49  73
BRANCH  61  84
ATOM     84  C   UNL A   1      44.227  28.506  35.231  1.00  0.00     0.023 A 
ATOM     85  C   UNL A   1      45.537  29.011  35.105  1.00  0.00     0.012 A 
ATOM     86  C   UNL A   1      43.963  27.497  36.178  1.00  0.00     0.148 A 
ATOM     87  C   UNL A   1      46.571  28.500  35.887  1.00  0.00     0.002 A 
ATOM     88  C   UNL A   1      44.989  27.028  36.989  1.00  0.00     0.091 A 
ATOM     89  F   UNL A   1      42.713  27.021  36.273  1.00  0.00    -0.205 F 
ATOM     90  C   UNL A   1      46.296  27.518  36.836  1.00  0.00     0.022 A 
BRANCH  88  91
ATOM     91  S   UNL A   1      44.716  25.834  38.303  1.00  0.00     0.127 S 
ATOM     92  O   UNL A   1      43.850  24.858  37.643  1.00  0.00    -0.237 OA
ATOM     93  O   UNL A   1      46.072  25.361  38.576  1.00  0.00    -0.237 OA
ATOM     94  O   UNL A   1      44.097  26.570  39.397  1.00  0.00    -0.744 OA
ENDBRANCH  88  91
ENDBRANCH  61  84
ENDBRANCH  35  36
ENDBRANCH  27  30
ENDBRANCH  25  26
ENDBRANCH   1  25
TORSDOF 16
ENDMDL
