MODEL 1
REMARK VINA RESULT:     -10.7      0.000      0.000
REMARK SMILES N#C/C(=C\c1ccc(-c2ccc(C(=O)NCCCNC(=O)c3ccc(-c4c5nc(c(-c6cccc(S(=O)(=O)[O-])c6F)c6ccc([nH]6)c(-c6cccc(S(=O)(=O)[O-])c6F)c6nc(c(-c7cccc(S(=O)(=O)[O-])c7F)c7ccc4[nH]7)C=C6)C=C5)cc3)cc2)o1)[C@@H]1N=c2cc(Br)cnc2=N1
REMARK SMILES IDX 17 1 16 2 15 3 13 4 14 5 12 7 9 8 10 9 86 10 11 11 85 12
REMARK SMILES IDX 8 13 5 14 6 15 87 16 7 17 4 18 3 19 2 20 1 21 88 22 89 23
REMARK SMILES IDX 97 24 90 25 96 26 91 27 95 28 92 29 94 30 93 31 18 32 19 33
REMARK SMILES IDX 20 34 21 36 22 37 23 38 84 39 24 40 83 41 25 42 26 43 27 44
REMARK SMILES IDX 77 45 28 46 82 47 76 48 78 49 29 50 81 51 75 52 74 53 30 55
REMARK SMILES IDX 62 56 42 57 61 58 43 59 46 60 60 61 79 62 44 63 45 64 59 66
REMARK SMILES IDX 80 67 47 68 31 69 32 70 40 71 33 72 35 73 41 74 34 75 36 76
REMARK SMILES IDX 37 77 38 78 39 79 63 80 64 81 72 82 65 83 67 84 73 85 66 86
REMARK SMILES IDX 68 87 69 88 70 89 71 90 48 91 49 92 57 93 50 94 52 95 58 96
REMARK SMILES IDX 51 97 53 98 54 99 55 100 56 101
REMARK H PARENT 15 6 19 35 78 54 46 65
REMARK Flexibility Score: inf
ROOT
ATOM      1  C   UNL A   1      34.770  33.481  30.326  1.00  0.00     0.042 C 
ENDROOT
BRANCH   1   2
ATOM      2  C   UNL A   1      35.609  32.762  31.382  1.00  0.00     0.118 C 
BRANCH   2   3
ATOM      3  N   UNL A   1      36.021  33.678  32.432  1.00  0.00    -0.352 N 
ATOM      4  C   UNL A   1      37.174  34.388  32.645  1.00  0.00     0.251 C 
ATOM      5  O   UNL A   1      37.205  35.139  33.622  1.00  0.00    -0.269 OA
ATOM      6  H   UNL A   1      35.337  33.815  33.128  1.00  0.00     0.163 HD
BRANCH   4   7
ATOM      7  C   UNL A   1      38.338  34.355  31.717  1.00  0.00     0.039 A 
ATOM      8  C   UNL A   1      40.637  34.537  30.107  1.00  0.00     0.017 A 
ATOM      9  C   UNL A   1      40.766  34.427  31.491  1.00  0.00     0.013 A 
ATOM     10  C   UNL A   1      39.368  34.466  29.527  1.00  0.00     0.013 A 
ATOM     11  C   UNL A   1      39.620  34.350  32.292  1.00  0.00     0.014 A 
ATOM     12  C   UNL A   1      38.233  34.332  30.326  1.00  0.00     0.014 A 
BRANCH   8  13
ATOM     13  C   UNL A   1      41.780  34.757  29.251  1.00  0.00     0.134 A 
ATOM     14  C   UNL A   1      43.762  34.195  28.443  1.00  0.00     0.128 A 
ATOM     15  C   UNL A   1      43.273  35.256  27.686  1.00  0.00     0.051 A 
ATOM     16  O   UNL A   1      42.825  33.907  29.409  1.00  0.00    -0.457 OA
ATOM     17  C   UNL A   1      42.015  35.620  28.209  1.00  0.00     0.051 A 
BRANCH  14  18
ATOM     18  C   UNL A   1      44.944  33.424  28.284  1.00  0.00     0.066 C 
ATOM     19  C   UNL A   1      45.264  32.739  27.168  1.00  0.00     0.080 C 
BRANCH  19  20
ATOM     20  C   UNL A   1      44.489  32.835  25.970  1.00  0.00     0.099 C 
ATOM     21  N   UNL A   1      43.873  32.912  24.992  1.00  0.00    -0.193 NA
ENDBRANCH  19  20
BRANCH  19  22
ATOM     22  C   UNL A   1      46.471  31.833  27.087  1.00  0.00     0.265 C 
ATOM     23  N   UNL A   1      46.416  31.097  25.788  1.00  0.00    -0.249 NA
ATOM     24  N   UNL A   1      46.544  30.874  28.222  1.00  0.00    -0.232 NA
ATOM     25  C   UNL A   1      46.435  29.870  26.167  1.00  0.00     0.106 A 
ATOM     26  C   UNL A   1      46.538  29.727  27.634  1.00  0.00     0.175 A 
ATOM     27  C   UNL A   1      46.367  28.647  25.370  1.00  0.00     0.049 A 
ATOM     28  N   UNL A   1      46.613  28.540  28.295  1.00  0.00    -0.234 NA
ATOM     29  C   UNL A   1      46.419  27.485  26.034  1.00  0.00     0.038 A 
ATOM     30  C   UNL A   1      46.549  27.496  27.528  1.00  0.00     0.129 A 
ATOM     31  Br  UNL A   1      46.352  25.834  25.182  1.00  0.00    -0.049 Br
ENDBRANCH  19  22
ENDBRANCH  14  18
ENDBRANCH   8  13
ENDBRANCH   4   7
ENDBRANCH   2   3
ENDBRANCH   1   2
BRANCH   1  32
ATOM     32  C   UNL A   1      35.277  33.242  28.906  1.00  0.00     0.118 C 
BRANCH  32  33
ATOM     33  N   UNL A   1      34.418  32.317  28.174  1.00  0.00    -0.352 N 
ATOM     34  C   UNL A   1      34.687  31.067  27.680  1.00  0.00     0.251 C 
ATOM     35  H   UNL A   1      33.503  32.642  28.008  1.00  0.00     0.163 HD
ATOM     36  O   UNL A   1      33.922  30.557  26.864  1.00  0.00    -0.269 OA
BRANCH  34  37
ATOM     37  C   UNL A   1      35.893  30.338  28.120  1.00  0.00     0.039 A 
ATOM     38  C   UNL A   1      37.030  30.355  27.310  1.00  0.00     0.014 A 
ATOM     39  C   UNL A   1      35.896  29.629  29.324  1.00  0.00     0.014 A 
ATOM     40  C   UNL A   1      38.198  29.727  27.746  1.00  0.00     0.010 A 
ATOM     41  C   UNL A   1      37.080  29.068  29.791  1.00  0.00     0.010 A 
ATOM     42  C   UNL A   1      38.245  29.122  29.012  1.00  0.00    -0.014 A 
BRANCH  42  43
ATOM     43  C   UNL A   1      39.516  28.596  29.570  1.00  0.00     0.031 A 
ATOM     44  C   UNL A   1      40.232  29.335  30.664  1.00  0.00     0.074 A 
ATOM     45  C   UNL A   1      40.076  27.507  29.006  1.00  0.00     0.049 A 
ATOM     46  N   UNL A   1      41.398  29.082  31.199  1.00  0.00    -0.248 NA
ATOM     47  C   UNL A   1      39.562  30.522  31.217  1.00  0.00     0.031 C 
ATOM     48  C   UNL A   1      39.503  26.741  27.897  1.00  0.00     0.029 A 
ATOM     49  N   UNL A   1      41.269  26.876  29.262  1.00  0.00    -0.354 N 
ATOM     50  C   UNL A   1      41.619  30.095  32.123  1.00  0.00     0.074 A 
ATOM     51  C   UNL A   1      40.476  30.980  32.062  1.00  0.00     0.031 C 
ATOM     52  C   UNL A   1      40.343  25.749  27.566  1.00  0.00     0.029 A 
ATOM     53  C   UNL A   1      41.536  25.839  28.399  1.00  0.00     0.049 A 
ATOM     54  H   UNL A   1      41.873  27.141  29.992  1.00  0.00     0.167 HD
ATOM     55  C   UNL A   1      42.673  30.263  32.958  1.00  0.00     0.034 A 
ATOM     56  C   UNL A   1      42.633  25.066  28.268  1.00  0.00     0.034 A 
ATOM     57  C   UNL A   1      43.800  29.371  33.021  1.00  0.00     0.049 A 
ATOM     58  C   UNL A   1      43.796  25.289  29.195  1.00  0.00     0.074 A 
ATOM     59  C   UNL A   1      44.877  29.411  33.889  1.00  0.00     0.029 A 
ATOM     60  N   UNL A   1      44.015  28.302  32.166  1.00  0.00    -0.354 N 
ATOM     61  N   UNL A   1      43.918  26.155  30.171  1.00  0.00    -0.248 NA
ATOM     62  C   UNL A   1      44.965  24.414  29.017  1.00  0.00     0.031 C 
ATOM     63  C   UNL A   1      45.769  28.398  33.523  1.00  0.00     0.029 A 
ATOM     64  C   UNL A   1      45.223  27.695  32.461  1.00  0.00     0.049 A 
ATOM     65  H   UNL A   1      43.398  28.016  31.453  1.00  0.00     0.167 HD
ATOM     66  C   UNL A   1      45.164  25.914  30.739  1.00  0.00     0.074 A 
ATOM     67  C   UNL A   1      45.745  24.801  30.017  1.00  0.00     0.031 C 
ATOM     68  C   UNL A   1      45.777  26.566  31.757  1.00  0.00     0.034 A 
BRANCH  55  69
ATOM     69  C   UNL A   1      42.653  31.449  33.887  1.00  0.00     0.023 A 
ATOM     70  C   UNL A   1      43.182  32.685  33.463  1.00  0.00     0.012 A 
ATOM     71  C   UNL A   1      42.051  31.356  35.158  1.00  0.00     0.148 A 
ATOM     72  C   UNL A   1      43.146  33.799  34.301  1.00  0.00     0.002 A 
ATOM     73  C   UNL A   1      41.974  32.482  35.968  1.00  0.00     0.091 A 
ATOM     74  F   UNL A   1      41.567  30.169  35.550  1.00  0.00    -0.205 F 
ATOM     75  C   UNL A   1      42.534  33.701  35.547  1.00  0.00     0.022 A 
BRANCH  73  76
ATOM     76  S   UNL A   1      41.135  32.482  37.554  1.00  0.00     0.127 S 
ATOM     77  O   UNL A   1      39.825  31.939  37.194  1.00  0.00    -0.237 OA
ATOM     78  O   UNL A   1      41.972  31.579  38.343  1.00  0.00    -0.237 OA
ATOM     79  O   UNL A   1      41.130  33.865  38.010  1.00  0.00    -0.744 OA
ENDBRANCH  73  76
ENDBRANCH  55  69
BRANCH  56  80
ATOM     80  C   UNL A   1      42.676  24.003  27.225  1.00  0.00     0.023 A 
ATOM     81  C   UNL A   1      43.329  24.254  26.003  1.00  0.00     0.012 A 
ATOM     82  C   UNL A   1      42.086  22.742  27.442  1.00  0.00     0.148 A 
ATOM     83  C   UNL A   1      43.364  23.282  25.003  1.00  0.00     0.002 A 
ATOM     84  C   UNL A   1      42.178  21.757  26.466  1.00  0.00     0.091 A 
ATOM     85  F   UNL A   1      41.463  22.525  28.608  1.00  0.00    -0.205 F 
ATOM     86  C   UNL A   1      42.797  22.032  25.237  1.00  0.00     0.022 A 
BRANCH  84  87
ATOM     87  S   UNL A   1      41.592  20.080  26.728  1.00  0.00     0.127 S 
ATOM     88  O   UNL A   1      40.162  20.290  26.938  1.00  0.00    -0.237 OA
ATOM     89  O   UNL A   1      41.941  19.439  25.459  1.00  0.00    -0.237 OA
ATOM     90  O   UNL A   1      42.330  19.577  27.878  1.00  0.00    -0.744 OA
ENDBRANCH  84  87
ENDBRANCH  56  80
BRANCH  68  91
ATOM     91  C   UNL A   1      47.145  26.089  32.174  1.00  0.00     0.023 A 
ATOM     92  C   UNL A   1      47.276  25.170  33.234  1.00  0.00     0.012 A 
ATOM     93  C   UNL A   1      48.290  26.485  31.455  1.00  0.00     0.148 A 
ATOM     94  C   UNL A   1      48.529  24.673  33.589  1.00  0.00     0.002 A 
ATOM     95  C   UNL A   1      49.529  25.944  31.780  1.00  0.00     0.091 A 
ATOM     96  F   UNL A   1      48.145  27.369  30.458  1.00  0.00    -0.205 F 
ATOM     97  C   UNL A   1      49.651  25.047  32.854  1.00  0.00     0.022 A 
BRANCH  95  98
ATOM     98  S   UNL A   1      51.018  26.294  30.837  1.00  0.00     0.127 S 
ATOM     99  O   UNL A   1      51.135  27.743  30.995  1.00  0.00    -0.237 OA
ATOM    100  O   UNL A   1      52.026  25.517  31.559  1.00  0.00    -0.237 OA
ATOM    101  O   UNL A   1      50.754  25.840  29.479  1.00  0.00    -0.744 OA
ENDBRANCH  95  98
ENDBRANCH  68  91
ENDBRANCH  42  43
ENDBRANCH  34  37
ENDBRANCH  32  33
ENDBRANCH   1  32
TORSDOF 17
ENDMDL
MODEL 2
REMARK VINA RESULT:     -10.6      3.734     10.272
REMARK SMILES N#C/C(=C\c1ccc(-c2ccc(C(=O)NCCCNC(=O)c3ccc(-c4c5nc(c(-c6cccc(S(=O)(=O)[O-])c6F)c6ccc([nH]6)c(-c6cccc(S(=O)(=O)[O-])c6F)c6nc(c(-c7cccc(S(=O)(=O)[O-])c7F)c7ccc4[nH]7)C=C6)C=C5)cc3)cc2)o1)[C@@H]1N=c2cc(Br)cnc2=N1
REMARK SMILES IDX 17 1 16 2 15 3 13 4 14 5 12 7 9 8 10 9 86 10 11 11 85 12
REMARK SMILES IDX 8 13 5 14 6 15 87 16 7 17 4 18 3 19 2 20 1 21 88 22 89 23
REMARK SMILES IDX 97 24 90 25 96 26 91 27 95 28 92 29 94 30 93 31 18 32 19 33
REMARK SMILES IDX 20 34 21 36 22 37 23 38 84 39 24 40 83 41 25 42 26 43 27 44
REMARK SMILES IDX 77 45 28 46 82 47 76 48 78 49 29 50 81 51 75 52 74 53 30 55
REMARK SMILES IDX 62 56 42 57 61 58 43 59 46 60 60 61 79 62 44 63 45 64 59 66
REMARK SMILES IDX 80 67 47 68 31 69 32 70 40 71 33 72 35 73 41 74 34 75 36 76
REMARK SMILES IDX 37 77 38 78 39 79 63 80 64 81 72 82 65 83 67 84 73 85 66 86
REMARK SMILES IDX 68 87 69 88 70 89 71 90 48 91 49 92 57 93 50 94 52 95 58 96
REMARK SMILES IDX 51 97 53 98 54 99 55 100 56 101
REMARK H PARENT 15 6 19 35 78 54 46 65
REMARK Flexibility Score: inf
ROOT
ATOM      1  C   UNL A   1      46.066  23.686  25.968  1.00  0.00     0.042 C 
ENDROOT
BRANCH   1   2
ATOM      2  C   UNL A   1      45.411  23.311  27.297  1.00  0.00     0.118 C 
BRANCH   2   3
ATOM      3  N   UNL A   1      44.275  22.431  27.088  1.00  0.00    -0.352 N 
ATOM      4  C   UNL A   1      42.929  22.664  26.969  1.00  0.00     0.251 C 
ATOM      5  O   UNL A   1      42.203  21.695  26.739  1.00  0.00    -0.269 OA
ATOM      6  H   UNL A   1      44.519  21.479  27.017  1.00  0.00     0.163 HD
BRANCH   4   7
ATOM      7  C   UNL A   1      42.328  24.026  27.023  1.00  0.00     0.039 A 
ATOM      8  C   UNL A   1      40.979  26.479  27.302  1.00  0.00     0.017 A 
ATOM      9  C   UNL A   1      41.436  25.804  28.434  1.00  0.00     0.013 A 
ATOM     10  C   UNL A   1      41.276  25.971  26.035  1.00  0.00     0.013 A 
ATOM     11  C   UNL A   1      42.095  24.577  28.294  1.00  0.00     0.014 A 
ATOM     12  C   UNL A   1      41.982  24.777  25.899  1.00  0.00     0.014 A 
BRANCH   8  13
ATOM     13  C   UNL A   1      40.176  27.675  27.400  1.00  0.00     0.134 A 
ATOM     14  C   UNL A   1      38.593  28.903  28.339  1.00  0.00     0.128 A 
ATOM     15  C   UNL A   1      39.267  29.701  27.420  1.00  0.00     0.051 A 
ATOM     16  O   UNL A   1      39.167  27.653  28.306  1.00  0.00    -0.457 OA
ATOM     17  C   UNL A   1      40.270  28.914  26.814  1.00  0.00     0.051 A 
BRANCH  14  18
ATOM     18  C   UNL A   1      37.556  29.233  29.252  1.00  0.00     0.066 C 
ATOM     19  C   UNL A   1      37.754  29.792  30.462  1.00  0.00     0.080 C 
BRANCH  19  20
ATOM     20  C   UNL A   1      39.045  30.232  30.893  1.00  0.00     0.099 C 
ATOM     21  N   UNL A   1      40.089  30.580  31.253  1.00  0.00    -0.193 NA
ENDBRANCH  19  20
BRANCH  19  22
ATOM     22  C   UNL A   1      36.633  30.012  31.451  1.00  0.00     0.265 C 
ATOM     23  N   UNL A   1      35.658  30.969  30.847  1.00  0.00    -0.249 NA
ATOM     24  N   UNL A   1      37.117  30.526  32.761  1.00  0.00    -0.232 NA
ATOM     25  C   UNL A   1      35.625  31.914  31.716  1.00  0.00     0.106 A 
ATOM     26  C   UNL A   1      36.485  31.642  32.887  1.00  0.00     0.175 A 
ATOM     27  C   UNL A   1      34.884  33.173  31.697  1.00  0.00     0.049 A 
ATOM     28  N   UNL A   1      36.606  32.460  33.968  1.00  0.00    -0.234 NA
ATOM     29  C   UNL A   1      35.029  33.980  32.757  1.00  0.00     0.038 A 
ATOM     30  C   UNL A   1      35.920  33.558  33.886  1.00  0.00     0.129 A 
ATOM     31  Br  UNL A   1      34.157  35.615  32.905  1.00  0.00    -0.049 Br
ENDBRANCH  19  22
ENDBRANCH  14  18
ENDBRANCH   8  13
ENDBRANCH   4   7
ENDBRANCH   2   3
ENDBRANCH   1   2
BRANCH   1  32
ATOM     32  C   UNL A   1      47.336  24.514  26.148  1.00  0.00     0.118 C 
BRANCH  32  33
ATOM     33  N   UNL A   1      47.557  25.417  25.023  1.00  0.00    -0.352 N 
ATOM     34  C   UNL A   1      47.011  26.647  24.760  1.00  0.00     0.251 C 
ATOM     35  H   UNL A   1      48.195  25.091  24.347  1.00  0.00     0.163 HD
ATOM     36  O   UNL A   1      47.118  27.131  23.635  1.00  0.00    -0.269 OA
BRANCH  34  37
ATOM     37  C   UNL A   1      46.295  27.384  25.820  1.00  0.00     0.039 A 
ATOM     38  C   UNL A   1      44.899  27.396  25.813  1.00  0.00     0.014 A 
ATOM     39  C   UNL A   1      47.002  28.072  26.810  1.00  0.00     0.014 A 
ATOM     40  C   UNL A   1      44.210  28.032  26.846  1.00  0.00     0.010 A 
ATOM     41  C   UNL A   1      46.315  28.641  27.877  1.00  0.00     0.010 A 
ATOM     42  C   UNL A   1      44.913  28.616  27.912  1.00  0.00    -0.014 A 
BRANCH  42  43
ATOM     43  C   UNL A   1      44.207  29.149  29.103  1.00  0.00     0.031 A 
ATOM     44  C   UNL A   1      43.805  30.595  29.168  1.00  0.00     0.074 A 
ATOM     45  C   UNL A   1      44.029  28.347  30.172  1.00  0.00     0.049 A 
ATOM     46  N   UNL A   1      43.276  31.257  30.164  1.00  0.00    -0.248 NA
ATOM     47  C   UNL A   1      44.046  31.409  27.966  1.00  0.00     0.031 C 
ATOM     48  C   UNL A   1      44.433  26.941  30.248  1.00  0.00     0.029 A 
ATOM     49  N   UNL A   1      43.498  28.606  31.411  1.00  0.00    -0.354 N 
ATOM     50  C   UNL A   1      43.153  32.570  29.725  1.00  0.00     0.074 A 
ATOM     51  C   UNL A   1      43.683  32.616  28.380  1.00  0.00     0.031 C 
ATOM     52  C   UNL A   1      44.140  26.464  31.466  1.00  0.00     0.029 A 
ATOM     53  C   UNL A   1      43.578  27.539  32.275  1.00  0.00     0.049 A 
ATOM     54  H   UNL A   1      43.099  29.471  31.657  1.00  0.00     0.167 HD
ATOM     55  C   UNL A   1      42.631  33.634  30.379  1.00  0.00     0.034 A 
ATOM     56  C   UNL A   1      43.267  27.443  33.583  1.00  0.00     0.034 A 
ATOM     57  C   UNL A   1      42.095  33.576  31.713  1.00  0.00     0.049 A 
ATOM     58  C   UNL A   1      42.709  28.648  34.290  1.00  0.00     0.074 A 
ATOM     59  C   UNL A   1      41.470  34.581  32.431  1.00  0.00     0.029 A 
ATOM     60  N   UNL A   1      42.146  32.466  32.541  1.00  0.00    -0.354 N 
ATOM     61  N   UNL A   1      42.452  29.840  33.809  1.00  0.00    -0.248 NA
ATOM     62  C   UNL A   1      42.377  28.489  35.714  1.00  0.00     0.031 C 
ATOM     63  C   UNL A   1      41.194  34.094  33.712  1.00  0.00     0.029 A 
ATOM     64  C   UNL A   1      41.599  32.771  33.776  1.00  0.00     0.049 A 
ATOM     65  H   UNL A   1      42.519  31.590  32.290  1.00  0.00     0.167 HD
ATOM     66  C   UNL A   1      41.907  30.565  34.862  1.00  0.00     0.074 A 
ATOM     67  C   UNL A   1      41.843  29.669  35.998  1.00  0.00     0.031 C 
ATOM     68  C   UNL A   1      41.509  31.861  34.890  1.00  0.00     0.034 A 
BRANCH  55  69
ATOM     69  C   UNL A   1      42.597  34.957  29.657  1.00  0.00     0.023 A 
ATOM     70  C   UNL A   1      41.567  35.228  28.734  1.00  0.00     0.012 A 
ATOM     71  C   UNL A   1      43.550  35.955  29.941  1.00  0.00     0.148 A 
ATOM     72  C   UNL A   1      41.506  36.457  28.078  1.00  0.00     0.002 A 
ATOM     73  C   UNL A   1      43.454  37.194  29.321  1.00  0.00     0.091 A 
ATOM     74  F   UNL A   1      44.531  35.673  30.810  1.00  0.00    -0.205 F 
ATOM     75  C   UNL A   1      42.442  37.443  28.379  1.00  0.00     0.022 A 
BRANCH  73  76
ATOM     76  S   UNL A   1      44.560  38.557  29.700  1.00  0.00     0.127 S 
ATOM     77  O   UNL A   1      44.142  39.557  28.717  1.00  0.00    -0.237 OA
ATOM     78  O   UNL A   1      44.195  38.872  31.081  1.00  0.00    -0.237 OA
ATOM     79  O   UNL A   1      45.911  38.043  29.527  1.00  0.00    -0.744 OA
ENDBRANCH  73  76
ENDBRANCH  55  69
BRANCH  56  80
ATOM     80  C   UNL A   1      43.466  26.155  34.305  1.00  0.00     0.023 A 
ATOM     81  C   UNL A   1      42.365  25.306  34.531  1.00  0.00     0.012 A 
ATOM     82  C   UNL A   1      44.742  25.759  34.755  1.00  0.00     0.148 A 
ATOM     83  C   UNL A   1      42.524  24.105  35.223  1.00  0.00     0.002 A 
ATOM     84  C   UNL A   1      44.903  24.533  35.388  1.00  0.00     0.091 A 
ATOM     85  F   UNL A   1      45.776  26.582  34.535  1.00  0.00    -0.205 F 
ATOM     86  C   UNL A   1      43.792  23.714  35.643  1.00  0.00     0.022 A 
BRANCH  84  87
ATOM     87  S   UNL A   1      46.515  23.888  35.849  1.00  0.00     0.127 S 
ATOM     88  O   UNL A   1      46.154  22.746  36.685  1.00  0.00    -0.237 OA
ATOM     89  O   UNL A   1      47.083  23.542  34.545  1.00  0.00    -0.237 OA
ATOM     90  O   UNL A   1      47.199  24.977  36.531  1.00  0.00    -0.744 OA
ENDBRANCH  84  87
ENDBRANCH  56  80
BRANCH  68  91
ATOM     91  C   UNL A   1      40.949  32.396  36.182  1.00  0.00     0.023 A 
ATOM     92  C   UNL A   1      41.703  33.305  36.951  1.00  0.00     0.012 A 
ATOM     93  C   UNL A   1      39.641  32.067  36.587  1.00  0.00     0.148 A 
ATOM     94  C   UNL A   1      41.173  33.857  38.116  1.00  0.00     0.002 A 
ATOM     95  C   UNL A   1      39.099  32.662  37.720  1.00  0.00     0.091 A 
ATOM     96  F   UNL A   1      38.945  31.191  35.847  1.00  0.00    -0.205 F 
ATOM     97  C   UNL A   1      39.869  33.548  38.493  1.00  0.00     0.022 A 
BRANCH  95  98
ATOM     98  S   UNL A   1      37.399  32.399  38.236  1.00  0.00     0.127 S 
ATOM     99  O   UNL A   1      37.415  32.932  39.597  1.00  0.00    -0.237 OA
ATOM    100  O   UNL A   1      36.657  33.211  37.270  1.00  0.00    -0.237 OA
ATOM    101  O   UNL A   1      37.162  30.965  38.138  1.00  0.00    -0.744 OA
ENDBRANCH  95  98
ENDBRANCH  68  91
ENDBRANCH  42  43
ENDBRANCH  34  37
ENDBRANCH  32  33
ENDBRANCH   1  32
TORSDOF 17
ENDMDL
MODEL 3
REMARK VINA RESULT:     -10.1      3.344      7.402
REMARK SMILES N#C/C(=C\c1ccc(-c2ccc(C(=O)NCCCNC(=O)c3ccc(-c4c5nc(c(-c6cccc(S(=O)(=O)[O-])c6F)c6ccc([nH]6)c(-c6cccc(S(=O)(=O)[O-])c6F)c6nc(c(-c7cccc(S(=O)(=O)[O-])c7F)c7ccc4[nH]7)C=C6)C=C5)cc3)cc2)o1)[C@@H]1N=c2cc(Br)cnc2=N1
REMARK SMILES IDX 17 1 16 2 15 3 13 4 14 5 12 7 9 8 10 9 86 10 11 11 85 12
REMARK SMILES IDX 8 13 5 14 6 15 87 16 7 17 4 18 3 19 2 20 1 21 88 22 89 23
REMARK SMILES IDX 97 24 90 25 96 26 91 27 95 28 92 29 94 30 93 31 18 32 19 33
REMARK SMILES IDX 20 34 21 36 22 37 23 38 84 39 24 40 83 41 25 42 26 43 27 44
REMARK SMILES IDX 77 45 28 46 82 47 76 48 78 49 29 50 81 51 75 52 74 53 30 55
REMARK SMILES IDX 62 56 42 57 61 58 43 59 46 60 60 61 79 62 44 63 45 64 59 66
REMARK SMILES IDX 80 67 47 68 31 69 32 70 40 71 33 72 35 73 41 74 34 75 36 76
REMARK SMILES IDX 37 77 38 78 39 79 63 80 64 81 72 82 65 83 67 84 73 85 66 86
REMARK SMILES IDX 68 87 69 88 70 89 71 90 48 91 49 92 57 93 50 94 52 95 58 96
REMARK SMILES IDX 51 97 53 98 54 99 55 100 56 101
REMARK H PARENT 15 6 19 35 78 54 46 65
REMARK Flexibility Score: inf
ROOT
ATOM      1  C   UNL A   1      34.666  34.347  31.746  1.00  0.00     0.042 C 
ENDROOT
BRANCH   1   2
ATOM      2  C   UNL A   1      34.685  32.857  31.409  1.00  0.00     0.118 C 
BRANCH   2   3
ATOM      3  N   UNL A   1      34.377  32.637  30.006  1.00  0.00    -0.352 N 
ATOM      4  C   UNL A   1      34.979  31.886  29.030  1.00  0.00     0.251 C 
ATOM      5  O   UNL A   1      34.440  31.859  27.922  1.00  0.00    -0.269 OA
ATOM      6  H   UNL A   1      33.579  33.124  29.695  1.00  0.00     0.163 HD
BRANCH   4   7
ATOM      7  C   UNL A   1      36.188  31.049  29.271  1.00  0.00     0.039 A 
ATOM      8  C   UNL A   1      38.522  29.488  29.429  1.00  0.00     0.017 A 
ATOM      9  C   UNL A   1      38.583  30.776  28.897  1.00  0.00     0.013 A 
ATOM     10  C   UNL A   1      37.318  29.020  29.960  1.00  0.00     0.013 A 
ATOM     11  C   UNL A   1      37.417  31.546  28.807  1.00  0.00     0.014 A 
ATOM     12  C   UNL A   1      36.172  29.814  29.919  1.00  0.00     0.014 A 
BRANCH   8  13
ATOM     13  C   UNL A   1      39.665  28.605  29.418  1.00  0.00     0.134 A 
ATOM     14  C   UNL A   1      41.183  27.374  28.379  1.00  0.00     0.128 A 
ATOM     15  C   UNL A   1      41.536  27.449  29.723  1.00  0.00     0.051 A 
ATOM     16  O   UNL A   1      40.020  28.091  28.214  1.00  0.00    -0.457 OA
ATOM     17  C   UNL A   1      40.562  28.224  30.387  1.00  0.00     0.051 A 
BRANCH  14  18
ATOM     18  C   UNL A   1      41.864  26.777  27.285  1.00  0.00     0.066 C 
ATOM     19  C   UNL A   1      42.587  27.457  26.374  1.00  0.00     0.080 C 
BRANCH  19  20
ATOM     20  C   UNL A   1      42.847  28.857  26.503  1.00  0.00     0.099 C 
ATOM     21  N   UNL A   1      43.070  29.990  26.599  1.00  0.00    -0.193 NA
ENDBRANCH  19  20
BRANCH  19  22
ATOM     22  C   UNL A   1      43.192  26.796  25.157  1.00  0.00     0.265 C 
ATOM     23  N   UNL A   1      42.572  25.446  25.001  1.00  0.00    -0.249 NA
ATOM     24  N   UNL A   1      44.673  26.678  25.246  1.00  0.00    -0.232 NA
ATOM     25  C   UNL A   1      43.594  24.669  25.023  1.00  0.00     0.106 A 
ATOM     26  C   UNL A   1      44.869  25.408  25.145  1.00  0.00     0.175 A 
ATOM     27  C   UNL A   1      43.660  23.212  24.951  1.00  0.00     0.049 A 
ATOM     28  N   UNL A   1      46.102  24.832  25.156  1.00  0.00    -0.234 NA
ATOM     29  C   UNL A   1      44.878  22.656  24.985  1.00  0.00     0.038 A 
ATOM     30  C   UNL A   1      46.087  23.537  25.087  1.00  0.00     0.129 A 
ATOM     31  Br  UNL A   1      45.149  20.819  24.897  1.00  0.00    -0.049 Br
ENDBRANCH  19  22
ENDBRANCH  14  18
ENDBRANCH   8  13
ENDBRANCH   4   7
ENDBRANCH   2   3
ENDBRANCH   1   2
BRANCH   1  32
ATOM     32  C   UNL A   1      35.908  34.795  32.513  1.00  0.00     0.118 C 
BRANCH  32  33
ATOM     33  N   UNL A   1      35.765  34.573  33.949  1.00  0.00    -0.352 N 
ATOM     34  C   UNL A   1      36.373  33.654  34.764  1.00  0.00     0.251 C 
ATOM     35  H   UNL A   1      35.132  35.177  34.402  1.00  0.00     0.163 HD
ATOM     36  O   UNL A   1      35.926  33.450  35.891  1.00  0.00    -0.269 OA
BRANCH  34  37
ATOM     37  C   UNL A   1      37.556  32.909  34.290  1.00  0.00     0.039 A 
ATOM     38  C   UNL A   1      37.382  31.876  33.366  1.00  0.00     0.014 A 
ATOM     39  C   UNL A   1      38.832  33.221  34.766  1.00  0.00     0.014 A 
ATOM     40  C   UNL A   1      38.497  31.209  32.859  1.00  0.00     0.010 A 
ATOM     41  C   UNL A   1      39.946  32.607  34.205  1.00  0.00     0.010 A 
ATOM     42  C   UNL A   1      39.791  31.603  33.238  1.00  0.00    -0.014 A 
BRANCH  42  43
ATOM     43  C   UNL A   1      40.995  31.026  32.590  1.00  0.00     0.031 A 
ATOM     44  C   UNL A   1      41.646  29.793  33.150  1.00  0.00     0.074 A 
ATOM     45  C   UNL A   1      41.561  31.684  31.559  1.00  0.00     0.049 A 
ATOM     46  N   UNL A   1      42.756  29.211  32.780  1.00  0.00    -0.248 NA
ATOM     47  C   UNL A   1      40.974  29.141  34.284  1.00  0.00     0.031 C 
ATOM     48  C   UNL A   1      41.053  32.925  30.968  1.00  0.00     0.029 A 
ATOM     49  N   UNL A   1      42.708  31.425  30.849  1.00  0.00    -0.354 N 
ATOM     50  C   UNL A   1      42.937  28.147  33.655  1.00  0.00     0.074 A 
ATOM     51  C   UNL A   1      41.833  28.177  34.589  1.00  0.00     0.031 C 
ATOM     52  C   UNL A   1      41.882  33.319  29.991  1.00  0.00     0.029 A 
ATOM     53  C   UNL A   1      43.008  32.394  29.920  1.00  0.00     0.049 A 
ATOM     54  H   UNL A   1      43.260  30.624  30.991  1.00  0.00     0.167 HD
ATOM     55  C   UNL A   1      43.925  27.221  33.668  1.00  0.00     0.034 A 
ATOM     56  C   UNL A   1      44.085  32.544  29.123  1.00  0.00     0.034 A 
ATOM     57  C   UNL A   1      45.013  27.192  32.727  1.00  0.00     0.049 A 
ATOM     58  C   UNL A   1      45.177  31.511  29.174  1.00  0.00     0.074 A 
ATOM     59  C   UNL A   1      46.018  26.248  32.607  1.00  0.00     0.029 A 
ATOM     60  N   UNL A   1      45.259  28.161  31.767  1.00  0.00    -0.354 N 
ATOM     61  N   UNL A   1      45.250  30.423  29.901  1.00  0.00    -0.248 NA
ATOM     62  C   UNL A   1      46.326  31.715  28.279  1.00  0.00     0.031 C 
ATOM     63  C   UNL A   1      46.902  26.677  31.611  1.00  0.00     0.029 A 
ATOM     64  C   UNL A   1      46.419  27.860  31.076  1.00  0.00     0.049 A 
ATOM     65  H   UNL A   1      44.693  28.950  31.603  1.00  0.00     0.167 HD
ATOM     66  C   UNL A   1      46.438  29.800  29.535  1.00  0.00     0.074 A 
ATOM     67  C   UNL A   1      47.037  30.617  28.500  1.00  0.00     0.031 C 
ATOM     68  C   UNL A   1      46.989  28.662  30.023  1.00  0.00     0.034 A 
BRANCH  55  69
ATOM     69  C   UNL A   1      43.871  26.148  34.724  1.00  0.00     0.023 A 
ATOM     70  C   UNL A   1      43.397  24.861  34.396  1.00  0.00     0.012 A 
ATOM     71  C   UNL A   1      44.348  26.397  36.026  1.00  0.00     0.148 A 
ATOM     72  C   UNL A   1      43.366  23.849  35.355  1.00  0.00     0.002 A 
ATOM     73  C   UNL A   1      44.361  25.371  36.962  1.00  0.00     0.091 A 
ATOM     74  F   UNL A   1      44.780  27.630  36.324  1.00  0.00    -0.205 F 
ATOM     75  C   UNL A   1      43.857  24.101  36.634  1.00  0.00     0.022 A 
BRANCH  73  76
ATOM     76  S   UNL A   1      45.047  25.567  38.610  1.00  0.00     0.127 S 
ATOM     77  O   UNL A   1      46.392  26.058  38.311  1.00  0.00    -0.237 OA
ATOM     78  O   UNL A   1      44.151  26.564  39.196  1.00  0.00    -0.237 OA
ATOM     79  O   UNL A   1      44.989  24.252  39.232  1.00  0.00    -0.744 OA
ENDBRANCH  73  76
ENDBRANCH  55  69
BRANCH  56  80
ATOM     80  C   UNL A   1      44.175  33.712  28.202  1.00  0.00     0.023 A 
ATOM     81  C   UNL A   1      43.765  33.574  26.862  1.00  0.00     0.012 A 
ATOM     82  C   UNL A   1      44.650  34.960  28.650  1.00  0.00     0.148 A 
ATOM     83  C   UNL A   1      43.861  34.647  25.976  1.00  0.00     0.002 A 
ATOM     84  C   UNL A   1      44.684  36.042  27.779  1.00  0.00     0.091 A 
ATOM     85  F   UNL A   1      45.041  35.070  29.927  1.00  0.00    -0.205 F 
ATOM     86  C   UNL A   1      44.311  35.882  26.436  1.00  0.00     0.022 A 
BRANCH  84  87
ATOM     87  S   UNL A   1      45.125  37.699  28.312  1.00  0.00     0.127 S 
ATOM     88  O   UNL A   1      46.301  37.445  29.140  1.00  0.00    -0.237 OA
ATOM     89  O   UNL A   1      45.402  38.361  27.036  1.00  0.00    -0.237 OA
ATOM     90  O   UNL A   1      43.959  38.214  29.015  1.00  0.00    -0.744 OA
ENDBRANCH  84  87
ENDBRANCH  56  80
BRANCH  68  91
ATOM     91  C   UNL A   1      48.303  28.211  29.437  1.00  0.00     0.023 A 
ATOM     92  C   UNL A   1      49.514  28.675  29.989  1.00  0.00     0.012 A 
ATOM     93  C   UNL A   1      48.335  27.259  28.399  1.00  0.00     0.148 A 
ATOM     94  C   UNL A   1      50.736  28.218  29.499  1.00  0.00     0.002 A 
ATOM     95  C   UNL A   1      49.555  26.768  27.952  1.00  0.00     0.091 A 
ATOM     96  F   UNL A   1      47.171  26.840  27.881  1.00  0.00    -0.205 F 
ATOM     97  C   UNL A   1      50.757  27.255  28.492  1.00  0.00     0.022 A 
BRANCH  95  98
ATOM     98  S   UNL A   1      49.685  25.462  26.725  1.00  0.00     0.127 S 
ATOM     99  O   UNL A   1      48.767  24.458  27.261  1.00  0.00    -0.237 OA
ATOM    100  O   UNL A   1      49.214  26.134  25.513  1.00  0.00    -0.237 OA
ATOM    101  O   UNL A   1      51.085  25.066  26.699  1.00  0.00    -0.744 OA
ENDBRANCH  95  98
ENDBRANCH  68  91
ENDBRANCH  42  43
ENDBRANCH  34  37
ENDBRANCH  32  33
ENDBRANCH   1  32
TORSDOF 17
ENDMDL
