MODEL 1
REMARK VINA RESULT:     -12.3      0.000      0.000
REMARK SMILES COc1ccc([C@H](C)NC(=O)c2cnn(C)c2C(=O)NCCCNC(=O)c2ccc(-c3c4nc(c(-c5cccc(S(=O)(=O)[O-])c5F)c5ccc([nH]5)c(-c5cccc(S(=O)(=O)[O-])c5F)c5nc(c(-c6cccc(S(=O)(=O)[O-])c6F)c6ccc3[nH]6)C=C5)C=C4)cc2)cc1
REMARK SMILES IDX 21 1 20 2 18 3 19 4 17 6 12 7 13 8 14 9 15 10 16 11 10 12
REMARK SMILES IDX 9 13 11 15 7 16 8 17 6 18 3 19 4 20 91 21 5 22 90 23 2 24
REMARK SMILES IDX 1 25 22 26 23 27 24 28 25 29 26 31 27 32 28 33 89 34 29 35
REMARK SMILES IDX 88 36 30 37 31 38 32 39 82 40 33 41 87 42 81 43 83 44 34 45
REMARK SMILES IDX 86 46 80 47 79 48 35 50 67 51 47 52 66 53 48 54 51 55 65 56
REMARK SMILES IDX 84 57 49 58 50 59 64 61 85 62 52 63 36 64 37 65 45 66 38 67
REMARK SMILES IDX 40 68 46 69 39 70 41 71 42 72 43 73 44 74 68 75 69 76 77 77
REMARK SMILES IDX 70 78 72 79 78 80 71 81 73 82 74 83 75 84 76 85 53 86 54 87
REMARK SMILES IDX 62 88 55 89 57 90 63 91 56 92 58 93 59 94 60 95 61 96
REMARK H PARENT 20 5 9 14 24 30 83 49 51 60
REMARK Flexibility Score: inf
ROOT
ATOM      1  C   UNL A   1      32.302  27.196  23.278  1.00  0.00     0.118 C 
ENDROOT
BRANCH   1   2
ATOM      2  N   UNL A   1      32.473  25.759  23.164  1.00  0.00    -0.351 N 
ATOM      3  C   UNL A   1      31.578  24.838  23.652  1.00  0.00     0.270 C 
ATOM      4  O   UNL A   1      30.852  24.278  22.834  1.00  0.00    -0.268 OA
ATOM      5  H   UNL A   1      33.280  25.424  22.710  1.00  0.00     0.163 HD
BRANCH   3   6
ATOM      6  C   UNL A   1      31.706  24.377  25.018  1.00  0.00     0.138 A 
ATOM      7  C   UNL A   1      32.660  23.457  25.468  1.00  0.00     0.090 A 
ATOM      8  C   UNL A   1      32.226  23.081  26.751  1.00  0.00     0.149 A 
ATOM      9  N   UNL A   1      31.182  23.793  27.159  1.00  0.00    -0.180 NA
ATOM     10  N   UNL A   1      30.922  24.619  26.123  1.00  0.00    -0.262 N 
ATOM     11  C   UNL A   1      29.838  25.551  26.307  1.00  0.00     0.174 C 
BRANCH   7  12
ATOM     12  C   UNL A   1      33.781  22.878  24.759  1.00  0.00     0.255 C 
ATOM     13  N   UNL A   1      33.612  21.713  24.054  1.00  0.00    -0.345 N 
ATOM     14  H   UNL A   1      34.444  21.315  23.711  1.00  0.00     0.164 HD
ATOM     15  O   UNL A   1      34.868  23.451  24.699  1.00  0.00    -0.269 OA
BRANCH  13  16
ATOM     16  C   UNL A   1      32.398  20.970  23.729  1.00  0.00     0.109 C 
ATOM     17  C   UNL A   1      31.991  21.263  22.281  1.00  0.00     0.036 C 
BRANCH  16  18
ATOM     18  C   UNL A   1      32.605  19.496  24.065  1.00  0.00    -0.026 A 
ATOM     19  C   UNL A   1      33.144  16.760  24.535  1.00  0.00     0.118 A 
ATOM     20  C   UNL A   1      33.154  17.261  23.240  1.00  0.00     0.047 A 
ATOM     21  C   UNL A   1      32.863  17.613  25.600  1.00  0.00     0.047 A 
ATOM     22  C   UNL A   1      32.860  18.604  23.010  1.00  0.00     0.009 A 
ATOM     23  C   UNL A   1      32.597  18.972  25.367  1.00  0.00     0.009 A 
BRANCH  19  24
ATOM     24  O   UNL A   1      33.490  15.444  24.661  1.00  0.00    -0.497 OA
ATOM     25  C   UNL A   1      32.652  14.701  25.538  1.00  0.00     0.278 C 
ENDBRANCH  19  24
ENDBRANCH  16  18
ENDBRANCH  13  16
ENDBRANCH   7  12
ENDBRANCH   3   6
ENDBRANCH   1   2
BRANCH   1  26
ATOM     26  C   UNL A   1      32.781  27.705  24.632  1.00  0.00     0.042 C 
BRANCH  26  27
ATOM     27  C   UNL A   1      33.462  29.069  24.560  1.00  0.00     0.118 C 
BRANCH  27  28
ATOM     28  N   UNL A   1      32.684  30.099  25.235  1.00  0.00    -0.352 N 
ATOM     29  C   UNL A   1      32.828  30.649  26.485  1.00  0.00     0.251 C 
ATOM     30  H   UNL A   1      31.933  30.460  24.710  1.00  0.00     0.163 HD
ATOM     31  O   UNL A   1      31.899  31.302  26.956  1.00  0.00    -0.269 OA
BRANCH  29  32
ATOM     32  C   UNL A   1      34.071  30.468  27.268  1.00  0.00     0.039 A 
ATOM     33  C   UNL A   1      34.403  29.185  27.723  1.00  0.00     0.014 A 
ATOM     34  C   UNL A   1      34.874  31.554  27.624  1.00  0.00     0.014 A 
ATOM     35  C   UNL A   1      35.559  28.990  28.486  1.00  0.00     0.010 A 
ATOM     36  C   UNL A   1      36.065  31.348  28.318  1.00  0.00     0.010 A 
ATOM     37  C   UNL A   1      36.414  30.067  28.769  1.00  0.00    -0.014 A 
BRANCH  37  38
ATOM     38  C   UNL A   1      37.673  29.878  29.535  1.00  0.00     0.031 A 
ATOM     39  C   UNL A   1      38.763  28.984  29.004  1.00  0.00     0.074 A 
ATOM     40  C   UNL A   1      37.801  30.439  30.754  1.00  0.00     0.049 A 
ATOM     41  N   UNL A   1      39.897  28.644  29.561  1.00  0.00    -0.248 NA
ATOM     42  C   UNL A   1      38.536  28.367  27.687  1.00  0.00     0.031 C 
ATOM     43  C   UNL A   1      36.786  31.263  31.414  1.00  0.00     0.029 A 
ATOM     44  N   UNL A   1      38.823  30.377  31.667  1.00  0.00    -0.354 N 
ATOM     45  C   UNL A   1      40.498  27.747  28.686  1.00  0.00     0.074 A 
ATOM     46  C   UNL A   1      39.589  27.571  27.574  1.00  0.00     0.031 C 
ATOM     47  C   UNL A   1      37.237  31.630  32.624  1.00  0.00     0.029 A 
ATOM     48  C   UNL A   1      38.558  31.047  32.839  1.00  0.00     0.049 A 
ATOM     49  H   UNL A   1      39.666  29.896  31.500  1.00  0.00     0.167 HD
ATOM     50  C   UNL A   1      41.710  27.148  28.781  1.00  0.00     0.034 A 
ATOM     51  C   UNL A   1      39.293  31.175  33.961  1.00  0.00     0.034 A 
ATOM     52  C   UNL A   1      42.634  27.367  29.861  1.00  0.00     0.049 A 
ATOM     53  C   UNL A   1      40.654  30.539  34.023  1.00  0.00     0.074 A 
ATOM     54  C   UNL A   1      43.923  26.885  30.002  1.00  0.00     0.029 A 
ATOM     55  N   UNL A   1      42.368  28.127  30.989  1.00  0.00    -0.354 N 
ATOM     56  N   UNL A   1      41.273  29.827  33.113  1.00  0.00    -0.248 NA
ATOM     57  C   UNL A   1      41.434  30.753  35.250  1.00  0.00     0.031 C 
ATOM     58  C   UNL A   1      44.430  27.341  31.223  1.00  0.00     0.029 A 
ATOM     59  C   UNL A   1      43.463  28.121  31.835  1.00  0.00     0.049 A 
ATOM     60  H   UNL A   1      41.522  28.602  31.163  1.00  0.00     0.167 HD
ATOM     61  C   UNL A   1      42.525  29.535  33.642  1.00  0.00     0.074 A 
ATOM     62  C   UNL A   1      42.584  30.168  34.945  1.00  0.00     0.031 C 
ATOM     63  C   UNL A   1      43.528  28.797  33.106  1.00  0.00     0.034 A 
BRANCH  50  64
ATOM     64  C   UNL A   1      42.130  26.241  27.653  1.00  0.00     0.023 A 
ATOM     65  C   UNL A   1      42.899  26.764  26.593  1.00  0.00     0.012 A 
ATOM     66  C   UNL A   1      41.813  24.868  27.662  1.00  0.00     0.148 A 
ATOM     67  C   UNL A   1      43.310  25.948  25.541  1.00  0.00     0.002 A 
ATOM     68  C   UNL A   1      42.263  24.051  26.631  1.00  0.00     0.091 A 
ATOM     69  F   UNL A   1      41.063  24.391  28.666  1.00  0.00    -0.205 F 
ATOM     70  C   UNL A   1      43.001  24.591  25.565  1.00  0.00     0.022 A 
BRANCH  68  71
ATOM     71  S   UNL A   1      41.980  22.276  26.612  1.00  0.00     0.127 S 
ATOM     72  O   UNL A   1      42.656  21.884  25.377  1.00  0.00    -0.237 OA
ATOM     73  O   UNL A   1      42.648  21.841  27.839  1.00  0.00    -0.237 OA
ATOM     74  O   UNL A   1      40.533  22.105  26.618  1.00  0.00    -0.744 OA
ENDBRANCH  68  71
ENDBRANCH  50  64
BRANCH  51  75
ATOM     75  C   UNL A   1      38.780  32.004  35.088  1.00  0.00     0.023 A 
ATOM     76  C   UNL A   1      38.698  33.401  34.930  1.00  0.00     0.012 A 
ATOM     77  C   UNL A   1      38.330  31.421  36.287  1.00  0.00     0.148 A 
ATOM     78  C   UNL A   1      38.201  34.205  35.957  1.00  0.00     0.002 A 
ATOM     79  C   UNL A   1      37.784  32.221  37.284  1.00  0.00     0.091 A 
ATOM     80  F   UNL A   1      38.427  30.090  36.421  1.00  0.00    -0.205 F 
ATOM     81  C   UNL A   1      37.734  33.615  37.128  1.00  0.00     0.022 A 
BRANCH  79  82
ATOM     82  S   UNL A   1      37.033  31.536  38.765  1.00  0.00     0.127 S 
ATOM     83  O   UNL A   1      38.117  31.662  39.736  1.00  0.00    -0.237 OA
ATOM     84  O   UNL A   1      35.904  32.442  38.979  1.00  0.00    -0.237 OA
ATOM     85  O   UNL A   1      36.648  30.175  38.416  1.00  0.00    -0.744 OA
ENDBRANCH  79  82
ENDBRANCH  51  75
BRANCH  63  86
ATOM     86  C   UNL A   1      44.792  28.646  33.913  1.00  0.00     0.023 A 
ATOM     87  C   UNL A   1      45.863  29.539  33.704  1.00  0.00     0.012 A 
ATOM     88  C   UNL A   1      44.889  27.673  34.927  1.00  0.00     0.148 A 
ATOM     89  C   UNL A   1      47.022  29.445  34.472  1.00  0.00     0.002 A 
ATOM     90  C   UNL A   1      46.030  27.615  35.719  1.00  0.00     0.091 A 
ATOM     91  F   UNL A   1      43.867  26.820  35.096  1.00  0.00    -0.205 F 
ATOM     92  C   UNL A   1      47.101  28.493  35.486  1.00  0.00     0.022 A 
BRANCH  90  93
ATOM     93  S   UNL A   1      46.180  26.485  37.106  1.00  0.00     0.127 S 
ATOM     94  O   UNL A   1      46.141  25.185  36.437  1.00  0.00    -0.237 OA
ATOM     95  O   UNL A   1      47.484  26.845  37.663  1.00  0.00    -0.237 OA
ATOM     96  O   UNL A   1      45.051  26.774  37.981  1.00  0.00    -0.744 OA
ENDBRANCH  90  93
ENDBRANCH  63  86
ENDBRANCH  37  38
ENDBRANCH  29  32
ENDBRANCH  27  28
ENDBRANCH  26  27
ENDBRANCH   1  26
TORSDOF 17
ENDMDL
MODEL 2
REMARK VINA RESULT:     -12.1      1.518      7.797
REMARK SMILES COc1ccc([C@H](C)NC(=O)c2cnn(C)c2C(=O)NCCCNC(=O)c2ccc(-c3c4nc(c(-c5cccc(S(=O)(=O)[O-])c5F)c5ccc([nH]5)c(-c5cccc(S(=O)(=O)[O-])c5F)c5nc(c(-c6cccc(S(=O)(=O)[O-])c6F)c6ccc3[nH]6)C=C5)C=C4)cc2)cc1
REMARK SMILES IDX 21 1 20 2 18 3 19 4 17 6 12 7 13 8 14 9 15 10 16 11 10 12
REMARK SMILES IDX 9 13 11 15 7 16 8 17 6 18 3 19 4 20 91 21 5 22 90 23 2 24
REMARK SMILES IDX 1 25 22 26 23 27 24 28 25 29 26 31 27 32 28 33 89 34 29 35
REMARK SMILES IDX 88 36 30 37 31 38 32 39 82 40 33 41 87 42 81 43 83 44 34 45
REMARK SMILES IDX 86 46 80 47 79 48 35 50 67 51 47 52 66 53 48 54 51 55 65 56
REMARK SMILES IDX 84 57 49 58 50 59 64 61 85 62 52 63 36 64 37 65 45 66 38 67
REMARK SMILES IDX 40 68 46 69 39 70 41 71 42 72 43 73 44 74 68 75 69 76 77 77
REMARK SMILES IDX 70 78 72 79 78 80 71 81 73 82 74 83 75 84 76 85 53 86 54 87
REMARK SMILES IDX 62 88 55 89 57 90 63 91 56 92 58 93 59 94 60 95 61 96
REMARK H PARENT 20 5 9 14 24 30 83 49 51 60
REMARK Flexibility Score: inf
ROOT
ATOM      1  C   UNL A   1      31.406  29.433  24.990  1.00  0.00     0.118 C 
ENDROOT
BRANCH   1   2
ATOM      2  N   UNL A   1      31.411  27.995  25.183  1.00  0.00    -0.351 N 
ATOM      3  C   UNL A   1      32.503  27.194  24.955  1.00  0.00     0.270 C 
ATOM      4  O   UNL A   1      33.115  26.790  25.941  1.00  0.00    -0.268 OA
ATOM      5  H   UNL A   1      30.581  27.568  25.498  1.00  0.00     0.163 HD
BRANCH   3   6
ATOM      6  C   UNL A   1      32.720  26.648  23.632  1.00  0.00     0.138 A 
ATOM      7  C   UNL A   1      32.256  25.404  23.191  1.00  0.00     0.090 A 
ATOM      8  C   UNL A   1      32.944  25.163  21.990  1.00  0.00     0.149 A 
ATOM      9  N   UNL A   1      33.669  26.208  21.606  1.00  0.00    -0.180 NA
ATOM     10  N   UNL A   1      33.469  27.122  22.579  1.00  0.00    -0.262 N 
ATOM     11  C   UNL A   1      34.120  28.396  22.401  1.00  0.00     0.174 C 
BRANCH   7  12
ATOM     12  C   UNL A   1      31.374  24.467  23.854  1.00  0.00     0.255 C 
ATOM     13  N   UNL A   1      31.902  23.385  24.512  1.00  0.00    -0.345 N 
ATOM     14  H   UNL A   1      31.238  22.728  24.823  1.00  0.00     0.164 HD
ATOM     15  O   UNL A   1      30.161  24.662  23.919  1.00  0.00    -0.269 OA
BRANCH  13  16
ATOM     16  C   UNL A   1      33.288  23.051  24.827  1.00  0.00     0.109 C 
ATOM     17  C   UNL A   1      33.631  23.562  26.230  1.00  0.00     0.036 C 
BRANCH  16  18
ATOM     18  C   UNL A   1      33.509  21.558  24.603  1.00  0.00    -0.026 A 
ATOM     19  C   UNL A   1      34.031  18.787  24.374  1.00  0.00     0.118 A 
ATOM     20  C   UNL A   1      35.009  19.644  24.860  1.00  0.00     0.047 A 
ATOM     21  C   UNL A   1      32.793  19.302  23.995  1.00  0.00     0.047 A 
ATOM     22  C   UNL A   1      34.758  21.013  24.945  1.00  0.00     0.009 A 
ATOM     23  C   UNL A   1      32.533  20.678  24.110  1.00  0.00     0.009 A 
BRANCH  19  24
ATOM     24  O   UNL A   1      34.357  17.460  24.373  1.00  0.00    -0.497 OA
ATOM     25  C   UNL A   1      33.302  16.600  23.958  1.00  0.00     0.278 C 
ENDBRANCH  19  24
ENDBRANCH  16  18
ENDBRANCH  13  16
ENDBRANCH   7  12
ENDBRANCH   3   6
ENDBRANCH   1   2
BRANCH   1  26
ATOM     26  C   UNL A   1      32.684  30.069  25.524  1.00  0.00     0.042 C 
BRANCH  26  27
ATOM     27  C   UNL A   1      32.534  30.638  26.932  1.00  0.00     0.118 C 
BRANCH  27  28
ATOM     28  N   UNL A   1      32.774  32.075  26.964  1.00  0.00    -0.352 N 
ATOM     29  C   UNL A   1      33.702  32.809  27.660  1.00  0.00     0.251 C 
ATOM     30  H   UNL A   1      32.173  32.606  26.392  1.00  0.00     0.163 HD
ATOM     31  O   UNL A   1      33.549  34.025  27.752  1.00  0.00    -0.269 OA
BRANCH  29  32
ATOM     32  C   UNL A   1      34.873  32.164  28.298  1.00  0.00     0.039 A 
ATOM     33  C   UNL A   1      36.117  32.802  28.227  1.00  0.00     0.014 A 
ATOM     34  C   UNL A   1      34.776  30.907  28.899  1.00  0.00     0.014 A 
ATOM     35  C   UNL A   1      37.245  32.204  28.799  1.00  0.00     0.010 A 
ATOM     36  C   UNL A   1      35.883  30.348  29.536  1.00  0.00     0.010 A 
ATOM     37  C   UNL A   1      37.132  30.983  29.481  1.00  0.00    -0.014 A 
BRANCH  37  38
ATOM     38  C   UNL A   1      38.305  30.351  30.141  1.00  0.00     0.031 A 
ATOM     39  C   UNL A   1      38.704  30.752  31.536  1.00  0.00     0.074 A 
ATOM     40  C   UNL A   1      39.066  29.479  29.450  1.00  0.00     0.049 A 
ATOM     41  N   UNL A   1      39.732  30.363  32.245  1.00  0.00    -0.248 NA
ATOM     42  C   UNL A   1      37.852  31.744  32.214  1.00  0.00     0.031 C 
ATOM     43  C   UNL A   1      38.831  29.065  28.065  1.00  0.00     0.029 A 
ATOM     44  N   UNL A   1      40.208  28.808  29.807  1.00  0.00    -0.354 N 
ATOM     45  C   UNL A   1      39.675  31.087  33.430  1.00  0.00     0.074 A 
ATOM     46  C   UNL A   1      38.528  31.963  33.332  1.00  0.00     0.031 C 
ATOM     47  C   UNL A   1      39.797  28.212  27.691  1.00  0.00     0.029 A 
ATOM     48  C   UNL A   1      40.734  28.037  28.795  1.00  0.00     0.049 A 
ATOM     49  H   UNL A   1      40.614  28.872  30.702  1.00  0.00     0.167 HD
ATOM     50  C   UNL A   1      40.484  31.010  34.514  1.00  0.00     0.034 A 
ATOM     51  C   UNL A   1      41.848  27.280  28.760  1.00  0.00     0.034 A 
ATOM     52  C   UNL A   1      41.592  30.100  34.629  1.00  0.00     0.049 A 
ATOM     53  C   UNL A   1      42.703  27.174  29.992  1.00  0.00     0.074 A 
ATOM     54  C   UNL A   1      42.411  29.875  35.721  1.00  0.00     0.029 A 
ATOM     55  N   UNL A   1      42.041  29.267  33.617  1.00  0.00    -0.354 N 
ATOM     56  N   UNL A   1      42.538  27.744  31.161  1.00  0.00    -0.248 NA
ATOM     57  C   UNL A   1      43.877  26.293  29.914  1.00  0.00     0.031 C 
ATOM     58  C   UNL A   1      43.366  28.917  35.363  1.00  0.00     0.029 A 
ATOM     59  C   UNL A   1      43.130  28.533  34.053  1.00  0.00     0.049 A 
ATOM     60  H   UNL A   1      41.642  29.206  32.717  1.00  0.00     0.167 HD
ATOM     61  C   UNL A   1      43.566  27.267  31.967  1.00  0.00     0.074 A 
ATOM     62  C   UNL A   1      44.336  26.344  31.158  1.00  0.00     0.031 C 
ATOM     63  C   UNL A   1      43.857  27.579  33.254  1.00  0.00     0.034 A 
BRANCH  50  64
ATOM     64  C   UNL A   1      40.162  31.896  35.690  1.00  0.00     0.023 A 
ATOM     65  C   UNL A   1      40.949  33.041  35.932  1.00  0.00     0.012 A 
ATOM     66  C   UNL A   1      39.057  31.631  36.523  1.00  0.00     0.148 A 
ATOM     67  C   UNL A   1      40.668  33.884  37.006  1.00  0.00     0.002 A 
ATOM     68  C   UNL A   1      38.757  32.499  37.566  1.00  0.00     0.091 A 
ATOM     69  F   UNL A   1      38.331  30.527  36.292  1.00  0.00    -0.205 F 
ATOM     70  C   UNL A   1      39.568  33.619  37.816  1.00  0.00     0.022 A 
BRANCH  68  71
ATOM     71  S   UNL A   1      37.316  32.284  38.619  1.00  0.00     0.127 S 
ATOM     72  O   UNL A   1      37.751  32.939  39.851  1.00  0.00    -0.237 OA
ATOM     73  O   UNL A   1      36.280  33.004  37.878  1.00  0.00    -0.237 OA
ATOM     74  O   UNL A   1      37.103  30.846  38.712  1.00  0.00    -0.744 OA
ENDBRANCH  68  71
ENDBRANCH  50  64
BRANCH  51  75
ATOM     75  C   UNL A   1      42.171  26.501  27.531  1.00  0.00     0.023 A 
ATOM     76  C   UNL A   1      42.830  27.142  26.465  1.00  0.00     0.012 A 
ATOM     77  C   UNL A   1      41.878  25.127  27.431  1.00  0.00     0.148 A 
ATOM     78  C   UNL A   1      43.169  26.436  25.310  1.00  0.00     0.002 A 
ATOM     79  C   UNL A   1      42.267  24.417  26.302  1.00  0.00     0.091 A 
ATOM     80  F   UNL A   1      41.240  24.538  28.453  1.00  0.00    -0.205 F 
ATOM     81  C   UNL A   1      42.898  25.072  25.233  1.00  0.00     0.022 A 
BRANCH  79  82
ATOM     82  S   UNL A   1      42.083  22.634  26.174  1.00  0.00     0.127 S 
ATOM     83  O   UNL A   1      40.630  22.485  26.144  1.00  0.00    -0.237 OA
ATOM     84  O   UNL A   1      42.760  22.350  24.908  1.00  0.00    -0.237 OA
ATOM     85  O   UNL A   1      42.753  22.087  27.345  1.00  0.00    -0.744 OA
ENDBRANCH  79  82
ENDBRANCH  51  75
BRANCH  63  86
ATOM     86  C   UNL A   1      45.045  26.901  33.885  1.00  0.00     0.023 A 
ATOM     87  C   UNL A   1      46.319  27.497  33.791  1.00  0.00     0.012 A 
ATOM     88  C   UNL A   1      44.887  25.717  34.634  1.00  0.00     0.148 A 
ATOM     89  C   UNL A   1      47.422  26.909  34.407  1.00  0.00     0.002 A 
ATOM     90  C   UNL A   1      45.983  25.163  35.283  1.00  0.00     0.091 A 
ATOM     91  F   UNL A   1      43.671  25.155  34.694  1.00  0.00    -0.205 F 
ATOM     92  C   UNL A   1      47.253  25.751  35.163  1.00  0.00     0.022 A 
BRANCH  90  93
ATOM     93  S   UNL A   1      45.841  23.727  36.352  1.00  0.00     0.127 S 
ATOM     94  O   UNL A   1      47.235  23.496  36.729  1.00  0.00    -0.237 OA
ATOM     95  O   UNL A   1      44.992  24.226  37.435  1.00  0.00    -0.237 OA
ATOM     96  O   UNL A   1      45.229  22.683  35.540  1.00  0.00    -0.744 OA
ENDBRANCH  90  93
ENDBRANCH  63  86
ENDBRANCH  37  38
ENDBRANCH  29  32
ENDBRANCH  27  28
ENDBRANCH  26  27
ENDBRANCH   1  26
TORSDOF 17
ENDMDL
MODEL 3
REMARK VINA RESULT:     -12.0      5.300      8.124
REMARK SMILES COc1ccc([C@H](C)NC(=O)c2cnn(C)c2C(=O)NCCCNC(=O)c2ccc(-c3c4nc(c(-c5cccc(S(=O)(=O)[O-])c5F)c5ccc([nH]5)c(-c5cccc(S(=O)(=O)[O-])c5F)c5nc(c(-c6cccc(S(=O)(=O)[O-])c6F)c6ccc3[nH]6)C=C5)C=C4)cc2)cc1
REMARK SMILES IDX 21 1 20 2 18 3 19 4 17 6 12 7 13 8 14 9 15 10 16 11 10 12
REMARK SMILES IDX 9 13 11 15 7 16 8 17 6 18 3 19 4 20 91 21 5 22 90 23 2 24
REMARK SMILES IDX 1 25 22 26 23 27 24 28 25 29 26 31 27 32 28 33 89 34 29 35
REMARK SMILES IDX 88 36 30 37 31 38 32 39 82 40 33 41 87 42 81 43 83 44 34 45
REMARK SMILES IDX 86 46 80 47 79 48 35 50 67 51 47 52 66 53 48 54 51 55 65 56
REMARK SMILES IDX 84 57 49 58 50 59 64 61 85 62 52 63 36 64 37 65 45 66 38 67
REMARK SMILES IDX 40 68 46 69 39 70 41 71 42 72 43 73 44 74 68 75 69 76 77 77
REMARK SMILES IDX 70 78 72 79 78 80 71 81 73 82 74 83 75 84 76 85 53 86 54 87
REMARK SMILES IDX 62 88 55 89 57 90 63 91 56 92 58 93 59 94 60 95 61 96
REMARK H PARENT 20 5 9 14 24 30 83 49 51 60
REMARK Flexibility Score: inf
ROOT
ATOM      1  C   UNL A   1      35.815  22.638  26.051  1.00  0.00     0.118 C 
ENDROOT
BRANCH   1   2
ATOM      2  N   UNL A   1      35.363  23.628  25.092  1.00  0.00    -0.351 N 
ATOM      3  C   UNL A   1      34.301  24.475  25.305  1.00  0.00     0.270 C 
ATOM      4  O   UNL A   1      34.565  25.643  25.580  1.00  0.00    -0.268 OA
ATOM      5  H   UNL A   1      35.847  23.699  24.237  1.00  0.00     0.163 HD
BRANCH   3   6
ATOM      6  C   UNL A   1      32.968  24.047  24.940  1.00  0.00     0.138 A 
ATOM      7  C   UNL A   1      32.338  24.332  23.723  1.00  0.00     0.090 A 
ATOM      8  C   UNL A   1      30.988  23.999  23.925  1.00  0.00     0.149 A 
ATOM      9  N   UNL A   1      30.782  23.415  25.100  1.00  0.00    -0.180 NA
ATOM     10  N   UNL A   1      32.004  23.392  25.674  1.00  0.00    -0.262 N 
ATOM     11  C   UNL A   1      32.088  22.768  26.970  1.00  0.00     0.174 C 
BRANCH   7  12
ATOM     12  C   UNL A   1      32.878  24.963  22.538  1.00  0.00     0.255 C 
ATOM     13  N   UNL A   1      32.912  26.332  22.451  1.00  0.00    -0.345 N 
ATOM     14  H   UNL A   1      33.169  26.682  21.568  1.00  0.00     0.164 HD
ATOM     15  O   UNL A   1      33.391  24.302  21.636  1.00  0.00    -0.269 OA
BRANCH  13  16
ATOM     16  C   UNL A   1      32.631  27.352  23.456  1.00  0.00     0.109 C 
ATOM     17  C   UNL A   1      33.815  28.320  23.549  1.00  0.00     0.036 C 
BRANCH  16  18
ATOM     18  C   UNL A   1      31.281  27.997  23.154  1.00  0.00    -0.026 A 
ATOM     19  C   UNL A   1      28.856  29.240  22.396  1.00  0.00     0.118 A 
ATOM     20  C   UNL A   1      30.071  29.779  21.997  1.00  0.00     0.047 A 
ATOM     21  C   UNL A   1      28.839  28.086  23.177  1.00  0.00     0.047 A 
ATOM     22  C   UNL A   1      31.266  29.180  22.396  1.00  0.00     0.009 A 
ATOM     23  C   UNL A   1      30.044  27.467  23.552  1.00  0.00     0.009 A 
BRANCH  19  24
ATOM     24  O   UNL A   1      27.744  29.871  21.916  1.00  0.00    -0.497 OA
ATOM     25  C   UNL A   1      28.022  30.969  21.055  1.00  0.00     0.278 C 
ENDBRANCH  19  24
ENDBRANCH  16  18
ENDBRANCH  13  16
ENDBRANCH   7  12
ENDBRANCH   3   6
ENDBRANCH   1   2
BRANCH   1  26
ATOM     26  C   UNL A   1      36.352  21.394  25.352  1.00  0.00     0.042 C 
BRANCH  26  27
ATOM     27  C   UNL A   1      37.825  21.503  24.970  1.00  0.00     0.118 C 
BRANCH  27  28
ATOM     28  N   UNL A   1      38.654  20.584  25.739  1.00  0.00    -0.352 N 
ATOM     29  C   UNL A   1      39.821  20.800  26.428  1.00  0.00     0.251 C 
ATOM     30  H   UNL A   1      38.322  19.657  25.771  1.00  0.00     0.163 HD
ATOM     31  O   UNL A   1      40.494  19.830  26.773  1.00  0.00    -0.269 OA
BRANCH  29  32
ATOM     32  C   UNL A   1      40.280  22.168  26.757  1.00  0.00     0.039 A 
ATOM     33  C   UNL A   1      41.222  22.338  27.780  1.00  0.00     0.014 A 
ATOM     34  C   UNL A   1      39.740  23.291  26.125  1.00  0.00     0.014 A 
ATOM     35  C   UNL A   1      41.654  23.621  28.129  1.00  0.00     0.010 A 
ATOM     36  C   UNL A   1      40.228  24.563  26.419  1.00  0.00     0.010 A 
ATOM     37  C   UNL A   1      41.179  24.744  27.433  1.00  0.00    -0.014 A 
BRANCH  37  38
ATOM     38  C   UNL A   1      41.659  26.115  27.751  1.00  0.00     0.031 A 
ATOM     39  C   UNL A   1      43.069  26.525  27.419  1.00  0.00     0.074 A 
ATOM     40  C   UNL A   1      40.854  26.963  28.421  1.00  0.00     0.049 A 
ATOM     41  N   UNL A   1      43.686  27.649  27.681  1.00  0.00    -0.248 NA
ATOM     42  C   UNL A   1      43.907  25.532  26.728  1.00  0.00     0.031 C 
ATOM     43  C   UNL A   1      39.493  26.659  28.869  1.00  0.00     0.029 A 
ATOM     44  N   UNL A   1      41.073  28.241  28.870  1.00  0.00    -0.354 N 
ATOM     45  C   UNL A   1      44.988  27.485  27.226  1.00  0.00     0.074 A 
ATOM     46  C   UNL A   1      45.084  26.141  26.699  1.00  0.00     0.031 C 
ATOM     47  C   UNL A   1      38.999  27.721  29.526  1.00  0.00     0.029 A 
ATOM     48  C   UNL A   1      40.013  28.768  29.572  1.00  0.00     0.049 A 
ATOM     49  H   UNL A   1      41.909  28.733  28.706  1.00  0.00     0.167 HD
ATOM     50  C   UNL A   1      46.006  28.380  27.218  1.00  0.00     0.034 A 
ATOM     51  C   UNL A   1      39.876  29.960  30.186  1.00  0.00     0.034 A 
ATOM     52  C   UNL A   1      45.893  29.733  27.694  1.00  0.00     0.049 A 
ATOM     53  C   UNL A   1      41.002  30.953  30.122  1.00  0.00     0.074 A 
ATOM     54  C   UNL A   1      46.834  30.746  27.639  1.00  0.00     0.029 A 
ATOM     55  N   UNL A   1      44.773  30.262  28.316  1.00  0.00    -0.354 N 
ATOM     56  N   UNL A   1      42.172  30.836  29.541  1.00  0.00    -0.248 NA
ATOM     57  C   UNL A   1      40.779  32.256  30.765  1.00  0.00     0.031 C 
ATOM     58  C   UNL A   1      46.288  31.883  28.244  1.00  0.00     0.029 A 
ATOM     59  C   UNL A   1      45.000  31.584  28.659  1.00  0.00     0.049 A 
ATOM     60  H   UNL A   1      43.937  29.769  28.489  1.00  0.00     0.167 HD
ATOM     61  C   UNL A   1      42.811  32.058  29.720  1.00  0.00     0.074 A 
ATOM     62  C   UNL A   1      41.888  32.909  30.444  1.00  0.00     0.031 C 
ATOM     63  C   UNL A   1      44.055  32.436  29.334  1.00  0.00     0.034 A 
BRANCH  50  64
ATOM     64  C   UNL A   1      47.317  27.940  26.619  1.00  0.00     0.023 A 
ATOM     65  C   UNL A   1      48.361  27.519  27.469  1.00  0.00     0.012 A 
ATOM     66  C   UNL A   1      47.503  27.893  25.223  1.00  0.00     0.148 A 
ATOM     67  C   UNL A   1      49.581  27.098  26.943  1.00  0.00     0.002 A 
ATOM     68  C   UNL A   1      48.708  27.431  24.705  1.00  0.00     0.091 A 
ATOM     69  F   UNL A   1      46.510  28.317  24.430  1.00  0.00    -0.205 F 
ATOM     70  C   UNL A   1      49.751  27.044  25.563  1.00  0.00     0.022 A 
BRANCH  68  71
ATOM     71  S   UNL A   1      48.996  27.255  22.940  1.00  0.00     0.127 S 
ATOM     72  O   UNL A   1      48.343  25.977  22.661  1.00  0.00    -0.237 OA
ATOM     73  O   UNL A   1      48.306  28.425  22.394  1.00  0.00    -0.237 OA
ATOM     74  O   UNL A   1      50.442  27.272  22.769  1.00  0.00    -0.744 OA
ENDBRANCH  68  71
ENDBRANCH  50  64
BRANCH  51  75
ATOM     75  C   UNL A   1      38.587  30.302  30.851  1.00  0.00     0.023 A 
ATOM     76  C   UNL A   1      38.379  29.914  32.188  1.00  0.00     0.012 A 
ATOM     77  C   UNL A   1      37.592  31.047  30.189  1.00  0.00     0.148 A 
ATOM     78  C   UNL A   1      37.192  30.240  32.848  1.00  0.00     0.002 A 
ATOM     79  C   UNL A   1      36.437  31.416  30.868  1.00  0.00     0.091 A 
ATOM     80  F   UNL A   1      37.805  31.397  28.912  1.00  0.00    -0.205 F 
ATOM     81  C   UNL A   1      36.227  31.000  32.192  1.00  0.00     0.022 A 
BRANCH  79  82
ATOM     82  S   UNL A   1      35.204  32.508  30.149  1.00  0.00     0.127 S 
ATOM     83  O   UNL A   1      34.269  32.675  31.258  1.00  0.00    -0.237 OA
ATOM     84  O   UNL A   1      36.001  33.693  29.828  1.00  0.00    -0.237 OA
ATOM     85  O   UNL A   1      34.688  31.803  28.984  1.00  0.00    -0.744 OA
ENDBRANCH  79  82
ENDBRANCH  51  75
BRANCH  63  86
ATOM     86  C   UNL A   1      44.492  33.839  29.664  1.00  0.00     0.023 A 
ATOM     87  C   UNL A   1      45.177  34.091  30.870  1.00  0.00     0.012 A 
ATOM     88  C   UNL A   1      44.291  34.892  28.749  1.00  0.00     0.148 A 
ATOM     89  C   UNL A   1      45.630  35.374  31.172  1.00  0.00     0.002 A 
ATOM     90  C   UNL A   1      44.786  36.158  29.037  1.00  0.00     0.091 A 
ATOM     91  F   UNL A   1      43.619  34.636  27.617  1.00  0.00    -0.205 F 
ATOM     92  C   UNL A   1      45.446  36.403  30.252  1.00  0.00     0.022 A 
BRANCH  90  93
ATOM     93  S   UNL A   1      44.677  37.519  27.870  1.00  0.00     0.127 S 
ATOM     94  O   UNL A   1      43.230  37.671  27.724  1.00  0.00    -0.237 OA
ATOM     95  O   UNL A   1      45.334  38.607  28.597  1.00  0.00    -0.237 OA
ATOM     96  O   UNL A   1      45.386  37.079  26.676  1.00  0.00    -0.744 OA
ENDBRANCH  90  93
ENDBRANCH  63  86
ENDBRANCH  37  38
ENDBRANCH  29  32
ENDBRANCH  27  28
ENDBRANCH  26  27
ENDBRANCH   1  26
TORSDOF 17
ENDMDL
