MODEL 1
REMARK VINA RESULT:     -10.7      0.000      0.000
REMARK SMILES C[C@@H](CCC(=O)NCCCNC(=O)c1ccc(-c2c3nc(c(-c4cccc(S(=O)(=O)[O-])c4F)c4ccc([nH]4)c(-c4cccc(S(=O)(=O)[O-])c4F)c4nc(c(-c5cccc(S(=O)(=O)[O-])c5F)c5ccc2[nH]5)C=C4)C=C3)cc1)NC(=O)Nc1ccc(Cl)c(Br)c1
REMARK SMILES IDX 8 1 7 2 5 3 6 4 4 6 3 7 2 8 1 9 77 10 78 11 79 13 80 14
REMARK SMILES IDX 81 16 82 17 88 18 83 19 86 20 84 21 87 22 85 23 9 24 10 25
REMARK SMILES IDX 11 26 12 27 13 29 14 30 15 31 76 32 16 33 75 34 17 35 18 36
REMARK SMILES IDX 19 37 69 38 20 39 74 40 68 41 70 42 21 43 73 44 67 45 66 46
REMARK SMILES IDX 22 48 54 49 34 50 53 51 35 52 38 53 52 54 71 55 36 56 37 57
REMARK SMILES IDX 51 59 72 60 39 61 23 62 24 63 32 64 25 65 27 66 33 67 26 68
REMARK SMILES IDX 28 69 29 70 30 71 31 72 55 73 56 74 64 75 57 76 59 77 65 78
REMARK SMILES IDX 58 79 60 80 61 81 62 82 63 83 40 84 41 85 49 86 42 87 44 88
REMARK SMILES IDX 50 89 43 90 45 91 46 92 47 93 48 94
REMARK H PARENT 7 5 77 12 80 15 11 28 70 47 38 58
REMARK Flexibility Score: inf
ROOT
ATOM      1  C   UNL A   1      32.866  27.103  25.964  1.00  0.00     0.117 C 
ENDROOT
BRANCH   1   2
ATOM      2  N   UNL A   1      33.235  26.534  24.677  1.00  0.00    -0.356 N 
ATOM      3  C   UNL A   1      34.099  25.537  24.351  1.00  0.00     0.220 C 
ATOM      4  O   UNL A   1      34.164  25.187  23.170  1.00  0.00    -0.275 OA
ATOM      5  H   UNL A   1      32.780  26.945  23.907  1.00  0.00     0.163 HD
BRANCH   3   6
ATOM      6  C   UNL A   1      35.014  24.921  25.382  1.00  0.00     0.102 C 
BRANCH   6   7
ATOM      7  C   UNL A   1      36.049  23.986  24.745  1.00  0.00     0.034 C 
BRANCH   7   8
ATOM      8  C   UNL A   1      36.936  23.161  25.704  1.00  0.00     0.081 C 
ATOM      9  C   UNL A   1      38.068  24.000  26.302  1.00  0.00     0.031 C 
BRANCH   8  10
ATOM     10  N   UNL A   1      37.361  21.898  25.086  1.00  0.00    -0.335 N 
ATOM     11  C   UNL A   1      36.886  20.637  25.041  1.00  0.00     0.319 C 
ATOM     12  H   UNL A   1      38.200  21.997  24.580  1.00  0.00     0.165 HD
ATOM     13  O   UNL A   1      37.671  19.763  24.660  1.00  0.00    -0.248 OA
ATOM     14  N   UNL A   1      35.680  20.268  25.515  1.00  0.00    -0.308 N 
ATOM     15  H   UNL A   1      35.622  19.318  25.765  1.00  0.00     0.171 HD
BRANCH  14  16
ATOM     16  C   UNL A   1      34.497  20.983  25.720  1.00  0.00     0.044 A 
ATOM     17  C   UNL A   1      34.184  21.364  27.025  1.00  0.00     0.028 A 
ATOM     18  C   UNL A   1      33.640  21.327  24.678  1.00  0.00     0.043 A 
ATOM     19  C   UNL A   1      33.128  22.249  27.254  1.00  0.00     0.024 A 
ATOM     20  C   UNL A   1      32.594  22.226  24.899  1.00  0.00     0.038 A 
ATOM     21  C   UNL A   1      32.359  22.718  26.186  1.00  0.00     0.055 A 
ATOM     22  Br  UNL A   1      31.600  22.790  23.380  1.00  0.00    -0.049 Br
ATOM     23  Cl  UNL A   1      31.176  23.932  26.516  1.00  0.00    -0.083 Cl
ENDBRANCH  14  16
ENDBRANCH   8  10
ENDBRANCH   7   8
ENDBRANCH   6   7
ENDBRANCH   3   6
ENDBRANCH   1   2
BRANCH   1  24
ATOM     24  C   UNL A   1      32.896  28.630  25.997  1.00  0.00     0.042 C 
BRANCH  24  25
ATOM     25  C   UNL A   1      34.195  29.244  26.507  1.00  0.00     0.118 C 
BRANCH  25  26
ATOM     26  N   UNL A   1      33.988  30.613  26.944  1.00  0.00    -0.352 N 
ATOM     27  C   UNL A   1      34.593  31.294  27.971  1.00  0.00     0.251 C 
ATOM     28  H   UNL A   1      33.319  31.123  26.433  1.00  0.00     0.163 HD
ATOM     29  O   UNL A   1      34.069  32.329  28.378  1.00  0.00    -0.269 OA
BRANCH  27  30
ATOM     30  C   UNL A   1      35.859  30.816  28.589  1.00  0.00     0.039 A 
ATOM     31  C   UNL A   1      37.061  31.397  28.166  1.00  0.00     0.014 A 
ATOM     32  C   UNL A   1      35.895  29.739  29.482  1.00  0.00     0.014 A 
ATOM     33  C   UNL A   1      38.285  30.896  28.623  1.00  0.00     0.010 A 
ATOM     34  C   UNL A   1      37.118  29.273  29.977  1.00  0.00     0.010 A 
ATOM     35  C   UNL A   1      38.327  29.823  29.526  1.00  0.00    -0.014 A 
BRANCH  35  36
ATOM     36  C   UNL A   1      39.630  29.249  29.958  1.00  0.00     0.031 A 
ATOM     37  C   UNL A   1      40.383  29.847  31.120  1.00  0.00     0.074 A 
ATOM     38  C   UNL A   1      40.156  28.200  29.297  1.00  0.00     0.049 A 
ATOM     39  N   UNL A   1      41.507  29.454  31.664  1.00  0.00    -0.248 NA
ATOM     40  C   UNL A   1      39.807  31.050  31.743  1.00  0.00     0.031 C 
ATOM     41  C   UNL A   1      39.565  27.565  28.118  1.00  0.00     0.029 A 
ATOM     42  N   UNL A   1      41.313  27.492  29.511  1.00  0.00    -0.354 N 
ATOM     43  C   UNL A   1      41.786  30.370  32.672  1.00  0.00     0.074 A 
ATOM     44  C   UNL A   1      40.729  31.358  32.645  1.00  0.00     0.031 C 
ATOM     45  C   UNL A   1      40.363  26.564  27.713  1.00  0.00     0.029 A 
ATOM     46  C   UNL A   1      41.527  26.490  28.595  1.00  0.00     0.049 A 
ATOM     47  H   UNL A   1      41.932  27.685  30.252  1.00  0.00     0.167 HD
ATOM     48  C   UNL A   1      42.808  30.376  33.562  1.00  0.00     0.034 A 
ATOM     49  C   UNL A   1      42.539  25.607  28.478  1.00  0.00     0.034 A 
ATOM     50  C   UNL A   1      43.837  29.372  33.620  1.00  0.00     0.049 A 
ATOM     51  C   UNL A   1      43.641  25.607  29.504  1.00  0.00     0.074 A 
ATOM     52  C   UNL A   1      44.864  29.245  34.540  1.00  0.00     0.029 A 
ATOM     53  N   UNL A   1      43.977  28.327  32.721  1.00  0.00    -0.354 N 
ATOM     54  N   UNL A   1      43.790  26.376  30.555  1.00  0.00    -0.248 NA
ATOM     55  C   UNL A   1      44.692  24.588  29.354  1.00  0.00     0.031 C 
ATOM     56  C   UNL A   1      45.634  28.130  34.188  1.00  0.00     0.029 A 
ATOM     57  C   UNL A   1      45.075  27.554  33.058  1.00  0.00     0.049 A 
ATOM     58  H   UNL A   1      43.381  28.157  31.956  1.00  0.00     0.167 HD
ATOM     59  C   UNL A   1      44.927  25.915  31.209  1.00  0.00     0.074 A 
ATOM     60  C   UNL A   1      45.416  24.783  30.448  1.00  0.00     0.031 C 
ATOM     61  C   UNL A   1      45.522  26.395  32.328  1.00  0.00     0.034 A 
BRANCH  48  62
ATOM     62  C   UNL A   1      42.833  31.473  34.596  1.00  0.00     0.023 A 
ATOM     63  C   UNL A   1      43.684  32.581  34.404  1.00  0.00     0.012 A 
ATOM     64  C   UNL A   1      41.974  31.447  35.712  1.00  0.00     0.148 A 
ATOM     65  C   UNL A   1      43.702  33.631  35.321  1.00  0.00     0.002 A 
ATOM     66  C   UNL A   1      41.969  32.517  36.601  1.00  0.00     0.091 A 
ATOM     67  F   UNL A   1      41.187  30.376  35.889  1.00  0.00    -0.205 F 
ATOM     68  C   UNL A   1      42.838  33.603  36.413  1.00  0.00     0.022 A 
BRANCH  66  69
ATOM     69  S   UNL A   1      40.837  32.609  37.995  1.00  0.00     0.127 S 
ATOM     70  O   UNL A   1      41.611  31.944  39.045  1.00  0.00    -0.237 OA
ATOM     71  O   UNL A   1      40.687  34.055  38.175  1.00  0.00    -0.237 OA
ATOM     72  O   UNL A   1      39.629  31.922  37.575  1.00  0.00    -0.744 OA
ENDBRANCH  66  69
ENDBRANCH  48  62
BRANCH  49  73
ATOM     73  C   UNL A   1      42.512  24.594  27.386  1.00  0.00     0.023 A 
ATOM     74  C   UNL A   1      43.158  24.873  26.166  1.00  0.00     0.012 A 
ATOM     75  C   UNL A   1      41.888  23.344  27.562  1.00  0.00     0.148 A 
ATOM     76  C   UNL A   1      43.159  23.936  25.131  1.00  0.00     0.002 A 
ATOM     77  C   UNL A   1      41.945  22.393  26.549  1.00  0.00     0.091 A 
ATOM     78  F   UNL A   1      41.262  23.103  28.723  1.00  0.00    -0.205 F 
ATOM     79  C   UNL A   1      42.563  22.693  25.327  1.00  0.00     0.022 A 
BRANCH  77  80
ATOM     80  S   UNL A   1      41.338  20.718  26.782  1.00  0.00     0.127 S 
ATOM     81  O   UNL A   1      39.900  20.932  26.902  1.00  0.00    -0.237 OA
ATOM     82  O   UNL A   1      41.765  20.064  25.544  1.00  0.00    -0.237 OA
ATOM     83  O   UNL A   1      42.015  20.223  27.974  1.00  0.00    -0.744 OA
ENDBRANCH  77  80
ENDBRANCH  49  73
BRANCH  61  84
ATOM     84  C   UNL A   1      46.758  25.690  32.823  1.00  0.00     0.023 A 
ATOM     85  C   UNL A   1      48.029  26.140  32.413  1.00  0.00     0.012 A 
ATOM     86  C   UNL A   1      46.667  24.632  33.748  1.00  0.00     0.148 A 
ATOM     87  C   UNL A   1      49.187  25.528  32.890  1.00  0.00     0.002 A 
ATOM     88  C   UNL A   1      47.826  24.055  34.254  1.00  0.00     0.091 A 
ATOM     89  F   UNL A   1      45.449  24.201  34.111  1.00  0.00    -0.205 F 
ATOM     90  C   UNL A   1      49.087  24.496  33.818  1.00  0.00     0.022 A 
BRANCH  88  91
ATOM     91  S   UNL A   1      47.790  22.781  35.520  1.00  0.00     0.127 S 
ATOM     92  O   UNL A   1      47.226  21.647  34.787  1.00  0.00    -0.237 OA
ATOM     93  O   UNL A   1      49.205  22.640  35.865  1.00  0.00    -0.237 OA
ATOM     94  O   UNL A   1      46.961  23.311  36.594  1.00  0.00    -0.744 OA
ENDBRANCH  88  91
ENDBRANCH  61  84
ENDBRANCH  35  36
ENDBRANCH  27  30
ENDBRANCH  25  26
ENDBRANCH  24  25
ENDBRANCH   1  24
TORSDOF 17
ENDMDL
MODEL 2
REMARK VINA RESULT:     -10.7      2.452      3.412
REMARK SMILES C[C@@H](CCC(=O)NCCCNC(=O)c1ccc(-c2c3nc(c(-c4cccc(S(=O)(=O)[O-])c4F)c4ccc([nH]4)c(-c4cccc(S(=O)(=O)[O-])c4F)c4nc(c(-c5cccc(S(=O)(=O)[O-])c5F)c5ccc2[nH]5)C=C4)C=C3)cc1)NC(=O)Nc1ccc(Cl)c(Br)c1
REMARK SMILES IDX 8 1 7 2 5 3 6 4 4 6 3 7 2 8 1 9 77 10 78 11 79 13 80 14
REMARK SMILES IDX 81 16 82 17 88 18 83 19 86 20 84 21 87 22 85 23 9 24 10 25
REMARK SMILES IDX 11 26 12 27 13 29 14 30 15 31 76 32 16 33 75 34 17 35 18 36
REMARK SMILES IDX 19 37 69 38 20 39 74 40 68 41 70 42 21 43 73 44 67 45 66 46
REMARK SMILES IDX 22 48 54 49 34 50 53 51 35 52 38 53 52 54 71 55 36 56 37 57
REMARK SMILES IDX 51 59 72 60 39 61 23 62 24 63 32 64 25 65 27 66 33 67 26 68
REMARK SMILES IDX 28 69 29 70 30 71 31 72 55 73 56 74 64 75 57 76 59 77 65 78
REMARK SMILES IDX 58 79 60 80 61 81 62 82 63 83 40 84 41 85 49 86 42 87 44 88
REMARK SMILES IDX 50 89 43 90 45 91 46 92 47 93 48 94
REMARK H PARENT 7 5 77 12 80 15 11 28 70 47 38 58
REMARK Flexibility Score: inf
ROOT
ATOM      1  C   UNL A   1      31.779  28.227  24.508  1.00  0.00     0.117 C 
ENDROOT
BRANCH   1   2
ATOM      2  N   UNL A   1      32.631  28.355  23.335  1.00  0.00    -0.356 N 
ATOM      3  C   UNL A   1      33.449  27.463  22.718  1.00  0.00     0.220 C 
ATOM      4  O   UNL A   1      34.004  27.808  21.672  1.00  0.00    -0.275 OA
ATOM      5  H   UNL A   1      32.611  29.246  22.915  1.00  0.00     0.163 HD
BRANCH   3   6
ATOM      6  C   UNL A   1      33.741  26.112  23.327  1.00  0.00     0.102 C 
BRANCH   6   7
ATOM      7  C   UNL A   1      32.821  25.020  22.769  1.00  0.00     0.034 C 
BRANCH   7   8
ATOM      8  C   UNL A   1      32.281  23.976  23.770  1.00  0.00     0.081 C 
ATOM      9  C   UNL A   1      31.418  22.915  23.083  1.00  0.00     0.031 C 
BRANCH   8  10
ATOM     10  N   UNL A   1      31.658  24.622  24.934  1.00  0.00    -0.335 N 
ATOM     11  C   UNL A   1      31.573  24.359  26.253  1.00  0.00     0.319 C 
ATOM     12  H   UNL A   1      31.188  25.451  24.690  1.00  0.00     0.165 HD
ATOM     13  O   UNL A   1      30.714  24.981  26.886  1.00  0.00    -0.248 OA
ATOM     14  N   UNL A   1      32.254  23.376  26.872  1.00  0.00    -0.308 N 
ATOM     15  H   UNL A   1      31.832  23.056  27.701  1.00  0.00     0.171 HD
BRANCH  14  16
ATOM     16  C   UNL A   1      33.449  22.724  26.556  1.00  0.00     0.044 A 
ATOM     17  C   UNL A   1      33.377  21.391  26.151  1.00  0.00     0.028 A 
ATOM     18  C   UNL A   1      34.688  23.356  26.624  1.00  0.00     0.043 A 
ATOM     19  C   UNL A   1      34.510  20.762  25.631  1.00  0.00     0.024 A 
ATOM     20  C   UNL A   1      35.821  22.738  26.088  1.00  0.00     0.038 A 
ATOM     21  C   UNL A   1      35.724  21.449  25.557  1.00  0.00     0.055 A 
ATOM     22  Br  UNL A   1      37.426  23.755  26.047  1.00  0.00    -0.049 Br
ATOM     23  Cl  UNL A   1      37.043  20.673  24.756  1.00  0.00    -0.083 Cl
ENDBRANCH  14  16
ENDBRANCH   8  10
ENDBRANCH   7   8
ENDBRANCH   6   7
ENDBRANCH   3   6
ENDBRANCH   1   2
BRANCH   1  24
ATOM     24  C   UNL A   1      31.433  29.561  25.169  1.00  0.00     0.042 C 
BRANCH  24  25
ATOM     25  C   UNL A   1      32.355  29.980  26.308  1.00  0.00     0.118 C 
BRANCH  25  26
ATOM     26  N   UNL A   1      32.314  31.417  26.509  1.00  0.00    -0.352 N 
ATOM     27  C   UNL A   1      33.114  32.203  27.301  1.00  0.00     0.251 C 
ATOM     28  H   UNL A   1      31.613  31.894  26.009  1.00  0.00     0.163 HD
ATOM     29  O   UNL A   1      32.733  33.339  27.577  1.00  0.00    -0.269 OA
BRANCH  27  30
ATOM     30  C   UNL A   1      34.422  31.720  27.817  1.00  0.00     0.039 A 
ATOM     31  C   UNL A   1      34.510  30.394  28.258  1.00  0.00     0.014 A 
ATOM     32  C   UNL A   1      35.521  32.571  27.981  1.00  0.00     0.014 A 
ATOM     33  C   UNL A   1      35.681  29.930  28.868  1.00  0.00     0.010 A 
ATOM     34  C   UNL A   1      36.709  32.091  28.544  1.00  0.00     0.010 A 
ATOM     35  C   UNL A   1      36.789  30.776  29.026  1.00  0.00    -0.014 A 
BRANCH  35  36
ATOM     36  C   UNL A   1      38.009  30.300  29.735  1.00  0.00     0.031 A 
ATOM     37  C   UNL A   1      38.314  30.772  31.134  1.00  0.00     0.074 A 
ATOM     38  C   UNL A   1      38.860  29.459  29.117  1.00  0.00     0.049 A 
ATOM     39  N   UNL A   1      39.303  30.431  31.921  1.00  0.00    -0.248 NA
ATOM     40  C   UNL A   1      37.399  31.764  31.721  1.00  0.00     0.031 C 
ATOM     41  C   UNL A   1      38.719  28.976  27.743  1.00  0.00     0.029 A 
ATOM     42  N   UNL A   1      40.022  28.874  29.559  1.00  0.00    -0.354 N 
ATOM     43  C   UNL A   1      39.146  31.181  33.081  1.00  0.00     0.074 A 
ATOM     44  C   UNL A   1      37.983  32.018  32.884  1.00  0.00     0.031 C 
ATOM     45  C   UNL A   1      39.754  28.169  27.455  1.00  0.00     0.029 A 
ATOM     46  C   UNL A   1      40.637  28.085  28.616  1.00  0.00     0.049 A 
ATOM     47  H   UNL A   1      40.381  29.008  30.466  1.00  0.00     0.167 HD
ATOM     48  C   UNL A   1      39.880  31.155  34.221  1.00  0.00     0.034 A 
ATOM     49  C   UNL A   1      41.779  27.370  28.678  1.00  0.00     0.034 A 
ATOM     50  C   UNL A   1      41.011  30.293  34.437  1.00  0.00     0.049 A 
ATOM     51  C   UNL A   1      42.552  27.324  29.968  1.00  0.00     0.074 A 
ATOM     52  C   UNL A   1      41.764  30.134  35.588  1.00  0.00     0.029 A 
ATOM     53  N   UNL A   1      41.558  29.449  33.484  1.00  0.00    -0.354 N 
ATOM     54  N   UNL A   1      42.285  27.907  31.112  1.00  0.00    -0.248 NA
ATOM     55  C   UNL A   1      43.762  26.487  29.991  1.00  0.00     0.031 C 
ATOM     56  C   UNL A   1      42.776  29.203  35.325  1.00  0.00     0.029 A 
ATOM     57  C   UNL A   1      42.643  28.772  34.015  1.00  0.00     0.049 A 
ATOM     58  H   UNL A   1      41.224  29.346  32.563  1.00  0.00     0.167 HD
ATOM     59  C   UNL A   1      43.269  27.482  31.997  1.00  0.00     0.074 A 
ATOM     60  C   UNL A   1      44.126  26.573  31.264  1.00  0.00     0.031 C 
ATOM     61  C   UNL A   1      43.457  27.826  33.295  1.00  0.00     0.034 A 
BRANCH  48  62
ATOM     62  C   UNL A   1      39.443  32.045  35.356  1.00  0.00     0.023 A 
ATOM     63  C   UNL A   1      38.565  31.534  36.335  1.00  0.00     0.012 A 
ATOM     64  C   UNL A   1      39.949  33.353  35.498  1.00  0.00     0.148 A 
ATOM     65  C   UNL A   1      38.173  32.319  37.418  1.00  0.00     0.002 A 
ATOM     66  C   UNL A   1      39.585  34.116  36.603  1.00  0.00     0.091 A 
ATOM     67  F   UNL A   1      40.767  33.829  34.548  1.00  0.00    -0.205 F 
ATOM     68  C   UNL A   1      38.690  33.605  37.557  1.00  0.00     0.022 A 
BRANCH  66  69
ATOM     69  S   UNL A   1      40.259  35.753  36.910  1.00  0.00     0.127 S 
ATOM     70  O   UNL A   1      41.694  35.516  36.742  1.00  0.00    -0.237 OA
ATOM     71  O   UNL A   1      39.645  36.545  35.841  1.00  0.00    -0.237 OA
ATOM     72  O   UNL A   1      39.835  36.115  38.251  1.00  0.00    -0.744 OA
ENDBRANCH  66  69
ENDBRANCH  48  62
BRANCH  49  73
ATOM     73  C   UNL A   1      42.214  26.571  27.497  1.00  0.00     0.023 A 
ATOM     74  C   UNL A   1      42.984  27.186  26.491  1.00  0.00     0.012 A 
ATOM     75  C   UNL A   1      41.905  25.202  27.385  1.00  0.00     0.148 A 
ATOM     76  C   UNL A   1      43.416  26.458  25.382  1.00  0.00     0.002 A 
ATOM     77  C   UNL A   1      42.389  24.469  26.308  1.00  0.00     0.091 A 
ATOM     78  F   UNL A   1      41.155  24.638  28.343  1.00  0.00    -0.205 F 
ATOM     79  C   UNL A   1      43.129  25.098  25.296  1.00  0.00     0.022 A 
BRANCH  77  80
ATOM     80  S   UNL A   1      42.194  22.686  26.206  1.00  0.00     0.127 S 
ATOM     81  O   UNL A   1      40.743  22.543  26.167  1.00  0.00    -0.237 OA
ATOM     82  O   UNL A   1      42.881  22.375  24.951  1.00  0.00    -0.237 OA
ATOM     83  O   UNL A   1      42.860  22.156  27.389  1.00  0.00    -0.744 OA
ENDBRANCH  77  80
ENDBRANCH  49  73
BRANCH  61  84
ATOM     84  C   UNL A   1      44.618  27.203  34.026  1.00  0.00     0.023 A 
ATOM     85  C   UNL A   1      45.877  27.836  34.001  1.00  0.00     0.012 A 
ATOM     86  C   UNL A   1      44.448  26.036  34.794  1.00  0.00     0.148 A 
ATOM     87  C   UNL A   1      46.956  27.299  34.702  1.00  0.00     0.002 A 
ATOM     88  C   UNL A   1      45.515  25.530  35.527  1.00  0.00     0.091 A 
ATOM     89  F   UNL A   1      43.249  25.434  34.789  1.00  0.00    -0.205 F 
ATOM     90  C   UNL A   1      46.773  26.155  35.474  1.00  0.00     0.022 A 
BRANCH  88  91
ATOM     91  S   UNL A   1      45.345  24.113  36.618  1.00  0.00     0.127 S 
ATOM     92  O   UNL A   1      46.722  23.913  37.068  1.00  0.00    -0.237 OA
ATOM     93  O   UNL A   1      44.434  24.616  37.647  1.00  0.00    -0.237 OA
ATOM     94  O   UNL A   1      44.790  23.044  35.798  1.00  0.00    -0.744 OA
ENDBRANCH  88  91
ENDBRANCH  61  84
ENDBRANCH  35  36
ENDBRANCH  27  30
ENDBRANCH  25  26
ENDBRANCH  24  25
ENDBRANCH   1  24
TORSDOF 17
ENDMDL
MODEL 3
REMARK VINA RESULT:     -10.6      2.112      2.923
REMARK SMILES C[C@@H](CCC(=O)NCCCNC(=O)c1ccc(-c2c3nc(c(-c4cccc(S(=O)(=O)[O-])c4F)c4ccc([nH]4)c(-c4cccc(S(=O)(=O)[O-])c4F)c4nc(c(-c5cccc(S(=O)(=O)[O-])c5F)c5ccc2[nH]5)C=C4)C=C3)cc1)NC(=O)Nc1ccc(Cl)c(Br)c1
REMARK SMILES IDX 8 1 7 2 5 3 6 4 4 6 3 7 2 8 1 9 77 10 78 11 79 13 80 14
REMARK SMILES IDX 81 16 82 17 88 18 83 19 86 20 84 21 87 22 85 23 9 24 10 25
REMARK SMILES IDX 11 26 12 27 13 29 14 30 15 31 76 32 16 33 75 34 17 35 18 36
REMARK SMILES IDX 19 37 69 38 20 39 74 40 68 41 70 42 21 43 73 44 67 45 66 46
REMARK SMILES IDX 22 48 54 49 34 50 53 51 35 52 38 53 52 54 71 55 36 56 37 57
REMARK SMILES IDX 51 59 72 60 39 61 23 62 24 63 32 64 25 65 27 66 33 67 26 68
REMARK SMILES IDX 28 69 29 70 30 71 31 72 55 73 56 74 64 75 57 76 59 77 65 78
REMARK SMILES IDX 58 79 60 80 61 81 62 82 63 83 40 84 41 85 49 86 42 87 44 88
REMARK SMILES IDX 50 89 43 90 45 91 46 92 47 93 48 94
REMARK H PARENT 7 5 77 12 80 15 11 28 70 47 38 58
REMARK Flexibility Score: inf
ROOT
ATOM      1  C   UNL A   1      31.678  27.810  26.770  1.00  0.00     0.117 C 
ENDROOT
BRANCH   1   2
ATOM      2  N   UNL A   1      32.928  27.223  26.313  1.00  0.00    -0.356 N 
ATOM      3  C   UNL A   1      33.287  25.930  26.097  1.00  0.00     0.220 C 
ATOM      4  O   UNL A   1      34.402  25.708  25.620  1.00  0.00    -0.275 OA
ATOM      5  H   UNL A   1      33.640  27.878  26.128  1.00  0.00     0.163 HD
BRANCH   3   6
ATOM      6  C   UNL A   1      32.387  24.787  26.499  1.00  0.00     0.102 C 
BRANCH   6   7
ATOM      7  C   UNL A   1      33.130  23.446  26.505  1.00  0.00     0.034 C 
BRANCH   7   8
ATOM      8  C   UNL A   1      33.085  22.612  25.205  1.00  0.00     0.081 C 
ATOM      9  C   UNL A   1      32.685  21.158  25.469  1.00  0.00     0.031 C 
BRANCH   8  10
ATOM     10  N   UNL A   1      34.314  22.782  24.418  1.00  0.00    -0.335 N 
ATOM     11  C   UNL A   1      34.615  23.242  23.186  1.00  0.00     0.319 C 
ATOM     12  H   UNL A   1      35.113  22.488  24.910  1.00  0.00     0.165 HD
ATOM     13  O   UNL A   1      35.737  22.964  22.752  1.00  0.00    -0.248 OA
ATOM     14  N   UNL A   1      33.731  23.846  22.370  1.00  0.00    -0.308 N 
ATOM     15  H   UNL A   1      33.960  23.781  21.414  1.00  0.00     0.171 HD
BRANCH  14  16
ATOM     16  C   UNL A   1      32.550  24.547  22.624  1.00  0.00     0.044 A 
ATOM     17  C   UNL A   1      31.418  23.811  22.974  1.00  0.00     0.028 A 
ATOM     18  C   UNL A   1      32.472  25.935  22.549  1.00  0.00     0.043 A 
ATOM     19  C   UNL A   1      30.277  24.471  23.435  1.00  0.00     0.024 A 
ATOM     20  C   UNL A   1      31.340  26.601  23.026  1.00  0.00     0.038 A 
ATOM     21  C   UNL A   1      30.251  25.866  23.505  1.00  0.00     0.055 A 
ATOM     22  Br  UNL A   1      31.403  28.500  23.067  1.00  0.00    -0.049 Br
ATOM     23  Cl  UNL A   1      28.876  26.613  24.235  1.00  0.00    -0.083 Cl
ENDBRANCH  14  16
ENDBRANCH   8  10
ENDBRANCH   7   8
ENDBRANCH   6   7
ENDBRANCH   3   6
ENDBRANCH   1   2
BRANCH   1  24
ATOM     24  C   UNL A   1      31.787  29.289  27.139  1.00  0.00     0.042 C 
BRANCH  24  25
ATOM     25  C   UNL A   1      32.844  30.074  26.369  1.00  0.00     0.118 C 
BRANCH  25  26
ATOM     26  N   UNL A   1      32.807  31.481  26.724  1.00  0.00    -0.352 N 
ATOM     27  C   UNL A   1      33.603  32.173  27.604  1.00  0.00     0.251 C 
ATOM     28  H   UNL A   1      32.114  32.014  26.271  1.00  0.00     0.163 HD
ATOM     29  O   UNL A   1      33.224  33.274  27.998  1.00  0.00    -0.269 OA
BRANCH  27  30
ATOM     30  C   UNL A   1      34.903  31.628  28.078  1.00  0.00     0.039 A 
ATOM     31  C   UNL A   1      34.929  30.321  28.580  1.00  0.00     0.014 A 
ATOM     32  C   UNL A   1      36.061  32.412  28.147  1.00  0.00     0.014 A 
ATOM     33  C   UNL A   1      36.098  29.809  29.153  1.00  0.00     0.010 A 
ATOM     34  C   UNL A   1      37.243  31.881  28.674  1.00  0.00     0.010 A 
ATOM     35  C   UNL A   1      37.265  30.586  29.215  1.00  0.00    -0.014 A 
BRANCH  35  36
ATOM     36  C   UNL A   1      38.487  30.064  29.886  1.00  0.00     0.031 A 
ATOM     37  C   UNL A   1      38.865  30.539  31.266  1.00  0.00     0.074 A 
ATOM     38  C   UNL A   1      39.276  29.177  29.250  1.00  0.00     0.049 A 
ATOM     39  N   UNL A   1      39.867  30.163  32.021  1.00  0.00    -0.248 NA
ATOM     40  C   UNL A   1      38.019  31.580  31.872  1.00  0.00     0.031 C 
ATOM     41  C   UNL A   1      39.062  28.683  27.889  1.00  0.00     0.029 A 
ATOM     42  N   UNL A   1      40.425  28.545  29.657  1.00  0.00    -0.354 N 
ATOM     43  C   UNL A   1      39.787  30.935  33.175  1.00  0.00     0.074 A 
ATOM     44  C   UNL A   1      38.656  31.822  33.008  1.00  0.00     0.031 C 
ATOM     45  C   UNL A   1      40.047  27.826  27.575  1.00  0.00     0.029 A 
ATOM     46  C   UNL A   1      40.968  27.716  28.704  1.00  0.00     0.049 A 
ATOM     47  H   UNL A   1      40.823  28.673  30.548  1.00  0.00     0.167 HD
ATOM     48  C   UNL A   1      40.560  30.890  34.288  1.00  0.00     0.034 A 
ATOM     49  C   UNL A   1      42.078  26.950  28.735  1.00  0.00     0.034 A 
ATOM     50  C   UNL A   1      41.658  29.980  34.475  1.00  0.00     0.049 A 
ATOM     51  C   UNL A   1      42.896  26.886  29.996  1.00  0.00     0.074 A 
ATOM     52  C   UNL A   1      42.445  29.800  35.599  1.00  0.00     0.029 A 
ATOM     53  N   UNL A   1      42.131  29.099  33.514  1.00  0.00    -0.354 N 
ATOM     54  N   UNL A   1      42.698  27.495  31.140  1.00  0.00    -0.248 NA
ATOM     55  C   UNL A   1      44.066  25.994  29.988  1.00  0.00     0.031 C 
ATOM     56  C   UNL A   1      43.403  28.821  35.313  1.00  0.00     0.029 A 
ATOM     57  C   UNL A   1      43.202  28.380  34.015  1.00  0.00     0.049 A 
ATOM     58  H   UNL A   1      41.759  29.000  32.608  1.00  0.00     0.167 HD
ATOM     59  C   UNL A   1      43.694  27.036  31.995  1.00  0.00     0.074 A 
ATOM     60  C   UNL A   1      44.481  26.080  31.244  1.00  0.00     0.031 C 
ATOM     61  C   UNL A   1      43.945  27.388  33.280  1.00  0.00     0.034 A 
BRANCH  48  62
ATOM     62  C   UNL A   1      40.207  31.814  35.425  1.00  0.00     0.023 A 
ATOM     63  C   UNL A   1      40.932  33.014  35.588  1.00  0.00     0.012 A 
ATOM     64  C   UNL A   1      39.126  31.538  36.285  1.00  0.00     0.148 A 
ATOM     65  C   UNL A   1      40.605  33.908  36.607  1.00  0.00     0.002 A 
ATOM     66  C   UNL A   1      38.781  32.455  37.273  1.00  0.00     0.091 A 
ATOM     67  F   UNL A   1      38.462  30.384  36.127  1.00  0.00    -0.205 F 
ATOM     68  C   UNL A   1      39.525  33.634  37.441  1.00  0.00     0.022 A 
BRANCH  66  69
ATOM     69  S   UNL A   1      37.358  32.227  38.346  1.00  0.00     0.127 S 
ATOM     70  O   UNL A   1      37.866  32.742  39.620  1.00  0.00    -0.237 OA
ATOM     71  O   UNL A   1      36.350  33.077  37.707  1.00  0.00    -0.237 OA
ATOM     72  O   UNL A   1      37.058  30.807  38.318  1.00  0.00    -0.744 OA
ENDBRANCH  66  69
ENDBRANCH  48  62
BRANCH  49  73
ATOM     73  C   UNL A   1      42.432  26.117  27.551  1.00  0.00     0.023 A 
ATOM     74  C   UNL A   1      43.260  26.656  26.547  1.00  0.00     0.012 A 
ATOM     75  C   UNL A   1      41.988  24.786  27.433  1.00  0.00     0.148 A 
ATOM     76  C   UNL A   1      43.618  25.893  25.435  1.00  0.00     0.002 A 
ATOM     77  C   UNL A   1      42.398  24.013  26.352  1.00  0.00     0.091 A 
ATOM     78  F   UNL A   1      41.185  24.295  28.388  1.00  0.00    -0.205 F 
ATOM     79  C   UNL A   1      43.197  24.570  25.343  1.00  0.00     0.022 A 
BRANCH  77  80
ATOM     80  S   UNL A   1      42.026  22.259  26.243  1.00  0.00     0.127 S 
ATOM     81  O   UNL A   1      42.568  21.757  27.501  1.00  0.00    -0.237 OA
ATOM     82  O   UNL A   1      40.565  22.261  26.156  1.00  0.00    -0.237 OA
ATOM     83  O   UNL A   1      42.689  21.798  25.029  1.00  0.00    -0.744 OA
ENDBRANCH  77  80
ENDBRANCH  49  73
BRANCH  61  84
ATOM     84  C   UNL A   1      45.103  26.722  33.977  1.00  0.00     0.023 A 
ATOM     85  C   UNL A   1      46.386  27.301  33.904  1.00  0.00     0.012 A 
ATOM     86  C   UNL A   1      44.910  25.569  34.761  1.00  0.00     0.148 A 
ATOM     87  C   UNL A   1      47.464  26.723  34.574  1.00  0.00     0.002 A 
ATOM     88  C   UNL A   1      45.980  25.023  35.463  1.00  0.00     0.091 A 
ATOM     89  F   UNL A   1      43.687  25.018  34.802  1.00  0.00    -0.205 F 
ATOM     90  C   UNL A   1      47.260  25.594  35.362  1.00  0.00     0.022 A 
BRANCH  88  91
ATOM     91  S   UNL A   1      45.786  23.623  36.571  1.00  0.00     0.127 S 
ATOM     92  O   UNL A   1      44.898  24.172  37.595  1.00  0.00    -0.237 OA
ATOM     93  O   UNL A   1      45.169  22.619  35.704  1.00  0.00    -0.237 OA
ATOM     94  O   UNL A   1      47.130  23.283  37.020  1.00  0.00    -0.744 OA
ENDBRANCH  88  91
ENDBRANCH  61  84
ENDBRANCH  35  36
ENDBRANCH  27  30
ENDBRANCH  25  26
ENDBRANCH  24  25
ENDBRANCH   1  24
TORSDOF 17
ENDMDL
