MODEL 1
REMARK VINA RESULT:     -13.4      0.000      0.000
REMARK SMILES Cc1cc(C(=O)NCCCNC(=O)c2ccc(-c3c4nc(c(-c5cccc(S(=O)(=O)[O-])c5F)c5ccc([nH]5)c(-c5cccc(S(=O)(=O)[O-])c5F)c5nc(c(-c6cccc(S(=O)(=O)[O-])c6F)c6ccc3[nH]6)C=C5)C=C4)cc2)ccc1NS(=O)(=O)c1c(F)cccc1F
REMARK SMILES IDX 9 1 8 2 7 3 5 4 6 5 4 7 1 8 2 9 3 10 79 11 78 12 77 13 80 14
REMARK SMILES IDX 81 16 82 17 83 18 84 19 85 20 90 21 86 22 87 23 89 24 91 25
REMARK SMILES IDX 88 26 10 27 11 28 12 29 13 31 14 32 15 33 76 34 16 35 75 36
REMARK SMILES IDX 17 37 18 38 19 39 69 40 20 41 74 42 68 43 70 44 21 45 73 46
REMARK SMILES IDX 67 47 66 48 22 50 54 51 34 52 53 53 35 54 38 55 52 56 71 57
REMARK SMILES IDX 36 58 37 59 51 61 72 62 39 63 23 64 24 65 32 66 25 67 27 68
REMARK SMILES IDX 33 69 26 70 28 71 29 72 30 73 31 74 55 75 56 76 64 77 57 78
REMARK SMILES IDX 59 79 65 80 58 81 60 82 61 83 62 84 63 85 40 86 41 87 49 88
REMARK SMILES IDX 42 89 44 90 50 91 43 92 45 93 46 94 47 95 48 96
REMARK H PARENT 7 6 80 15 11 30 70 49 38 60
REMARK Flexibility Score: inf
ROOT
ATOM      1  C   UNL A   1      33.356  31.419  27.225  1.00  0.00     0.042 C 
ENDROOT
BRANCH   1   2
ATOM      2  C   UNL A   1      32.598  30.314  26.487  1.00  0.00     0.118 C 
BRANCH   2   3
ATOM      3  N   UNL A   1      33.291  29.806  25.312  1.00  0.00    -0.352 N 
ATOM      4  C   UNL A   1      33.138  28.707  24.503  1.00  0.00     0.251 C 
ATOM      5  O   UNL A   1      33.896  28.612  23.536  1.00  0.00    -0.269 OA
ATOM      6  H   UNL A   1      34.039  30.381  25.034  1.00  0.00     0.163 HD
BRANCH   4   7
ATOM      7  C   UNL A   1      32.179  27.588  24.751  1.00  0.00     0.040 A 
ATOM      8  C   UNL A   1      31.091  24.557  22.714  1.00  0.00     0.046 C 
ATOM      9  C   UNL A   1      31.298  25.452  23.906  1.00  0.00    -0.026 A 
ATOM     10  C   UNL A   1      32.033  26.639  23.724  1.00  0.00     0.019 A 
ATOM     11  C   UNL A   1      30.765  25.182  25.172  1.00  0.00     0.052 A 
ATOM     12  C   UNL A   1      30.678  26.228  26.089  1.00  0.00     0.028 A 
ATOM     13  C   UNL A   1      31.404  27.412  25.893  1.00  0.00     0.016 A 
BRANCH  11  14
ATOM     14  N   UNL A   1      30.522  23.819  25.517  1.00  0.00    -0.279 N 
ATOM     15  H   UNL A   1      29.598  23.499  25.394  1.00  0.00     0.180 HD
BRANCH  14  16
ATOM     16  S   UNL A   1      31.612  22.698  26.107  1.00  0.00     0.267 S 
ATOM     17  O   UNL A   1      31.758  22.987  27.518  1.00  0.00    -0.201 OA
ATOM     18  O   UNL A   1      31.122  21.409  25.657  1.00  0.00    -0.201 OA
BRANCH  16  19
ATOM     19  C   UNL A   1      33.173  22.930  25.345  1.00  0.00     0.158 A 
ATOM     20  C   UNL A   1      33.933  24.022  25.750  1.00  0.00     0.146 A 
ATOM     21  C   UNL A   1      33.606  22.169  24.268  1.00  0.00     0.146 A 
ATOM     22  F   UNL A   1      33.609  24.729  26.841  1.00  0.00    -0.205 F 
ATOM     23  C   UNL A   1      35.060  24.416  25.030  1.00  0.00     0.041 A 
ATOM     24  C   UNL A   1      34.721  22.567  23.525  1.00  0.00     0.041 A 
ATOM     25  F   UNL A   1      32.948  21.070  23.879  1.00  0.00    -0.205 F 
ATOM     26  C   UNL A   1      35.438  23.706  23.892  1.00  0.00     0.006 A 
ENDBRANCH  16  19
ENDBRANCH  14  16
ENDBRANCH  11  14
ENDBRANCH   4   7
ENDBRANCH   2   3
ENDBRANCH   1   2
BRANCH   1  27
ATOM     27  C   UNL A   1      34.479  30.873  28.108  1.00  0.00     0.118 C 
BRANCH  27  28
ATOM     28  N   UNL A   1      35.559  31.830  28.361  1.00  0.00    -0.352 N 
ATOM     29  C   UNL A   1      36.903  31.571  28.595  1.00  0.00     0.251 C 
ATOM     30  H   UNL A   1      35.298  32.780  28.367  1.00  0.00     0.163 HD
ATOM     31  O   UNL A   1      37.662  32.487  28.898  1.00  0.00    -0.269 OA
BRANCH  29  32
ATOM     32  C   UNL A   1      37.399  30.199  28.352  1.00  0.00     0.039 A 
ATOM     33  C   UNL A   1      37.417  29.325  29.443  1.00  0.00     0.014 A 
ATOM     34  C   UNL A   1      38.170  29.951  27.219  1.00  0.00     0.014 A 
ATOM     35  C   UNL A   1      38.430  28.377  29.528  1.00  0.00     0.010 A 
ATOM     36  C   UNL A   1      39.225  29.070  27.338  1.00  0.00     0.010 A 
ATOM     37  C   UNL A   1      39.402  28.358  28.531  1.00  0.00    -0.014 A 
BRANCH  37  38
ATOM     38  C   UNL A   1      40.659  27.638  28.650  1.00  0.00     0.031 A 
ATOM     39  C   UNL A   1      40.665  26.178  28.499  1.00  0.00     0.074 A 
ATOM     40  C   UNL A   1      41.818  28.308  28.824  1.00  0.00     0.049 A 
ATOM     41  N   UNL A   1      41.617  25.412  28.904  1.00  0.00    -0.248 NA
ATOM     42  C   UNL A   1      39.537  25.464  27.921  1.00  0.00     0.031 C 
ATOM     43  C   UNL A   1      43.173  27.802  28.636  1.00  0.00     0.029 A 
ATOM     44  N   UNL A   1      41.999  29.539  29.458  1.00  0.00    -0.354 N 
ATOM     45  C   UNL A   1      41.377  24.160  28.388  1.00  0.00     0.074 A 
ATOM     46  C   UNL A   1      40.021  24.222  27.895  1.00  0.00     0.031 C 
ATOM     47  C   UNL A   1      44.016  28.542  29.370  1.00  0.00     0.029 A 
ATOM     48  C   UNL A   1      43.207  29.433  30.180  1.00  0.00     0.049 A 
ATOM     49  H   UNL A   1      41.405  30.323  29.412  1.00  0.00     0.167 HD
ATOM     50  C   UNL A   1      42.417  23.284  28.296  1.00  0.00     0.034 A 
ATOM     51  C   UNL A   1      43.299  29.588  31.535  1.00  0.00     0.034 A 
ATOM     52  C   UNL A   1      43.611  23.806  28.991  1.00  0.00     0.049 A 
ATOM     53  C   UNL A   1      43.894  28.379  32.246  1.00  0.00     0.074 A 
ATOM     54  C   UNL A   1      44.790  24.409  28.576  1.00  0.00     0.029 A 
ATOM     55  N   UNL A   1      43.559  23.988  30.367  1.00  0.00    -0.354 N 
ATOM     56  N   UNL A   1      44.318  27.293  31.659  1.00  0.00    -0.248 NA
ATOM     57  C   UNL A   1      43.925  28.263  33.704  1.00  0.00     0.031 C 
ATOM     58  C   UNL A   1      45.431  24.974  29.718  1.00  0.00     0.029 A 
ATOM     59  C   UNL A   1      44.659  24.696  30.832  1.00  0.00     0.049 A 
ATOM     60  H   UNL A   1      42.832  23.658  30.942  1.00  0.00     0.167 HD
ATOM     61  C   UNL A   1      44.496  26.301  32.597  1.00  0.00     0.074 A 
ATOM     62  C   UNL A   1      44.248  26.971  33.864  1.00  0.00     0.031 C 
ATOM     63  C   UNL A   1      44.749  24.993  32.259  1.00  0.00     0.034 A 
BRANCH  50  64
ATOM     64  C   UNL A   1      42.465  22.102  27.332  1.00  0.00     0.023 A 
ATOM     65  C   UNL A   1      41.496  21.089  27.504  1.00  0.00     0.012 A 
ATOM     66  C   UNL A   1      43.435  21.850  26.333  1.00  0.00     0.148 A 
ATOM     67  C   UNL A   1      41.549  19.866  26.820  1.00  0.00     0.002 A 
ATOM     68  C   UNL A   1      43.534  20.607  25.698  1.00  0.00     0.091 A 
ATOM     69  F   UNL A   1      44.226  22.832  25.905  1.00  0.00    -0.205 F 
ATOM     70  C   UNL A   1      42.593  19.609  25.945  1.00  0.00     0.022 A 
BRANCH  68  71
ATOM     71  S   UNL A   1      44.903  20.190  24.600  1.00  0.00     0.127 S 
ATOM     72  O   UNL A   1      44.667  18.768  24.344  1.00  0.00    -0.237 OA
ATOM     73  O   UNL A   1      44.662  21.061  23.451  1.00  0.00    -0.237 OA
ATOM     74  O   UNL A   1      46.125  20.464  25.345  1.00  0.00    -0.744 OA
ENDBRANCH  68  71
ENDBRANCH  50  64
BRANCH  51  75
ATOM     75  C   UNL A   1      42.216  30.458  32.098  1.00  0.00     0.023 A 
ATOM     76  C   UNL A   1      42.143  31.791  31.623  1.00  0.00     0.012 A 
ATOM     77  C   UNL A   1      41.081  29.895  32.702  1.00  0.00     0.148 A 
ATOM     78  C   UNL A   1      40.920  32.460  31.569  1.00  0.00     0.002 A 
ATOM     79  C   UNL A   1      39.871  30.581  32.667  1.00  0.00     0.091 A 
ATOM     80  F   UNL A   1      41.159  28.669  33.230  1.00  0.00    -0.205 F 
ATOM     81  C   UNL A   1      39.773  31.835  32.049  1.00  0.00     0.022 A 
BRANCH  79  82
ATOM     82  S   UNL A   1      38.388  29.801  33.312  1.00  0.00     0.127 S 
ATOM     83  O   UNL A   1      38.530  30.042  34.743  1.00  0.00    -0.237 OA
ATOM     84  O   UNL A   1      37.320  30.560  32.662  1.00  0.00    -0.237 OA
ATOM     85  O   UNL A   1      38.493  28.420  32.864  1.00  0.00    -0.744 OA
ENDBRANCH  79  82
ENDBRANCH  51  75
BRANCH  63  86
ATOM     86  C   UNL A   1      45.023  23.856  33.248  1.00  0.00     0.023 A 
ATOM     87  C   UNL A   1      44.005  23.000  33.712  1.00  0.00     0.012 A 
ATOM     88  C   UNL A   1      46.308  23.650  33.824  1.00  0.00     0.148 A 
ATOM     89  C   UNL A   1      44.262  21.913  34.556  1.00  0.00     0.002 A 
ATOM     90  C   UNL A   1      46.560  22.587  34.689  1.00  0.00     0.091 A 
ATOM     91  F   UNL A   1      47.294  24.522  33.587  1.00  0.00    -0.205 F 
ATOM     92  C   UNL A   1      45.545  21.693  35.030  1.00  0.00     0.022 A 
BRANCH  90  93
ATOM     93  S   UNL A   1      48.170  22.317  35.447  1.00  0.00     0.127 S 
ATOM     94  O   UNL A   1      48.105  23.215  36.599  1.00  0.00    -0.237 OA
ATOM     95  O   UNL A   1      48.112  20.894  35.781  1.00  0.00    -0.237 OA
ATOM     96  O   UNL A   1      49.160  22.665  34.439  1.00  0.00    -0.744 OA
ENDBRANCH  90  93
ENDBRANCH  63  86
ENDBRANCH  37  38
ENDBRANCH  29  32
ENDBRANCH  27  28
ENDBRANCH   1  27
TORSDOF 16
ENDMDL
MODEL 2
REMARK VINA RESULT:     -13.3      4.378     10.604
REMARK SMILES Cc1cc(C(=O)NCCCNC(=O)c2ccc(-c3c4nc(c(-c5cccc(S(=O)(=O)[O-])c5F)c5ccc([nH]5)c(-c5cccc(S(=O)(=O)[O-])c5F)c5nc(c(-c6cccc(S(=O)(=O)[O-])c6F)c6ccc3[nH]6)C=C5)C=C4)cc2)ccc1NS(=O)(=O)c1c(F)cccc1F
REMARK SMILES IDX 9 1 8 2 7 3 5 4 6 5 4 7 1 8 2 9 3 10 79 11 78 12 77 13 80 14
REMARK SMILES IDX 81 16 82 17 83 18 84 19 85 20 90 21 86 22 87 23 89 24 91 25
REMARK SMILES IDX 88 26 10 27 11 28 12 29 13 31 14 32 15 33 76 34 16 35 75 36
REMARK SMILES IDX 17 37 18 38 19 39 69 40 20 41 74 42 68 43 70 44 21 45 73 46
REMARK SMILES IDX 67 47 66 48 22 50 54 51 34 52 53 53 35 54 38 55 52 56 71 57
REMARK SMILES IDX 36 58 37 59 51 61 72 62 39 63 23 64 24 65 32 66 25 67 27 68
REMARK SMILES IDX 33 69 26 70 28 71 29 72 30 73 31 74 55 75 56 76 64 77 57 78
REMARK SMILES IDX 59 79 65 80 58 81 60 82 61 83 62 84 63 85 40 86 41 87 49 88
REMARK SMILES IDX 42 89 44 90 50 91 43 92 45 93 46 94 47 95 48 96
REMARK H PARENT 7 6 80 15 11 30 70 49 38 60
REMARK Flexibility Score: inf
ROOT
ATOM      1  C   UNL A   1      38.485  21.352  25.668  1.00  0.00     0.042 C 
ENDROOT
BRANCH   1   2
ATOM      2  C   UNL A   1      37.380  21.369  24.610  1.00  0.00     0.118 C 
BRANCH   2   3
ATOM      3  N   UNL A   1      36.182  20.639  24.997  1.00  0.00    -0.352 N 
ATOM      4  C   UNL A   1      34.842  20.939  25.041  1.00  0.00     0.251 C 
ATOM      5  O   UNL A   1      34.076  20.037  25.384  1.00  0.00    -0.269 OA
ATOM      6  H   UNL A   1      36.375  19.721  25.294  1.00  0.00     0.163 HD
BRANCH   4   7
ATOM      7  C   UNL A   1      34.259  22.290  24.781  1.00  0.00     0.040 A 
ATOM      8  C   UNL A   1      32.898  24.013  21.666  1.00  0.00     0.046 C 
ATOM      9  C   UNL A   1      33.156  23.734  23.123  1.00  0.00    -0.026 A 
ATOM     10  C   UNL A   1      33.874  22.571  23.458  1.00  0.00     0.019 A 
ATOM     11  C   UNL A   1      32.752  24.592  24.153  1.00  0.00     0.052 A 
ATOM     12  C   UNL A   1      33.357  24.458  25.400  1.00  0.00     0.028 A 
ATOM     13  C   UNL A   1      34.081  23.300  25.721  1.00  0.00     0.016 A 
BRANCH  11  14
ATOM     14  N   UNL A   1      31.613  25.421  23.923  1.00  0.00    -0.279 N 
ATOM     15  H   UNL A   1      30.738  24.970  23.945  1.00  0.00     0.180 HD
BRANCH  14  16
ATOM     16  S   UNL A   1      31.583  27.064  23.617  1.00  0.00     0.267 S 
ATOM     17  O   UNL A   1      32.536  27.289  22.551  1.00  0.00    -0.201 OA
ATOM     18  O   UNL A   1      30.182  27.400  23.448  1.00  0.00    -0.201 OA
BRANCH  16  19
ATOM     19  C   UNL A   1      32.138  27.941  25.030  1.00  0.00     0.158 A 
ATOM     20  C   UNL A   1      31.531  27.654  26.248  1.00  0.00     0.146 A 
ATOM     21  C   UNL A   1      33.037  28.995  24.956  1.00  0.00     0.146 A 
ATOM     22  F   UNL A   1      30.732  26.588  26.393  1.00  0.00    -0.205 F 
ATOM     23  C   UNL A   1      31.736  28.469  27.360  1.00  0.00     0.041 A 
ATOM     24  C   UNL A   1      33.233  29.833  26.057  1.00  0.00     0.041 A 
ATOM     25  F   UNL A   1      33.699  29.273  23.826  1.00  0.00    -0.205 F 
ATOM     26  C   UNL A   1      32.565  29.584  27.256  1.00  0.00     0.006 A 
ENDBRANCH  16  19
ENDBRANCH  14  16
ENDBRANCH  11  14
ENDBRANCH   4   7
ENDBRANCH   2   3
ENDBRANCH   1   2
BRANCH   1  27
ATOM     27  C   UNL A   1      38.737  22.730  26.279  1.00  0.00     0.118 C 
BRANCH  27  28
ATOM     28  N   UNL A   1      39.952  22.811  27.094  1.00  0.00    -0.352 N 
ATOM     29  C   UNL A   1      40.515  23.929  27.694  1.00  0.00     0.251 C 
ATOM     30  H   UNL A   1      40.430  21.962  27.234  1.00  0.00     0.163 HD
ATOM     31  O   UNL A   1      41.602  23.843  28.258  1.00  0.00    -0.269 OA
BRANCH  29  32
ATOM     32  C   UNL A   1      39.717  25.174  27.730  1.00  0.00     0.039 A 
ATOM     33  C   UNL A   1      40.100  26.203  26.865  1.00  0.00     0.014 A 
ATOM     34  C   UNL A   1      38.917  25.429  28.841  1.00  0.00     0.014 A 
ATOM     35  C   UNL A   1      39.942  27.521  27.276  1.00  0.00     0.010 A 
ATOM     36  C   UNL A   1      38.834  26.731  29.290  1.00  0.00     0.010 A 
ATOM     37  C   UNL A   1      39.432  27.759  28.550  1.00  0.00    -0.014 A 
BRANCH  37  38
ATOM     38  C   UNL A   1      39.496  29.051  29.211  1.00  0.00     0.031 A 
ATOM     39  C   UNL A   1      38.556  30.106  28.814  1.00  0.00     0.074 A 
ATOM     40  C   UNL A   1      40.359  29.258  30.229  1.00  0.00     0.049 A 
ATOM     41  N   UNL A   1      38.722  31.357  29.070  1.00  0.00    -0.248 NA
ATOM     42  C   UNL A   1      37.369  29.816  28.027  1.00  0.00     0.031 C 
ATOM     43  C   UNL A   1      40.338  30.341  31.204  1.00  0.00     0.029 A 
ATOM     44  N   UNL A   1      41.597  28.642  30.430  1.00  0.00    -0.354 N 
ATOM     45  C   UNL A   1      37.545  31.995  28.752  1.00  0.00     0.074 A 
ATOM     46  C   UNL A   1      36.792  31.018  28.001  1.00  0.00     0.031 C 
ATOM     47  C   UNL A   1      41.575  30.503  31.696  1.00  0.00     0.029 A 
ATOM     48  C   UNL A   1      42.456  29.645  30.927  1.00  0.00     0.049 A 
ATOM     49  H   UNL A   1      41.825  27.700  30.259  1.00  0.00     0.167 HD
ATOM     50  C   UNL A   1      37.295  33.212  29.311  1.00  0.00     0.034 A 
ATOM     51  C   UNL A   1      43.611  30.032  30.307  1.00  0.00     0.034 A 
ATOM     52  C   UNL A   1      38.483  33.724  30.020  1.00  0.00     0.049 A 
ATOM     53  C   UNL A   1      43.653  31.519  29.974  1.00  0.00     0.074 A 
ATOM     54  C   UNL A   1      38.863  33.796  31.353  1.00  0.00     0.029 A 
ATOM     55  N   UNL A   1      39.627  34.017  29.288  1.00  0.00    -0.354 N 
ATOM     56  N   UNL A   1      42.717  32.381  30.260  1.00  0.00    -0.248 NA
ATOM     57  C   UNL A   1      44.715  32.110  29.161  1.00  0.00     0.031 C 
ATOM     58  C   UNL A   1      40.253  34.112  31.408  1.00  0.00     0.029 A 
ATOM     59  C   UNL A   1      40.716  34.258  30.113  1.00  0.00     0.049 A 
ATOM     60  H   UNL A   1      39.661  34.048  28.305  1.00  0.00     0.167 HD
ATOM     61  C   UNL A   1      42.929  33.545  29.554  1.00  0.00     0.074 A 
ATOM     62  C   UNL A   1      44.205  33.321  28.893  1.00  0.00     0.031 C 
ATOM     63  C   UNL A   1      42.007  34.562  29.499  1.00  0.00     0.034 A 
BRANCH  50  64
ATOM     64  C   UNL A   1      35.901  33.810  29.482  1.00  0.00     0.023 A 
ATOM     65  C   UNL A   1      35.188  34.136  28.307  1.00  0.00     0.012 A 
ATOM     66  C   UNL A   1      35.266  34.169  30.695  1.00  0.00     0.148 A 
ATOM     67  C   UNL A   1      33.992  34.866  28.325  1.00  0.00     0.002 A 
ATOM     68  C   UNL A   1      34.110  34.956  30.718  1.00  0.00     0.091 A 
ATOM     69  F   UNL A   1      35.709  33.681  31.853  1.00  0.00    -0.205 F 
ATOM     70  C   UNL A   1      33.472  35.312  29.531  1.00  0.00     0.022 A 
BRANCH  68  71
ATOM     71  S   UNL A   1      33.422  35.618  32.248  1.00  0.00     0.127 S 
ATOM     72  O   UNL A   1      32.883  34.416  32.888  1.00  0.00    -0.237 OA
ATOM     73  O   UNL A   1      34.600  36.180  32.906  1.00  0.00    -0.237 OA
ATOM     74  O   UNL A   1      32.405  36.587  31.855  1.00  0.00    -0.744 OA
ENDBRANCH  68  71
ENDBRANCH  50  64
BRANCH  51  75
ATOM     75  C   UNL A   1      44.207  28.953  29.456  1.00  0.00     0.023 A 
ATOM     76  C   UNL A   1      44.602  27.758  30.108  1.00  0.00     0.012 A 
ATOM     77  C   UNL A   1      43.986  28.923  28.070  1.00  0.00     0.148 A 
ATOM     78  C   UNL A   1      44.574  26.537  29.431  1.00  0.00     0.002 A 
ATOM     79  C   UNL A   1      43.986  27.704  27.400  1.00  0.00     0.091 A 
ATOM     80  F   UNL A   1      43.695  30.059  27.428  1.00  0.00    -0.205 F 
ATOM     81  C   UNL A   1      44.219  26.505  28.086  1.00  0.00     0.022 A 
BRANCH  79  82
ATOM     82  S   UNL A   1      43.562  27.649  25.656  1.00  0.00     0.127 S 
ATOM     83  O   UNL A   1      44.831  28.011  25.035  1.00  0.00    -0.237 OA
ATOM     84  O   UNL A   1      43.158  26.256  25.469  1.00  0.00    -0.237 OA
ATOM     85  O   UNL A   1      42.471  28.606  25.528  1.00  0.00    -0.744 OA
ENDBRANCH  79  82
ENDBRANCH  51  75
BRANCH  63  86
ATOM     86  C   UNL A   1      42.205  35.904  28.791  1.00  0.00     0.023 A 
ATOM     87  C   UNL A   1      41.792  36.124  27.463  1.00  0.00     0.012 A 
ATOM     88  C   UNL A   1      42.898  36.987  29.405  1.00  0.00     0.148 A 
ATOM     89  C   UNL A   1      41.902  37.371  26.836  1.00  0.00     0.002 A 
ATOM     90  C   UNL A   1      43.036  38.220  28.771  1.00  0.00     0.091 A 
ATOM     91  F   UNL A   1      43.487  36.815  30.593  1.00  0.00    -0.205 F 
ATOM     92  C   UNL A   1      42.507  38.427  27.498  1.00  0.00     0.022 A 
BRANCH  90  93
ATOM     93  S   UNL A   1      43.925  39.596  29.516  1.00  0.00     0.127 S 
ATOM     94  O   UNL A   1      45.278  39.050  29.618  1.00  0.00    -0.237 OA
ATOM     95  O   UNL A   1      43.766  40.642  28.505  1.00  0.00    -0.237 OA
ATOM     96  O   UNL A   1      43.265  39.872  30.784  1.00  0.00    -0.744 OA
ENDBRANCH  90  93
ENDBRANCH  63  86
ENDBRANCH  37  38
ENDBRANCH  29  32
ENDBRANCH  27  28
ENDBRANCH   1  27
TORSDOF 16
ENDMDL
MODEL 3
REMARK VINA RESULT:     -13.3      1.649      2.372
REMARK SMILES Cc1cc(C(=O)NCCCNC(=O)c2ccc(-c3c4nc(c(-c5cccc(S(=O)(=O)[O-])c5F)c5ccc([nH]5)c(-c5cccc(S(=O)(=O)[O-])c5F)c5nc(c(-c6cccc(S(=O)(=O)[O-])c6F)c6ccc3[nH]6)C=C5)C=C4)cc2)ccc1NS(=O)(=O)c1c(F)cccc1F
REMARK SMILES IDX 9 1 8 2 7 3 5 4 6 5 4 7 1 8 2 9 3 10 79 11 78 12 77 13 80 14
REMARK SMILES IDX 81 16 82 17 83 18 84 19 85 20 90 21 86 22 87 23 89 24 91 25
REMARK SMILES IDX 88 26 10 27 11 28 12 29 13 31 14 32 15 33 76 34 16 35 75 36
REMARK SMILES IDX 17 37 18 38 19 39 69 40 20 41 74 42 68 43 70 44 21 45 73 46
REMARK SMILES IDX 67 47 66 48 22 50 54 51 34 52 53 53 35 54 38 55 52 56 71 57
REMARK SMILES IDX 36 58 37 59 51 61 72 62 39 63 23 64 24 65 32 66 25 67 27 68
REMARK SMILES IDX 33 69 26 70 28 71 29 72 30 73 31 74 55 75 56 76 64 77 57 78
REMARK SMILES IDX 59 79 65 80 58 81 60 82 61 83 62 84 63 85 40 86 41 87 49 88
REMARK SMILES IDX 42 89 44 90 50 91 43 92 45 93 46 94 47 95 48 96
REMARK H PARENT 7 6 80 15 11 30 70 49 38 60
REMARK Flexibility Score: inf
ROOT
ATOM      1  C   UNL A   1      34.033  30.082  26.577  1.00  0.00     0.042 C 
ENDROOT
BRANCH   1   2
ATOM      2  C   UNL A   1      34.105  28.555  26.525  1.00  0.00     0.118 C 
BRANCH   2   3
ATOM      3  N   UNL A   1      32.836  27.895  26.794  1.00  0.00    -0.352 N 
ATOM      4  C   UNL A   1      32.308  26.664  26.492  1.00  0.00     0.251 C 
ATOM      5  O   UNL A   1      31.185  26.411  26.935  1.00  0.00    -0.269 OA
ATOM      6  H   UNL A   1      32.216  28.458  27.309  1.00  0.00     0.163 HD
BRANCH   4   7
ATOM      7  C   UNL A   1      32.955  25.646  25.610  1.00  0.00     0.040 A 
ATOM      8  C   UNL A   1      36.431  24.089  25.503  1.00  0.00     0.046 C 
ATOM      9  C   UNL A   1      34.961  24.271  25.239  1.00  0.00    -0.026 A 
ATOM     10  C   UNL A   1      34.298  25.333  25.883  1.00  0.00     0.019 A 
ATOM     11  C   UNL A   1      34.231  23.463  24.359  1.00  0.00     0.052 A 
ATOM     12  C   UNL A   1      33.006  23.932  23.891  1.00  0.00     0.028 A 
ATOM     13  C   UNL A   1      32.359  24.999  24.532  1.00  0.00     0.016 A 
BRANCH  11  14
ATOM     14  N   UNL A   1      34.690  22.128  24.143  1.00  0.00    -0.279 N 
ATOM     15  H   UNL A   1      35.004  21.920  23.233  1.00  0.00     0.180 HD
BRANCH  14  16
ATOM     16  S   UNL A   1      34.757  20.874  25.245  1.00  0.00     0.267 S 
ATOM     17  O   UNL A   1      36.156  20.718  25.587  1.00  0.00    -0.201 OA
ATOM     18  O   UNL A   1      33.774  21.197  26.260  1.00  0.00    -0.201 OA
BRANCH  16  19
ATOM     19  C   UNL A   1      34.220  19.388  24.486  1.00  0.00     0.158 A 
ATOM     20  C   UNL A   1      32.907  19.334  24.030  1.00  0.00     0.146 A 
ATOM     21  C   UNL A   1      34.992  18.235  24.458  1.00  0.00     0.146 A 
ATOM     22  F   UNL A   1      32.154  20.439  23.946  1.00  0.00    -0.205 F 
ATOM     23  C   UNL A   1      32.333  18.124  23.644  1.00  0.00     0.041 A 
ATOM     24  C   UNL A   1      34.421  17.012  24.095  1.00  0.00     0.041 A 
ATOM     25  F   UNL A   1      36.280  18.246  24.823  1.00  0.00    -0.205 F 
ATOM     26  C   UNL A   1      33.081  16.951  23.708  1.00  0.00     0.006 A 
ENDBRANCH  16  19
ENDBRANCH  14  16
ENDBRANCH  11  14
ENDBRANCH   4   7
ENDBRANCH   2   3
ENDBRANCH   1   2
BRANCH   1  27
ATOM     27  C   UNL A   1      34.207  30.631  27.993  1.00  0.00     0.118 C 
BRANCH  27  28
ATOM     28  N   UNL A   1      35.271  31.631  28.121  1.00  0.00    -0.352 N 
ATOM     29  C   UNL A   1      36.627  31.425  28.329  1.00  0.00     0.251 C 
ATOM     30  H   UNL A   1      34.986  32.571  28.049  1.00  0.00     0.163 HD
ATOM     31  O   UNL A   1      37.373  32.381  28.521  1.00  0.00    -0.269 OA
BRANCH  29  32
ATOM     32  C   UNL A   1      37.149  30.047  28.196  1.00  0.00     0.039 A 
ATOM     33  C   UNL A   1      37.242  29.284  29.363  1.00  0.00     0.014 A 
ATOM     34  C   UNL A   1      37.874  29.709  27.056  1.00  0.00     0.014 A 
ATOM     35  C   UNL A   1      38.284  28.373  29.489  1.00  0.00     0.010 A 
ATOM     36  C   UNL A   1      38.957  28.868  27.207  1.00  0.00     0.010 A 
ATOM     37  C   UNL A   1      39.209  28.279  28.452  1.00  0.00    -0.014 A 
BRANCH  37  38
ATOM     38  C   UNL A   1      40.489  27.604  28.579  1.00  0.00     0.031 A 
ATOM     39  C   UNL A   1      40.545  26.143  28.441  1.00  0.00     0.074 A 
ATOM     40  C   UNL A   1      41.625  28.314  28.747  1.00  0.00     0.049 A 
ATOM     41  N   UNL A   1      41.523  25.414  28.854  1.00  0.00    -0.248 NA
ATOM     42  C   UNL A   1      39.443  25.386  27.871  1.00  0.00     0.031 C 
ATOM     43  C   UNL A   1      42.996  27.853  28.563  1.00  0.00     0.029 A 
ATOM     44  N   UNL A   1      41.764  29.557  29.369  1.00  0.00    -0.354 N 
ATOM     45  C   UNL A   1      41.325  24.149  28.349  1.00  0.00     0.074 A 
ATOM     46  C   UNL A   1      39.968  24.161  27.856  1.00  0.00     0.031 C 
ATOM     47  C   UNL A   1      43.813  28.628  29.290  1.00  0.00     0.029 A 
ATOM     48  C   UNL A   1      42.974  29.499  30.092  1.00  0.00     0.049 A 
ATOM     49  H   UNL A   1      41.143  30.319  29.315  1.00  0.00     0.167 HD
ATOM     50  C   UNL A   1      42.395  23.309  28.266  1.00  0.00     0.034 A 
ATOM     51  C   UNL A   1      43.060  29.670  31.446  1.00  0.00     0.034 A 
ATOM     52  C   UNL A   1      43.570  23.877  28.956  1.00  0.00     0.049 A 
ATOM     53  C   UNL A   1      43.696  28.488  32.168  1.00  0.00     0.074 A 
ATOM     54  C   UNL A   1      44.728  24.516  28.536  1.00  0.00     0.029 A 
ATOM     55  N   UNL A   1      43.511  24.071  30.331  1.00  0.00    -0.354 N 
ATOM     56  N   UNL A   1      44.156  27.412  31.592  1.00  0.00    -0.248 NA
ATOM     57  C   UNL A   1      43.730  28.388  33.626  1.00  0.00     0.031 C 
ATOM     58  C   UNL A   1      45.349  25.114  29.673  1.00  0.00     0.029 A 
ATOM     59  C   UNL A   1      44.586  24.821  30.789  1.00  0.00     0.049 A 
ATOM     60  H   UNL A   1      42.795  23.722  30.908  1.00  0.00     0.167 HD
ATOM     61  C   UNL A   1      44.368  26.435  32.539  1.00  0.00     0.074 A 
ATOM     62  C   UNL A   1      44.097  27.109  33.799  1.00  0.00     0.031 C 
ATOM     63  C   UNL A   1      44.665  25.134  32.213  1.00  0.00     0.034 A 
BRANCH  50  64
ATOM     64  C   UNL A   1      42.483  22.120  27.314  1.00  0.00     0.023 A 
ATOM     65  C   UNL A   1      41.564  21.065  27.510  1.00  0.00     0.012 A 
ATOM     66  C   UNL A   1      43.449  21.902  26.303  1.00  0.00     0.148 A 
ATOM     67  C   UNL A   1      41.664  19.839  26.838  1.00  0.00     0.002 A 
ATOM     68  C   UNL A   1      43.597  20.659  25.679  1.00  0.00     0.091 A 
ATOM     69  F   UNL A   1      44.188  22.915  25.853  1.00  0.00    -0.205 F 
ATOM     70  C   UNL A   1      42.706  19.620  25.950  1.00  0.00     0.022 A 
BRANCH  68  71
ATOM     71  S   UNL A   1      44.967  20.293  24.565  1.00  0.00     0.127 S 
ATOM     72  O   UNL A   1      44.797  18.857  24.331  1.00  0.00    -0.237 OA
ATOM     73  O   UNL A   1      44.667  21.135  23.409  1.00  0.00    -0.237 OA
ATOM     74  O   UNL A   1      46.186  20.635  25.287  1.00  0.00    -0.744 OA
ENDBRANCH  68  71
ENDBRANCH  50  64
BRANCH  51  75
ATOM     75  C   UNL A   1      41.948  30.507  32.000  1.00  0.00     0.023 A 
ATOM     76  C   UNL A   1      41.823  31.829  31.503  1.00  0.00     0.012 A 
ATOM     77  C   UNL A   1      40.838  29.912  32.619  1.00  0.00     0.148 A 
ATOM     78  C   UNL A   1      40.575  32.451  31.445  1.00  0.00     0.002 A 
ATOM     79  C   UNL A   1      39.603  30.553  32.580  1.00  0.00     0.091 A 
ATOM     80  F   UNL A   1      40.964  28.699  33.167  1.00  0.00    -0.205 F 
ATOM     81  C   UNL A   1      39.455  31.791  31.941  1.00  0.00     0.022 A 
BRANCH  79  82
ATOM     82  S   UNL A   1      38.154  29.728  33.245  1.00  0.00     0.127 S 
ATOM     83  O   UNL A   1      38.357  28.360  32.781  1.00  0.00    -0.237 OA
ATOM     84  O   UNL A   1      38.310  29.920  34.686  1.00  0.00    -0.237 OA
ATOM     85  O   UNL A   1      37.036  30.459  32.666  1.00  0.00    -0.744 OA
ENDBRANCH  79  82
ENDBRANCH  51  75
BRANCH  63  86
ATOM     86  C   UNL A   1      44.977  24.017  33.213  1.00  0.00     0.023 A 
ATOM     87  C   UNL A   1      43.995  23.112  33.662  1.00  0.00     0.012 A 
ATOM     88  C   UNL A   1      46.260  23.877  33.814  1.00  0.00     0.148 A 
ATOM     89  C   UNL A   1      44.291  22.043  34.517  1.00  0.00     0.002 A 
ATOM     90  C   UNL A   1      46.549  22.832  34.689  1.00  0.00     0.091 A 
ATOM     91  F   UNL A   1      47.206  24.797  33.590  1.00  0.00    -0.205 F 
ATOM     92  C   UNL A   1      45.574  21.890  35.015  1.00  0.00     0.022 A 
BRANCH  90  93
ATOM     93  S   UNL A   1      48.156  22.647  35.478  1.00  0.00     0.127 S 
ATOM     94  O   UNL A   1      48.908  21.933  34.447  1.00  0.00    -0.237 OA
ATOM     95  O   UNL A   1      48.560  24.040  35.671  1.00  0.00    -0.237 OA
ATOM     96  O   UNL A   1      47.925  21.905  36.709  1.00  0.00    -0.744 OA
ENDBRANCH  90  93
ENDBRANCH  63  86
ENDBRANCH  37  38
ENDBRANCH  29  32
ENDBRANCH  27  28
ENDBRANCH   1  27
TORSDOF 16
ENDMDL
