MODEL 1
REMARK VINA RESULT:     -11.0      0.000      0.000
REMARK SMILES CCN1C(=O)/C(=C/N[C@H](CCSC)C(=O)NCCCNC(=O)c2ccc(-c3c4nc(c(-c5cccc(S(=O)(=O)[O-])c5F)c5ccc([nH]5)c(-c5cccc(S(=O)(=O)[O-])c5F)c5nc(c(-c6cccc(S(=O)(=O)[O-])c6F)c6ccc3[nH]6)C=C5)C=C4)cc2)C(=O)NC1=S
REMARK SMILES IDX 18 1 17 2 16 3 14 4 15 5 9 7 8 8 7 10 3 11 4 12 89 13 5 14
REMARK SMILES IDX 6 15 88 16 90 17 86 18 87 20 2 21 1 22 10 23 11 24 12 25
REMARK SMILES IDX 13 26 19 27 20 28 21 29 22 31 23 32 24 33 85 34 25 35 84 36
REMARK SMILES IDX 26 37 27 38 28 39 78 40 29 41 83 42 77 43 79 44 30 45 82 46
REMARK SMILES IDX 76 47 75 48 31 50 63 51 43 52 62 53 44 54 47 55 61 56 80 57
REMARK SMILES IDX 45 58 46 59 60 61 81 62 48 63 32 64 33 65 41 66 34 67 36 68
REMARK SMILES IDX 42 69 35 70 37 71 38 72 39 73 40 74 64 75 65 76 73 77 66 78
REMARK SMILES IDX 68 79 74 80 67 81 69 82 70 83 71 84 72 85 49 86 50 87 58 88
REMARK SMILES IDX 51 89 53 90 59 91 52 92 54 93 55 94 56 95 57 96
REMARK H PARENT 16 6 8 9 88 19 20 30 79 49 47 60
REMARK Flexibility Score: inf
ROOT
ATOM      1  C   UNL A   1      31.576  31.652  26.827  1.00  0.00     0.042 C 
ENDROOT
BRANCH   1   2
ATOM      2  C   UNL A   1      31.831  30.202  26.437  1.00  0.00     0.117 C 
BRANCH   2   3
ATOM      3  N   UNL A   1      32.607  30.079  25.213  1.00  0.00    -0.354 N 
ATOM      4  C   UNL A   1      32.635  29.077  24.281  1.00  0.00     0.242 C 
ATOM      5  O   UNL A   1      33.354  29.240  23.291  1.00  0.00    -0.273 OA
ATOM      6  H   UNL A   1      33.208  30.836  25.026  1.00  0.00     0.163 HD
BRANCH   4   7
ATOM      7  C   UNL A   1      31.797  27.784  24.457  1.00  0.00     0.169 C 
BRANCH   7   8
ATOM      8  N   UNL A   1      32.460  26.654  23.796  1.00  0.00    -0.379 N 
ATOM      9  H   UNL A   1      32.263  26.520  22.842  1.00  0.00     0.160 HD
BRANCH   8  10
ATOM     10  C   UNL A   1      33.332  25.765  24.381  1.00  0.00     0.098 C 
ATOM     11  N   UNL A   1      34.248  22.325  24.799  1.00  0.00    -0.285 N 
ATOM     12  C   UNL A   1      34.242  23.665  25.183  1.00  0.00     0.267 C 
ATOM     13  C   UNL A   1      33.074  21.667  24.414  1.00  0.00     0.182 C 
ATOM     14  O   UNL A   1      35.060  24.191  25.936  1.00  0.00    -0.268 OA
ATOM     15  C   UNL A   1      33.128  24.460  24.631  1.00  0.00     0.121 C 
ATOM     16  N   UNL A   1      31.952  22.437  24.251  1.00  0.00    -0.298 N 
ATOM     17  S   UNL A   1      32.886  20.021  24.134  1.00  0.00    -0.040 S 
ATOM     18  C   UNL A   1      31.872  23.798  24.266  1.00  0.00     0.264 C 
ATOM     19  H   UNL A   1      31.108  21.952  24.108  1.00  0.00     0.172 HD
ATOM     20  O   UNL A   1      30.843  24.390  23.952  1.00  0.00    -0.269 OA
BRANCH  11  21
ATOM     21  C   UNL A   1      35.501  21.548  24.899  1.00  0.00     0.125 C 
ATOM     22  C   UNL A   1      36.716  21.985  24.091  1.00  0.00     0.028 C 
ENDBRANCH  11  21
ENDBRANCH   8  10
ENDBRANCH   7   8
BRANCH   7  23
ATOM     23  C   UNL A   1      30.358  28.015  23.976  1.00  0.00     0.046 C 
BRANCH  23  24
ATOM     24  C   UNL A   1      30.149  28.433  22.521  1.00  0.00     0.072 C 
BRANCH  24  25
ATOM     25  S   UNL A   1      28.858  29.691  22.255  1.00  0.00    -0.165 SA
ATOM     26  C   UNL A   1      29.200  30.809  23.634  1.00  0.00     0.085 C 
ENDBRANCH  24  25
ENDBRANCH  23  24
ENDBRANCH   7  23
ENDBRANCH   4   7
ENDBRANCH   2   3
ENDBRANCH   1   2
BRANCH   1  27
ATOM     27  C   UNL A   1      32.836  32.451  27.128  1.00  0.00     0.118 C 
BRANCH  27  28
ATOM     28  N   UNL A   1      32.551  33.826  27.518  1.00  0.00    -0.352 N 
ATOM     29  C   UNL A   1      33.088  34.580  28.534  1.00  0.00     0.251 C 
ATOM     30  H   UNL A   1      31.872  34.283  26.971  1.00  0.00     0.163 HD
ATOM     31  O   UNL A   1      32.589  35.670  28.806  1.00  0.00    -0.269 OA
BRANCH  29  32
ATOM     32  C   UNL A   1      34.245  34.079  29.308  1.00  0.00     0.039 A 
ATOM     33  C   UNL A   1      34.017  33.225  30.391  1.00  0.00     0.014 A 
ATOM     34  C   UNL A   1      35.549  34.453  28.975  1.00  0.00     0.014 A 
ATOM     35  C   UNL A   1      35.102  32.693  31.095  1.00  0.00     0.010 A 
ATOM     36  C   UNL A   1      36.628  33.862  29.625  1.00  0.00     0.010 A 
ATOM     37  C   UNL A   1      36.417  32.981  30.696  1.00  0.00    -0.014 A 
BRANCH  37  38
ATOM     38  C   UNL A   1      37.588  32.369  31.374  1.00  0.00     0.031 A 
ATOM     39  C   UNL A   1      38.323  31.226  30.729  1.00  0.00     0.074 A 
ATOM     40  C   UNL A   1      37.925  32.772  32.616  1.00  0.00     0.049 A 
ATOM     41  N   UNL A   1      39.312  30.511  31.200  1.00  0.00    -0.248 NA
ATOM     42  C   UNL A   1      37.869  30.811  29.391  1.00  0.00     0.031 C 
ATOM     43  C   UNL A   1      37.236  33.812  33.385  1.00  0.00     0.029 A 
ATOM     44  N   UNL A   1      38.912  32.335  33.463  1.00  0.00    -0.354 N 
ATOM     45  C   UNL A   1      39.569  29.539  30.241  1.00  0.00     0.074 A 
ATOM     46  C   UNL A   1      38.612  29.736  29.174  1.00  0.00     0.031 C 
ATOM     47  C   UNL A   1      37.822  33.933  34.586  1.00  0.00     0.029 A 
ATOM     48  C   UNL A   1      38.912  32.967  34.685  1.00  0.00     0.049 A 
ATOM     49  H   UNL A   1      39.559  31.634  33.219  1.00  0.00     0.167 HD
ATOM     50  C   UNL A   1      40.535  28.590  30.230  1.00  0.00     0.034 A 
ATOM     51  C   UNL A   1      39.699  32.788  35.763  1.00  0.00     0.034 A 
ATOM     52  C   UNL A   1      41.525  28.438  31.261  1.00  0.00     0.049 A 
ATOM     53  C   UNL A   1      40.807  31.772  35.699  1.00  0.00     0.074 A 
ATOM     54  C   UNL A   1      42.605  27.573  31.297  1.00  0.00     0.029 A 
ATOM     55  N   UNL A   1      41.559  29.170  32.437  1.00  0.00    -0.354 N 
ATOM     56  N   UNL A   1      41.137  30.973  34.713  1.00  0.00    -0.248 NA
ATOM     57  C   UNL A   1      41.674  31.656  36.880  1.00  0.00     0.031 C 
ATOM     58  C   UNL A   1      43.290  27.781  32.499  1.00  0.00     0.029 A 
ATOM     59  C   UNL A   1      42.640  28.779  33.207  1.00  0.00     0.049 A 
ATOM     60  H   UNL A   1      40.911  29.866  32.689  1.00  0.00     0.167 HD
ATOM     61  C   UNL A   1      42.267  30.285  35.140  1.00  0.00     0.074 A 
ATOM     62  C   UNL A   1      42.578  30.776  36.467  1.00  0.00     0.031 C 
ATOM     63  C   UNL A   1      42.973  29.321  34.500  1.00  0.00     0.034 A 
BRANCH  50  64
ATOM     64  C   UNL A   1      40.613  27.689  29.026  1.00  0.00     0.023 A 
ATOM     65  C   UNL A   1      39.711  26.612  28.912  1.00  0.00     0.012 A 
ATOM     66  C   UNL A   1      41.536  27.930  27.990  1.00  0.00     0.148 A 
ATOM     67  C   UNL A   1      39.746  25.769  27.804  1.00  0.00     0.002 A 
ATOM     68  C   UNL A   1      41.539  27.108  26.868  1.00  0.00     0.091 A 
ATOM     69  F   UNL A   1      42.404  28.944  28.126  1.00  0.00    -0.205 F 
ATOM     70  C   UNL A   1      40.652  26.022  26.778  1.00  0.00     0.022 A 
BRANCH  68  71
ATOM     71  S   UNL A   1      42.621  27.399  25.463  1.00  0.00     0.127 S 
ATOM     72  O   UNL A   1      43.921  27.540  26.117  1.00  0.00    -0.237 OA
ATOM     73  O   UNL A   1      42.460  26.169  24.685  1.00  0.00    -0.237 OA
ATOM     74  O   UNL A   1      42.110  28.597  24.810  1.00  0.00    -0.744 OA
ENDBRANCH  68  71
ENDBRANCH  50  64
BRANCH  51  75
ATOM     75  C   UNL A   1      39.523  33.656  36.961  1.00  0.00     0.023 A 
ATOM     76  C   UNL A   1      39.949  34.996  36.904  1.00  0.00     0.012 A 
ATOM     77  C   UNL A   1      38.902  33.182  38.133  1.00  0.00     0.148 A 
ATOM     78  C   UNL A   1      39.784  35.844  38.000  1.00  0.00     0.002 A 
ATOM     79  C   UNL A   1      38.694  34.045  39.203  1.00  0.00     0.091 A 
ATOM     80  F   UNL A   1      38.517  31.898  38.174  1.00  0.00    -0.205 F 
ATOM     81  C   UNL A   1      39.147  35.372  39.144  1.00  0.00     0.022 A 
BRANCH  79  82
ATOM     82  S   UNL A   1      37.761  33.556  40.658  1.00  0.00     0.127 S 
ATOM     83  O   UNL A   1      37.758  34.787  41.441  1.00  0.00    -0.237 OA
ATOM     84  O   UNL A   1      36.466  33.188  40.083  1.00  0.00    -0.237 OA
ATOM     85  O   UNL A   1      38.496  32.436  41.231  1.00  0.00    -0.744 OA
ENDBRANCH  79  82
ENDBRANCH  51  75
BRANCH  63  86
ATOM     86  C   UNL A   1      44.169  28.744  35.209  1.00  0.00     0.023 A 
ATOM     87  C   UNL A   1      45.444  29.295  34.977  1.00  0.00     0.012 A 
ATOM     88  C   UNL A   1      44.020  27.717  36.160  1.00  0.00     0.148 A 
ATOM     89  C   UNL A   1      46.558  28.815  35.664  1.00  0.00     0.002 A 
ATOM     90  C   UNL A   1      45.127  27.272  36.872  1.00  0.00     0.091 A 
ATOM     91  F   UNL A   1      42.800  27.190  36.349  1.00  0.00    -0.205 F 
ATOM     92  C   UNL A   1      46.398  27.814  36.620  1.00  0.00     0.022 A 
BRANCH  90  93
ATOM     93  S   UNL A   1      44.994  26.051  38.183  1.00  0.00     0.127 S 
ATOM     94  O   UNL A   1      44.583  24.860  37.440  1.00  0.00    -0.237 OA
ATOM     95  O   UNL A   1      46.358  26.001  38.708  1.00  0.00    -0.237 OA
ATOM     96  O   UNL A   1      44.010  26.580  39.119  1.00  0.00    -0.744 OA
ENDBRANCH  90  93
ENDBRANCH  63  86
ENDBRANCH  37  38
ENDBRANCH  29  32
ENDBRANCH  27  28
ENDBRANCH   1  27
TORSDOF 19
ENDMDL
MODEL 2
REMARK VINA RESULT:     -11.0      2.493      3.344
REMARK SMILES CCN1C(=O)/C(=C/N[C@H](CCSC)C(=O)NCCCNC(=O)c2ccc(-c3c4nc(c(-c5cccc(S(=O)(=O)[O-])c5F)c5ccc([nH]5)c(-c5cccc(S(=O)(=O)[O-])c5F)c5nc(c(-c6cccc(S(=O)(=O)[O-])c6F)c6ccc3[nH]6)C=C5)C=C4)cc2)C(=O)NC1=S
REMARK SMILES IDX 18 1 17 2 16 3 14 4 15 5 9 7 8 8 7 10 3 11 4 12 89 13 5 14
REMARK SMILES IDX 6 15 88 16 90 17 86 18 87 20 2 21 1 22 10 23 11 24 12 25
REMARK SMILES IDX 13 26 19 27 20 28 21 29 22 31 23 32 24 33 85 34 25 35 84 36
REMARK SMILES IDX 26 37 27 38 28 39 78 40 29 41 83 42 77 43 79 44 30 45 82 46
REMARK SMILES IDX 76 47 75 48 31 50 63 51 43 52 62 53 44 54 47 55 61 56 80 57
REMARK SMILES IDX 45 58 46 59 60 61 81 62 48 63 32 64 33 65 41 66 34 67 36 68
REMARK SMILES IDX 42 69 35 70 37 71 38 72 39 73 40 74 64 75 65 76 73 77 66 78
REMARK SMILES IDX 68 79 74 80 67 81 69 82 70 83 71 84 72 85 49 86 50 87 58 88
REMARK SMILES IDX 51 89 53 90 59 91 52 92 54 93 55 94 56 95 57 96
REMARK H PARENT 16 6 8 9 88 19 20 30 79 49 47 60
REMARK Flexibility Score: inf
ROOT
ATOM      1  C   UNL A   1      34.017  29.204  23.468  1.00  0.00     0.042 C 
ENDROOT
BRANCH   1   2
ATOM      2  C   UNL A   1      33.530  28.151  22.481  1.00  0.00     0.117 C 
BRANCH   2   3
ATOM      3  N   UNL A   1      32.114  28.281  22.177  1.00  0.00    -0.354 N 
ATOM      4  C   UNL A   1      31.060  27.477  22.519  1.00  0.00     0.242 C 
ATOM      5  O   UNL A   1      29.931  27.841  22.175  1.00  0.00    -0.273 OA
ATOM      6  H   UNL A   1      31.876  29.072  21.641  1.00  0.00     0.163 HD
BRANCH   4   7
ATOM      7  C   UNL A   1      31.269  26.158  23.307  1.00  0.00     0.169 C 
BRANCH   7   8
ATOM      8  N   UNL A   1      31.475  25.039  22.382  1.00  0.00    -0.379 N 
ATOM      9  H   UNL A   1      31.503  25.256  21.423  1.00  0.00     0.160 HD
BRANCH   8  10
ATOM     10  C   UNL A   1      31.634  23.716  22.725  1.00  0.00     0.098 C 
ATOM     11  N   UNL A   1      33.742  21.273  24.284  1.00  0.00    -0.285 N 
ATOM     12  C   UNL A   1      32.714  21.661  23.426  1.00  0.00     0.267 C 
ATOM     13  C   UNL A   1      34.981  21.923  24.288  1.00  0.00     0.182 C 
ATOM     14  O   UNL A   1      31.812  20.931  23.023  1.00  0.00    -0.268 OA
ATOM     15  C   UNL A   1      32.782  23.067  22.980  1.00  0.00     0.121 C 
ATOM     16  N   UNL A   1      35.084  23.073  23.549  1.00  0.00    -0.298 N 
ATOM     17  S   UNL A   1      36.371  21.443  25.100  1.00  0.00    -0.040 S 
ATOM     18  C   UNL A   1      34.077  23.753  22.930  1.00  0.00     0.264 C 
ATOM     19  H   UNL A   1      35.988  23.451  23.454  1.00  0.00     0.172 HD
ATOM     20  O   UNL A   1      34.256  24.859  22.427  1.00  0.00    -0.269 OA
BRANCH  11  21
ATOM     21  C   UNL A   1      33.560  20.080  25.138  1.00  0.00     0.125 C 
ATOM     22  C   UNL A   1      33.839  18.699  24.559  1.00  0.00     0.028 C 
ENDBRANCH  11  21
ENDBRANCH   8  10
ENDBRANCH   7   8
BRANCH   7  23
ATOM     23  C   UNL A   1      30.108  25.937  24.287  1.00  0.00     0.046 C 
BRANCH  23  24
ATOM     24  C   UNL A   1      30.444  25.779  25.770  1.00  0.00     0.072 C 
BRANCH  24  25
ATOM     25  S   UNL A   1      30.850  24.082  26.294  1.00  0.00    -0.165 SA
ATOM     26  C   UNL A   1      32.644  24.218  26.484  1.00  0.00     0.085 C 
ENDBRANCH  24  25
ENDBRANCH  23  24
ENDBRANCH   7  23
ENDBRANCH   4   7
ENDBRANCH   2   3
ENDBRANCH   1   2
BRANCH   1  27
ATOM     27  C   UNL A   1      33.511  29.011  24.891  1.00  0.00     0.118 C 
BRANCH  27  28
ATOM     28  N   UNL A   1      32.741  30.150  25.375  1.00  0.00    -0.352 N 
ATOM     29  C   UNL A   1      32.891  30.887  26.525  1.00  0.00     0.251 C 
ATOM     30  H   UNL A   1      32.003  30.434  24.789  1.00  0.00     0.163 HD
ATOM     31  O   UNL A   1      32.029  31.706  26.835  1.00  0.00    -0.269 OA
BRANCH  29  32
ATOM     32  C   UNL A   1      34.070  30.684  27.396  1.00  0.00     0.039 A 
ATOM     33  C   UNL A   1      34.269  29.433  27.988  1.00  0.00     0.014 A 
ATOM     34  C   UNL A   1      34.973  31.723  27.637  1.00  0.00     0.014 A 
ATOM     35  C   UNL A   1      35.409  29.205  28.763  1.00  0.00     0.010 A 
ATOM     36  C   UNL A   1      36.146  31.472  28.343  1.00  0.00     0.010 A 
ATOM     37  C   UNL A   1      36.374  30.214  28.919  1.00  0.00    -0.014 A 
BRANCH  37  38
ATOM     38  C   UNL A   1      37.633  29.977  29.671  1.00  0.00     0.031 A 
ATOM     39  C   UNL A   1      38.692  29.070  29.106  1.00  0.00     0.074 A 
ATOM     40  C   UNL A   1      37.778  30.495  30.908  1.00  0.00     0.049 A 
ATOM     41  N   UNL A   1      39.815  28.678  29.649  1.00  0.00    -0.248 NA
ATOM     42  C   UNL A   1      38.443  28.505  27.770  1.00  0.00     0.031 C 
ATOM     43  C   UNL A   1      36.785  31.320  31.602  1.00  0.00     0.029 A 
ATOM     44  N   UNL A   1      38.803  30.379  31.813  1.00  0.00    -0.354 N 
ATOM     45  C   UNL A   1      40.385  27.791  28.743  1.00  0.00     0.074 A 
ATOM     46  C   UNL A   1      39.468  27.679  27.629  1.00  0.00     0.031 C 
ATOM     47  C   UNL A   1      37.251  31.636  32.821  1.00  0.00     0.029 A 
ATOM     48  C   UNL A   1      38.561  31.021  33.006  1.00  0.00     0.049 A 
ATOM     49  H   UNL A   1      39.632  29.883  31.626  1.00  0.00     0.167 HD
ATOM     50  C   UNL A   1      41.577  27.154  28.813  1.00  0.00     0.034 A 
ATOM     51  C   UNL A   1      39.310  31.102  34.123  1.00  0.00     0.034 A 
ATOM     52  C   UNL A   1      42.516  27.317  29.890  1.00  0.00     0.049 A 
ATOM     53  C   UNL A   1      40.660  30.439  34.149  1.00  0.00     0.074 A 
ATOM     54  C   UNL A   1      43.791  26.794  30.007  1.00  0.00     0.029 A 
ATOM     55  N   UNL A   1      42.282  28.062  31.034  1.00  0.00    -0.354 N 
ATOM     56  N   UNL A   1      41.252  29.738  33.211  1.00  0.00    -0.248 NA
ATOM     57  C   UNL A   1      41.462  30.607  35.369  1.00  0.00     0.031 C 
ATOM     58  C   UNL A   1      44.327  27.221  31.228  1.00  0.00     0.029 A 
ATOM     59  C   UNL A   1      43.387  28.015  31.865  1.00  0.00     0.049 A 
ATOM     60  H   UNL A   1      41.451  28.554  31.229  1.00  0.00     0.167 HD
ATOM     61  C   UNL A   1      42.506  29.410  33.715  1.00  0.00     0.074 A 
ATOM     62  C   UNL A   1      42.597  30.007  35.032  1.00  0.00     0.031 C 
ATOM     63  C   UNL A   1      43.486  28.666  33.146  1.00  0.00     0.034 A 
BRANCH  50  64
ATOM     64  C   UNL A   1      41.968  26.277  27.652  1.00  0.00     0.023 A 
ATOM     65  C   UNL A   1      42.732  26.825  26.602  1.00  0.00     0.012 A 
ATOM     66  C   UNL A   1      41.630  24.911  27.620  1.00  0.00     0.148 A 
ATOM     67  C   UNL A   1      43.124  26.038  25.522  1.00  0.00     0.002 A 
ATOM     68  C   UNL A   1      42.058  24.122  26.557  1.00  0.00     0.091 A 
ATOM     69  F   UNL A   1      40.881  24.411  28.615  1.00  0.00    -0.205 F 
ATOM     70  C   UNL A   1      42.797  24.686  25.504  1.00  0.00     0.022 A 
BRANCH  68  71
ATOM     71  S   UNL A   1      41.746  22.354  26.483  1.00  0.00     0.127 S 
ATOM     72  O   UNL A   1      42.598  21.951  25.365  1.00  0.00    -0.237 OA
ATOM     73  O   UNL A   1      42.208  21.900  27.796  1.00  0.00    -0.237 OA
ATOM     74  O   UNL A   1      40.313  22.212  26.266  1.00  0.00    -0.744 OA
ENDBRANCH  68  71
ENDBRANCH  50  64
BRANCH  51  75
ATOM     75  C   UNL A   1      38.835  31.919  35.275  1.00  0.00     0.023 A 
ATOM     76  C   UNL A   1      38.901  33.323  35.192  1.00  0.00     0.012 A 
ATOM     77  C   UNL A   1      38.283  31.324  36.425  1.00  0.00     0.148 A 
ATOM     78  C   UNL A   1      38.449  34.121  36.243  1.00  0.00     0.002 A 
ATOM     79  C   UNL A   1      37.786  32.126  37.447  1.00  0.00     0.091 A 
ATOM     80  F   UNL A   1      38.242  29.986  36.492  1.00  0.00    -0.205 F 
ATOM     81  C   UNL A   1      37.881  33.524  37.365  1.00  0.00     0.022 A 
BRANCH  79  82
ATOM     82  S   UNL A   1      36.918  31.441  38.863  1.00  0.00     0.127 S 
ATOM     83  O   UNL A   1      37.896  31.623  39.932  1.00  0.00    -0.237 OA
ATOM     84  O   UNL A   1      35.741  32.306  38.950  1.00  0.00    -0.237 OA
ATOM     85  O   UNL A   1      36.617  30.062  38.503  1.00  0.00    -0.744 OA
ENDBRANCH  79  82
ENDBRANCH  51  75
BRANCH  63  86
ATOM     86  C   UNL A   1      44.757  28.471  33.928  1.00  0.00     0.023 A 
ATOM     87  C   UNL A   1      45.805  29.401  33.790  1.00  0.00     0.012 A 
ATOM     88  C   UNL A   1      44.881  27.420  34.855  1.00  0.00     0.148 A 
ATOM     89  C   UNL A   1      46.970  29.273  34.546  1.00  0.00     0.002 A 
ATOM     90  C   UNL A   1      46.027  27.322  35.637  1.00  0.00     0.091 A 
ATOM     91  F   UNL A   1      43.881  26.531  34.956  1.00  0.00    -0.205 F 
ATOM     92  C   UNL A   1      47.076  28.243  35.477  1.00  0.00     0.022 A 
BRANCH  90  93
ATOM     93  S   UNL A   1      46.205  26.079  36.922  1.00  0.00     0.127 S 
ATOM     94  O   UNL A   1      47.346  26.594  37.679  1.00  0.00    -0.237 OA
ATOM     95  O   UNL A   1      44.923  26.162  37.620  1.00  0.00    -0.237 OA
ATOM     96  O   UNL A   1      46.429  24.819  36.225  1.00  0.00    -0.744 OA
ENDBRANCH  90  93
ENDBRANCH  63  86
ENDBRANCH  37  38
ENDBRANCH  29  32
ENDBRANCH  27  28
ENDBRANCH   1  27
TORSDOF 19
ENDMDL
MODEL 3
REMARK VINA RESULT:     -10.8      3.430      8.627
REMARK SMILES CCN1C(=O)/C(=C/N[C@H](CCSC)C(=O)NCCCNC(=O)c2ccc(-c3c4nc(c(-c5cccc(S(=O)(=O)[O-])c5F)c5ccc([nH]5)c(-c5cccc(S(=O)(=O)[O-])c5F)c5nc(c(-c6cccc(S(=O)(=O)[O-])c6F)c6ccc3[nH]6)C=C5)C=C4)cc2)C(=O)NC1=S
REMARK SMILES IDX 18 1 17 2 16 3 14 4 15 5 9 7 8 8 7 10 3 11 4 12 89 13 5 14
REMARK SMILES IDX 6 15 88 16 90 17 86 18 87 20 2 21 1 22 10 23 11 24 12 25
REMARK SMILES IDX 13 26 19 27 20 28 21 29 22 31 23 32 24 33 85 34 25 35 84 36
REMARK SMILES IDX 26 37 27 38 28 39 78 40 29 41 83 42 77 43 79 44 30 45 82 46
REMARK SMILES IDX 76 47 75 48 31 50 63 51 43 52 62 53 44 54 47 55 61 56 80 57
REMARK SMILES IDX 45 58 46 59 60 61 81 62 48 63 32 64 33 65 41 66 34 67 36 68
REMARK SMILES IDX 42 69 35 70 37 71 38 72 39 73 40 74 64 75 65 76 73 77 66 78
REMARK SMILES IDX 68 79 74 80 67 81 69 82 70 83 71 84 72 85 49 86 50 87 58 88
REMARK SMILES IDX 51 89 53 90 59 91 52 92 54 93 55 94 56 95 57 96
REMARK H PARENT 16 6 8 9 88 19 20 30 79 49 47 60
REMARK Flexibility Score: inf
ROOT
ATOM      1  C   UNL A   1      33.487  28.435  25.285  1.00  0.00     0.042 C 
ENDROOT
BRANCH   1   2
ATOM      2  C   UNL A   1      32.221  28.984  24.640  1.00  0.00     0.117 C 
BRANCH   2   3
ATOM      3  N   UNL A   1      31.935  28.365  23.355  1.00  0.00    -0.354 N 
ATOM      4  C   UNL A   1      30.778  27.804  22.883  1.00  0.00     0.242 C 
ATOM      5  O   UNL A   1      30.780  27.387  21.721  1.00  0.00    -0.273 OA
ATOM      6  H   UNL A   1      32.691  28.345  22.726  1.00  0.00     0.163 HD
BRANCH   4   7
ATOM      7  C   UNL A   1      29.510  27.696  23.770  1.00  0.00     0.169 C 
BRANCH   7   8
ATOM      8  N   UNL A   1      29.262  26.297  24.134  1.00  0.00    -0.379 N 
ATOM      9  H   UNL A   1      28.414  26.101  24.594  1.00  0.00     0.160 HD
BRANCH   8  10
ATOM     10  C   UNL A   1      30.097  25.231  23.893  1.00  0.00     0.098 C 
ATOM     11  N   UNL A   1      32.102  22.630  25.329  1.00  0.00    -0.285 N 
ATOM     12  C   UNL A   1      31.736  23.489  24.294  1.00  0.00     0.267 C 
ATOM     13  C   UNL A   1      32.275  23.091  26.639  1.00  0.00     0.182 C 
ATOM     14  O   UNL A   1      31.991  23.315  23.104  1.00  0.00    -0.268 OA
ATOM     15  C   UNL A   1      31.010  24.699  24.724  1.00  0.00     0.121 C 
ATOM     16  N   UNL A   1      31.892  24.381  26.902  1.00  0.00    -0.298 N 
ATOM     17  S   UNL A   1      32.913  22.234  27.935  1.00  0.00    -0.040 S 
ATOM     18  C   UNL A   1      31.212  25.228  26.077  1.00  0.00     0.264 C 
ATOM     19  H   UNL A   1      32.135  24.736  27.787  1.00  0.00     0.172 HD
ATOM     20  O   UNL A   1      30.780  26.308  26.471  1.00  0.00    -0.269 OA
BRANCH  11  21
ATOM     21  C   UNL A   1      32.418  21.220  25.022  1.00  0.00     0.125 C 
ATOM     22  C   UNL A   1      33.846  20.838  24.653  1.00  0.00     0.028 C 
ENDBRANCH  11  21
ENDBRANCH   8  10
ENDBRANCH   7   8
BRANCH   7  23
ATOM     23  C   UNL A   1      28.318  28.368  23.074  1.00  0.00     0.046 C 
BRANCH  23  24
ATOM     24  C   UNL A   1      28.558  29.707  22.378  1.00  0.00     0.072 C 
BRANCH  24  25
ATOM     25  S   UNL A   1      27.908  31.164  23.259  1.00  0.00    -0.165 SA
ATOM     26  C   UNL A   1      28.328  32.473  22.084  1.00  0.00     0.085 C 
ENDBRANCH  24  25
ENDBRANCH  23  24
ENDBRANCH   7  23
ENDBRANCH   4   7
ENDBRANCH   2   3
ENDBRANCH   1   2
BRANCH   1  27
ATOM     27  C   UNL A   1      33.581  28.676  26.785  1.00  0.00     0.118 C 
BRANCH  27  28
ATOM     28  N   UNL A   1      33.590  30.092  27.129  1.00  0.00    -0.352 N 
ATOM     29  C   UNL A   1      34.512  30.816  27.847  1.00  0.00     0.251 C 
ATOM     30  H   UNL A   1      32.821  30.607  26.795  1.00  0.00     0.163 HD
ATOM     31  O   UNL A   1      34.251  31.972  28.173  1.00  0.00    -0.269 OA
BRANCH  29  32
ATOM     32  C   UNL A   1      35.800  30.206  28.243  1.00  0.00     0.039 A 
ATOM     33  C   UNL A   1      36.881  30.271  27.358  1.00  0.00     0.014 A 
ATOM     34  C   UNL A   1      35.943  29.565  29.476  1.00  0.00     0.014 A 
ATOM     35  C   UNL A   1      38.123  29.755  27.741  1.00  0.00     0.010 A 
ATOM     36  C   UNL A   1      37.198  29.122  29.885  1.00  0.00     0.010 A 
ATOM     37  C   UNL A   1      38.299  29.206  29.021  1.00  0.00    -0.014 A 
BRANCH  37  38
ATOM     38  C   UNL A   1      39.624  28.721  29.485  1.00  0.00     0.031 A 
ATOM     39  C   UNL A   1      40.355  29.449  30.580  1.00  0.00     0.074 A 
ATOM     40  C   UNL A   1      40.216  27.689  28.850  1.00  0.00     0.049 A 
ATOM     41  N   UNL A   1      41.551  29.228  31.060  1.00  0.00    -0.248 NA
ATOM     42  C   UNL A   1      39.665  30.596  31.195  1.00  0.00     0.031 C 
ATOM     43  C   UNL A   1      39.647  26.955  27.716  1.00  0.00     0.029 A 
ATOM     44  N   UNL A   1      41.439  27.098  29.046  1.00  0.00    -0.354 N 
ATOM     45  C   UNL A   1      41.774  30.228  32.000  1.00  0.00     0.074 A 
ATOM     46  C   UNL A   1      40.601  31.076  32.000  1.00  0.00     0.031 C 
ATOM     47  C   UNL A   1      40.518  26.012  27.321  1.00  0.00     0.029 A 
ATOM     48  C   UNL A   1      41.714  26.088  28.154  1.00  0.00     0.049 A 
ATOM     49  H   UNL A   1      42.060  27.372  29.759  1.00  0.00     0.167 HD
ATOM     50  C   UNL A   1      42.840  30.407  32.814  1.00  0.00     0.034 A 
ATOM     51  C   UNL A   1      42.807  25.312  28.021  1.00  0.00     0.034 A 
ATOM     52  C   UNL A   1      43.976  29.526  32.858  1.00  0.00     0.049 A 
ATOM     53  C   UNL A   1      43.951  25.488  28.983  1.00  0.00     0.074 A 
ATOM     54  C   UNL A   1      45.061  29.563  33.716  1.00  0.00     0.029 A 
ATOM     55  N   UNL A   1      44.171  28.447  32.012  1.00  0.00    -0.354 N 
ATOM     56  N   UNL A   1      44.070  26.337  29.975  1.00  0.00    -0.248 NA
ATOM     57  C   UNL A   1      45.095  24.577  28.832  1.00  0.00     0.031 C 
ATOM     58  C   UNL A   1      45.916  28.506  33.383  1.00  0.00     0.029 A 
ATOM     59  C   UNL A   1      45.358  27.808  32.324  1.00  0.00     0.049 A 
ATOM     60  H   UNL A   1      43.556  28.173  31.293  1.00  0.00     0.167 HD
ATOM     61  C   UNL A   1      45.284  26.043  30.586  1.00  0.00     0.074 A 
ATOM     62  C   UNL A   1      45.853  24.922  29.864  1.00  0.00     0.031 C 
ATOM     63  C   UNL A   1      45.882  26.656  31.636  1.00  0.00     0.034 A 
BRANCH  50  64
ATOM     64  C   UNL A   1      42.794  31.560  33.781  1.00  0.00     0.023 A 
ATOM     65  C   UNL A   1      43.211  32.837  33.350  1.00  0.00     0.012 A 
ATOM     66  C   UNL A   1      42.297  31.401  35.089  1.00  0.00     0.148 A 
ATOM     67  C   UNL A   1      43.167  33.929  34.213  1.00  0.00     0.002 A 
ATOM     68  C   UNL A   1      42.219  32.504  35.933  1.00  0.00     0.091 A 
ATOM     69  F   UNL A   1      41.928  30.176  35.490  1.00  0.00    -0.205 F 
ATOM     70  C   UNL A   1      42.661  33.766  35.500  1.00  0.00     0.022 A 
BRANCH  68  71
ATOM     71  S   UNL A   1      41.516  32.406  37.583  1.00  0.00     0.127 S 
ATOM     72  O   UNL A   1      41.689  33.778  38.059  1.00  0.00    -0.237 OA
ATOM     73  O   UNL A   1      40.128  32.028  37.309  1.00  0.00    -0.237 OA
ATOM     74  O   UNL A   1      42.290  31.392  38.285  1.00  0.00    -0.744 OA
ENDBRANCH  68  71
ENDBRANCH  50  64
BRANCH  51  75
ATOM     75  C   UNL A   1      42.830  24.235  26.991  1.00  0.00     0.023 A 
ATOM     76  C   UNL A   1      43.572  24.432  25.811  1.00  0.00     0.012 A 
ATOM     77  C   UNL A   1      42.165  23.010  27.188  1.00  0.00     0.148 A 
ATOM     78  C   UNL A   1      43.632  23.440  24.833  1.00  0.00     0.002 A 
ATOM     79  C   UNL A   1      42.271  22.005  26.232  1.00  0.00     0.091 A 
ATOM     80  F   UNL A   1      41.451  22.846  28.311  1.00  0.00    -0.205 F 
ATOM     81  C   UNL A   1      42.991  22.223  25.048  1.00  0.00     0.022 A 
BRANCH  79  82
ATOM     82  S   UNL A   1      41.591  20.362  26.493  1.00  0.00     0.127 S 
ATOM     83  O   UNL A   1      42.140  20.014  27.801  1.00  0.00    -0.237 OA
ATOM     84  O   UNL A   1      40.151  20.621  26.478  1.00  0.00    -0.237 OA
ATOM     85  O   UNL A   1      42.064  19.565  25.370  1.00  0.00    -0.744 OA
ENDBRANCH  79  82
ENDBRANCH  51  75
BRANCH  63  86
ATOM     86  C   UNL A   1      47.211  26.118  32.094  1.00  0.00     0.023 A 
ATOM     87  C   UNL A   1      48.394  26.595  31.496  1.00  0.00     0.012 A 
ATOM     88  C   UNL A   1      47.293  25.208  33.164  1.00  0.00     0.148 A 
ATOM     89  C   UNL A   1      49.640  26.154  31.943  1.00  0.00     0.002 A 
ATOM     90  C   UNL A   1      48.539  24.805  33.632  1.00  0.00     0.091 A 
ATOM     91  F   UNL A   1      46.154  24.748  33.704  1.00  0.00    -0.205 F 
ATOM     92  C   UNL A   1      49.713  25.270  33.016  1.00  0.00     0.022 A 
BRANCH  90  93
ATOM     93  S   UNL A   1      48.722  23.739  35.067  1.00  0.00     0.127 S 
ATOM     94  O   UNL A   1      50.177  23.642  35.181  1.00  0.00    -0.237 OA
ATOM     95  O   UNL A   1      48.079  24.520  36.123  1.00  0.00    -0.237 OA
ATOM     96  O   UNL A   1      48.032  22.501  34.731  1.00  0.00    -0.744 OA
ENDBRANCH  90  93
ENDBRANCH  63  86
ENDBRANCH  37  38
ENDBRANCH  29  32
ENDBRANCH  27  28
ENDBRANCH   1  27
TORSDOF 19
ENDMDL
