MODEL 1
REMARK VINA RESULT:     -11.9      0.000      0.000
REMARK SMILES Cc1cccc(C[N@@H+](C)C[C@]2(C(=O)NCCCNC(=O)c3ccc(-c4c5nc(c(-c6cccc(S(=O)(=O)[O-])c6F)c6ccc([nH]6)c(-c6cccc(S(=O)(=O)[O-])c6F)c6nc(c(-c7cccc(S(=O)(=O)[O-])c7F)c7ccc4[nH]7)C=C6)C=C5)cc3)CCC[C@H](C)C2)n1
REMARK SMILES IDX 15 1 14 2 12 3 13 4 11 6 84 7 89 8 85 9 87 10 86 11 88 12
REMARK SMILES IDX 10 13 8 14 9 15 7 17 6 18 1 19 2 20 3 21 90 22 4 23 5 24
REMARK SMILES IDX 16 25 17 26 18 27 19 28 20 30 21 31 22 32 83 33 23 34 82 35
REMARK SMILES IDX 24 36 25 37 26 38 76 39 27 40 81 41 75 42 77 43 28 44 80 45
REMARK SMILES IDX 74 46 73 47 29 49 61 50 41 51 60 52 42 53 45 54 59 55 78 56
REMARK SMILES IDX 43 57 44 58 58 60 79 61 46 62 30 63 31 64 39 65 32 66 34 67
REMARK SMILES IDX 40 68 33 69 35 70 36 71 37 72 38 73 62 74 63 75 71 76 64 77
REMARK SMILES IDX 66 78 72 79 65 80 67 81 68 82 69 83 70 84 47 85 48 86 56 87
REMARK SMILES IDX 49 88 51 89 57 90 50 91 52 92 53 93 54 94 55 95
REMARK H PARENT 14 5 8 16 18 29 77 48 45 59
REMARK Flexibility Score: inf
ROOT
ATOM      1  C   UNL A   1      33.885  28.362  24.710  1.00  0.00     0.117 C 
ENDROOT
BRANCH   1   2
ATOM      2  N   UNL A   1      34.018  27.751  23.405  1.00  0.00    -0.355 N 
ATOM      3  C   UNL A   1      33.526  26.572  22.936  1.00  0.00     0.231 C 
ATOM      4  O   UNL A   1      33.520  26.453  21.704  1.00  0.00    -0.274 OA
ATOM      5  H   UNL A   1      34.549  28.267  22.756  1.00  0.00     0.163 HD
BRANCH   3   6
ATOM      6  C   UNL A   1      33.022  25.427  23.862  1.00  0.00     0.098 C 
ATOM      7  C   UNL A   1      32.327  24.350  22.953  1.00  0.00     0.023 C 
ATOM      8  C   UNL A   1      34.171  24.693  24.601  1.00  0.00     0.026 C 
ATOM      9  C   UNL A   1      33.281  23.583  22.032  1.00  0.00     0.002 C 
ATOM     10  C   UNL A   1      35.163  23.992  23.654  1.00  0.00    -0.013 C 
ATOM     11  C   UNL A   1      34.438  22.955  22.796  1.00  0.00     0.003 C 
ATOM     12  C   UNL A   1      36.293  23.333  24.448  1.00  0.00     0.007 C 
BRANCH   6  13
ATOM     13  C   UNL A   1      31.879  25.969  24.812  1.00  0.00     0.279 C 
BRANCH  13  14
ATOM     14  N   UNL A   1      30.631  25.202  24.881  1.00  0.00    -0.331 N 
ATOM     15  C   UNL A   1      29.427  26.018  24.721  1.00  0.00     0.333 C 
ATOM     16  H   UNL A   1      30.746  24.601  24.064  1.00  0.00     0.348 HD
BRANCH  14  17
ATOM     17  C   UNL A   1      30.462  24.274  26.016  1.00  0.00     0.319 C 
BRANCH  17  18
ATOM     18  C   UNL A   1      31.507  23.180  26.195  1.00  0.00     0.095 A 
ATOM     19  C   UNL A   1      32.543  20.101  24.452  1.00  0.00     0.067 C 
ATOM     20  C   UNL A   1      32.502  21.206  25.467  1.00  0.00     0.038 A 
ATOM     21  C   UNL A   1      33.437  21.252  26.495  1.00  0.00     0.023 A 
ATOM     22  N   UNL A   1      31.533  22.143  25.317  1.00  0.00    -0.252 NA
ATOM     23  C   UNL A   1      33.383  22.300  27.405  1.00  0.00     0.004 A 
ATOM     24  C   UNL A   1      32.410  23.279  27.253  1.00  0.00     0.030 A 
ENDBRANCH  17  18
ENDBRANCH  14  17
ENDBRANCH  13  14
ENDBRANCH   6  13
ENDBRANCH   3   6
ENDBRANCH   1   2
BRANCH   1  25
ATOM     25  C   UNL A   1      32.849  29.459  24.771  1.00  0.00     0.042 C 
BRANCH  25  26
ATOM     26  C   UNL A   1      32.398  29.766  26.182  1.00  0.00     0.118 C 
BRANCH  26  27
ATOM     27  N   UNL A   1      32.311  31.201  26.450  1.00  0.00    -0.352 N 
ATOM     28  C   UNL A   1      33.092  32.012  27.238  1.00  0.00     0.251 C 
ATOM     29  H   UNL A   1      31.570  31.661  25.993  1.00  0.00     0.163 HD
ATOM     30  O   UNL A   1      32.734  33.163  27.476  1.00  0.00    -0.269 OA
BRANCH  28  31
ATOM     31  C   UNL A   1      34.350  31.494  27.816  1.00  0.00     0.039 A 
ATOM     32  C   UNL A   1      35.418  32.367  28.037  1.00  0.00     0.014 A 
ATOM     33  C   UNL A   1      34.472  30.147  28.151  1.00  0.00     0.014 A 
ATOM     34  C   UNL A   1      36.572  31.899  28.670  1.00  0.00     0.010 A 
ATOM     35  C   UNL A   1      35.554  29.719  28.905  1.00  0.00     0.010 A 
ATOM     36  C   UNL A   1      36.631  30.580  29.150  1.00  0.00    -0.014 A 
BRANCH  36  37
ATOM     37  C   UNL A   1      37.813  30.056  29.878  1.00  0.00     0.031 A 
ATOM     38  C   UNL A   1      38.088  30.519  31.287  1.00  0.00     0.074 A 
ATOM     39  C   UNL A   1      38.693  29.256  29.243  1.00  0.00     0.049 A 
ATOM     40  N   UNL A   1      39.115  30.264  32.054  1.00  0.00    -0.248 NA
ATOM     41  C   UNL A   1      37.100  31.425  31.899  1.00  0.00     0.031 C 
ATOM     42  C   UNL A   1      38.588  28.812  27.851  1.00  0.00     0.029 A 
ATOM     43  N   UNL A   1      39.866  28.694  29.680  1.00  0.00    -0.354 N 
ATOM     44  C   UNL A   1      38.920  31.012  33.209  1.00  0.00     0.074 A 
ATOM     45  C   UNL A   1      37.706  31.773  33.023  1.00  0.00     0.031 C 
ATOM     46  C   UNL A   1      39.643  28.037  27.554  1.00  0.00     0.029 A 
ATOM     47  C   UNL A   1      40.518  27.956  28.718  1.00  0.00     0.049 A 
ATOM     48  H   UNL A   1      40.210  28.807  30.595  1.00  0.00     0.167 HD
ATOM     49  C   UNL A   1      39.662  31.039  34.341  1.00  0.00     0.034 A 
ATOM     50  C   UNL A   1      41.691  27.296  28.769  1.00  0.00     0.034 A 
ATOM     51  C   UNL A   1      40.832  30.231  34.544  1.00  0.00     0.049 A 
ATOM     52  C   UNL A   1      42.467  27.291  30.059  1.00  0.00     0.074 A 
ATOM     53  C   UNL A   1      41.599  30.103  35.688  1.00  0.00     0.029 A 
ATOM     54  N   UNL A   1      41.404  29.415  33.581  1.00  0.00    -0.354 N 
ATOM     55  N   UNL A   1      42.181  27.879  31.196  1.00  0.00    -0.248 NA
ATOM     56  C   UNL A   1      43.706  26.502  30.087  1.00  0.00     0.031 C 
ATOM     57  C   UNL A   1      42.652  29.224  35.407  1.00  0.00     0.029 A 
ATOM     58  C   UNL A   1      42.520  28.784  34.100  1.00  0.00     0.049 A 
ATOM     59  H   UNL A   1      41.067  29.303  32.664  1.00  0.00     0.167 HD
ATOM     60  C   UNL A   1      43.181  27.501  32.084  1.00  0.00     0.074 A 
ATOM     61  C   UNL A   1      44.069  26.616  31.357  1.00  0.00     0.031 C 
ATOM     62  C   UNL A   1      43.359  27.863  33.378  1.00  0.00     0.034 A 
BRANCH  49  63
ATOM     63  C   UNL A   1      39.193  31.925  35.466  1.00  0.00     0.023 A 
ATOM     64  C   UNL A   1      38.259  31.432  36.400  1.00  0.00     0.012 A 
ATOM     65  C   UNL A   1      39.709  33.226  35.627  1.00  0.00     0.148 A 
ATOM     66  C   UNL A   1      37.813  32.231  37.451  1.00  0.00     0.002 A 
ATOM     67  C   UNL A   1      39.298  33.999  36.707  1.00  0.00     0.091 A 
ATOM     68  F   UNL A   1      40.579  33.687  34.717  1.00  0.00    -0.205 F 
ATOM     69  C   UNL A   1      38.341  33.509  37.611  1.00  0.00     0.022 A 
BRANCH  67  70
ATOM     70  S   UNL A   1      39.979  35.625  37.051  1.00  0.00     0.127 S 
ATOM     71  O   UNL A   1      39.287  35.979  38.289  1.00  0.00    -0.237 OA
ATOM     72  O   UNL A   1      41.403  35.333  37.210  1.00  0.00    -0.237 OA
ATOM     73  O   UNL A   1      39.653  36.450  35.896  1.00  0.00    -0.744 OA
ENDBRANCH  67  70
ENDBRANCH  49  63
BRANCH  50  74
ATOM     74  C   UNL A   1      42.166  26.525  27.585  1.00  0.00     0.023 A 
ATOM     75  C   UNL A   1      42.909  27.183  26.585  1.00  0.00     0.012 A 
ATOM     76  C   UNL A   1      41.909  25.147  27.452  1.00  0.00     0.148 A 
ATOM     77  C   UNL A   1      43.358  26.493  25.458  1.00  0.00     0.002 A 
ATOM     78  C   UNL A   1      42.406  24.452  26.355  1.00  0.00     0.091 A 
ATOM     79  F   UNL A   1      41.194  24.539  28.409  1.00  0.00    -0.205 F 
ATOM     80  C   UNL A   1      43.114  25.128  25.347  1.00  0.00     0.022 A 
BRANCH  78  81
ATOM     81  S   UNL A   1      42.256  22.670  26.190  1.00  0.00     0.127 S 
ATOM     82  O   UNL A   1      42.962  22.424  24.936  1.00  0.00    -0.237 OA
ATOM     83  O   UNL A   1      42.945  22.197  27.390  1.00  0.00    -0.237 OA
ATOM     84  O   UNL A   1      40.824  22.397  26.174  1.00  0.00    -0.744 OA
ENDBRANCH  78  81
ENDBRANCH  50  74
BRANCH  62  85
ATOM     85  C   UNL A   1      44.531  27.271  34.115  1.00  0.00     0.023 A 
ATOM     86  C   UNL A   1      45.782  27.917  34.083  1.00  0.00     0.012 A 
ATOM     87  C   UNL A   1      44.366  26.117  34.907  1.00  0.00     0.148 A 
ATOM     88  C   UNL A   1      46.861  27.404  34.801  1.00  0.00     0.002 A 
ATOM     89  C   UNL A   1      45.432  25.643  35.662  1.00  0.00     0.091 A 
ATOM     90  F   UNL A   1      43.172  25.507  34.910  1.00  0.00    -0.205 F 
ATOM     91  C   UNL A   1      46.683  26.277  35.600  1.00  0.00     0.022 A 
BRANCH  89  92
ATOM     92  S   UNL A   1      45.268  24.260  36.795  1.00  0.00     0.127 S 
ATOM     93  O   UNL A   1      46.620  24.162  37.343  1.00  0.00    -0.237 OA
ATOM     94  O   UNL A   1      44.262  24.749  37.738  1.00  0.00    -0.237 OA
ATOM     95  O   UNL A   1      44.838  23.126  35.987  1.00  0.00    -0.744 OA
ENDBRANCH  89  92
ENDBRANCH  62  85
ENDBRANCH  36  37
ENDBRANCH  28  31
ENDBRANCH  26  27
ENDBRANCH  25  26
ENDBRANCH   1  25
TORSDOF 17
ENDMDL
MODEL 2
REMARK VINA RESULT:     -11.8      2.399      3.405
REMARK SMILES Cc1cccc(C[N@@H+](C)C[C@]2(C(=O)NCCCNC(=O)c3ccc(-c4c5nc(c(-c6cccc(S(=O)(=O)[O-])c6F)c6ccc([nH]6)c(-c6cccc(S(=O)(=O)[O-])c6F)c6nc(c(-c7cccc(S(=O)(=O)[O-])c7F)c7ccc4[nH]7)C=C6)C=C5)cc3)CCC[C@H](C)C2)n1
REMARK SMILES IDX 15 1 14 2 12 3 13 4 11 6 84 7 89 8 85 9 87 10 86 11 88 12
REMARK SMILES IDX 10 13 8 14 9 15 7 17 6 18 1 19 2 20 3 21 90 22 4 23 5 24
REMARK SMILES IDX 16 25 17 26 18 27 19 28 20 30 21 31 22 32 83 33 23 34 82 35
REMARK SMILES IDX 24 36 25 37 26 38 76 39 27 40 81 41 75 42 77 43 28 44 80 45
REMARK SMILES IDX 74 46 73 47 29 49 61 50 41 51 60 52 42 53 45 54 59 55 78 56
REMARK SMILES IDX 43 57 44 58 58 60 79 61 46 62 30 63 31 64 39 65 32 66 34 67
REMARK SMILES IDX 40 68 33 69 35 70 36 71 37 72 38 73 62 74 63 75 71 76 64 77
REMARK SMILES IDX 66 78 72 79 65 80 67 81 68 82 69 83 70 84 47 85 48 86 56 87
REMARK SMILES IDX 49 88 51 89 57 90 50 91 52 92 53 93 54 94 55 95
REMARK H PARENT 14 5 8 16 18 29 77 48 45 59
REMARK Flexibility Score: inf
ROOT
ATOM      1  C   UNL A   1      33.121  26.072  25.591  1.00  0.00     0.117 C 
ENDROOT
BRANCH   1   2
ATOM      2  N   UNL A   1      33.698  25.955  24.269  1.00  0.00    -0.355 N 
ATOM      3  C   UNL A   1      34.035  24.845  23.557  1.00  0.00     0.231 C 
ATOM      4  O   UNL A   1      34.205  25.026  22.344  1.00  0.00    -0.274 OA
ATOM      5  H   UNL A   1      33.876  26.810  23.815  1.00  0.00     0.163 HD
BRANCH   3   6
ATOM      6  C   UNL A   1      34.225  23.441  24.201  1.00  0.00     0.098 C 
ATOM      7  C   UNL A   1      35.006  22.547  23.171  1.00  0.00     0.023 C 
ATOM      8  C   UNL A   1      35.090  23.474  25.488  1.00  0.00     0.026 C 
ATOM      9  C   UNL A   1      36.463  22.963  22.942  1.00  0.00     0.002 C 
ATOM     10  C   UNL A   1      36.529  23.968  25.249  1.00  0.00    -0.013 C 
ATOM     11  C   UNL A   1      37.244  23.065  24.244  1.00  0.00     0.003 C 
ATOM     12  C   UNL A   1      37.306  24.022  26.567  1.00  0.00     0.007 C 
BRANCH   6  13
ATOM     13  C   UNL A   1      32.820  22.739  24.379  1.00  0.00     0.279 C 
BRANCH  13  14
ATOM     14  N   UNL A   1      32.705  21.333  23.975  1.00  0.00    -0.331 N 
ATOM     15  C   UNL A   1      31.869  21.125  22.792  1.00  0.00     0.333 C 
ATOM     16  H   UNL A   1      33.679  21.134  23.743  1.00  0.00     0.348 HD
BRANCH  14  17
ATOM     17  C   UNL A   1      32.353  20.350  25.018  1.00  0.00     0.319 C 
BRANCH  17  18
ATOM     18  C   UNL A   1      33.057  18.999  24.980  1.00  0.00     0.095 A 
ATOM     19  C   UNL A   1      32.251  15.491  25.779  1.00  0.00     0.067 C 
ATOM     20  C   UNL A   1      33.023  16.699  25.335  1.00  0.00     0.038 A 
ATOM     21  C   UNL A   1      34.319  16.565  24.845  1.00  0.00     0.023 A 
ATOM     22  N   UNL A   1      32.395  17.898  25.423  1.00  0.00    -0.252 NA
ATOM     23  C   UNL A   1      34.997  17.701  24.423  1.00  0.00     0.004 A 
ATOM     24  C   UNL A   1      34.360  18.933  24.487  1.00  0.00     0.030 A 
ENDBRANCH  17  18
ENDBRANCH  14  17
ENDBRANCH  13  14
ENDBRANCH   6  13
ENDBRANCH   3   6
ENDBRANCH   1   2
BRANCH   1  25
ATOM     25  C   UNL A   1      32.811  27.492  26.002  1.00  0.00     0.042 C 
BRANCH  25  26
ATOM     26  C   UNL A   1      33.956  28.158  26.732  1.00  0.00     0.118 C 
BRANCH  26  27
ATOM     27  N   UNL A   1      33.735  29.586  26.950  1.00  0.00    -0.352 N 
ATOM     28  C   UNL A   1      34.457  30.502  27.677  1.00  0.00     0.251 C 
ATOM     29  H   UNL A   1      32.937  29.953  26.505  1.00  0.00     0.163 HD
ATOM     30  O   UNL A   1      33.995  31.621  27.887  1.00  0.00    -0.269 OA
BRANCH  28  31
ATOM     31  C   UNL A   1      35.779  30.134  28.226  1.00  0.00     0.039 A 
ATOM     32  C   UNL A   1      35.866  29.589  29.510  1.00  0.00     0.014 A 
ATOM     33  C   UNL A   1      36.935  30.315  27.468  1.00  0.00     0.014 A 
ATOM     34  C   UNL A   1      37.103  29.154  29.992  1.00  0.00     0.010 A 
ATOM     35  C   UNL A   1      38.130  29.753  27.888  1.00  0.00     0.010 A 
ATOM     36  C   UNL A   1      38.238  29.191  29.167  1.00  0.00    -0.014 A 
BRANCH  36  37
ATOM     37  C   UNL A   1      39.560  28.688  29.617  1.00  0.00     0.031 A 
ATOM     38  C   UNL A   1      40.304  29.416  30.708  1.00  0.00     0.074 A 
ATOM     39  C   UNL A   1      40.137  27.650  28.979  1.00  0.00     0.049 A 
ATOM     40  N   UNL A   1      41.507  29.202  31.172  1.00  0.00    -0.248 NA
ATOM     41  C   UNL A   1      39.623  30.565  31.331  1.00  0.00     0.031 C 
ATOM     42  C   UNL A   1      39.559  26.920  27.847  1.00  0.00     0.029 A 
ATOM     43  N   UNL A   1      41.353  27.044  29.174  1.00  0.00    -0.354 N 
ATOM     44  C   UNL A   1      41.742  30.213  32.096  1.00  0.00     0.074 A 
ATOM     45  C   UNL A   1      40.581  31.072  32.091  1.00  0.00     0.031 C 
ATOM     46  C   UNL A   1      40.413  25.959  27.460  1.00  0.00     0.029 A 
ATOM     47  C   UNL A   1      41.612  26.024  28.288  1.00  0.00     0.049 A 
ATOM     48  H   UNL A   1      41.981  27.314  29.883  1.00  0.00     0.167 HD
ATOM     49  C   UNL A   1      42.812  30.392  32.907  1.00  0.00     0.034 A 
ATOM     50  C   UNL A   1      42.697  25.237  28.154  1.00  0.00     0.034 A 
ATOM     51  C   UNL A   1      43.934  29.498  32.952  1.00  0.00     0.049 A 
ATOM     52  C   UNL A   1      43.847  25.418  29.108  1.00  0.00     0.074 A 
ATOM     53  C   UNL A   1      45.022  29.527  33.806  1.00  0.00     0.029 A 
ATOM     54  N   UNL A   1      44.114  28.413  32.109  1.00  0.00    -0.354 N 
ATOM     55  N   UNL A   1      43.982  26.283  30.085  1.00  0.00    -0.248 NA
ATOM     56  C   UNL A   1      44.979  24.492  28.968  1.00  0.00     0.031 C 
ATOM     57  C   UNL A   1      45.872  28.471  33.461  1.00  0.00     0.029 A 
ATOM     58  C   UNL A   1      45.298  27.768  32.415  1.00  0.00     0.049 A 
ATOM     59  H   UNL A   1      43.490  28.143  31.397  1.00  0.00     0.167 HD
ATOM     60  C   UNL A   1      45.191  25.982  30.699  1.00  0.00     0.074 A 
ATOM     61  C   UNL A   1      45.742  24.840  29.995  1.00  0.00     0.031 C 
ATOM     62  C   UNL A   1      45.801  26.599  31.740  1.00  0.00     0.034 A 
BRANCH  49  63
ATOM     63  C   UNL A   1      42.787  31.567  33.850  1.00  0.00     0.023 A 
ATOM     64  C   UNL A   1      43.139  32.849  33.377  1.00  0.00     0.012 A 
ATOM     65  C   UNL A   1      42.371  31.416  35.187  1.00  0.00     0.148 A 
ATOM     66  C   UNL A   1      43.120  33.952  34.229  1.00  0.00     0.002 A 
ATOM     67  C   UNL A   1      42.305  32.529  36.017  1.00  0.00     0.091 A 
ATOM     68  F   UNL A   1      42.061  30.187  35.625  1.00  0.00    -0.205 F 
ATOM     69  C   UNL A   1      42.692  33.794  35.544  1.00  0.00     0.022 A 
BRANCH  67  70
ATOM     70  S   UNL A   1      41.688  32.448  37.701  1.00  0.00     0.127 S 
ATOM     71  O   UNL A   1      41.973  33.799  38.185  1.00  0.00    -0.237 OA
ATOM     72  O   UNL A   1      40.270  32.160  37.495  1.00  0.00    -0.237 OA
ATOM     73  O   UNL A   1      42.436  31.382  38.353  1.00  0.00    -0.744 OA
ENDBRANCH  67  70
ENDBRANCH  49  63
BRANCH  50  74
ATOM     74  C   UNL A   1      42.715  24.159  27.125  1.00  0.00     0.023 A 
ATOM     75  C   UNL A   1      43.381  24.382  25.903  1.00  0.00     0.012 A 
ATOM     76  C   UNL A   1      42.102  22.912  27.354  1.00  0.00     0.148 A 
ATOM     77  C   UNL A   1      43.406  23.398  24.914  1.00  0.00     0.002 A 
ATOM     78  C   UNL A   1      42.177  21.916  26.386  1.00  0.00     0.091 A 
ATOM     79  F   UNL A   1      41.466  22.721  28.518  1.00  0.00    -0.205 F 
ATOM     80  C   UNL A   1      42.813  22.163  25.159  1.00  0.00     0.022 A 
BRANCH  78  81
ATOM     81  S   UNL A   1      41.557  20.253  26.662  1.00  0.00     0.127 S 
ATOM     82  O   UNL A   1      41.909  19.590  25.409  1.00  0.00    -0.237 OA
ATOM     83  O   UNL A   1      42.337  19.829  27.825  1.00  0.00    -0.237 OA
ATOM     84  O   UNL A   1      40.130  20.404  26.919  1.00  0.00    -0.744 OA
ENDBRANCH  78  81
ENDBRANCH  50  74
BRANCH  62  85
ATOM     85  C   UNL A   1      47.111  26.034  32.219  1.00  0.00     0.023 A 
ATOM     86  C   UNL A   1      48.322  26.511  31.683  1.00  0.00     0.012 A 
ATOM     87  C   UNL A   1      47.140  25.087  33.263  1.00  0.00     0.148 A 
ATOM     88  C   UNL A   1      49.543  26.029  32.153  1.00  0.00     0.002 A 
ATOM     89  C   UNL A   1      48.361  24.652  33.763  1.00  0.00     0.091 A 
ATOM     90  F   UNL A   1      45.975  24.633  33.748  1.00  0.00    -0.205 F 
ATOM     91  C   UNL A   1      49.562  25.112  33.201  1.00  0.00     0.022 A 
BRANCH  89  92
ATOM     92  S   UNL A   1      48.484  23.550  35.176  1.00  0.00     0.127 S 
ATOM     93  O   UNL A   1      49.902  23.661  35.517  1.00  0.00    -0.237 OA
ATOM     94  O   UNL A   1      47.574  24.175  36.136  1.00  0.00    -0.237 OA
ATOM     95  O   UNL A   1      48.056  22.240  34.702  1.00  0.00    -0.744 OA
ENDBRANCH  89  92
ENDBRANCH  62  85
ENDBRANCH  36  37
ENDBRANCH  28  31
ENDBRANCH  26  27
ENDBRANCH  25  26
ENDBRANCH   1  25
TORSDOF 17
ENDMDL
MODEL 3
REMARK VINA RESULT:     -11.8      4.782      9.994
REMARK SMILES Cc1cccc(C[N@@H+](C)C[C@]2(C(=O)NCCCNC(=O)c3ccc(-c4c5nc(c(-c6cccc(S(=O)(=O)[O-])c6F)c6ccc([nH]6)c(-c6cccc(S(=O)(=O)[O-])c6F)c6nc(c(-c7cccc(S(=O)(=O)[O-])c7F)c7ccc4[nH]7)C=C6)C=C5)cc3)CCC[C@H](C)C2)n1
REMARK SMILES IDX 15 1 14 2 12 3 13 4 11 6 84 7 89 8 85 9 87 10 86 11 88 12
REMARK SMILES IDX 10 13 8 14 9 15 7 17 6 18 1 19 2 20 3 21 90 22 4 23 5 24
REMARK SMILES IDX 16 25 17 26 18 27 19 28 20 30 21 31 22 32 83 33 23 34 82 35
REMARK SMILES IDX 24 36 25 37 26 38 76 39 27 40 81 41 75 42 77 43 28 44 80 45
REMARK SMILES IDX 74 46 73 47 29 49 61 50 41 51 60 52 42 53 45 54 59 55 78 56
REMARK SMILES IDX 43 57 44 58 58 60 79 61 46 62 30 63 31 64 39 65 32 66 34 67
REMARK SMILES IDX 40 68 33 69 35 70 36 71 37 72 38 73 62 74 63 75 71 76 64 77
REMARK SMILES IDX 66 78 72 79 65 80 67 81 68 82 69 83 70 84 47 85 48 86 56 87
REMARK SMILES IDX 49 88 51 89 57 90 50 91 52 92 53 93 54 94 55 95
REMARK H PARENT 14 5 8 16 18 29 77 48 45 59
REMARK Flexibility Score: inf
ROOT
ATOM      1  C   UNL A   1      35.252  23.079  26.520  1.00  0.00     0.117 C 
ENDROOT
BRANCH   1   2
ATOM      2  N   UNL A   1      33.955  23.127  27.161  1.00  0.00    -0.355 N 
ATOM      3  C   UNL A   1      32.745  23.493  26.659  1.00  0.00     0.231 C 
ATOM      4  O   UNL A   1      31.764  23.134  27.325  1.00  0.00    -0.274 OA
ATOM      5  H   UNL A   1      33.948  22.853  28.106  1.00  0.00     0.163 HD
BRANCH   3   6
ATOM      6  C   UNL A   1      32.576  24.326  25.355  1.00  0.00     0.098 C 
ATOM      7  C   UNL A   1      31.037  24.431  25.054  1.00  0.00     0.023 C 
ATOM      8  C   UNL A   1      33.090  25.783  25.494  1.00  0.00     0.026 C 
ATOM      9  C   UNL A   1      30.249  25.287  26.052  1.00  0.00     0.002 C 
ATOM     10  C   UNL A   1      32.335  26.603  26.557  1.00  0.00    -0.013 C 
ATOM     11  C   UNL A   1      30.847  26.677  26.216  1.00  0.00     0.003 C 
ATOM     12  C   UNL A   1      32.927  28.009  26.673  1.00  0.00     0.007 C 
BRANCH   6  13
ATOM     13  C   UNL A   1      33.186  23.534  24.130  1.00  0.00     0.279 C 
BRANCH  13  14
ATOM     14  N   UNL A   1      32.501  23.647  22.838  1.00  0.00    -0.331 N 
ATOM     15  C   UNL A   1      32.333  22.368  22.146  1.00  0.00     0.333 C 
ATOM     16  H   UNL A   1      31.590  23.988  23.148  1.00  0.00     0.348 HD
BRANCH  14  17
ATOM     17  C   UNL A   1      32.990  24.669  21.893  1.00  0.00     0.319 C 
BRANCH  17  18
ATOM     18  C   UNL A   1      32.623  26.121  22.172  1.00  0.00     0.095 A 
ATOM     19  C   UNL A   1      29.585  28.053  22.966  1.00  0.00     0.067 C 
ATOM     20  C   UNL A   1      31.024  27.733  22.681  1.00  0.00     0.038 A 
ATOM     21  C   UNL A   1      31.990  28.732  22.737  1.00  0.00     0.023 A 
ATOM     22  N   UNL A   1      31.321  26.443  22.386  1.00  0.00    -0.252 NA
ATOM     23  C   UNL A   1      33.315  28.397  22.488  1.00  0.00     0.004 A 
ATOM     24  C   UNL A   1      33.639  27.077  22.205  1.00  0.00     0.030 A 
ENDBRANCH  17  18
ENDBRANCH  14  17
ENDBRANCH  13  14
ENDBRANCH   6  13
ENDBRANCH   3   6
ENDBRANCH   1   2
BRANCH   1  25
ATOM     25  C   UNL A   1      35.659  21.700  26.059  1.00  0.00     0.042 C 
BRANCH  25  26
ATOM     26  C   UNL A   1      36.861  21.715  25.142  1.00  0.00     0.118 C 
BRANCH  26  27
ATOM     27  N   UNL A   1      37.852  20.698  25.488  1.00  0.00    -0.352 N 
ATOM     28  C   UNL A   1      39.124  20.823  25.994  1.00  0.00     0.251 C 
ATOM     29  H   UNL A   1      37.562  19.770  25.332  1.00  0.00     0.163 HD
ATOM     30  O   UNL A   1      39.865  19.845  26.038  1.00  0.00    -0.269 OA
BRANCH  28  31
ATOM     31  C   UNL A   1      39.607  22.139  26.462  1.00  0.00     0.039 A 
ATOM     32  C   UNL A   1      40.623  22.200  27.420  1.00  0.00     0.014 A 
ATOM     33  C   UNL A   1      39.067  23.316  25.946  1.00  0.00     0.014 A 
ATOM     34  C   UNL A   1      41.146  23.441  27.793  1.00  0.00     0.010 A 
ATOM     35  C   UNL A   1      39.682  24.530  26.209  1.00  0.00     0.010 A 
ATOM     36  C   UNL A   1      40.710  24.613  27.156  1.00  0.00    -0.014 A 
BRANCH  36  37
ATOM     37  C   UNL A   1      41.277  25.946  27.480  1.00  0.00     0.031 A 
ATOM     38  C   UNL A   1      42.696  26.270  27.084  1.00  0.00     0.074 A 
ATOM     39  C   UNL A   1      40.563  26.820  28.219  1.00  0.00     0.049 A 
ATOM     40  N   UNL A   1      43.409  27.330  27.361  1.00  0.00    -0.248 NA
ATOM     41  C   UNL A   1      43.425  25.248  26.311  1.00  0.00     0.031 C 
ATOM     42  C   UNL A   1      39.215  26.587  28.742  1.00  0.00     0.029 A 
ATOM     43  N   UNL A   1      40.884  28.071  28.681  1.00  0.00    -0.354 N 
ATOM     44  C   UNL A   1      44.675  27.080  26.843  1.00  0.00     0.074 A 
ATOM     45  C   UNL A   1      44.650  25.749  26.283  1.00  0.00     0.031 C 
ATOM     46  C   UNL A   1      38.820  27.664  29.440  1.00  0.00     0.029 A 
ATOM     47  C   UNL A   1      39.896  28.649  29.445  1.00  0.00     0.049 A 
ATOM     48  H   UNL A   1      41.740  28.514  28.484  1.00  0.00     0.167 HD
ATOM     49  C   UNL A   1      45.753  27.897  26.802  1.00  0.00     0.034 A 
ATOM     50  C   UNL A   1      39.867  29.834  30.083  1.00  0.00     0.034 A 
ATOM     51  C   UNL A   1      45.751  29.243  27.304  1.00  0.00     0.049 A 
ATOM     52  C   UNL A   1      41.056  30.750  29.971  1.00  0.00     0.074 A 
ATOM     53  C   UNL A   1      46.754  30.192  27.222  1.00  0.00     0.029 A 
ATOM     54  N   UNL A   1      44.695  29.831  27.981  1.00  0.00    -0.354 N 
ATOM     55  N   UNL A   1      42.188  30.558  29.339  1.00  0.00    -0.248 NA
ATOM     56  C   UNL A   1      40.950  32.061  30.627  1.00  0.00     0.031 C 
ATOM     57  C   UNL A   1      46.310  31.349  27.872  1.00  0.00     0.029 A 
ATOM     58  C   UNL A   1      45.022  31.128  28.331  1.00  0.00     0.049 A 
ATOM     59  H   UNL A   1      43.839  29.389  28.184  1.00  0.00     0.167 HD
ATOM     60  C   UNL A   1      42.913  31.734  29.487  1.00  0.00     0.074 A 
ATOM     61  C   UNL A   1      42.082  32.642  30.252  1.00  0.00     0.031 C 
ATOM     62  C   UNL A   1      44.159  32.035  29.043  1.00  0.00     0.034 A 
BRANCH  49  63
ATOM     63  C   UNL A   1      47.003  27.376  26.140  1.00  0.00     0.023 A 
ATOM     64  C   UNL A   1      47.207  27.597  24.762  1.00  0.00     0.012 A 
ATOM     65  C   UNL A   1      47.995  26.710  26.886  1.00  0.00     0.148 A 
ATOM     66  C   UNL A   1      48.356  27.129  24.128  1.00  0.00     0.002 A 
ATOM     67  C   UNL A   1      49.161  26.291  26.258  1.00  0.00     0.091 A 
ATOM     68  F   UNL A   1      47.775  26.490  28.190  1.00  0.00    -0.205 F 
ATOM     69  C   UNL A   1      49.337  26.486  24.877  1.00  0.00     0.022 A 
BRANCH  67  70
ATOM     70  S   UNL A   1      50.523  25.530  27.147  1.00  0.00     0.127 S 
ATOM     71  O   UNL A   1      50.790  26.524  28.186  1.00  0.00    -0.237 OA
ATOM     72  O   UNL A   1      49.917  24.290  27.632  1.00  0.00    -0.237 OA
ATOM     73  O   UNL A   1      51.588  25.346  26.172  1.00  0.00    -0.744 OA
ENDBRANCH  67  70
ENDBRANCH  49  63
BRANCH  50  74
ATOM     74  C   UNL A   1      38.642  30.254  30.823  1.00  0.00     0.023 A 
ATOM     75  C   UNL A   1      38.507  29.917  32.184  1.00  0.00     0.012 A 
ATOM     76  C   UNL A   1      37.624  31.001  30.198  1.00  0.00     0.148 A 
ATOM     77  C   UNL A   1      37.368  30.284  32.901  1.00  0.00     0.002 A 
ATOM     78  C   UNL A   1      36.517  31.411  30.932  1.00  0.00     0.091 A 
ATOM     79  F   UNL A   1      37.765  31.305  28.900  1.00  0.00    -0.205 F 
ATOM     80  C   UNL A   1      36.378  31.037  32.278  1.00  0.00     0.022 A 
BRANCH  78  81
ATOM     81  S   UNL A   1      35.255  32.493  30.252  1.00  0.00     0.127 S 
ATOM     82  O   UNL A   1      34.762  31.707  29.124  1.00  0.00    -0.237 OA
ATOM     83  O   UNL A   1      34.324  32.614  31.374  1.00  0.00    -0.237 OA
ATOM     84  O   UNL A   1      35.942  33.731  29.907  1.00  0.00    -0.744 OA
ENDBRANCH  78  81
ENDBRANCH  50  74
BRANCH  62  85
ATOM     85  C   UNL A   1      44.690  33.414  29.330  1.00  0.00     0.023 A 
ATOM     86  C   UNL A   1      45.392  33.663  30.525  1.00  0.00     0.012 A 
ATOM     87  C   UNL A   1      44.563  34.440  28.373  1.00  0.00     0.148 A 
ATOM     88  C   UNL A   1      45.930  34.924  30.780  1.00  0.00     0.002 A 
ATOM     89  C   UNL A   1      45.148  35.678  28.610  1.00  0.00     0.091 A 
ATOM     90  F   UNL A   1      43.876  34.187  27.249  1.00  0.00    -0.205 F 
ATOM     91  C   UNL A   1      45.820  35.925  29.818  1.00  0.00     0.022 A 
BRANCH  89  92
ATOM     92  S   UNL A   1      45.145  36.994  27.388  1.00  0.00     0.127 S 
ATOM     93  O   UNL A   1      45.819  38.073  28.110  1.00  0.00    -0.237 OA
ATOM     94  O   UNL A   1      45.926  36.407  26.299  1.00  0.00    -0.237 OA
ATOM     95  O   UNL A   1      43.746  37.238  27.064  1.00  0.00    -0.744 OA
ENDBRANCH  89  92
ENDBRANCH  62  85
ENDBRANCH  36  37
ENDBRANCH  28  31
ENDBRANCH  26  27
ENDBRANCH  25  26
ENDBRANCH   1  25
TORSDOF 17
ENDMDL
