MODEL 1
REMARK VINA RESULT:     -11.5      0.000      0.000
REMARK SMILES CC1([C@](C)(Nc2cccc(Cl)c2)C(=O)NCCCNC(=O)c2ccc(-c3c4nc(c(-c5cccc(S(=O)(=O)[O-])c5F)c5ccc([nH]5)c(-c5cccc(S(=O)(=O)[O-])c5F)c5nc(c(-c6cccc(S(=O)(=O)[O-])c6F)c6ccc3[nH]6)C=C5)C=C4)cc2)CC1
REMARK SMILES IDX 17 1 16 2 15 3 13 4 14 5 3 7 4 8 2 9 1 10 85 11 86 12 5 13
REMARK SMILES IDX 6 15 7 16 12 17 8 18 10 19 9 20 11 21 18 22 19 23 20 24
REMARK SMILES IDX 21 26 22 27 23 28 84 29 24 30 83 31 25 32 26 33 27 34 77 35
REMARK SMILES IDX 28 36 82 37 76 38 78 39 29 40 81 41 75 42 74 43 30 45 62 46
REMARK SMILES IDX 42 47 61 48 43 49 46 50 60 51 79 52 44 53 45 54 59 56 80 57
REMARK SMILES IDX 47 58 31 59 32 60 40 61 33 62 35 63 41 64 34 65 36 66 37 67
REMARK SMILES IDX 38 68 39 69 63 70 64 71 72 72 65 73 67 74 73 75 66 76 68 77
REMARK SMILES IDX 69 78 70 79 71 80 48 81 49 82 57 83 50 84 52 85 58 86 51 87
REMARK SMILES IDX 53 88 54 89 55 90 56 91
REMARK H PARENT 15 6 5 14 19 25 78 44 46 55
REMARK Flexibility Score: inf
ROOT
ATOM      1  C   UNL A   1      31.826  28.586  26.250  1.00  0.00     0.042 C 
ENDROOT
BRANCH   1   2
ATOM      2  C   UNL A   1      32.389  27.201  26.529  1.00  0.00     0.117 C 
BRANCH   2   3
ATOM      3  N   UNL A   1      31.402  26.184  26.856  1.00  0.00    -0.354 N 
ATOM      4  C   UNL A   1      31.092  25.015  26.209  1.00  0.00     0.245 C 
ATOM      5  O   UNL A   1      30.297  24.262  26.787  1.00  0.00    -0.272 OA
ATOM      6  H   UNL A   1      30.873  26.362  27.667  1.00  0.00     0.163 HD
BRANCH   4   7
ATOM      7  C   UNL A   1      31.721  24.653  24.821  1.00  0.00     0.119 C 
ATOM      8  C   UNL A   1      31.023  23.382  24.263  1.00  0.00     0.046 C 
BRANCH   7   9
ATOM      9  C   UNL A   1      33.272  24.304  24.956  1.00  0.00    -0.001 C 
ATOM     10  C   UNL A   1      34.218  25.125  24.100  1.00  0.00     0.014 C 
ATOM     11  C   UNL A   1      33.658  22.834  25.133  1.00  0.00     0.010 C 
ATOM     12  C   UNL A   1      33.882  23.779  26.261  1.00  0.00     0.010 C 
ENDBRANCH   7   9
BRANCH   7  13
ATOM     13  N   UNL A   1      31.512  25.713  23.796  1.00  0.00    -0.371 N 
ATOM     14  H   UNL A   1      32.299  25.898  23.236  1.00  0.00     0.161 HD
BRANCH  13  15
ATOM     15  C   UNL A   1      30.399  26.487  23.492  1.00  0.00     0.036 A 
ATOM     16  C   UNL A   1      29.086  26.233  23.903  1.00  0.00     0.026 A 
ATOM     17  C   UNL A   1      30.613  27.700  22.810  1.00  0.00     0.046 A 
ATOM     18  C   UNL A   1      28.067  27.190  23.763  1.00  0.00     0.004 A 
ATOM     19  C   UNL A   1      29.587  28.630  22.615  1.00  0.00     0.043 A 
ATOM     20  C   UNL A   1      28.319  28.398  23.127  1.00  0.00     0.020 A 
ATOM     21  Cl  UNL A   1      29.903  30.078  21.740  1.00  0.00    -0.084 Cl
ENDBRANCH  13  15
ENDBRANCH   7  13
ENDBRANCH   4   7
ENDBRANCH   2   3
ENDBRANCH   1   2
BRANCH   1  22
ATOM     22  C   UNL A   1      32.823  29.588  25.692  1.00  0.00     0.118 C 
BRANCH  22  23
ATOM     23  N   UNL A   1      32.526  30.954  26.098  1.00  0.00    -0.352 N 
ATOM     24  C   UNL A   1      33.123  31.720  27.071  1.00  0.00     0.251 C 
ATOM     25  H   UNL A   1      31.794  31.390  25.606  1.00  0.00     0.163 HD
ATOM     26  O   UNL A   1      32.609  32.783  27.404  1.00  0.00    -0.269 OA
BRANCH  24  27
ATOM     27  C   UNL A   1      34.364  31.255  27.728  1.00  0.00     0.039 A 
ATOM     28  C   UNL A   1      35.417  32.158  27.897  1.00  0.00     0.014 A 
ATOM     29  C   UNL A   1      34.502  29.934  28.166  1.00  0.00     0.014 A 
ATOM     30  C   UNL A   1      36.583  31.751  28.551  1.00  0.00     0.010 A 
ATOM     31  C   UNL A   1      35.631  29.554  28.891  1.00  0.00     0.010 A 
ATOM     32  C   UNL A   1      36.691  30.454  29.077  1.00  0.00    -0.014 A 
BRANCH  32  33
ATOM     33  C   UNL A   1      37.913  30.018  29.804  1.00  0.00     0.031 A 
ATOM     34  C   UNL A   1      38.196  30.539  31.190  1.00  0.00     0.074 A 
ATOM     35  C   UNL A   1      38.793  29.193  29.202  1.00  0.00     0.049 A 
ATOM     36  N   UNL A   1      39.219  30.299  31.968  1.00  0.00    -0.248 NA
ATOM     37  C   UNL A   1      37.210  31.467  31.770  1.00  0.00     0.031 C 
ATOM     38  C   UNL A   1      38.670  28.668  27.840  1.00  0.00     0.029 A 
ATOM     39  N   UNL A   1      39.979  28.664  29.653  1.00  0.00    -0.354 N 
ATOM     40  C   UNL A   1      39.012  31.056  33.115  1.00  0.00     0.074 A 
ATOM     41  C   UNL A   1      37.790  31.801  32.915  1.00  0.00     0.031 C 
ATOM     42  C   UNL A   1      39.727  27.883  27.572  1.00  0.00     0.029 A 
ATOM     43  C   UNL A   1      40.619  27.872  28.727  1.00  0.00     0.049 A 
ATOM     44  H   UNL A   1      40.335  28.834  30.554  1.00  0.00     0.167 HD
ATOM     45  C   UNL A   1      39.748  31.098  34.252  1.00  0.00     0.034 A 
ATOM     46  C   UNL A   1      41.795  27.216  28.801  1.00  0.00     0.034 A 
ATOM     47  C   UNL A   1      40.944  30.329  34.468  1.00  0.00     0.049 A 
ATOM     48  C   UNL A   1      42.588  27.279  30.080  1.00  0.00     0.074 A 
ATOM     49  C   UNL A   1      41.733  30.268  35.602  1.00  0.00     0.029 A 
ATOM     50  N   UNL A   1      41.523  29.487  33.532  1.00  0.00    -0.354 N 
ATOM     51  N   UNL A   1      42.301  27.892  31.202  1.00  0.00    -0.248 NA
ATOM     52  C   UNL A   1      43.851  26.525  30.116  1.00  0.00     0.031 C 
ATOM     53  C   UNL A   1      42.799  29.399  35.347  1.00  0.00     0.029 A 
ATOM     54  C   UNL A   1      42.657  28.900  34.063  1.00  0.00     0.049 A 
ATOM     55  H   UNL A   1      41.177  29.329  32.624  1.00  0.00     0.167 HD
ATOM     56  C   UNL A   1      43.319  27.560  32.088  1.00  0.00     0.074 A 
ATOM     57  C   UNL A   1      44.219  26.675  31.380  1.00  0.00     0.031 C 
ATOM     58  C   UNL A   1      43.503  27.964  33.370  1.00  0.00     0.034 A 
BRANCH  45  59
ATOM     59  C   UNL A   1      39.241  31.954  35.384  1.00  0.00     0.023 A 
ATOM     60  C   UNL A   1      38.345  31.397  36.319  1.00  0.00     0.012 A 
ATOM     61  C   UNL A   1      39.705  33.271  35.572  1.00  0.00     0.148 A 
ATOM     62  C   UNL A   1      37.894  32.144  37.406  1.00  0.00     0.002 A 
ATOM     63  C   UNL A   1      39.286  33.995  36.682  1.00  0.00     0.091 A 
ATOM     64  F   UNL A   1      40.544  33.788  34.664  1.00  0.00    -0.205 F 
ATOM     65  C   UNL A   1      38.373  33.437  37.594  1.00  0.00     0.022 A 
BRANCH  63  66
ATOM     66  S   UNL A   1      39.901  35.639  37.062  1.00  0.00     0.127 S 
ATOM     67  O   UNL A   1      39.098  35.991  38.233  1.00  0.00    -0.237 OA
ATOM     68  O   UNL A   1      41.312  35.382  37.345  1.00  0.00    -0.237 OA
ATOM     69  O   UNL A   1      39.653  36.447  35.876  1.00  0.00    -0.744 OA
ENDBRANCH  63  66
ENDBRANCH  45  59
BRANCH  46  70
ATOM     70  C   UNL A   1      42.275  26.388  27.656  1.00  0.00     0.023 A 
ATOM     71  C   UNL A   1      43.107  26.971  26.680  1.00  0.00     0.012 A 
ATOM     72  C   UNL A   1      41.900  25.038  27.515  1.00  0.00     0.148 A 
ATOM     73  C   UNL A   1      43.515  26.244  25.562  1.00  0.00     0.002 A 
ATOM     74  C   UNL A   1      42.358  24.302  26.428  1.00  0.00     0.091 A 
ATOM     75  F   UNL A   1      41.096  24.500  28.444  1.00  0.00    -0.205 F 
ATOM     76  C   UNL A   1      43.146  24.908  25.438  1.00  0.00     0.022 A 
BRANCH  74  77
ATOM     77  S   UNL A   1      42.036  22.542  26.259  1.00  0.00     0.127 S 
ATOM     78  O   UNL A   1      42.653  22.008  27.470  1.00  0.00    -0.237 OA
ATOM     79  O   UNL A   1      40.574  22.499  26.240  1.00  0.00    -0.237 OA
ATOM     80  O   UNL A   1      42.660  22.155  25.001  1.00  0.00    -0.744 OA
ENDBRANCH  74  77
ENDBRANCH  46  70
BRANCH  58  81
ATOM     81  C   UNL A   1      44.691  27.411  34.114  1.00  0.00     0.023 A 
ATOM     82  C   UNL A   1      45.921  28.097  34.089  1.00  0.00     0.012 A 
ATOM     83  C   UNL A   1      44.565  26.246  34.897  1.00  0.00     0.148 A 
ATOM     84  C   UNL A   1      47.017  27.612  34.800  1.00  0.00     0.002 A 
ATOM     85  C   UNL A   1      45.647  25.796  35.644  1.00  0.00     0.091 A 
ATOM     86  F   UNL A   1      43.390  25.597  34.894  1.00  0.00    -0.205 F 
ATOM     87  C   UNL A   1      46.878  26.470  35.586  1.00  0.00     0.022 A 
BRANCH  85  88
ATOM     88  S   UNL A   1      45.533  24.393  36.758  1.00  0.00     0.127 S 
ATOM     89  O   UNL A   1      44.503  24.840  37.695  1.00  0.00    -0.237 OA
ATOM     90  O   UNL A   1      45.114  23.316  35.860  1.00  0.00    -0.237 OA
ATOM     91  O   UNL A   1      46.863  24.221  37.326  1.00  0.00    -0.744 OA
ENDBRANCH  85  88
ENDBRANCH  58  81
ENDBRANCH  32  33
ENDBRANCH  24  27
ENDBRANCH  22  23
ENDBRANCH   1  22
TORSDOF 16
ENDMDL
MODEL 2
REMARK VINA RESULT:     -11.2      2.017      2.668
REMARK SMILES CC1([C@](C)(Nc2cccc(Cl)c2)C(=O)NCCCNC(=O)c2ccc(-c3c4nc(c(-c5cccc(S(=O)(=O)[O-])c5F)c5ccc([nH]5)c(-c5cccc(S(=O)(=O)[O-])c5F)c5nc(c(-c6cccc(S(=O)(=O)[O-])c6F)c6ccc3[nH]6)C=C5)C=C4)cc2)CC1
REMARK SMILES IDX 17 1 16 2 15 3 13 4 14 5 3 7 4 8 2 9 1 10 85 11 86 12 5 13
REMARK SMILES IDX 6 15 7 16 12 17 8 18 10 19 9 20 11 21 18 22 19 23 20 24
REMARK SMILES IDX 21 26 22 27 23 28 84 29 24 30 83 31 25 32 26 33 27 34 77 35
REMARK SMILES IDX 28 36 82 37 76 38 78 39 29 40 81 41 75 42 74 43 30 45 62 46
REMARK SMILES IDX 42 47 61 48 43 49 46 50 60 51 79 52 44 53 45 54 59 56 80 57
REMARK SMILES IDX 47 58 31 59 32 60 40 61 33 62 35 63 41 64 34 65 36 66 37 67
REMARK SMILES IDX 38 68 39 69 63 70 64 71 72 72 65 73 67 74 73 75 66 76 68 77
REMARK SMILES IDX 69 78 70 79 71 80 48 81 49 82 57 83 50 84 52 85 58 86 51 87
REMARK SMILES IDX 53 88 54 89 55 90 56 91
REMARK H PARENT 15 6 5 14 19 25 78 44 46 55
REMARK Flexibility Score: inf
ROOT
ATOM      1  C   UNL A   1      33.029  28.245  27.215  1.00  0.00     0.042 C 
ENDROOT
BRANCH   1   2
ATOM      2  C   UNL A   1      31.574  28.260  26.772  1.00  0.00     0.117 C 
BRANCH   2   3
ATOM      3  N   UNL A   1      30.874  26.991  26.894  1.00  0.00    -0.354 N 
ATOM      4  C   UNL A   1      30.765  25.954  26.003  1.00  0.00     0.245 C 
ATOM      5  O   UNL A   1      30.219  24.926  26.423  1.00  0.00    -0.272 OA
ATOM      6  H   UNL A   1      30.405  26.855  27.749  1.00  0.00     0.163 HD
BRANCH   4   7
ATOM      7  C   UNL A   1      31.312  26.067  24.541  1.00  0.00     0.119 C 
ATOM      8  C   UNL A   1      30.572  25.041  23.640  1.00  0.00     0.046 C 
BRANCH   7   9
ATOM      9  C   UNL A   1      32.865  25.707  24.469  1.00  0.00    -0.001 C 
ATOM     10  C   UNL A   1      33.734  26.655  23.663  1.00  0.00     0.014 C 
ATOM     11  C   UNL A   1      33.249  24.228  24.376  1.00  0.00     0.010 C 
ATOM     12  C   UNL A   1      33.591  24.987  25.611  1.00  0.00     0.010 C 
ENDBRANCH   7   9
BRANCH   7  13
ATOM     13  N   UNL A   1      31.057  27.401  23.928  1.00  0.00    -0.371 N 
ATOM     14  H   UNL A   1      31.864  27.950  23.799  1.00  0.00     0.161 HD
BRANCH  13  15
ATOM     15  C   UNL A   1      29.880  28.005  23.505  1.00  0.00     0.036 A 
ATOM     16  C   UNL A   1      28.612  27.414  23.496  1.00  0.00     0.026 A 
ATOM     17  C   UNL A   1      29.932  29.370  23.166  1.00  0.00     0.046 A 
ATOM     18  C   UNL A   1      27.444  28.167  23.290  1.00  0.00     0.004 A 
ATOM     19  C   UNL A   1      28.775  30.111  22.900  1.00  0.00     0.043 A 
ATOM     20  C   UNL A   1      27.523  29.523  23.002  1.00  0.00     0.020 A 
ATOM     21  Cl  UNL A   1      28.907  31.767  22.453  1.00  0.00    -0.084 Cl
ENDBRANCH  13  15
ENDBRANCH   7  13
ENDBRANCH   4   7
ENDBRANCH   2   3
ENDBRANCH   1   2
BRANCH   1  22
ATOM     22  C   UNL A   1      33.960  29.134  26.408  1.00  0.00     0.118 C 
BRANCH  22  23
ATOM     23  N   UNL A   1      33.927  30.521  26.850  1.00  0.00    -0.352 N 
ATOM     24  C   UNL A   1      34.750  31.168  27.740  1.00  0.00     0.251 C 
ATOM     25  H   UNL A   1      33.214  31.073  26.455  1.00  0.00     0.163 HD
ATOM     26  O   UNL A   1      34.450  32.290  28.137  1.00  0.00    -0.269 OA
BRANCH  24  27
ATOM     27  C   UNL A   1      35.979  30.508  28.234  1.00  0.00     0.039 A 
ATOM     28  C   UNL A   1      37.166  30.668  27.513  1.00  0.00     0.014 A 
ATOM     29  C   UNL A   1      35.966  29.724  29.392  1.00  0.00     0.014 A 
ATOM     30  C   UNL A   1      38.347  30.086  27.984  1.00  0.00     0.010 A 
ATOM     31  C   UNL A   1      37.159  29.215  29.902  1.00  0.00     0.010 A 
ATOM     32  C   UNL A   1      38.360  29.377  29.196  1.00  0.00    -0.014 A 
BRANCH  32  33
ATOM     33  C   UNL A   1      39.617  28.781  29.724  1.00  0.00     0.031 A 
ATOM     34  C   UNL A   1      40.277  29.367  30.946  1.00  0.00     0.074 A 
ATOM     35  C   UNL A   1      40.191  27.746  29.079  1.00  0.00     0.049 A 
ATOM     36  N   UNL A   1      41.387  29.006  31.537  1.00  0.00    -0.248 NA
ATOM     37  C   UNL A   1      39.614  30.521  31.577  1.00  0.00     0.031 C 
ATOM     38  C   UNL A   1      39.689  27.128  27.850  1.00  0.00     0.029 A 
ATOM     39  N   UNL A   1      41.336  27.040  29.359  1.00  0.00    -0.354 N 
ATOM     40  C   UNL A   1      41.565  29.894  32.590  1.00  0.00     0.074 A 
ATOM     41  C   UNL A   1      40.475  30.842  32.532  1.00  0.00     0.031 C 
ATOM     42  C   UNL A   1      40.512  26.129  27.490  1.00  0.00     0.029 A 
ATOM     43  C   UNL A   1      41.616  26.053  28.440  1.00  0.00     0.049 A 
ATOM     44  H   UNL A   1      41.903  27.222  30.143  1.00  0.00     0.167 HD
ATOM     45  C   UNL A   1      42.524  29.900  33.547  1.00  0.00     0.034 A 
ATOM     46  C   UNL A   1      42.649  25.189  28.373  1.00  0.00     0.034 A 
ATOM     47  C   UNL A   1      43.588  28.935  33.628  1.00  0.00     0.049 A 
ATOM     48  C   UNL A   1      43.698  25.217  29.454  1.00  0.00     0.074 A 
ATOM     49  C   UNL A   1      44.580  28.829  34.586  1.00  0.00     0.029 A 
ATOM     50  N   UNL A   1      43.797  27.911  32.719  1.00  0.00    -0.354 N 
ATOM     51  N   UNL A   1      43.768  25.979  30.518  1.00  0.00    -0.248 NA
ATOM     52  C   UNL A   1      44.789  24.237  29.345  1.00  0.00     0.031 C 
ATOM     53  C   UNL A   1      45.400  27.747  34.248  1.00  0.00     0.029 A 
ATOM     54  C   UNL A   1      44.901  27.165  33.094  1.00  0.00     0.049 A 
ATOM     55  H   UNL A   1      43.242  27.738  31.925  1.00  0.00     0.167 HD
ATOM     56  C   UNL A   1      44.881  25.539  31.227  1.00  0.00     0.074 A 
ATOM     57  C   UNL A   1      45.441  24.431  30.482  1.00  0.00     0.031 C 
ATOM     58  C   UNL A   1      45.404  26.020  32.382  1.00  0.00     0.034 A 
BRANCH  45  59
ATOM     59  C   UNL A   1      42.428  30.943  34.631  1.00  0.00     0.023 A 
ATOM     60  C   UNL A   1      41.751  30.630  35.828  1.00  0.00     0.012 A 
ATOM     61  C   UNL A   1      43.067  32.192  34.505  1.00  0.00     0.148 A 
ATOM     62  C   UNL A   1      41.686  31.552  36.870  1.00  0.00     0.002 A 
ATOM     63  C   UNL A   1      43.035  33.090  35.565  1.00  0.00     0.091 A 
ATOM     64  F   UNL A   1      43.692  32.476  33.353  1.00  0.00    -0.205 F 
ATOM     65  C   UNL A   1      42.336  32.776  36.744  1.00  0.00     0.022 A 
BRANCH  63  66
ATOM     66  S   UNL A   1      43.905  34.661  35.538  1.00  0.00     0.127 S 
ATOM     67  O   UNL A   1      43.517  35.235  36.827  1.00  0.00    -0.237 OA
ATOM     68  O   UNL A   1      45.302  34.237  35.455  1.00  0.00    -0.237 OA
ATOM     69  O   UNL A   1      43.412  35.375  34.369  1.00  0.00    -0.744 OA
ENDBRANCH  63  66
ENDBRANCH  45  59
BRANCH  46  70
ATOM     70  C   UNL A   1      42.721  24.177  27.279  1.00  0.00     0.023 A 
ATOM     71  C   UNL A   1      43.379  24.504  26.076  1.00  0.00     0.012 A 
ATOM     72  C   UNL A   1      42.129  22.906  27.410  1.00  0.00     0.148 A 
ATOM     73  C   UNL A   1      43.403  23.606  25.008  1.00  0.00     0.002 A 
ATOM     74  C   UNL A   1      42.207  21.995  26.363  1.00  0.00     0.091 A 
ATOM     75  F   UNL A   1      41.493  22.615  28.553  1.00  0.00    -0.205 F 
ATOM     76  C   UNL A   1      42.823  22.349  25.153  1.00  0.00     0.022 A 
BRANCH  74  77
ATOM     77  S   UNL A   1      41.599  20.310  26.512  1.00  0.00     0.127 S 
ATOM     78  O   UNL A   1      42.147  19.909  27.804  1.00  0.00    -0.237 OA
ATOM     79  O   UNL A   1      40.149  20.506  26.490  1.00  0.00    -0.237 OA
ATOM     80  O   UNL A   1      42.123  19.607  25.349  1.00  0.00    -0.744 OA
ENDBRANCH  74  77
ENDBRANCH  46  70
BRANCH  58  81
ATOM     81  C   UNL A   1      46.610  25.318  32.950  1.00  0.00     0.023 A 
ATOM     82  C   UNL A   1      47.905  25.765  32.623  1.00  0.00     0.012 A 
ATOM     83  C   UNL A   1      46.455  24.258  33.865  1.00  0.00     0.148 A 
ATOM     84  C   UNL A   1      49.028  25.144  33.167  1.00  0.00     0.002 A 
ATOM     85  C   UNL A   1      47.578  23.676  34.443  1.00  0.00     0.091 A 
ATOM     86  F   UNL A   1      45.215  23.835  34.151  1.00  0.00    -0.205 F 
ATOM     87  C   UNL A   1      48.865  24.109  34.085  1.00  0.00     0.022 A 
BRANCH  85  88
ATOM     88  S   UNL A   1      47.462  22.406  35.707  1.00  0.00     0.127 S 
ATOM     89  O   UNL A   1      48.864  22.233  36.085  1.00  0.00    -0.237 OA
ATOM     90  O   UNL A   1      46.631  23.053  36.722  1.00  0.00    -0.237 OA
ATOM     91  O   UNL A   1      46.842  21.255  35.064  1.00  0.00    -0.744 OA
ENDBRANCH  85  88
ENDBRANCH  58  81
ENDBRANCH  32  33
ENDBRANCH  24  27
ENDBRANCH  22  23
ENDBRANCH   1  22
TORSDOF 16
ENDMDL
MODEL 3
REMARK VINA RESULT:     -11.2      4.630      9.464
REMARK SMILES CC1([C@](C)(Nc2cccc(Cl)c2)C(=O)NCCCNC(=O)c2ccc(-c3c4nc(c(-c5cccc(S(=O)(=O)[O-])c5F)c5ccc([nH]5)c(-c5cccc(S(=O)(=O)[O-])c5F)c5nc(c(-c6cccc(S(=O)(=O)[O-])c6F)c6ccc3[nH]6)C=C5)C=C4)cc2)CC1
REMARK SMILES IDX 17 1 16 2 15 3 13 4 14 5 3 7 4 8 2 9 1 10 85 11 86 12 5 13
REMARK SMILES IDX 6 15 7 16 12 17 8 18 10 19 9 20 11 21 18 22 19 23 20 24
REMARK SMILES IDX 21 26 22 27 23 28 84 29 24 30 83 31 25 32 26 33 27 34 77 35
REMARK SMILES IDX 28 36 82 37 76 38 78 39 29 40 81 41 75 42 74 43 30 45 62 46
REMARK SMILES IDX 42 47 61 48 43 49 46 50 60 51 79 52 44 53 45 54 59 56 80 57
REMARK SMILES IDX 47 58 31 59 32 60 40 61 33 62 35 63 41 64 34 65 36 66 37 67
REMARK SMILES IDX 38 68 39 69 63 70 64 71 72 72 65 73 67 74 73 75 66 76 68 77
REMARK SMILES IDX 69 78 70 79 71 80 48 81 49 82 57 83 50 84 52 85 58 86 51 87
REMARK SMILES IDX 53 88 54 89 55 90 56 91
REMARK H PARENT 15 6 5 14 19 25 78 44 46 55
REMARK Flexibility Score: inf
ROOT
ATOM      1  C   UNL A   1      35.534  23.662  26.199  1.00  0.00     0.042 C 
ENDROOT
BRANCH   1   2
ATOM      2  C   UNL A   1      34.370  24.496  25.687  1.00  0.00     0.117 C 
BRANCH   2   3
ATOM      3  N   UNL A   1      33.178  24.476  26.518  1.00  0.00    -0.354 N 
ATOM      4  C   UNL A   1      31.919  24.960  26.268  1.00  0.00     0.245 C 
ATOM      5  O   UNL A   1      31.049  24.683  27.104  1.00  0.00    -0.272 OA
ATOM      6  H   UNL A   1      33.291  24.049  27.399  1.00  0.00     0.163 HD
BRANCH   4   7
ATOM      7  C   UNL A   1      31.604  25.806  24.989  1.00  0.00     0.119 C 
ATOM      8  C   UNL A   1      30.150  26.343  25.080  1.00  0.00     0.046 C 
BRANCH   7   9
ATOM      9  C   UNL A   1      31.683  24.917  23.667  1.00  0.00    -0.001 C 
ATOM     10  C   UNL A   1      32.521  25.479  22.533  1.00  0.00     0.014 C 
ATOM     11  C   UNL A   1      30.421  24.165  23.237  1.00  0.00     0.010 C 
ATOM     12  C   UNL A   1      31.601  23.386  23.704  1.00  0.00     0.010 C 
ENDBRANCH   7   9
BRANCH   7  13
ATOM     13  N   UNL A   1      32.473  27.010  24.861  1.00  0.00    -0.371 N 
ATOM     14  H   UNL A   1      32.893  27.116  23.977  1.00  0.00     0.161 HD
BRANCH  13  15
ATOM     15  C   UNL A   1      32.794  28.009  25.771  1.00  0.00     0.036 A 
ATOM     16  C   UNL A   1      33.911  28.024  26.613  1.00  0.00     0.026 A 
ATOM     17  C   UNL A   1      31.998  29.170  25.774  1.00  0.00     0.046 A 
ATOM     18  C   UNL A   1      34.292  29.177  27.320  1.00  0.00     0.004 A 
ATOM     19  C   UNL A   1      32.341  30.300  26.523  1.00  0.00     0.043 A 
ATOM     20  C   UNL A   1      33.512  30.324  27.266  1.00  0.00     0.020 A 
ATOM     21  Cl  UNL A   1      31.306  31.675  26.515  1.00  0.00    -0.084 Cl
ENDBRANCH  13  15
ENDBRANCH   7  13
ENDBRANCH   4   7
ENDBRANCH   2   3
ENDBRANCH   1   2
BRANCH   1  22
ATOM     22  C   UNL A   1      36.792  23.717  25.349  1.00  0.00     0.118 C 
BRANCH  22  23
ATOM     23  N   UNL A   1      37.733  22.656  25.678  1.00  0.00    -0.352 N 
ATOM     24  C   UNL A   1      38.990  22.749  26.225  1.00  0.00     0.251 C 
ATOM     25  H   UNL A   1      37.424  21.742  25.482  1.00  0.00     0.163 HD
ATOM     26  O   UNL A   1      39.714  21.759  26.252  1.00  0.00    -0.269 OA
BRANCH  24  27
ATOM     27  C   UNL A   1      39.477  24.042  26.758  1.00  0.00     0.039 A 
ATOM     28  C   UNL A   1      40.149  24.915  25.897  1.00  0.00     0.014 A 
ATOM     29  C   UNL A   1      39.289  24.391  28.099  1.00  0.00     0.014 A 
ATOM     30  C   UNL A   1      40.582  26.157  26.369  1.00  0.00     0.010 A 
ATOM     31  C   UNL A   1      39.647  25.662  28.544  1.00  0.00     0.010 A 
ATOM     32  C   UNL A   1      40.312  26.554  27.689  1.00  0.00    -0.014 A 
BRANCH  32  33
ATOM     33  C   UNL A   1      40.738  27.886  28.194  1.00  0.00     0.031 A 
ATOM     34  C   UNL A   1      42.202  28.232  28.276  1.00  0.00     0.074 A 
ATOM     35  C   UNL A   1      39.813  28.768  28.625  1.00  0.00     0.049 A 
ATOM     36  N   UNL A   1      42.768  29.327  28.713  1.00  0.00    -0.248 NA
ATOM     37  C   UNL A   1      43.159  27.207  27.824  1.00  0.00     0.031 C 
ATOM     38  C   UNL A   1      38.367  28.532  28.660  1.00  0.00     0.029 A 
ATOM     39  N   UNL A   1      39.952  30.036  29.134  1.00  0.00    -0.354 N 
ATOM     40  C   UNL A   1      44.138  29.117  28.609  1.00  0.00     0.074 A 
ATOM     41  C   UNL A   1      44.323  27.773  28.110  1.00  0.00     0.031 C 
ATOM     42  C   UNL A   1      37.754  29.622  29.149  1.00  0.00     0.029 A 
ATOM     43  C   UNL A   1      38.759  30.622  29.493  1.00  0.00     0.049 A 
ATOM     44  H   UNL A   1      40.823  30.484  29.232  1.00  0.00     0.167 HD
ATOM     45  C   UNL A   1      45.153  29.976  28.864  1.00  0.00     0.034 A 
ATOM     46  C   UNL A   1      38.508  31.828  30.041  1.00  0.00     0.034 A 
ATOM     47  C   UNL A   1      44.970  31.327  29.324  1.00  0.00     0.049 A 
ATOM     48  C   UNL A   1      39.658  32.764  30.309  1.00  0.00     0.074 A 
ATOM     49  C   UNL A   1      45.934  32.290  29.567  1.00  0.00     0.029 A 
ATOM     50  N   UNL A   1      43.745  31.906  29.610  1.00  0.00    -0.354 N 
ATOM     51  N   UNL A   1      40.935  32.593  30.072  1.00  0.00    -0.248 NA
ATOM     52  C   UNL A   1      39.325  34.076  30.885  1.00  0.00     0.031 C 
ATOM     53  C   UNL A   1      45.290  33.448  30.014  1.00  0.00     0.029 A 
ATOM     54  C   UNL A   1      43.926  33.214  30.024  1.00  0.00     0.049 A 
ATOM     55  H   UNL A   1      42.874  31.454  29.530  1.00  0.00     0.167 HD
ATOM     56  C   UNL A   1      41.551  33.789  30.424  1.00  0.00     0.074 A 
ATOM     57  C   UNL A   1      40.503  34.684  30.870  1.00  0.00     0.031 C 
ATOM     58  C   UNL A   1      42.867  34.115  30.396  1.00  0.00     0.034 A 
BRANCH  45  59
ATOM     59  C   UNL A   1      46.558  29.507  28.582  1.00  0.00     0.023 A 
ATOM     60  C   UNL A   1      47.140  29.795  27.330  1.00  0.00     0.012 A 
ATOM     61  C   UNL A   1      47.326  28.859  29.569  1.00  0.00     0.148 A 
ATOM     62  C   UNL A   1      48.454  29.420  27.054  1.00  0.00     0.002 A 
ATOM     63  C   UNL A   1      48.649  28.526  29.301  1.00  0.00     0.091 A 
ATOM     64  F   UNL A   1      46.749  28.580  30.746  1.00  0.00    -0.205 F 
ATOM     65  C   UNL A   1      49.211  28.796  28.041  1.00  0.00     0.022 A 
BRANCH  63  66
ATOM     66  S   UNL A   1      49.736  27.793  30.528  1.00  0.00     0.127 S 
ATOM     67  O   UNL A   1      51.027  27.838  29.841  1.00  0.00    -0.237 OA
ATOM     68  O   UNL A   1      49.608  28.724  31.648  1.00  0.00    -0.237 OA
ATOM     69  O   UNL A   1      49.216  26.456  30.781  1.00  0.00    -0.744 OA
ENDBRANCH  63  66
ENDBRANCH  45  59
BRANCH  46  70
ATOM     70  C   UNL A   1      37.106  32.257  30.320  1.00  0.00     0.023 A 
ATOM     71  C   UNL A   1      36.506  31.906  31.546  1.00  0.00     0.012 A 
ATOM     72  C   UNL A   1      36.359  32.991  29.379  1.00  0.00     0.148 A 
ATOM     73  C   UNL A   1      35.175  32.230  31.808  1.00  0.00     0.002 A 
ATOM     74  C   UNL A   1      35.051  33.361  29.671  1.00  0.00     0.091 A 
ATOM     75  F   UNL A   1      36.938  33.306  28.212  1.00  0.00    -0.205 F 
ATOM     76  C   UNL A   1      34.449  32.964  30.875  1.00  0.00     0.022 A 
BRANCH  74  77
ATOM     77  S   UNL A   1      34.088  34.416  28.580  1.00  0.00     0.127 S 
ATOM     78  O   UNL A   1      33.991  33.593  27.378  1.00  0.00    -0.237 OA
ATOM     79  O   UNL A   1      32.839  34.568  29.327  1.00  0.00    -0.237 OA
ATOM     80  O   UNL A   1      34.859  35.645  28.452  1.00  0.00    -0.744 OA
ENDBRANCH  74  77
ENDBRANCH  46  70
BRANCH  58  81
ATOM     81  C   UNL A   1      43.251  35.514  30.805  1.00  0.00     0.023 A 
ATOM     82  C   UNL A   1      43.567  35.794  32.149  1.00  0.00     0.012 A 
ATOM     83  C   UNL A   1      43.366  36.534  29.840  1.00  0.00     0.148 A 
ATOM     84  C   UNL A   1      43.955  37.076  32.533  1.00  0.00     0.002 A 
ATOM     85  C   UNL A   1      43.802  37.797  30.221  1.00  0.00     0.091 A 
ATOM     86  F   UNL A   1      43.045  36.252  28.569  1.00  0.00    -0.205 F 
ATOM     87  C   UNL A   1      44.084  38.074  31.569  1.00  0.00     0.022 A 
BRANCH  85  88
ATOM     88  S   UNL A   1      44.092  39.116  29.037  1.00  0.00     0.127 S 
ATOM     89  O   UNL A   1      44.432  40.235  29.914  1.00  0.00    -0.237 OA
ATOM     90  O   UNL A   1      45.211  38.589  28.255  1.00  0.00    -0.237 OA
ATOM     91  O   UNL A   1      42.850  39.263  28.288  1.00  0.00    -0.744 OA
ENDBRANCH  85  88
ENDBRANCH  58  81
ENDBRANCH  32  33
ENDBRANCH  24  27
ENDBRANCH  22  23
ENDBRANCH   1  22
TORSDOF 16
ENDMDL
