MODEL 1
REMARK VINA RESULT:     -10.9      0.000      0.000
REMARK SMILES O=C(COc1ccc(/C=N/NC(=O)C(=O)Nc2ccc(F)cc2)cc1)NCCCNC(=O)c1ccc(-c2c3nc(c(-c4cccc(S(=O)(=O)[O-])c4F)c4ccc([nH]4)c(-c4cccc(S(=O)(=O)[O-])c4F)c4nc(c(-c5cccc(S(=O)(=O)[O-])c5F)c5ccc2[nH]5)C=C4)C=C3)cc1
REMARK SMILES IDX 1 1 2 2 26 3 3 5 4 6 5 7 6 8 25 9 7 10 24 11 8 12 9 13 10 14
REMARK SMILES IDX 11 15 12 16 13 18 14 19 15 20 16 21 17 23 18 24 23 25 19 26
REMARK SMILES IDX 22 27 20 28 21 29 27 30 28 31 29 32 30 33 31 34 32 36 33 37
REMARK SMILES IDX 34 38 95 39 35 40 94 41 36 42 37 43 38 44 88 45 39 46 93 47
REMARK SMILES IDX 87 48 89 49 40 50 92 51 86 52 85 53 41 55 73 56 53 57 72 58
REMARK SMILES IDX 54 59 57 60 71 61 90 62 55 63 56 64 70 66 91 67 58 68 42 69
REMARK SMILES IDX 43 70 51 71 44 72 46 73 52 74 45 75 47 76 48 77 49 78 50 79
REMARK SMILES IDX 74 80 75 81 83 82 76 83 78 84 84 85 77 86 79 87 80 88 81 89
REMARK SMILES IDX 82 90 59 91 60 92 68 93 61 94 63 95 69 96 62 97 64 98 65 99
REMARK SMILES IDX 66 100 67 101
REMARK H PARENT 26 4 11 17 16 22 30 35 89 54 57 65
REMARK Flexibility Score: inf
ROOT
ATOM      1  O   UNL A   1      40.858  22.686  27.462  1.00  0.00    -0.271 OA
ATOM      2  C   UNL A   1      40.018  22.033  26.852  1.00  0.00     0.257 C 
ATOM      3  N   UNL A   1      40.077  20.662  26.698  1.00  0.00    -0.353 N 
ATOM      4  H   UNL A   1      39.278  20.179  26.386  1.00  0.00     0.163 HD
ENDROOT
BRANCH   2   5
ATOM      5  C   UNL A   1      38.823  22.692  26.153  1.00  0.00     0.329 C 
BRANCH   5   6
ATOM      6  O   UNL A   1      37.746  21.829  25.785  1.00  0.00    -0.484 OA
BRANCH   6   7
ATOM      7  C   UNL A   1      36.619  22.477  25.350  1.00  0.00     0.120 A 
ATOM      8  C   UNL A   1      36.575  22.846  24.002  1.00  0.00     0.047 A 
ATOM      9  C   UNL A   1      35.605  22.891  26.214  1.00  0.00     0.047 A 
ATOM     10  C   UNL A   1      35.512  23.615  23.515  1.00  0.00     0.013 A 
ATOM     11  C   UNL A   1      34.566  23.691  25.745  1.00  0.00     0.013 A 
ATOM     12  C   UNL A   1      34.529  24.051  24.402  1.00  0.00    -0.005 A 
BRANCH  12  13
ATOM     13  C   UNL A   1      33.457  24.962  23.992  1.00  0.00     0.141 C 
ATOM     14  N   UNL A   1      32.214  24.606  23.946  1.00  0.00    -0.180 NA
BRANCH  14  15
ATOM     15  N   UNL A   1      31.315  25.582  23.636  1.00  0.00    -0.239 N 
ATOM     16  C   UNL A   1      30.502  26.376  24.439  1.00  0.00     0.329 C 
ATOM     17  H   UNL A   1      31.224  25.757  22.672  1.00  0.00     0.194 HD
ATOM     18  O   UNL A   1      29.936  27.332  23.913  1.00  0.00    -0.262 OA
BRANCH  16  19
ATOM     19  C   UNL A   1      30.311  26.071  25.962  1.00  0.00     0.315 C 
ATOM     20  O   UNL A   1      29.440  25.314  26.382  1.00  0.00    -0.263 OA
ATOM     21  N   UNL A   1      31.243  26.530  26.875  1.00  0.00    -0.318 N 
ATOM     22  H   UNL A   1      31.350  25.959  27.669  1.00  0.00     0.170 HD
BRANCH  21  23
ATOM     23  C   UNL A   1      32.062  27.666  26.867  1.00  0.00     0.041 A 
ATOM     24  C   UNL A   1      33.418  27.482  26.565  1.00  0.00     0.029 A 
ATOM     25  C   UNL A   1      31.608  28.935  27.237  1.00  0.00     0.029 A 
ATOM     26  C   UNL A   1      34.295  28.569  26.563  1.00  0.00     0.041 A 
ATOM     27  C   UNL A   1      32.490  30.020  27.250  1.00  0.00     0.041 A 
ATOM     28  C   UNL A   1      33.820  29.829  26.902  1.00  0.00     0.123 A 
ATOM     29  F   UNL A   1      34.660  30.872  26.906  1.00  0.00    -0.207 F 
ENDBRANCH  21  23
ENDBRANCH  16  19
ENDBRANCH  14  15
ENDBRANCH  12  13
ENDBRANCH   6   7
ENDBRANCH   5   6
ENDBRANCH   2   5
BRANCH   3  30
ATOM     30  C   UNL A   1      41.282  19.910  26.984  1.00  0.00     0.117 C 
BRANCH  30  31
ATOM     31  C   UNL A   1      42.184  19.707  25.779  1.00  0.00     0.042 C 
BRANCH  31  32
ATOM     32  C   UNL A   1      43.335  18.732  26.001  1.00  0.00     0.118 C 
BRANCH  32  33
ATOM     33  N   UNL A   1      44.203  18.578  24.841  1.00  0.00    -0.352 N 
ATOM     34  C   UNL A   1      44.953  19.508  24.161  1.00  0.00     0.251 C 
ATOM     35  H   UNL A   1      44.261  17.662  24.486  1.00  0.00     0.163 HD
ATOM     36  O   UNL A   1      45.543  19.161  23.139  1.00  0.00    -0.269 OA
BRANCH  34  37
ATOM     37  C   UNL A   1      45.038  20.915  24.619  1.00  0.00     0.039 A 
ATOM     38  C   UNL A   1      45.502  21.164  25.915  1.00  0.00     0.014 A 
ATOM     39  C   UNL A   1      44.649  21.985  23.808  1.00  0.00     0.014 A 
ATOM     40  C   UNL A   1      45.636  22.480  26.370  1.00  0.00     0.010 A 
ATOM     41  C   UNL A   1      44.851  23.298  24.236  1.00  0.00     0.010 A 
ATOM     42  C   UNL A   1      45.343  23.560  25.521  1.00  0.00    -0.014 A 
BRANCH  42  43
ATOM     43  C   UNL A   1      45.581  24.960  25.963  1.00  0.00     0.031 A 
ATOM     44  C   UNL A   1      46.972  25.532  26.008  1.00  0.00     0.074 A 
ATOM     45  C   UNL A   1      44.541  25.701  26.395  1.00  0.00     0.049 A 
ATOM     46  N   UNL A   1      47.356  26.736  26.345  1.00  0.00    -0.248 NA
ATOM     47  C   UNL A   1      48.081  24.629  25.654  1.00  0.00     0.031 C 
ATOM     48  C   UNL A   1      43.158  25.233  26.506  1.00  0.00     0.029 A 
ATOM     49  N   UNL A   1      44.487  26.999  26.839  1.00  0.00    -0.354 N 
ATOM     50  C   UNL A   1      48.744  26.731  26.275  1.00  0.00     0.074 A 
ATOM     51  C   UNL A   1      49.139  25.391  25.896  1.00  0.00     0.031 C 
ATOM     52  C   UNL A   1      42.390  26.231  26.970  1.00  0.00     0.029 A 
ATOM     53  C   UNL A   1      43.224  27.407  27.199  1.00  0.00     0.049 A 
ATOM     54  H   UNL A   1      45.278  27.583  26.892  1.00  0.00     0.167 HD
ATOM     55  C   UNL A   1      49.610  27.753  26.473  1.00  0.00     0.034 A 
ATOM     56  C   UNL A   1      42.783  28.599  27.647  1.00  0.00     0.034 A 
ATOM     57  C   UNL A   1      49.216  29.098  26.793  1.00  0.00     0.049 A 
ATOM     58  C   UNL A   1      43.752  29.744  27.759  1.00  0.00     0.074 A 
ATOM     59  C   UNL A   1      50.011  30.224  26.922  1.00  0.00     0.029 A 
ATOM     60  N   UNL A   1      47.911  29.504  27.032  1.00  0.00    -0.354 N 
ATOM     61  N   UNL A   1      45.038  29.764  27.506  1.00  0.00    -0.248 NA
ATOM     62  C   UNL A   1      43.199  31.043  28.170  1.00  0.00     0.031 C 
ATOM     63  C   UNL A   1      49.188  31.311  27.238  1.00  0.00     0.029 A 
ATOM     64  C   UNL A   1      47.878  30.862  27.303  1.00  0.00     0.049 A 
ATOM     65  H   UNL A   1      47.125  28.914  27.013  1.00  0.00     0.167 HD
ATOM     66  C   UNL A   1      45.444  31.080  27.697  1.00  0.00     0.074 A 
ATOM     67  C   UNL A   1      44.260  31.833  28.058  1.00  0.00     0.031 C 
ATOM     68  C   UNL A   1      46.687  31.613  27.602  1.00  0.00     0.034 A 
BRANCH  55  69
ATOM     69  C   UNL A   1      51.076  27.474  26.264  1.00  0.00     0.023 A 
ATOM     70  C   UNL A   1      51.880  27.161  27.379  1.00  0.00     0.012 A 
ATOM     71  C   UNL A   1      51.646  27.465  24.977  1.00  0.00     0.148 A 
ATOM     72  C   UNL A   1      53.234  26.872  27.222  1.00  0.00     0.002 A 
ATOM     73  C   UNL A   1      52.990  27.138  24.823  1.00  0.00     0.091 A 
ATOM     74  F   UNL A   1      50.874  27.791  23.930  1.00  0.00    -0.205 F 
ATOM     75  C   UNL A   1      53.786  26.850  25.943  1.00  0.00     0.022 A 
BRANCH  73  76
ATOM     76  S   UNL A   1      53.774  27.016  23.211  1.00  0.00     0.127 S 
ATOM     77  O   UNL A   1      53.796  28.415  22.786  1.00  0.00    -0.237 OA
ATOM     78  O   UNL A   1      55.086  26.458  23.541  1.00  0.00    -0.237 OA
ATOM     79  O   UNL A   1      52.924  26.131  22.424  1.00  0.00    -0.744 OA
ENDBRANCH  73  76
ENDBRANCH  55  69
BRANCH  56  80
ATOM     80  C   UNL A   1      41.330  28.797  27.907  1.00  0.00     0.023 A 
ATOM     81  C   UNL A   1      40.465  29.032  26.820  1.00  0.00     0.012 A 
ATOM     82  C   UNL A   1      40.794  28.712  29.206  1.00  0.00     0.148 A 
ATOM     83  C   UNL A   1      39.097  29.207  27.025  1.00  0.00     0.002 A 
ATOM     84  C   UNL A   1      39.422  28.835  29.396  1.00  0.00     0.091 A 
ATOM     85  F   UNL A   1      41.634  28.503  30.230  1.00  0.00    -0.205 F 
ATOM     86  C   UNL A   1      38.574  29.096  28.310  1.00  0.00     0.022 A 
BRANCH  84  87
ATOM     87  S   UNL A   1      38.657  28.571  31.000  1.00  0.00     0.127 S 
ATOM     88  O   UNL A   1      38.876  27.143  31.206  1.00  0.00    -0.237 OA
ATOM     89  O   UNL A   1      39.448  29.447  31.868  1.00  0.00    -0.237 OA
ATOM     90  O   UNL A   1      37.272  28.992  30.838  1.00  0.00    -0.744 OA
ENDBRANCH  84  87
ENDBRANCH  56  80
BRANCH  68  91
ATOM     91  C   UNL A   1      46.832  33.086  27.874  1.00  0.00     0.023 A 
ATOM     92  C   UNL A   1      46.725  34.002  26.809  1.00  0.00     0.012 A 
ATOM     93  C   UNL A   1      47.023  33.568  29.183  1.00  0.00     0.148 A 
ATOM     94  C   UNL A   1      46.838  35.372  27.037  1.00  0.00     0.002 A 
ATOM     95  C   UNL A   1      47.094  34.939  29.408  1.00  0.00     0.091 A 
ATOM     96  F   UNL A   1      47.149  32.685  30.184  1.00  0.00    -0.205 F 
ATOM     97  C   UNL A   1      47.012  35.842  28.337  1.00  0.00     0.022 A 
BRANCH  95  98
ATOM     98  S   UNL A   1      47.232  35.611  31.069  1.00  0.00     0.127 S 
ATOM     99  O   UNL A   1      48.332  34.825  31.623  1.00  0.00    -0.237 OA
ATOM    100  O   UNL A   1      47.554  37.019  30.822  1.00  0.00    -0.237 OA
ATOM    101  O   UNL A   1      45.925  35.399  31.679  1.00  0.00    -0.744 OA
ENDBRANCH  95  98
ENDBRANCH  68  91
ENDBRANCH  42  43
ENDBRANCH  34  37
ENDBRANCH  32  33
ENDBRANCH  31  32
ENDBRANCH  30  31
ENDBRANCH   3  30
TORSDOF 19
ENDMDL
MODEL 2
REMARK VINA RESULT:     -10.9      4.484     10.066
REMARK SMILES O=C(COc1ccc(/C=N/NC(=O)C(=O)Nc2ccc(F)cc2)cc1)NCCCNC(=O)c1ccc(-c2c3nc(c(-c4cccc(S(=O)(=O)[O-])c4F)c4ccc([nH]4)c(-c4cccc(S(=O)(=O)[O-])c4F)c4nc(c(-c5cccc(S(=O)(=O)[O-])c5F)c5ccc2[nH]5)C=C4)C=C3)cc1
REMARK SMILES IDX 1 1 2 2 26 3 3 5 4 6 5 7 6 8 25 9 7 10 24 11 8 12 9 13 10 14
REMARK SMILES IDX 11 15 12 16 13 18 14 19 15 20 16 21 17 23 18 24 23 25 19 26
REMARK SMILES IDX 22 27 20 28 21 29 27 30 28 31 29 32 30 33 31 34 32 36 33 37
REMARK SMILES IDX 34 38 95 39 35 40 94 41 36 42 37 43 38 44 88 45 39 46 93 47
REMARK SMILES IDX 87 48 89 49 40 50 92 51 86 52 85 53 41 55 73 56 53 57 72 58
REMARK SMILES IDX 54 59 57 60 71 61 90 62 55 63 56 64 70 66 91 67 58 68 42 69
REMARK SMILES IDX 43 70 51 71 44 72 46 73 52 74 45 75 47 76 48 77 49 78 50 79
REMARK SMILES IDX 74 80 75 81 83 82 76 83 78 84 84 85 77 86 79 87 80 88 81 89
REMARK SMILES IDX 82 90 59 91 60 92 68 93 61 94 63 95 69 96 62 97 64 98 65 99
REMARK SMILES IDX 66 100 67 101
REMARK H PARENT 26 4 11 17 16 22 30 35 89 54 57 65
REMARK Flexibility Score: inf
ROOT
ATOM      1  O   UNL A   1      33.765  35.173  29.613  1.00  0.00    -0.271 OA
ATOM      2  C   UNL A   1      33.989  33.982  29.422  1.00  0.00     0.257 C 
ATOM      3  N   UNL A   1      34.290  33.088  30.431  1.00  0.00    -0.353 N 
ATOM      4  H   UNL A   1      34.252  32.123  30.243  1.00  0.00     0.163 HD
ENDROOT
BRANCH   2   5
ATOM      5  C   UNL A   1      34.000  33.370  28.016  1.00  0.00     0.329 C 
BRANCH   5   6
ATOM      6  O   UNL A   1      34.939  32.319  27.787  1.00  0.00    -0.484 OA
BRANCH   6   7
ATOM      7  C   UNL A   1      34.378  31.086  27.583  1.00  0.00     0.120 A 
ATOM      8  C   UNL A   1      35.245  29.989  27.541  1.00  0.00     0.047 A 
ATOM      9  C   UNL A   1      33.026  30.910  27.284  1.00  0.00     0.047 A 
ATOM     10  C   UNL A   1      34.760  28.717  27.216  1.00  0.00     0.013 A 
ATOM     11  C   UNL A   1      32.544  29.656  26.921  1.00  0.00     0.013 A 
ATOM     12  C   UNL A   1      33.413  28.570  26.885  1.00  0.00    -0.005 A 
BRANCH  12  13
ATOM     13  C   UNL A   1      32.861  27.297  26.413  1.00  0.00     0.141 C 
ATOM     14  N   UNL A   1      33.603  26.330  25.981  1.00  0.00    -0.180 NA
BRANCH  14  15
ATOM     15  N   UNL A   1      32.960  25.171  25.660  1.00  0.00    -0.239 N 
ATOM     16  C   UNL A   1      33.150  24.270  24.616  1.00  0.00     0.329 C 
ATOM     17  H   UNL A   1      32.233  24.928  26.276  1.00  0.00     0.194 HD
ATOM     18  O   UNL A   1      32.568  23.190  24.680  1.00  0.00    -0.262 OA
BRANCH  16  19
ATOM     19  C   UNL A   1      34.071  24.614  23.398  1.00  0.00     0.315 C 
ATOM     20  O   UNL A   1      35.132  24.034  23.186  1.00  0.00    -0.263 OA
ATOM     21  N   UNL A   1      33.620  25.485  22.424  1.00  0.00    -0.318 N 
ATOM     22  H   UNL A   1      33.976  25.307  21.524  1.00  0.00     0.170 HD
BRANCH  21  23
ATOM     23  C   UNL A   1      32.744  26.575  22.492  1.00  0.00     0.041 A 
ATOM     24  C   UNL A   1      33.294  27.825  22.806  1.00  0.00     0.029 A 
ATOM     25  C   UNL A   1      31.359  26.450  22.357  1.00  0.00     0.029 A 
ATOM     26  C   UNL A   1      32.474  28.950  22.914  1.00  0.00     0.041 A 
ATOM     27  C   UNL A   1      30.537  27.574  22.479  1.00  0.00     0.041 A 
ATOM     28  C   UNL A   1      31.103  28.815  22.745  1.00  0.00     0.123 A 
ATOM     29  F   UNL A   1      30.314  29.891  22.852  1.00  0.00    -0.207 F 
ENDBRANCH  21  23
ENDBRANCH  16  19
ENDBRANCH  14  15
ENDBRANCH  12  13
ENDBRANCH   6   7
ENDBRANCH   5   6
ENDBRANCH   2   5
BRANCH   3  30
ATOM     30  C   UNL A   1      34.659  33.529  31.760  1.00  0.00     0.117 C 
BRANCH  30  31
ATOM     31  C   UNL A   1      36.158  33.566  32.005  1.00  0.00     0.042 C 
BRANCH  31  32
ATOM     32  C   UNL A   1      36.623  32.789  33.231  1.00  0.00     0.118 C 
BRANCH  32  33
ATOM     33  N   UNL A   1      36.399  31.353  33.135  1.00  0.00    -0.352 N 
ATOM     34  C   UNL A   1      37.144  30.375  32.522  1.00  0.00     0.251 C 
ATOM     35  H   UNL A   1      35.581  31.032  33.579  1.00  0.00     0.163 HD
ATOM     36  O   UNL A   1      36.703  29.227  32.489  1.00  0.00    -0.269 OA
BRANCH  34  37
ATOM     37  C   UNL A   1      38.444  30.683  31.879  1.00  0.00     0.039 A 
ATOM     38  C   UNL A   1      38.493  30.757  30.483  1.00  0.00     0.014 A 
ATOM     39  C   UNL A   1      39.612  30.874  32.622  1.00  0.00     0.014 A 
ATOM     40  C   UNL A   1      39.692  31.085  29.841  1.00  0.00     0.010 A 
ATOM     41  C   UNL A   1      40.789  31.273  31.986  1.00  0.00     0.010 A 
ATOM     42  C   UNL A   1      40.843  31.380  30.590  1.00  0.00    -0.014 A 
BRANCH  42  43
ATOM     43  C   UNL A   1      42.091  31.830  29.918  1.00  0.00     0.031 A 
ATOM     44  C   UNL A   1      42.318  33.283  29.601  1.00  0.00     0.074 A 
ATOM     45  C   UNL A   1      42.998  30.911  29.529  1.00  0.00     0.049 A 
ATOM     46  N   UNL A   1      43.356  33.849  29.040  1.00  0.00    -0.248 NA
ATOM     47  C   UNL A   1      41.231  34.220  29.928  1.00  0.00     0.031 C 
ATOM     48  C   UNL A   1      42.851  29.462  29.678  1.00  0.00     0.029 A 
ATOM     49  N   UNL A   1      44.215  31.059  28.911  1.00  0.00    -0.354 N 
ATOM     50  C   UNL A   1      43.039  35.197  28.920  1.00  0.00     0.074 A 
ATOM     51  C   UNL A   1      41.696  35.359  29.434  1.00  0.00     0.031 C 
ATOM     52  C   UNL A   1      43.941  28.855  29.182  1.00  0.00     0.029 A 
ATOM     53  C   UNL A   1      44.859  29.868  28.670  1.00  0.00     0.049 A 
ATOM     54  H   UNL A   1      44.591  31.934  28.665  1.00  0.00     0.167 HD
ATOM     55  C   UNL A   1      43.805  36.214  28.457  1.00  0.00     0.034 A 
ATOM     56  C   UNL A   1      46.062  29.619  28.117  1.00  0.00     0.034 A 
ATOM     57  C   UNL A   1      45.161  36.063  28.000  1.00  0.00     0.049 A 
ATOM     58  C   UNL A   1      46.933  30.774  27.706  1.00  0.00     0.074 A 
ATOM     59  C   UNL A   1      46.051  37.045  27.599  1.00  0.00     0.029 A 
ATOM     60  N   UNL A   1      45.826  34.852  27.884  1.00  0.00    -0.354 N 
ATOM     61  N   UNL A   1      46.685  32.060  27.775  1.00  0.00    -0.248 NA
ATOM     62  C   UNL A   1      48.270  30.446  27.188  1.00  0.00     0.031 C 
ATOM     63  C   UNL A   1      47.255  36.427  27.242  1.00  0.00     0.029 A 
ATOM     64  C   UNL A   1      47.116  35.060  27.424  1.00  0.00     0.049 A 
ATOM     65  H   UNL A   1      45.439  33.973  28.097  1.00  0.00     0.167 HD
ATOM     66  C   UNL A   1      47.842  32.695  27.339  1.00  0.00     0.074 A 
ATOM     67  C   UNL A   1      48.802  31.653  27.036  1.00  0.00     0.031 C 
ATOM     68  C   UNL A   1      48.082  34.020  27.183  1.00  0.00     0.034 A 
BRANCH  55  69
ATOM     69  C   UNL A   1      43.222  37.602  28.502  1.00  0.00     0.023 A 
ATOM     70  C   UNL A   1      42.358  38.016  27.468  1.00  0.00     0.012 A 
ATOM     71  C   UNL A   1      43.476  38.471  29.580  1.00  0.00     0.148 A 
ATOM     72  C   UNL A   1      41.779  39.284  27.489  1.00  0.00     0.002 A 
ATOM     73  C   UNL A   1      42.865  39.721  29.614  1.00  0.00     0.091 A 
ATOM     74  F   UNL A   1      44.320  38.072  30.542  1.00  0.00    -0.205 F 
ATOM     75  C   UNL A   1      42.023  40.131  28.567  1.00  0.00     0.022 A 
BRANCH  73  76
ATOM     76  S   UNL A   1      43.063  40.854  30.995  1.00  0.00     0.127 S 
ATOM     77  O   UNL A   1      42.838  39.969  32.137  1.00  0.00    -0.237 OA
ATOM     78  O   UNL A   1      44.446  41.304  30.834  1.00  0.00    -0.237 OA
ATOM     79  O   UNL A   1      42.064  41.897  30.798  1.00  0.00    -0.744 OA
ENDBRANCH  73  76
ENDBRANCH  55  69
BRANCH  56  80
ATOM     80  C   UNL A   1      46.559  28.217  28.032  1.00  0.00     0.023 A 
ATOM     81  C   UNL A   1      47.234  27.661  29.136  1.00  0.00     0.012 A 
ATOM     82  C   UNL A   1      46.333  27.421  26.893  1.00  0.00     0.148 A 
ATOM     83  C   UNL A   1      47.699  26.347  29.098  1.00  0.00     0.002 A 
ATOM     84  C   UNL A   1      46.753  26.096  26.881  1.00  0.00     0.091 A 
ATOM     85  F   UNL A   1      45.702  27.972  25.845  1.00  0.00    -0.205 F 
ATOM     86  C   UNL A   1      47.449  25.561  27.976  1.00  0.00     0.022 A 
BRANCH  84  87
ATOM     87  S   UNL A   1      46.350  24.982  25.531  1.00  0.00     0.127 S 
ATOM     88  O   UNL A   1      47.071  25.589  24.416  1.00  0.00    -0.237 OA
ATOM     89  O   UNL A   1      46.903  23.711  26.004  1.00  0.00    -0.237 OA
ATOM     90  O   UNL A   1      44.896  24.999  25.441  1.00  0.00    -0.744 OA
ENDBRANCH  84  87
ENDBRANCH  56  80
BRANCH  68  91
ATOM     91  C   UNL A   1      49.441  34.425  26.680  1.00  0.00     0.023 A 
ATOM     92  C   UNL A   1      49.643  34.603  25.297  1.00  0.00     0.012 A 
ATOM     93  C   UNL A   1      50.501  34.679  27.571  1.00  0.00     0.148 A 
ATOM     94  C   UNL A   1      50.889  34.995  24.807  1.00  0.00     0.002 A 
ATOM     95  C   UNL A   1      51.728  35.109  27.078  1.00  0.00     0.091 A 
ATOM     96  F   UNL A   1      50.302  34.481  28.883  1.00  0.00    -0.205 F 
ATOM     97  C   UNL A   1      51.928  35.259  25.696  1.00  0.00     0.022 A 
BRANCH  95  98
ATOM     98  S   UNL A   1      53.080  35.547  28.178  1.00  0.00     0.127 S 
ATOM     99  O   UNL A   1      53.223  34.335  28.979  1.00  0.00    -0.237 OA
ATOM    100  O   UNL A   1      54.185  35.795  27.247  1.00  0.00    -0.237 OA
ATOM    101  O   UNL A   1      52.626  36.735  28.890  1.00  0.00    -0.744 OA
ENDBRANCH  95  98
ENDBRANCH  68  91
ENDBRANCH  42  43
ENDBRANCH  34  37
ENDBRANCH  32  33
ENDBRANCH  31  32
ENDBRANCH  30  31
ENDBRANCH   3  30
TORSDOF 19
ENDMDL
MODEL 3
REMARK VINA RESULT:     -10.8      4.416     10.008
REMARK SMILES O=C(COc1ccc(/C=N/NC(=O)C(=O)Nc2ccc(F)cc2)cc1)NCCCNC(=O)c1ccc(-c2c3nc(c(-c4cccc(S(=O)(=O)[O-])c4F)c4ccc([nH]4)c(-c4cccc(S(=O)(=O)[O-])c4F)c4nc(c(-c5cccc(S(=O)(=O)[O-])c5F)c5ccc2[nH]5)C=C4)C=C3)cc1
REMARK SMILES IDX 1 1 2 2 26 3 3 5 4 6 5 7 6 8 25 9 7 10 24 11 8 12 9 13 10 14
REMARK SMILES IDX 11 15 12 16 13 18 14 19 15 20 16 21 17 23 18 24 23 25 19 26
REMARK SMILES IDX 22 27 20 28 21 29 27 30 28 31 29 32 30 33 31 34 32 36 33 37
REMARK SMILES IDX 34 38 95 39 35 40 94 41 36 42 37 43 38 44 88 45 39 46 93 47
REMARK SMILES IDX 87 48 89 49 40 50 92 51 86 52 85 53 41 55 73 56 53 57 72 58
REMARK SMILES IDX 54 59 57 60 71 61 90 62 55 63 56 64 70 66 91 67 58 68 42 69
REMARK SMILES IDX 43 70 51 71 44 72 46 73 52 74 45 75 47 76 48 77 49 78 50 79
REMARK SMILES IDX 74 80 75 81 83 82 76 83 78 84 84 85 77 86 79 87 80 88 81 89
REMARK SMILES IDX 82 90 59 91 60 92 68 93 61 94 63 95 69 96 62 97 64 98 65 99
REMARK SMILES IDX 66 100 67 101
REMARK H PARENT 26 4 11 17 16 22 30 35 89 54 57 65
REMARK Flexibility Score: inf
ROOT
ATOM      1  O   UNL A   1      34.211  34.526  29.820  1.00  0.00    -0.271 OA
ATOM      2  C   UNL A   1      34.350  33.313  29.704  1.00  0.00     0.257 C 
ATOM      3  N   UNL A   1      34.452  32.448  30.776  1.00  0.00    -0.353 N 
ATOM      4  H   UNL A   1      34.351  31.481  30.622  1.00  0.00     0.163 HD
ENDROOT
BRANCH   2   5
ATOM      5  C   UNL A   1      34.470  32.633  28.334  1.00  0.00     0.329 C 
BRANCH   5   6
ATOM      6  O   UNL A   1      35.032  31.321  28.323  1.00  0.00    -0.484 OA
BRANCH   6   7
ATOM      7  C   UNL A   1      34.384  30.430  27.507  1.00  0.00     0.120 A 
ATOM      8  C   UNL A   1      33.060  30.724  27.166  1.00  0.00     0.047 A 
ATOM      9  C   UNL A   1      34.939  29.207  27.131  1.00  0.00     0.047 A 
ATOM     10  C   UNL A   1      32.297  29.803  26.438  1.00  0.00     0.013 A 
ATOM     11  C   UNL A   1      34.174  28.270  26.443  1.00  0.00     0.013 A 
ATOM     12  C   UNL A   1      32.859  28.571  26.105  1.00  0.00    -0.005 A 
BRANCH  12  13
ATOM     13  C   UNL A   1      32.083  27.510  25.456  1.00  0.00     0.141 C 
ATOM     14  N   UNL A   1      31.874  27.477  24.180  1.00  0.00    -0.180 NA
BRANCH  14  15
ATOM     15  N   UNL A   1      31.214  26.383  23.703  1.00  0.00    -0.239 N 
ATOM     16  C   UNL A   1      31.659  25.281  22.980  1.00  0.00     0.329 C 
ATOM     17  H   UNL A   1      30.251  26.371  23.906  1.00  0.00     0.194 HD
ATOM     18  O   UNL A   1      30.892  24.328  22.858  1.00  0.00    -0.262 OA
BRANCH  16  19
ATOM     19  C   UNL A   1      33.087  25.246  22.340  1.00  0.00     0.315 C 
ATOM     20  O   UNL A   1      33.325  25.705  21.227  1.00  0.00    -0.263 OA
ATOM     21  N   UNL A   1      34.167  24.836  23.100  1.00  0.00    -0.318 N 
ATOM     22  H   UNL A   1      35.021  25.258  22.852  1.00  0.00     0.170 HD
BRANCH  21  23
ATOM     23  C   UNL A   1      34.260  23.926  24.160  1.00  0.00     0.041 A 
ATOM     24  C   UNL A   1      34.047  24.420  25.455  1.00  0.00     0.029 A 
ATOM     25  C   UNL A   1      34.644  22.593  23.989  1.00  0.00     0.029 A 
ATOM     26  C   UNL A   1      34.147  23.571  26.559  1.00  0.00     0.041 A 
ATOM     27  C   UNL A   1      34.758  21.748  25.097  1.00  0.00     0.041 A 
ATOM     28  C   UNL A   1      34.498  22.241  26.368  1.00  0.00     0.123 A 
ATOM     29  F   UNL A   1      34.600  21.427  27.427  1.00  0.00    -0.207 F 
ENDBRANCH  21  23
ENDBRANCH  16  19
ENDBRANCH  14  15
ENDBRANCH  12  13
ENDBRANCH   6   7
ENDBRANCH   5   6
ENDBRANCH   2   5
BRANCH   3  30
ATOM     30  C   UNL A   1      34.701  32.921  32.121  1.00  0.00     0.117 C 
BRANCH  30  31
ATOM     31  C   UNL A   1      36.174  33.090  32.453  1.00  0.00     0.042 C 
BRANCH  31  32
ATOM     32  C   UNL A   1      36.671  32.227  33.607  1.00  0.00     0.118 C 
BRANCH  32  33
ATOM     33  N   UNL A   1      36.610  30.797  33.336  1.00  0.00    -0.352 N 
ATOM     34  C   UNL A   1      37.411  30.006  32.546  1.00  0.00     0.251 C 
ATOM     35  H   UNL A   1      35.879  30.320  33.791  1.00  0.00     0.163 HD
ATOM     36  O   UNL A   1      37.108  28.824  32.393  1.00  0.00    -0.269 OA
BRANCH  34  37
ATOM     37  C   UNL A   1      38.603  30.556  31.860  1.00  0.00     0.039 A 
ATOM     38  C   UNL A   1      39.738  30.842  32.628  1.00  0.00     0.014 A 
ATOM     39  C   UNL A   1      38.616  30.816  30.487  1.00  0.00     0.014 A 
ATOM     40  C   UNL A   1      40.897  31.324  32.011  1.00  0.00     0.010 A 
ATOM     41  C   UNL A   1      39.795  31.228  29.863  1.00  0.00     0.010 A 
ATOM     42  C   UNL A   1      40.946  31.490  30.618  1.00  0.00    -0.014 A 
BRANCH  42  43
ATOM     43  C   UNL A   1      42.207  31.902  29.946  1.00  0.00     0.031 A 
ATOM     44  C   UNL A   1      42.473  33.347  29.620  1.00  0.00     0.074 A 
ATOM     45  C   UNL A   1      43.090  30.958  29.563  1.00  0.00     0.049 A 
ATOM     46  N   UNL A   1      43.526  33.883  29.058  1.00  0.00    -0.248 NA
ATOM     47  C   UNL A   1      41.410  34.315  29.939  1.00  0.00     0.031 C 
ATOM     48  C   UNL A   1      42.904  29.514  29.721  1.00  0.00     0.029 A 
ATOM     49  N   UNL A   1      44.311  31.070  28.946  1.00  0.00    -0.354 N 
ATOM     50  C   UNL A   1      43.245  35.237  28.929  1.00  0.00     0.074 A 
ATOM     51  C   UNL A   1      41.906  35.438  29.440  1.00  0.00     0.031 C 
ATOM     52  C   UNL A   1      43.978  28.876  29.231  1.00  0.00     0.029 A 
ATOM     53  C   UNL A   1      44.924  29.860  28.714  1.00  0.00     0.049 A 
ATOM     54  H   UNL A   1      44.711  31.933  28.696  1.00  0.00     0.167 HD
ATOM     55  C   UNL A   1      44.039  36.230  28.461  1.00  0.00     0.034 A 
ATOM     56  C   UNL A   1      46.121  29.576  28.164  1.00  0.00     0.034 A 
ATOM     57  C   UNL A   1      45.390  36.041  28.007  1.00  0.00     0.049 A 
ATOM     58  C   UNL A   1      47.023  30.706  27.748  1.00  0.00     0.074 A 
ATOM     59  C   UNL A   1      46.307  36.997  27.602  1.00  0.00     0.029 A 
ATOM     60  N   UNL A   1      46.024  34.812  27.900  1.00  0.00    -0.354 N 
ATOM     61  N   UNL A   1      46.809  31.998  27.809  1.00  0.00    -0.248 NA
ATOM     62  C   UNL A   1      48.351  30.339  27.235  1.00  0.00     0.031 C 
ATOM     63  C   UNL A   1      47.495  36.345  27.251  1.00  0.00     0.029 A 
ATOM     64  C   UNL A   1      47.319  34.984  27.440  1.00  0.00     0.049 A 
ATOM     65  H   UNL A   1      45.613  33.945  28.118  1.00  0.00     0.167 HD
ATOM     66  C   UNL A   1      47.983  32.600  27.371  1.00  0.00     0.074 A 
ATOM     67  C   UNL A   1      48.915  31.530  27.077  1.00  0.00     0.031 C 
ATOM     68  C   UNL A   1      48.258  33.917  27.208  1.00  0.00     0.034 A 
BRANCH  55  69
ATOM     69  C   UNL A   1      43.493  37.634  28.497  1.00  0.00     0.023 A 
ATOM     70  C   UNL A   1      42.701  38.089  27.422  1.00  0.00     0.012 A 
ATOM     71  C   UNL A   1      43.708  38.478  29.603  1.00  0.00     0.148 A 
ATOM     72  C   UNL A   1      42.157  39.372  27.432  1.00  0.00     0.002 A 
ATOM     73  C   UNL A   1      43.130  39.745  29.623  1.00  0.00     0.091 A 
ATOM     74  F   UNL A   1      44.483  38.040  30.604  1.00  0.00    -0.205 F 
ATOM     75  C   UNL A   1      42.362  40.195  28.537  1.00  0.00     0.022 A 
BRANCH  73  76
ATOM     76  S   UNL A   1      43.279  40.849  31.032  1.00  0.00     0.127 S 
ATOM     77  O   UNL A   1      44.724  41.074  31.079  1.00  0.00    -0.237 OA
ATOM     78  O   UNL A   1      42.495  42.009  30.606  1.00  0.00    -0.237 OA
ATOM     79  O   UNL A   1      42.717  40.125  32.165  1.00  0.00    -0.744 OA
ENDBRANCH  73  76
ENDBRANCH  55  69
BRANCH  56  80
ATOM     80  C   UNL A   1      46.580  28.162  28.089  1.00  0.00     0.023 A 
ATOM     81  C   UNL A   1      47.201  27.581  29.212  1.00  0.00     0.012 A 
ATOM     82  C   UNL A   1      46.371  27.378  26.938  1.00  0.00     0.148 A 
ATOM     83  C   UNL A   1      47.630  26.255  29.183  1.00  0.00     0.002 A 
ATOM     84  C   UNL A   1      46.754  26.041  26.934  1.00  0.00     0.091 A 
ATOM     85  F   UNL A   1      45.794  27.951  25.872  1.00  0.00    -0.205 F 
ATOM     86  C   UNL A   1      47.396  25.481  28.049  1.00  0.00     0.022 A 
BRANCH  84  87
ATOM     87  S   UNL A   1      46.367  24.945  25.564  1.00  0.00     0.127 S 
ATOM     88  O   UNL A   1      46.886  23.668  26.045  1.00  0.00    -0.237 OA
ATOM     89  O   UNL A   1      44.907  25.033  25.501  1.00  0.00    -0.237 OA
ATOM     90  O   UNL A   1      47.046  25.520  24.410  1.00  0.00    -0.744 OA
ENDBRANCH  84  87
ENDBRANCH  56  80
BRANCH  68  91
ATOM     91  C   UNL A   1      49.628  34.283  26.705  1.00  0.00     0.023 A 
ATOM     92  C   UNL A   1      49.826  34.494  25.326  1.00  0.00     0.012 A 
ATOM     93  C   UNL A   1      50.704  34.467  27.593  1.00  0.00     0.148 A 
ATOM     94  C   UNL A   1      51.082  34.851  24.836  1.00  0.00     0.002 A 
ATOM     95  C   UNL A   1      51.944  34.863  27.102  1.00  0.00     0.091 A 
ATOM     96  F   UNL A   1      50.508  34.238  28.900  1.00  0.00    -0.205 F 
ATOM     97  C   UNL A   1      52.138  35.046  25.724  1.00  0.00     0.022 A 
BRANCH  95  98
ATOM     98  S   UNL A   1      53.321  35.214  28.202  1.00  0.00     0.127 S 
ATOM     99  O   UNL A   1      53.572  33.905  28.799  1.00  0.00    -0.237 OA
ATOM    100  O   UNL A   1      54.363  35.671  27.278  1.00  0.00    -0.237 OA
ATOM    101  O   UNL A   1      52.836  36.248  29.107  1.00  0.00    -0.744 OA
ENDBRANCH  95  98
ENDBRANCH  68  91
ENDBRANCH  42  43
ENDBRANCH  34  37
ENDBRANCH  32  33
ENDBRANCH  31  32
ENDBRANCH  30  31
ENDBRANCH   3  30
TORSDOF 19
ENDMDL
