MODEL 1
REMARK VINA RESULT:     -12.3      0.000      0.000
REMARK SMILES C[C@@H](C(=O)NCCCNC(=O)c1ccc(-c2c3nc(c(-c4cccc(S(=O)(=O)[O-])c4F)c4ccc([nH]4)c(-c4cccc(S(=O)(=O)[O-])c4F)c4nc(c(-c5cccc(S(=O)(=O)[O-])c5F)c5ccc2[nH]5)C=C4)C=C3)cc1)c1ccc(C[C@H]2CCC[C@H]2O)cc1
REMARK SMILES IDX 6 1 5 2 3 3 4 4 2 6 1 7 75 8 76 9 87 10 77 11 86 12 78 13
REMARK SMILES IDX 79 14 80 15 81 16 84 17 82 18 83 19 85 20 7 22 8 23 9 24
REMARK SMILES IDX 10 25 11 27 12 28 13 29 74 30 14 31 73 32 15 33 16 34 17 35
REMARK SMILES IDX 67 36 18 37 72 38 66 39 68 40 19 41 71 42 65 43 64 44 20 46
REMARK SMILES IDX 52 47 32 48 51 49 33 50 36 51 50 52 69 53 34 54 35 55 49 57
REMARK SMILES IDX 70 58 37 59 21 60 22 61 30 62 23 63 25 64 31 65 24 66 26 67
REMARK SMILES IDX 27 68 28 69 29 70 53 71 54 72 62 73 55 74 57 75 63 76 56 77
REMARK SMILES IDX 58 78 59 79 60 80 61 81 38 82 39 83 47 84 40 85 42 86 48 87
REMARK SMILES IDX 41 88 43 89 44 90 45 91 46 92
REMARK H PARENT 5 5 85 21 9 26 68 45 36 56
REMARK Flexibility Score: inf
ROOT
ATOM      1  C   UNL A   1      32.130  27.976  27.136  1.00  0.00     0.117 C 
ENDROOT
BRANCH   1   2
ATOM      2  N   UNL A   1      31.466  26.715  26.880  1.00  0.00    -0.356 N 
ATOM      3  C   UNL A   1      31.852  25.623  26.160  1.00  0.00     0.227 C 
ATOM      4  O   UNL A   1      31.039  24.696  26.153  1.00  0.00    -0.274 OA
ATOM      5  H   UNL A   1      30.580  26.631  27.300  1.00  0.00     0.163 HD
BRANCH   3   6
ATOM      6  C   UNL A   1      33.240  25.575  25.487  1.00  0.00     0.105 C 
ATOM      7  C   UNL A   1      33.284  26.264  24.125  1.00  0.00     0.023 C 
BRANCH   6   8
ATOM      8  C   UNL A   1      33.841  24.179  25.318  1.00  0.00    -0.036 A 
ATOM      9  C   UNL A   1      33.996  23.565  24.069  1.00  0.00     0.005 A 
ATOM     10  C   UNL A   1      34.333  23.506  26.448  1.00  0.00     0.005 A 
ATOM     11  C   UNL A   1      34.503  22.271  23.966  1.00  0.00     0.004 A 
ATOM     12  C   UNL A   1      34.856  22.216  26.342  1.00  0.00     0.004 A 
ATOM     13  C   UNL A   1      34.880  21.561  25.107  1.00  0.00    -0.048 A 
BRANCH  13  14
ATOM     14  C   UNL A   1      35.244  20.103  25.006  1.00  0.00     0.041 C 
BRANCH  14  15
ATOM     15  C   UNL A   1      34.152  19.157  24.468  1.00  0.00     0.022 C 
ATOM     16  C   UNL A   1      34.574  17.693  24.252  1.00  0.00     0.007 C 
ATOM     17  C   UNL A   1      32.816  19.068  25.224  1.00  0.00     0.117 C 
ATOM     18  C   UNL A   1      33.314  16.849  24.456  1.00  0.00     0.003 C 
ATOM     19  C   UNL A   1      32.163  17.839  24.600  1.00  0.00     0.032 C 
BRANCH  17  20
ATOM     20  O   UNL A   1      32.914  18.855  26.620  1.00  0.00    -0.393 OA
ATOM     21  H   UNL A   1      32.643  17.947  26.828  1.00  0.00     0.210 HD
ENDBRANCH  17  20
ENDBRANCH  14  15
ENDBRANCH  13  14
ENDBRANCH   6   8
ENDBRANCH   3   6
ENDBRANCH   1   2
BRANCH   1  22
ATOM     22  C   UNL A   1      31.714  29.052  26.138  1.00  0.00     0.042 C 
BRANCH  22  23
ATOM     23  C   UNL A   1      32.831  30.013  25.744  1.00  0.00     0.118 C 
BRANCH  23  24
ATOM     24  N   UNL A   1      32.610  31.365  26.235  1.00  0.00    -0.352 N 
ATOM     25  C   UNL A   1      33.255  32.052  27.235  1.00  0.00     0.251 C 
ATOM     26  H   UNL A   1      31.891  31.862  25.783  1.00  0.00     0.163 HD
ATOM     27  O   UNL A   1      32.794  33.118  27.630  1.00  0.00    -0.269 OA
BRANCH  25  28
ATOM     28  C   UNL A   1      34.486  31.503  27.846  1.00  0.00     0.039 A 
ATOM     29  C   UNL A   1      35.589  32.345  28.011  1.00  0.00     0.014 A 
ATOM     30  C   UNL A   1      34.563  30.166  28.242  1.00  0.00     0.014 A 
ATOM     31  C   UNL A   1      36.745  31.860  28.628  1.00  0.00     0.010 A 
ATOM     32  C   UNL A   1      35.683  29.708  28.933  1.00  0.00     0.010 A 
ATOM     33  C   UNL A   1      36.789  30.548  29.128  1.00  0.00    -0.014 A 
BRANCH  33  34
ATOM     34  C   UNL A   1      37.976  30.044  29.867  1.00  0.00     0.031 A 
ATOM     35  C   UNL A   1      38.277  30.541  31.256  1.00  0.00     0.074 A 
ATOM     36  C   UNL A   1      38.826  29.194  29.257  1.00  0.00     0.049 A 
ATOM     37  N   UNL A   1      39.290  30.253  32.032  1.00  0.00    -0.248 NA
ATOM     38  C   UNL A   1      37.330  31.503  31.843  1.00  0.00     0.031 C 
ATOM     39  C   UNL A   1      38.684  28.691  27.888  1.00  0.00     0.029 A 
ATOM     40  N   UNL A   1      39.991  28.618  29.700  1.00  0.00    -0.354 N 
ATOM     41  C   UNL A   1      39.120  31.017  33.180  1.00  0.00     0.074 A 
ATOM     42  C   UNL A   1      37.927  31.811  32.985  1.00  0.00     0.031 C 
ATOM     43  C   UNL A   1      39.711  27.873  27.610  1.00  0.00     0.029 A 
ATOM     44  C   UNL A   1      40.606  27.822  28.761  1.00  0.00     0.049 A 
ATOM     45  H   UNL A   1      40.354  28.762  30.604  1.00  0.00     0.167 HD
ATOM     46  C   UNL A   1      39.871  31.037  34.308  1.00  0.00     0.034 A 
ATOM     47  C   UNL A   1      41.762  27.133  28.817  1.00  0.00     0.034 A 
ATOM     48  C   UNL A   1      41.041  30.224  34.511  1.00  0.00     0.049 A 
ATOM     49  C   UNL A   1      42.571  27.162  30.086  1.00  0.00     0.074 A 
ATOM     50  C   UNL A   1      41.828  30.120  35.644  1.00  0.00     0.029 A 
ATOM     51  N   UNL A   1      41.596  29.383  33.560  1.00  0.00    -0.354 N 
ATOM     52  N   UNL A   1      42.318  27.786  31.211  1.00  0.00    -0.248 NA
ATOM     53  C   UNL A   1      43.806  26.367  30.105  1.00  0.00     0.031 C 
ATOM     54  C   UNL A   1      42.878  29.239  35.368  1.00  0.00     0.029 A 
ATOM     55  C   UNL A   1      42.722  28.764  34.075  1.00  0.00     0.049 A 
ATOM     56  H   UNL A   1      41.243  29.246  32.652  1.00  0.00     0.167 HD
ATOM     57  C   UNL A   1      43.339  27.425  32.085  1.00  0.00     0.074 A 
ATOM     58  C   UNL A   1      44.203  26.514  31.362  1.00  0.00     0.031 C 
ATOM     59  C   UNL A   1      43.547  27.820  33.364  1.00  0.00     0.034 A 
BRANCH  46  60
ATOM     60  C   UNL A   1      39.424  31.935  35.433  1.00  0.00     0.023 A 
ATOM     61  C   UNL A   1      39.734  33.310  35.390  1.00  0.00     0.012 A 
ATOM     62  C   UNL A   1      38.645  31.437  36.496  1.00  0.00     0.148 A 
ATOM     63  C   UNL A   1      39.307  34.168  36.403  1.00  0.00     0.002 A 
ATOM     64  C   UNL A   1      38.182  32.306  37.476  1.00  0.00     0.091 A 
ATOM     65  F   UNL A   1      38.375  30.123  36.529  1.00  0.00    -0.205 F 
ATOM     66  C   UNL A   1      38.523  33.668  37.439  1.00  0.00     0.022 A 
BRANCH  64  67
ATOM     67  S   UNL A   1      37.098  31.781  38.808  1.00  0.00     0.127 S 
ATOM     68  O   UNL A   1      36.832  30.390  38.442  1.00  0.00    -0.237 OA
ATOM     69  O   UNL A   1      37.953  31.949  39.984  1.00  0.00    -0.237 OA
ATOM     70  O   UNL A   1      35.943  32.668  38.762  1.00  0.00    -0.744 OA
ENDBRANCH  64  67
ENDBRANCH  46  60
BRANCH  47  71
ATOM     71  C   UNL A   1      42.195  26.305  27.655  1.00  0.00     0.023 A 
ATOM     72  C   UNL A   1      42.969  26.895  26.637  1.00  0.00     0.012 A 
ATOM     73  C   UNL A   1      41.863  24.939  27.562  1.00  0.00     0.148 A 
ATOM     74  C   UNL A   1      43.378  26.150  25.531  1.00  0.00     0.002 A 
ATOM     75  C   UNL A   1      42.322  24.189  26.486  1.00  0.00     0.091 A 
ATOM     76  F   UNL A   1      41.120  24.399  28.537  1.00  0.00    -0.205 F 
ATOM     77  C   UNL A   1      43.062  24.796  25.459  1.00  0.00     0.022 A 
BRANCH  75  78
ATOM     78  S   UNL A   1      42.075  22.413  26.372  1.00  0.00     0.127 S 
ATOM     79  O   UNL A   1      40.624  22.320  26.238  1.00  0.00    -0.237 OA
ATOM     80  O   UNL A   1      42.830  22.084  25.161  1.00  0.00    -0.237 OA
ATOM     81  O   UNL A   1      42.633  21.857  27.597  1.00  0.00    -0.744 OA
ENDBRANCH  75  78
ENDBRANCH  47  71
BRANCH  59  82
ATOM     82  C   UNL A   1      44.730  27.238  34.093  1.00  0.00     0.023 A 
ATOM     83  C   UNL A   1      45.972  27.902  34.069  1.00  0.00     0.012 A 
ATOM     84  C   UNL A   1      44.587  26.068  34.865  1.00  0.00     0.148 A 
ATOM     85  C   UNL A   1      47.063  27.391  34.770  1.00  0.00     0.002 A 
ATOM     86  C   UNL A   1      45.664  25.593  35.604  1.00  0.00     0.091 A 
ATOM     87  F   UNL A   1      43.402  25.441  34.862  1.00  0.00    -0.205 F 
ATOM     88  C   UNL A   1      46.906  26.245  35.547  1.00  0.00     0.022 A 
BRANCH  86  89
ATOM     89  S   UNL A   1      45.529  24.184  36.710  1.00  0.00     0.127 S 
ATOM     90  O   UNL A   1      44.544  24.661  37.681  1.00  0.00    -0.237 OA
ATOM     91  O   UNL A   1      45.042  23.134  35.815  1.00  0.00    -0.237 OA
ATOM     92  O   UNL A   1      46.866  23.957  37.240  1.00  0.00    -0.744 OA
ENDBRANCH  86  89
ENDBRANCH  59  82
ENDBRANCH  33  34
ENDBRANCH  25  28
ENDBRANCH  23  24
ENDBRANCH  22  23
ENDBRANCH   1  22
TORSDOF 17
ENDMDL
MODEL 2
REMARK VINA RESULT:     -12.2      1.330      1.495
REMARK SMILES C[C@@H](C(=O)NCCCNC(=O)c1ccc(-c2c3nc(c(-c4cccc(S(=O)(=O)[O-])c4F)c4ccc([nH]4)c(-c4cccc(S(=O)(=O)[O-])c4F)c4nc(c(-c5cccc(S(=O)(=O)[O-])c5F)c5ccc2[nH]5)C=C4)C=C3)cc1)c1ccc(C[C@H]2CCC[C@H]2O)cc1
REMARK SMILES IDX 6 1 5 2 3 3 4 4 2 6 1 7 75 8 76 9 87 10 77 11 86 12 78 13
REMARK SMILES IDX 79 14 80 15 81 16 84 17 82 18 83 19 85 20 7 22 8 23 9 24
REMARK SMILES IDX 10 25 11 27 12 28 13 29 74 30 14 31 73 32 15 33 16 34 17 35
REMARK SMILES IDX 67 36 18 37 72 38 66 39 68 40 19 41 71 42 65 43 64 44 20 46
REMARK SMILES IDX 52 47 32 48 51 49 33 50 36 51 50 52 69 53 34 54 35 55 49 57
REMARK SMILES IDX 70 58 37 59 21 60 22 61 30 62 23 63 25 64 31 65 24 66 26 67
REMARK SMILES IDX 27 68 28 69 29 70 53 71 54 72 62 73 55 74 57 75 63 76 56 77
REMARK SMILES IDX 58 78 59 79 60 80 61 81 38 82 39 83 47 84 40 85 42 86 48 87
REMARK SMILES IDX 41 88 43 89 44 90 45 91 46 92
REMARK H PARENT 5 5 85 21 9 26 68 45 36 56
REMARK Flexibility Score: inf
ROOT
ATOM      1  C   UNL A   1      32.118  27.805  27.284  1.00  0.00     0.117 C 
ENDROOT
BRANCH   1   2
ATOM      2  N   UNL A   1      31.371  26.631  26.885  1.00  0.00    -0.356 N 
ATOM      3  C   UNL A   1      31.675  25.618  26.024  1.00  0.00     0.227 C 
ATOM      4  O   UNL A   1      30.804  24.752  25.918  1.00  0.00    -0.274 OA
ATOM      5  H   UNL A   1      30.487  26.549  27.310  1.00  0.00     0.163 HD
BRANCH   3   6
ATOM      6  C   UNL A   1      33.047  25.571  25.319  1.00  0.00     0.105 C 
ATOM      7  C   UNL A   1      33.047  26.215  23.935  1.00  0.00     0.023 C 
BRANCH   6   8
ATOM      8  C   UNL A   1      33.668  24.180  25.180  1.00  0.00    -0.036 A 
ATOM      9  C   UNL A   1      33.535  23.400  24.026  1.00  0.00     0.005 A 
ATOM     10  C   UNL A   1      34.473  23.685  26.219  1.00  0.00     0.005 A 
ATOM     11  C   UNL A   1      34.075  22.117  23.961  1.00  0.00     0.004 A 
ATOM     12  C   UNL A   1      35.028  22.406  26.148  1.00  0.00     0.004 A 
ATOM     13  C   UNL A   1      34.774  21.584  25.046  1.00  0.00    -0.048 A 
BRANCH  13  14
ATOM     14  C   UNL A   1      35.187  20.136  25.043  1.00  0.00     0.041 C 
BRANCH  14  15
ATOM     15  C   UNL A   1      34.149  19.126  24.518  1.00  0.00     0.022 C 
ATOM     16  C   UNL A   1      34.664  17.697  24.267  1.00  0.00     0.007 C 
ATOM     17  C   UNL A   1      32.842  18.934  25.306  1.00  0.00     0.117 C 
ATOM     18  C   UNL A   1      33.469  16.766  24.490  1.00  0.00     0.003 C 
ATOM     19  C   UNL A   1      32.258  17.673  24.678  1.00  0.00     0.032 C 
BRANCH  17  20
ATOM     20  O   UNL A   1      32.991  18.708  26.695  1.00  0.00    -0.393 OA
ATOM     21  H   UNL A   1      32.708  17.805  26.907  1.00  0.00     0.210 HD
ENDBRANCH  17  20
ENDBRANCH  14  15
ENDBRANCH  13  14
ENDBRANCH   6   8
ENDBRANCH   3   6
ENDBRANCH   1   2
BRANCH   1  22
ATOM     22  C   UNL A   1      31.560  29.077  26.653  1.00  0.00     0.042 C 
BRANCH  22  23
ATOM     23  C   UNL A   1      32.609  29.970  25.999  1.00  0.00     0.118 C 
BRANCH  23  24
ATOM     24  N   UNL A   1      32.467  31.370  26.369  1.00  0.00    -0.352 N 
ATOM     25  C   UNL A   1      33.192  32.119  27.265  1.00  0.00     0.251 C 
ATOM     26  H   UNL A   1      31.745  31.853  25.909  1.00  0.00     0.163 HD
ATOM     27  O   UNL A   1      32.793  33.236  27.579  1.00  0.00    -0.269 OA
BRANCH  25  28
ATOM     28  C   UNL A   1      34.431  31.577  27.863  1.00  0.00     0.039 A 
ATOM     29  C   UNL A   1      35.551  32.408  27.963  1.00  0.00     0.014 A 
ATOM     30  C   UNL A   1      34.502  30.255  28.311  1.00  0.00     0.014 A 
ATOM     31  C   UNL A   1      36.717  31.932  28.568  1.00  0.00     0.010 A 
ATOM     32  C   UNL A   1      35.634  29.809  28.988  1.00  0.00     0.010 A 
ATOM     33  C   UNL A   1      36.757  30.640  29.119  1.00  0.00    -0.014 A 
BRANCH  33  34
ATOM     34  C   UNL A   1      37.958  30.148  29.843  1.00  0.00     0.031 A 
ATOM     35  C   UNL A   1      38.267  30.644  31.232  1.00  0.00     0.074 A 
ATOM     36  C   UNL A   1      38.812  29.310  29.223  1.00  0.00     0.049 A 
ATOM     37  N   UNL A   1      39.291  30.367  31.996  1.00  0.00    -0.248 NA
ATOM     38  C   UNL A   1      37.314  31.594  31.831  1.00  0.00     0.031 C 
ATOM     39  C   UNL A   1      38.662  28.810  27.854  1.00  0.00     0.029 A 
ATOM     40  N   UNL A   1      39.988  28.748  29.652  1.00  0.00    -0.354 N 
ATOM     41  C   UNL A   1      39.123  31.125  33.148  1.00  0.00     0.074 A 
ATOM     42  C   UNL A   1      37.918  31.905  32.968  1.00  0.00     0.031 C 
ATOM     43  C   UNL A   1      39.696  28.006  27.562  1.00  0.00     0.029 A 
ATOM     44  C   UNL A   1      40.603  27.963  28.704  1.00  0.00     0.049 A 
ATOM     45  H   UNL A   1      40.358  28.894  30.553  1.00  0.00     0.167 HD
ATOM     46  C   UNL A   1      39.885  31.151  34.268  1.00  0.00     0.034 A 
ATOM     47  C   UNL A   1      41.769  27.288  28.747  1.00  0.00     0.034 A 
ATOM     48  C   UNL A   1      41.066  30.352  34.457  1.00  0.00     0.049 A 
ATOM     49  C   UNL A   1      42.590  27.323  30.008  1.00  0.00     0.074 A 
ATOM     50  C   UNL A   1      41.867  30.255  35.582  1.00  0.00     0.029 A 
ATOM     51  N   UNL A   1      41.623  29.520  33.498  1.00  0.00    -0.354 N 
ATOM     52  N   UNL A   1      42.340  27.940  31.137  1.00  0.00    -0.248 NA
ATOM     53  C   UNL A   1      43.834  26.542  30.012  1.00  0.00     0.031 C 
ATOM     54  C   UNL A   1      42.924  29.387  35.292  1.00  0.00     0.029 A 
ATOM     55  C   UNL A   1      42.762  28.914  34.000  1.00  0.00     0.049 A 
ATOM     56  H   UNL A   1      41.262  29.382  32.593  1.00  0.00     0.167 HD
ATOM     57  C   UNL A   1      43.374  27.589  31.999  1.00  0.00     0.074 A 
ATOM     58  C   UNL A   1      44.242  26.691  31.265  1.00  0.00     0.031 C 
ATOM     59  C   UNL A   1      43.590  27.982  33.277  1.00  0.00     0.034 A 
BRANCH  46  60
ATOM     60  C   UNL A   1      39.439  32.040  35.401  1.00  0.00     0.023 A 
ATOM     61  C   UNL A   1      38.606  31.516  36.411  1.00  0.00     0.012 A 
ATOM     62  C   UNL A   1      39.892  33.370  35.503  1.00  0.00     0.148 A 
ATOM     63  C   UNL A   1      38.203  32.309  37.484  1.00  0.00     0.002 A 
ATOM     64  C   UNL A   1      39.526  34.139  36.601  1.00  0.00     0.091 A 
ATOM     65  F   UNL A   1      40.669  33.857  34.525  1.00  0.00    -0.205 F 
ATOM     66  C   UNL A   1      38.672  33.616  37.585  1.00  0.00     0.022 A 
BRANCH  64  67
ATOM     67  S   UNL A   1      40.140  35.806  36.869  1.00  0.00     0.127 S 
ATOM     68  O   UNL A   1      39.555  36.131  38.169  1.00  0.00    -0.237 OA
ATOM     69  O   UNL A   1      41.589  35.600  36.887  1.00  0.00    -0.237 OA
ATOM     70  O   UNL A   1      39.652  36.600  35.750  1.00  0.00    -0.744 OA
ENDBRANCH  64  67
ENDBRANCH  46  60
BRANCH  47  71
ATOM     71  C   UNL A   1      42.199  26.468  27.578  1.00  0.00     0.023 A 
ATOM     72  C   UNL A   1      42.977  27.064  26.566  1.00  0.00     0.012 A 
ATOM     73  C   UNL A   1      41.863  25.105  27.472  1.00  0.00     0.148 A 
ATOM     74  C   UNL A   1      43.384  26.328  25.454  1.00  0.00     0.002 A 
ATOM     75  C   UNL A   1      42.320  24.362  26.390  1.00  0.00     0.091 A 
ATOM     76  F   UNL A   1      41.117  24.558  28.442  1.00  0.00    -0.205 F 
ATOM     77  C   UNL A   1      43.064  24.976  25.369  1.00  0.00     0.022 A 
BRANCH  75  78
ATOM     78  S   UNL A   1      42.067  22.588  26.260  1.00  0.00     0.127 S 
ATOM     79  O   UNL A   1      40.610  22.495  26.232  1.00  0.00    -0.237 OA
ATOM     80  O   UNL A   1      42.729  22.285  24.989  1.00  0.00    -0.237 OA
ATOM     81  O   UNL A   1      42.716  22.009  27.428  1.00  0.00    -0.744 OA
ENDBRANCH  75  78
ENDBRANCH  47  71
BRANCH  59  82
ATOM     82  C   UNL A   1      44.788  27.413  33.993  1.00  0.00     0.023 A 
ATOM     83  C   UNL A   1      46.032  28.070  33.922  1.00  0.00     0.012 A 
ATOM     84  C   UNL A   1      44.658  26.264  34.798  1.00  0.00     0.148 A 
ATOM     85  C   UNL A   1      47.137  27.571  34.610  1.00  0.00     0.002 A 
ATOM     86  C   UNL A   1      45.750  25.802  35.523  1.00  0.00     0.091 A 
ATOM     87  F   UNL A   1      43.470  25.643  34.840  1.00  0.00    -0.205 F 
ATOM     88  C   UNL A   1      46.994  26.446  35.419  1.00  0.00     0.022 A 
BRANCH  86  89
ATOM     89  S   UNL A   1      45.635  24.423  36.667  1.00  0.00     0.127 S 
ATOM     90  O   UNL A   1      44.642  24.912  37.624  1.00  0.00    -0.237 OA
ATOM     91  O   UNL A   1      45.165  23.341  35.801  1.00  0.00    -0.237 OA
ATOM     92  O   UNL A   1      46.975  24.231  37.204  1.00  0.00    -0.744 OA
ENDBRANCH  86  89
ENDBRANCH  59  82
ENDBRANCH  33  34
ENDBRANCH  25  28
ENDBRANCH  23  24
ENDBRANCH  22  23
ENDBRANCH   1  22
TORSDOF 17
ENDMDL
MODEL 3
REMARK VINA RESULT:     -12.0      2.388      8.270
REMARK SMILES C[C@@H](C(=O)NCCCNC(=O)c1ccc(-c2c3nc(c(-c4cccc(S(=O)(=O)[O-])c4F)c4ccc([nH]4)c(-c4cccc(S(=O)(=O)[O-])c4F)c4nc(c(-c5cccc(S(=O)(=O)[O-])c5F)c5ccc2[nH]5)C=C4)C=C3)cc1)c1ccc(C[C@H]2CCC[C@H]2O)cc1
REMARK SMILES IDX 6 1 5 2 3 3 4 4 2 6 1 7 75 8 76 9 87 10 77 11 86 12 78 13
REMARK SMILES IDX 79 14 80 15 81 16 84 17 82 18 83 19 85 20 7 22 8 23 9 24
REMARK SMILES IDX 10 25 11 27 12 28 13 29 74 30 14 31 73 32 15 33 16 34 17 35
REMARK SMILES IDX 67 36 18 37 72 38 66 39 68 40 19 41 71 42 65 43 64 44 20 46
REMARK SMILES IDX 52 47 32 48 51 49 33 50 36 51 50 52 69 53 34 54 35 55 49 57
REMARK SMILES IDX 70 58 37 59 21 60 22 61 30 62 23 63 25 64 31 65 24 66 26 67
REMARK SMILES IDX 27 68 28 69 29 70 53 71 54 72 62 73 55 74 57 75 63 76 56 77
REMARK SMILES IDX 58 78 59 79 60 80 61 81 38 82 39 83 47 84 40 85 42 86 48 87
REMARK SMILES IDX 41 88 43 89 44 90 45 91 46 92
REMARK H PARENT 5 5 85 21 9 26 68 45 36 56
REMARK Flexibility Score: inf
ROOT
ATOM      1  C   UNL A   1      31.762  30.276  26.236  1.00  0.00     0.117 C 
ENDROOT
BRANCH   1   2
ATOM      2  N   UNL A   1      31.216  29.868  24.959  1.00  0.00    -0.356 N 
ATOM      3  C   UNL A   1      31.766  29.166  23.927  1.00  0.00     0.227 C 
ATOM      4  O   UNL A   1      31.010  28.978  22.971  1.00  0.00    -0.274 OA
ATOM      5  H   UNL A   1      30.284  30.146  24.809  1.00  0.00     0.163 HD
BRANCH   3   6
ATOM      6  C   UNL A   1      33.201  28.610  24.030  1.00  0.00     0.105 C 
ATOM      7  C   UNL A   1      34.095  29.000  22.855  1.00  0.00     0.023 C 
BRANCH   6   8
ATOM      8  C   UNL A   1      33.310  27.095  24.209  1.00  0.00    -0.036 A 
ATOM      9  C   UNL A   1      33.057  26.188  23.173  1.00  0.00     0.005 A 
ATOM     10  C   UNL A   1      33.756  26.582  25.438  1.00  0.00     0.005 A 
ATOM     11  C   UNL A   1      33.118  24.813  23.394  1.00  0.00     0.004 A 
ATOM     12  C   UNL A   1      33.833  25.206  25.654  1.00  0.00     0.004 A 
ATOM     13  C   UNL A   1      33.447  24.309  24.654  1.00  0.00    -0.048 A 
BRANCH  13  14
ATOM     14  C   UNL A   1      33.325  22.834  24.934  1.00  0.00     0.041 C 
BRANCH  14  15
ATOM     15  C   UNL A   1      34.537  21.960  24.557  1.00  0.00     0.022 C 
ATOM     16  C   UNL A   1      35.748  22.704  23.967  1.00  0.00     0.007 C 
ATOM     17  C   UNL A   1      35.136  21.029  25.626  1.00  0.00     0.117 C 
ATOM     18  C   UNL A   1      36.983  21.887  24.356  1.00  0.00     0.003 C 
ATOM     19  C   UNL A   1      36.457  20.606  24.993  1.00  0.00     0.032 C 
BRANCH  17  20
ATOM     20  O   UNL A   1      35.417  21.632  26.875  1.00  0.00    -0.393 OA
ATOM     21  H   UNL A   1      36.025  22.377  26.745  1.00  0.00     0.210 HD
ENDBRANCH  17  20
ENDBRANCH  14  15
ENDBRANCH  13  14
ENDBRANCH   6   8
ENDBRANCH   3   6
ENDBRANCH   1   2
BRANCH   1  22
ATOM     22  C   UNL A   1      31.598  31.774  26.472  1.00  0.00     0.042 C 
BRANCH  22  23
ATOM     23  C   UNL A   1      32.771  32.432  27.191  1.00  0.00     0.118 C 
BRANCH  23  24
ATOM     24  N   UNL A   1      32.510  33.821  27.540  1.00  0.00    -0.352 N 
ATOM     25  C   UNL A   1      33.056  34.593  28.538  1.00  0.00     0.251 C 
ATOM     26  H   UNL A   1      31.844  34.276  26.977  1.00  0.00     0.163 HD
ATOM     27  O   UNL A   1      32.563  35.687  28.792  1.00  0.00    -0.269 OA
BRANCH  25  28
ATOM     28  C   UNL A   1      34.215  34.101  29.315  1.00  0.00     0.039 A 
ATOM     29  C   UNL A   1      33.981  33.370  30.483  1.00  0.00     0.014 A 
ATOM     30  C   UNL A   1      35.525  34.367  28.909  1.00  0.00     0.014 A 
ATOM     31  C   UNL A   1      35.060  32.855  31.207  1.00  0.00     0.010 A 
ATOM     32  C   UNL A   1      36.594  33.782  29.583  1.00  0.00     0.010 A 
ATOM     33  C   UNL A   1      36.375  33.025  30.743  1.00  0.00    -0.014 A 
BRANCH  33  34
ATOM     34  C   UNL A   1      37.528  32.410  31.451  1.00  0.00     0.031 A 
ATOM     35  C   UNL A   1      38.292  31.275  30.820  1.00  0.00     0.074 A 
ATOM     36  C   UNL A   1      37.840  32.822  32.695  1.00  0.00     0.049 A 
ATOM     37  N   UNL A   1      39.290  30.584  31.307  1.00  0.00    -0.248 NA
ATOM     38  C   UNL A   1      37.866  30.846  29.478  1.00  0.00     0.031 C 
ATOM     39  C   UNL A   1      37.135  33.865  33.444  1.00  0.00     0.029 A 
ATOM     40  N   UNL A   1      38.819  32.400  33.561  1.00  0.00    -0.354 N 
ATOM     41  C   UNL A   1      39.590  29.623  30.349  1.00  0.00     0.074 A 
ATOM     42  C   UNL A   1      38.645  29.795  29.269  1.00  0.00     0.031 C 
ATOM     43  C   UNL A   1      37.711  34.011  34.647  1.00  0.00     0.029 A 
ATOM     44  C   UNL A   1      38.800  33.049  34.774  1.00  0.00     0.049 A 
ATOM     45  H   UNL A   1      39.473  31.699  33.336  1.00  0.00     0.167 HD
ATOM     46  C   UNL A   1      40.582  28.699  30.353  1.00  0.00     0.034 A 
ATOM     47  C   UNL A   1      39.569  32.884  35.869  1.00  0.00     0.034 A 
ATOM     48  C   UNL A   1      41.540  28.550  31.416  1.00  0.00     0.049 A 
ATOM     49  C   UNL A   1      40.671  31.860  35.842  1.00  0.00     0.074 A 
ATOM     50  C   UNL A   1      42.623  27.692  31.482  1.00  0.00     0.029 A 
ATOM     51  N   UNL A   1      41.527  29.268  32.601  1.00  0.00    -0.354 N 
ATOM     52  N   UNL A   1      41.025  31.054  34.870  1.00  0.00    -0.248 NA
ATOM     53  C   UNL A   1      41.500  31.745  37.049  1.00  0.00     0.031 C 
ATOM     54  C   UNL A   1      43.247  27.870  32.720  1.00  0.00     0.029 A 
ATOM     55  C   UNL A   1      42.576  28.867  33.410  1.00  0.00     0.049 A 
ATOM     56  H   UNL A   1      40.868  29.961  32.834  1.00  0.00     0.167 HD
ATOM     57  C   UNL A   1      42.142  30.367  35.332  1.00  0.00     0.074 A 
ATOM     58  C   UNL A   1      42.416  30.866  36.665  1.00  0.00     0.031 C 
ATOM     59  C   UNL A   1      42.869  29.405  34.714  1.00  0.00     0.034 A 
BRANCH  46  60
ATOM     60  C   UNL A   1      40.712  27.804  29.147  1.00  0.00     0.023 A 
ATOM     61  C   UNL A   1      39.923  26.639  29.058  1.00  0.00     0.012 A 
ATOM     62  C   UNL A   1      41.561  28.145  28.076  1.00  0.00     0.148 A 
ATOM     63  C   UNL A   1      40.002  25.810  27.940  1.00  0.00     0.002 A 
ATOM     64  C   UNL A   1      41.598  27.340  26.945  1.00  0.00     0.091 A 
ATOM     65  F   UNL A   1      42.317  29.248  28.186  1.00  0.00    -0.205 F 
ATOM     66  C   UNL A   1      40.831  26.165  26.879  1.00  0.00     0.022 A 
BRANCH  64  67
ATOM     67  S   UNL A   1      42.569  27.751  25.490  1.00  0.00     0.127 S 
ATOM     68  O   UNL A   1      42.372  26.564  24.658  1.00  0.00    -0.237 OA
ATOM     69  O   UNL A   1      41.896  28.956  25.002  1.00  0.00    -0.237 OA
ATOM     70  O   UNL A   1      43.931  27.963  25.961  1.00  0.00    -0.744 OA
ENDBRANCH  64  67
ENDBRANCH  46  60
BRANCH  47  71
ATOM     71  C   UNL A   1      39.364  33.754  37.062  1.00  0.00     0.023 A 
ATOM     72  C   UNL A   1      39.779  35.100  37.015  1.00  0.00     0.012 A 
ATOM     73  C   UNL A   1      38.748  33.266  38.231  1.00  0.00     0.148 A 
ATOM     74  C   UNL A   1      39.614  35.935  38.119  1.00  0.00     0.002 A 
ATOM     75  C   UNL A   1      38.534  34.120  39.307  1.00  0.00     0.091 A 
ATOM     76  F   UNL A   1      38.367  31.982  38.258  1.00  0.00    -0.205 F 
ATOM     77  C   UNL A   1      38.984  35.449  39.261  1.00  0.00     0.022 A 
BRANCH  75  78
ATOM     78  S   UNL A   1      37.619  33.619  40.769  1.00  0.00     0.127 S 
ATOM     79  O   UNL A   1      36.434  32.998  40.183  1.00  0.00    -0.237 OA
ATOM     80  O   UNL A   1      38.554  32.688  41.403  1.00  0.00    -0.237 OA
ATOM     81  O   UNL A   1      37.383  34.841  41.526  1.00  0.00    -0.744 OA
ENDBRANCH  75  78
ENDBRANCH  47  71
BRANCH  59  82
ATOM     82  C   UNL A   1      44.064  28.851  35.446  1.00  0.00     0.023 A 
ATOM     83  C   UNL A   1      45.331  29.442  35.279  1.00  0.00     0.012 A 
ATOM     84  C   UNL A   1      43.912  27.786  36.357  1.00  0.00     0.148 A 
ATOM     85  C   UNL A   1      46.436  28.960  35.980  1.00  0.00     0.002 A 
ATOM     86  C   UNL A   1      45.006  27.345  37.091  1.00  0.00     0.091 A 
ATOM     87  F   UNL A   1      42.701  27.225  36.489  1.00  0.00    -0.205 F 
ATOM     88  C   UNL A   1      46.272  27.921  36.893  1.00  0.00     0.022 A 
BRANCH  86  89
ATOM     89  S   UNL A   1      44.871  26.081  38.360  1.00  0.00     0.127 S 
ATOM     90  O   UNL A   1      44.117  25.040  37.663  1.00  0.00    -0.237 OA
ATOM     91  O   UNL A   1      46.273  25.750  38.618  1.00  0.00    -0.237 OA
ATOM     92  O   UNL A   1      44.180  26.707  39.479  1.00  0.00    -0.744 OA
ENDBRANCH  86  89
ENDBRANCH  59  82
ENDBRANCH  33  34
ENDBRANCH  25  28
ENDBRANCH  23  24
ENDBRANCH  22  23
ENDBRANCH   1  22
TORSDOF 17
ENDMDL
