MODEL 1
REMARK VINA RESULT:     -11.8      0.000      0.000
REMARK SMILES O=C(NCCCNC(=O)c1ccc(-c2c3nc(c(-c4cccc(S(=O)(=O)[O-])c4F)c4ccc([nH]4)c(-c4cccc(S(=O)(=O)[O-])c4F)c4nc(c(-c5cccc(S(=O)(=O)[O-])c5F)c5ccc2[nH]5)C=C4)C=C3)cc1)C1=C[C@H]2C=C[C@@H]1[C@@H]1C=C[C@H]21
REMARK SMILES IDX 7 1 8 2 9 3 6 5 5 6 4 7 3 8 1 9 2 10 73 12 74 13 78 14 75 15
REMARK SMILES IDX 77 16 79 17 76 18 82 19 80 20 81 21 10 22 11 23 72 24 12 25
REMARK SMILES IDX 71 26 13 27 14 28 15 29 65 30 16 31 70 32 64 33 66 34 17 35
REMARK SMILES IDX 69 36 63 37 62 38 18 40 50 41 30 42 49 43 31 44 34 45 48 46
REMARK SMILES IDX 67 47 32 48 33 49 47 51 68 52 35 53 19 54 20 55 28 56 21 57
REMARK SMILES IDX 23 58 29 59 22 60 24 61 25 62 26 63 27 64 51 65 52 66 60 67
REMARK SMILES IDX 53 68 55 69 61 70 54 71 56 72 57 73 58 74 59 75 36 76 37 77
REMARK SMILES IDX 45 78 38 79 40 80 46 81 39 82 41 83 42 84 43 85 44 86
REMARK H PARENT 7 4 3 11 66 39 34 50
REMARK Flexibility Score: inf
ROOT
ATOM      1  N   UNL A   1      33.144  33.029  27.713  1.00  0.00    -0.352 N 
ATOM      2  C   UNL A   1      33.534  31.756  27.366  1.00  0.00     0.251 C 
ATOM      3  O   UNL A   1      32.837  31.091  26.605  1.00  0.00    -0.269 OA
ATOM      4  H   UNL A   1      32.249  33.296  27.402  1.00  0.00     0.163 HD
ENDROOT
BRANCH   1   5
ATOM      5  C   UNL A   1      33.868  34.037  28.476  1.00  0.00     0.118 C 
BRANCH   5   6
ATOM      6  C   UNL A   1      33.000  35.224  28.890  1.00  0.00     0.042 C 
BRANCH   6   7
ATOM      7  C   UNL A   1      33.768  36.521  29.118  1.00  0.00     0.118 C 
BRANCH   7   8
ATOM      8  N   UNL A   1      33.282  37.214  30.298  1.00  0.00    -0.352 N 
ATOM      9  O   UNL A   1      32.702  37.538  32.437  1.00  0.00    -0.270 OA
ATOM     10  C   UNL A   1      33.158  36.790  31.576  1.00  0.00     0.247 C 
ATOM     11  H   UNL A   1      32.997  38.142  30.142  1.00  0.00     0.163 HD
BRANCH  10  12
ATOM     12  C   UNL A   1      33.692  35.479  31.961  1.00  0.00     0.021 C 
ATOM     13  C   UNL A   1      33.021  34.436  32.506  1.00  0.00    -0.009 C 
ATOM     14  C   UNL A   1      35.212  35.345  31.975  1.00  0.00     0.054 C 
ATOM     15  C   UNL A   1      33.949  33.315  33.013  1.00  0.00     0.042 C 
ATOM     16  C   UNL A   1      35.551  33.995  31.336  1.00  0.00    -0.022 C 
ATOM     17  C   UNL A   1      35.524  35.275  33.501  1.00  0.00     0.031 C 
ATOM     18  C   UNL A   1      34.887  32.947  31.866  1.00  0.00    -0.022 C 
ATOM     19  C   UNL A   1      34.820  34.012  34.119  1.00  0.00     0.030 C 
ATOM     20  C   UNL A   1      36.823  34.666  33.987  1.00  0.00    -0.026 C 
ATOM     21  C   UNL A   1      36.239  33.533  34.431  1.00  0.00    -0.026 C 
ENDBRANCH  10  12
ENDBRANCH   7   8
ENDBRANCH   6   7
ENDBRANCH   5   6
ENDBRANCH   1   5
BRANCH   2  22
ATOM     22  C   UNL A   1      34.807  31.201  27.880  1.00  0.00     0.039 A 
ATOM     23  C   UNL A   1      35.921  32.042  27.968  1.00  0.00     0.014 A 
ATOM     24  C   UNL A   1      34.907  29.866  28.281  1.00  0.00     0.014 A 
ATOM     25  C   UNL A   1      37.110  31.564  28.526  1.00  0.00     0.010 A 
ATOM     26  C   UNL A   1      36.070  29.412  28.899  1.00  0.00     0.010 A 
ATOM     27  C   UNL A   1      37.184  30.256  29.033  1.00  0.00    -0.014 A 
BRANCH  27  28
ATOM     28  C   UNL A   1      38.401  29.767  29.734  1.00  0.00     0.031 A 
ATOM     29  C   UNL A   1      38.772  30.303  31.090  1.00  0.00     0.074 A 
ATOM     30  C   UNL A   1      39.226  28.904  29.107  1.00  0.00     0.049 A 
ATOM     31  N   UNL A   1      39.821  30.034  31.823  1.00  0.00    -0.248 NA
ATOM     32  C   UNL A   1      37.859  31.288  31.691  1.00  0.00     0.031 C 
ATOM     33  C   UNL A   1      39.026  28.372  27.758  1.00  0.00     0.029 A 
ATOM     34  N   UNL A   1      40.415  28.347  29.510  1.00  0.00    -0.354 N 
ATOM     35  C   UNL A   1      39.715  30.839  32.951  1.00  0.00     0.074 A 
ATOM     36  C   UNL A   1      38.513  31.629  32.792  1.00  0.00     0.031 C 
ATOM     37  C   UNL A   1      40.052  27.564  27.446  1.00  0.00     0.029 A 
ATOM     38  C   UNL A   1      40.998  27.542  28.558  1.00  0.00     0.049 A 
ATOM     39  H   UNL A   1      40.813  28.508  30.395  1.00  0.00     0.167 HD
ATOM     40  C   UNL A   1      40.525  30.895  34.036  1.00  0.00     0.034 A 
ATOM     41  C   UNL A   1      42.164  26.868  28.573  1.00  0.00     0.034 A 
ATOM     42  C   UNL A   1      41.695  30.077  34.216  1.00  0.00     0.049 A 
ATOM     43  C   UNL A   1      43.026  26.916  29.805  1.00  0.00     0.074 A 
ATOM     44  C   UNL A   1      42.523  29.992  35.321  1.00  0.00     0.029 A 
ATOM     45  N   UNL A   1      42.207  29.208  33.265  1.00  0.00    -0.354 N 
ATOM     46  N   UNL A   1      42.818  27.552  30.932  1.00  0.00    -0.248 NA
ATOM     47  C   UNL A   1      44.266  26.126  29.783  1.00  0.00     0.031 C 
ATOM     48  C   UNL A   1      43.549  29.085  35.031  1.00  0.00     0.029 A 
ATOM     49  C   UNL A   1      43.347  28.590  33.753  1.00  0.00     0.049 A 
ATOM     50  H   UNL A   1      41.818  29.052  32.375  1.00  0.00     0.167 HD
ATOM     51  C   UNL A   1      43.881  27.216  31.763  1.00  0.00     0.074 A 
ATOM     52  C   UNL A   1      44.718  26.299  31.017  1.00  0.00     0.031 C 
ATOM     53  C   UNL A   1      44.146  27.640  33.022  1.00  0.00     0.034 A 
BRANCH  40  54
ATOM     54  C   UNL A   1      40.140  31.837  35.148  1.00  0.00     0.023 A 
ATOM     55  C   UNL A   1      40.679  33.140  35.168  1.00  0.00     0.012 A 
ATOM     56  C   UNL A   1      39.208  31.460  36.134  1.00  0.00     0.148 A 
ATOM     57  C   UNL A   1      40.325  34.041  36.170  1.00  0.00     0.002 A 
ATOM     58  C   UNL A   1      38.827  32.379  37.107  1.00  0.00     0.091 A 
ATOM     59  F   UNL A   1      38.721  30.212  36.112  1.00  0.00    -0.205 F 
ATOM     60  C   UNL A   1      39.393  33.665  37.133  1.00  0.00     0.022 A 
BRANCH  58  61
ATOM     61  S   UNL A   1      37.575  32.015  38.343  1.00  0.00     0.127 S 
ATOM     62  O   UNL A   1      38.295  32.297  39.584  1.00  0.00    -0.237 OA
ATOM     63  O   UNL A   1      36.526  32.981  38.015  1.00  0.00    -0.237 OA
ATOM     64  O   UNL A   1      37.202  30.623  38.137  1.00  0.00    -0.744 OA
ENDBRANCH  58  61
ENDBRANCH  40  54
BRANCH  41  65
ATOM     65  C   UNL A   1      42.551  26.027  27.404  1.00  0.00     0.023 A 
ATOM     66  C   UNL A   1      43.377  26.576  26.405  1.00  0.00     0.012 A 
ATOM     67  C   UNL A   1      42.138  24.685  27.294  1.00  0.00     0.148 A 
ATOM     68  C   UNL A   1      43.763  25.813  25.302  1.00  0.00     0.002 A 
ATOM     69  C   UNL A   1      42.571  23.914  26.221  1.00  0.00     0.091 A 
ATOM     70  F   UNL A   1      41.340  24.184  28.249  1.00  0.00    -0.205 F 
ATOM     71  C   UNL A   1      43.370  24.480  25.215  1.00  0.00     0.022 A 
BRANCH  69  72
ATOM     72  S   UNL A   1      42.225  22.156  26.097  1.00  0.00     0.127 S 
ATOM     73  O   UNL A   1      42.979  21.785  24.902  1.00  0.00    -0.237 OA
ATOM     74  O   UNL A   1      42.773  21.648  27.354  1.00  0.00    -0.237 OA
ATOM     75  O   UNL A   1      40.775  22.049  25.990  1.00  0.00    -0.744 OA
ENDBRANCH  69  72
ENDBRANCH  41  65
BRANCH  53  76
ATOM     76  C   UNL A   1      45.384  27.104  33.696  1.00  0.00     0.023 A 
ATOM     77  C   UNL A   1      46.589  27.831  33.621  1.00  0.00     0.012 A 
ATOM     78  C   UNL A   1      45.336  25.923  34.460  1.00  0.00     0.148 A 
ATOM     79  C   UNL A   1      47.733  27.376  34.273  1.00  0.00     0.002 A 
ATOM     80  C   UNL A   1      46.468  25.499  35.146  1.00  0.00     0.091 A 
ATOM     81  F   UNL A   1      44.186  25.234  34.504  1.00  0.00    -0.205 F 
ATOM     82  C   UNL A   1      47.671  26.218  35.045  1.00  0.00     0.022 A 
BRANCH  80  83
ATOM     83  S   UNL A   1      46.455  24.072  36.238  1.00  0.00     0.127 S 
ATOM     84  O   UNL A   1      47.815  24.094  36.776  1.00  0.00    -0.237 OA
ATOM     85  O   UNL A   1      45.412  24.426  37.202  1.00  0.00    -0.237 OA
ATOM     86  O   UNL A   1      46.133  22.928  35.396  1.00  0.00    -0.744 OA
ENDBRANCH  80  83
ENDBRANCH  53  76
ENDBRANCH  27  28
ENDBRANCH   2  22
TORSDOF 13
ENDMDL
MODEL 2
REMARK VINA RESULT:     -11.4      1.833      2.389
REMARK SMILES O=C(NCCCNC(=O)c1ccc(-c2c3nc(c(-c4cccc(S(=O)(=O)[O-])c4F)c4ccc([nH]4)c(-c4cccc(S(=O)(=O)[O-])c4F)c4nc(c(-c5cccc(S(=O)(=O)[O-])c5F)c5ccc2[nH]5)C=C4)C=C3)cc1)C1=C[C@H]2C=C[C@@H]1[C@@H]1C=C[C@H]21
REMARK SMILES IDX 7 1 8 2 9 3 6 5 5 6 4 7 3 8 1 9 2 10 73 12 74 13 78 14 75 15
REMARK SMILES IDX 77 16 79 17 76 18 82 19 80 20 81 21 10 22 11 23 72 24 12 25
REMARK SMILES IDX 71 26 13 27 14 28 15 29 65 30 16 31 70 32 64 33 66 34 17 35
REMARK SMILES IDX 69 36 63 37 62 38 18 40 50 41 30 42 49 43 31 44 34 45 48 46
REMARK SMILES IDX 67 47 32 48 33 49 47 51 68 52 35 53 19 54 20 55 28 56 21 57
REMARK SMILES IDX 23 58 29 59 22 60 24 61 25 62 26 63 27 64 51 65 52 66 60 67
REMARK SMILES IDX 53 68 55 69 61 70 54 71 56 72 57 73 58 74 59 75 36 76 37 77
REMARK SMILES IDX 45 78 38 79 40 80 46 81 39 82 41 83 42 84 43 85 44 86
REMARK H PARENT 7 4 3 11 66 39 34 50
REMARK Flexibility Score: inf
ROOT
ATOM      1  N   UNL A   1      34.401  32.425  27.929  1.00  0.00    -0.352 N 
ATOM      2  C   UNL A   1      34.558  31.077  27.702  1.00  0.00     0.251 C 
ATOM      3  O   UNL A   1      33.684  30.454  27.106  1.00  0.00    -0.269 OA
ATOM      4  H   UNL A   1      33.524  32.795  27.682  1.00  0.00     0.163 HD
ENDROOT
BRANCH   1   5
ATOM      5  C   UNL A   1      35.352  33.380  28.484  1.00  0.00     0.118 C 
BRANCH   5   6
ATOM      6  C   UNL A   1      34.711  34.706  28.891  1.00  0.00     0.042 C 
BRANCH   6   7
ATOM      7  C   UNL A   1      33.734  34.605  30.057  1.00  0.00     0.118 C 
BRANCH   7   8
ATOM      8  N   UNL A   1      33.931  35.693  30.998  1.00  0.00    -0.352 N 
ATOM      9  O   UNL A   1      34.609  36.753  32.851  1.00  0.00    -0.270 OA
ATOM     10  C   UNL A   1      34.568  35.718  32.191  1.00  0.00     0.247 C 
ATOM     11  H   UNL A   1      33.539  36.552  30.722  1.00  0.00     0.163 HD
BRANCH  10  12
ATOM     12  C   UNL A   1      35.322  34.541  32.635  1.00  0.00     0.021 C 
ATOM     13  C   UNL A   1      35.027  33.704  33.658  1.00  0.00    -0.009 C 
ATOM     14  C   UNL A   1      36.717  34.368  32.042  1.00  0.00     0.054 C 
ATOM     15  C   UNL A   1      36.173  32.729  33.995  1.00  0.00     0.042 C 
ATOM     16  C   UNL A   1      36.875  32.886  31.688  1.00  0.00    -0.022 C 
ATOM     17  C   UNL A   1      37.636  34.698  33.258  1.00  0.00     0.031 C 
ATOM     18  C   UNL A   1      36.581  32.039  32.696  1.00  0.00    -0.022 C 
ATOM     19  C   UNL A   1      37.360  33.668  34.414  1.00  0.00     0.030 C 
ATOM     20  C   UNL A   1      39.067  34.199  33.290  1.00  0.00    -0.026 C 
ATOM     21  C   UNL A   1      38.817  33.246  34.210  1.00  0.00    -0.026 C 
ENDBRANCH  10  12
ENDBRANCH   7   8
ENDBRANCH   6   7
ENDBRANCH   5   6
ENDBRANCH   1   5
BRANCH   2  22
ATOM     22  C   UNL A   1      35.790  30.385  28.146  1.00  0.00     0.039 A 
ATOM     23  C   UNL A   1      36.886  30.342  27.279  1.00  0.00     0.014 A 
ATOM     24  C   UNL A   1      35.872  29.786  29.406  1.00  0.00     0.014 A 
ATOM     25  C   UNL A   1      38.087  29.767  27.705  1.00  0.00     0.010 A 
ATOM     26  C   UNL A   1      37.089  29.275  29.853  1.00  0.00     0.010 A 
ATOM     27  C   UNL A   1      38.211  29.263  29.010  1.00  0.00    -0.014 A 
BRANCH  27  28
ATOM     28  C   UNL A   1      39.512  28.752  29.520  1.00  0.00     0.031 A 
ATOM     29  C   UNL A   1      40.233  29.466  30.631  1.00  0.00     0.074 A 
ATOM     30  C   UNL A   1      40.092  27.694  28.918  1.00  0.00     0.049 A 
ATOM     31  N   UNL A   1      41.397  29.198  31.164  1.00  0.00    -0.248 NA
ATOM     32  C   UNL A   1      39.572  30.650  31.203  1.00  0.00     0.031 C 
ATOM     33  C   UNL A   1      39.538  26.963  27.776  1.00  0.00     0.029 A 
ATOM     34  N   UNL A   1      41.290  27.069  29.162  1.00  0.00    -0.354 N 
ATOM     35  C   UNL A   1      41.625  30.195  32.104  1.00  0.00     0.074 A 
ATOM     36  C   UNL A   1      40.491  31.092  32.050  1.00  0.00     0.031 C 
ATOM     37  C   UNL A   1      40.391  25.989  27.421  1.00  0.00     0.029 A 
ATOM     38  C   UNL A   1      41.564  26.042  28.288  1.00  0.00     0.049 A 
ATOM     39  H   UNL A   1      41.895  27.330  29.892  1.00  0.00     0.167 HD
ATOM     40  C   UNL A   1      42.667  30.336  32.959  1.00  0.00     0.034 A 
ATOM     41  C   UNL A   1      42.640  25.237  28.190  1.00  0.00     0.034 A 
ATOM     42  C   UNL A   1      43.772  29.420  33.047  1.00  0.00     0.049 A 
ATOM     43  C   UNL A   1      43.766  25.390  29.177  1.00  0.00     0.074 A 
ATOM     44  C   UNL A   1      44.825  29.424  33.945  1.00  0.00     0.029 A 
ATOM     45  N   UNL A   1      43.973  28.339  32.202  1.00  0.00    -0.354 N 
ATOM     46  N   UNL A   1      43.881  26.235  30.171  1.00  0.00    -0.248 NA
ATOM     47  C   UNL A   1      44.895  24.456  29.050  1.00  0.00     0.031 C 
ATOM     48  C   UNL A   1      45.674  28.357  33.631  1.00  0.00     0.029 A 
ATOM     49  C   UNL A   1      45.139  27.676  32.550  1.00  0.00     0.049 A 
ATOM     50  H   UNL A   1      43.376  28.080  31.464  1.00  0.00     0.167 HD
ATOM     51  C   UNL A   1      45.076  25.916  30.807  1.00  0.00     0.074 A 
ATOM     52  C   UNL A   1      45.635  24.784  30.100  1.00  0.00     0.031 C 
ATOM     53  C   UNL A   1      45.662  26.518  31.872  1.00  0.00     0.034 A 
BRANCH  40  54
ATOM     54  C   UNL A   1      42.633  31.500  33.916  1.00  0.00     0.023 A 
ATOM     55  C   UNL A   1      43.166  32.742  33.514  1.00  0.00     0.012 A 
ATOM     56  C   UNL A   1      42.027  31.387  35.182  1.00  0.00     0.148 A 
ATOM     57  C   UNL A   1      43.130  33.843  34.368  1.00  0.00     0.002 A 
ATOM     58  C   UNL A   1      41.956  32.500  36.012  1.00  0.00     0.091 A 
ATOM     59  F   UNL A   1      41.543  30.195  35.557  1.00  0.00    -0.205 F 
ATOM     60  C   UNL A   1      42.516  33.725  35.612  1.00  0.00     0.022 A 
BRANCH  58  61
ATOM     61  S   UNL A   1      41.117  32.470  37.601  1.00  0.00     0.127 S 
ATOM     62  O   UNL A   1      41.996  31.600  38.382  1.00  0.00    -0.237 OA
ATOM     63  O   UNL A   1      41.150  33.879  37.995  1.00  0.00    -0.237 OA
ATOM     64  O   UNL A   1      39.785  31.945  37.340  1.00  0.00    -0.744 OA
ENDBRANCH  58  61
ENDBRANCH  40  54
BRANCH  41  65
ATOM     65  C   UNL A   1      42.671  24.161  27.157  1.00  0.00     0.023 A 
ATOM     66  C   UNL A   1      43.378  24.378  25.960  1.00  0.00     0.012 A 
ATOM     67  C   UNL A   1      42.040  22.920  27.369  1.00  0.00     0.148 A 
ATOM     68  C   UNL A   1      43.433  23.389  24.977  1.00  0.00     0.002 A 
ATOM     69  C   UNL A   1      42.144  21.919  26.410  1.00  0.00     0.091 A 
ATOM     70  F   UNL A   1      41.360  22.738  28.510  1.00  0.00    -0.205 F 
ATOM     71  C   UNL A   1      42.826  22.157  25.206  1.00  0.00     0.022 A 
BRANCH  69  72
ATOM     72  S   UNL A   1      41.510  20.260  26.675  1.00  0.00     0.127 S 
ATOM     73  O   UNL A   1      42.268  19.832  27.847  1.00  0.00    -0.237 OA
ATOM     74  O   UNL A   1      40.090  20.513  26.919  1.00  0.00    -0.237 OA
ATOM     75  O   UNL A   1      41.784  19.534  25.441  1.00  0.00    -0.744 OA
ENDBRANCH  69  72
ENDBRANCH  41  65
BRANCH  53  76
ATOM     76  C   UNL A   1      46.972  25.954  32.360  1.00  0.00     0.023 A 
ATOM     77  C   UNL A   1      48.182  26.434  31.821  1.00  0.00     0.012 A 
ATOM     78  C   UNL A   1      47.007  25.006  33.400  1.00  0.00     0.148 A 
ATOM     79  C   UNL A   1      49.406  25.958  32.289  1.00  0.00     0.002 A 
ATOM     80  C   UNL A   1      48.231  24.571  33.895  1.00  0.00     0.091 A 
ATOM     81  F   UNL A   1      45.845  24.546  33.888  1.00  0.00    -0.205 F 
ATOM     82  C   UNL A   1      49.431  25.037  33.333  1.00  0.00     0.022 A 
BRANCH  80  83
ATOM     83  S   UNL A   1      48.361  23.457  35.299  1.00  0.00     0.127 S 
ATOM     84  O   UNL A   1      47.761  22.234  34.767  1.00  0.00    -0.237 OA
ATOM     85  O   UNL A   1      49.808  23.385  35.508  1.00  0.00    -0.237 OA
ATOM     86  O   UNL A   1      47.628  24.093  36.384  1.00  0.00    -0.744 OA
ENDBRANCH  80  83
ENDBRANCH  53  76
ENDBRANCH  27  28
ENDBRANCH   2  22
TORSDOF 13
ENDMDL
MODEL 3
REMARK VINA RESULT:     -11.3      2.952      9.548
REMARK SMILES O=C(NCCCNC(=O)c1ccc(-c2c3nc(c(-c4cccc(S(=O)(=O)[O-])c4F)c4ccc([nH]4)c(-c4cccc(S(=O)(=O)[O-])c4F)c4nc(c(-c5cccc(S(=O)(=O)[O-])c5F)c5ccc2[nH]5)C=C4)C=C3)cc1)C1=C[C@H]2C=C[C@@H]1[C@@H]1C=C[C@H]21
REMARK SMILES IDX 7 1 8 2 9 3 6 5 5 6 4 7 3 8 1 9 2 10 73 12 74 13 78 14 75 15
REMARK SMILES IDX 77 16 79 17 76 18 82 19 80 20 81 21 10 22 11 23 72 24 12 25
REMARK SMILES IDX 71 26 13 27 14 28 15 29 65 30 16 31 70 32 64 33 66 34 17 35
REMARK SMILES IDX 69 36 63 37 62 38 18 40 50 41 30 42 49 43 31 44 34 45 48 46
REMARK SMILES IDX 67 47 32 48 33 49 47 51 68 52 35 53 19 54 20 55 28 56 21 57
REMARK SMILES IDX 23 58 29 59 22 60 24 61 25 62 26 63 27 64 51 65 52 66 60 67
REMARK SMILES IDX 53 68 55 69 61 70 54 71 56 72 57 73 58 74 59 75 36 76 37 77
REMARK SMILES IDX 45 78 38 79 40 80 46 81 39 82 41 83 42 84 43 85 44 86
REMARK H PARENT 7 4 3 11 66 39 34 50
REMARK Flexibility Score: inf
ROOT
ATOM      1  N   UNL A   1      32.560  34.017  27.598  1.00  0.00    -0.352 N 
ATOM      2  C   UNL A   1      33.081  34.812  28.594  1.00  0.00     0.251 C 
ATOM      3  O   UNL A   1      32.554  35.891  28.850  1.00  0.00    -0.269 OA
ATOM      4  H   UNL A   1      31.837  34.423  27.069  1.00  0.00     0.163 HD
ENDROOT
BRANCH   1   5
ATOM      5  C   UNL A   1      32.928  32.660  27.219  1.00  0.00     0.118 C 
BRANCH   5   6
ATOM      6  C   UNL A   1      31.733  31.797  26.818  1.00  0.00     0.042 C 
BRANCH   6   7
ATOM      7  C   UNL A   1      31.942  30.299  27.006  1.00  0.00     0.118 C 
BRANCH   7   8
ATOM      8  N   UNL A   1      33.297  30.013  27.441  1.00  0.00    -0.352 N 
ATOM      9  O   UNL A   1      35.273  28.965  27.560  1.00  0.00    -0.270 OA
ATOM     10  C   UNL A   1      34.160  29.047  27.049  1.00  0.00     0.247 C 
ATOM     11  H   UNL A   1      33.644  30.620  28.132  1.00  0.00     0.163 HD
BRANCH  10  12
ATOM     12  C   UNL A   1      33.812  28.179  25.919  1.00  0.00     0.021 C 
ATOM     13  C   UNL A   1      33.779  28.501  24.604  1.00  0.00    -0.009 C 
ATOM     14  C   UNL A   1      33.187  26.832  26.268  1.00  0.00     0.054 C 
ATOM     15  C   UNL A   1      33.125  27.414  23.728  1.00  0.00     0.042 C 
ATOM     16  C   UNL A   1      33.841  25.784  25.362  1.00  0.00    -0.022 C 
ATOM     17  C   UNL A   1      31.705  27.030  25.824  1.00  0.00     0.031 C 
ATOM     18  C   UNL A   1      33.819  26.093  24.049  1.00  0.00    -0.022 C 
ATOM     19  C   UNL A   1      31.658  27.313  24.278  1.00  0.00     0.030 C 
ATOM     20  C   UNL A   1      30.830  25.828  25.530  1.00  0.00    -0.026 C 
ATOM     21  C   UNL A   1      30.866  26.007  24.193  1.00  0.00    -0.026 C 
ENDBRANCH  10  12
ENDBRANCH   7   8
ENDBRANCH   6   7
ENDBRANCH   5   6
ENDBRANCH   1   5
BRANCH   2  22
ATOM     22  C   UNL A   1      34.252  34.355  29.376  1.00  0.00     0.039 A 
ATOM     23  C   UNL A   1      34.034  33.665  30.572  1.00  0.00     0.014 A 
ATOM     24  C   UNL A   1      35.557  34.596  28.936  1.00  0.00     0.014 A 
ATOM     25  C   UNL A   1      35.122  33.152  31.287  1.00  0.00     0.010 A 
ATOM     26  C   UNL A   1      36.634  34.026  29.612  1.00  0.00     0.010 A 
ATOM     27  C   UNL A   1      36.428  33.295  30.793  1.00  0.00    -0.014 A 
BRANCH  27  28
ATOM     28  C   UNL A   1      37.586  32.658  31.477  1.00  0.00     0.031 A 
ATOM     29  C   UNL A   1      38.307  31.498  30.844  1.00  0.00     0.074 A 
ATOM     30  C   UNL A   1      37.932  33.065  32.714  1.00  0.00     0.049 A 
ATOM     31  N   UNL A   1      39.297  30.787  31.317  1.00  0.00    -0.248 NA
ATOM     32  C   UNL A   1      37.838  31.065  29.518  1.00  0.00     0.031 C 
ATOM     33  C   UNL A   1      37.262  34.123  33.474  1.00  0.00     0.029 A 
ATOM     34  N   UNL A   1      38.913  32.618  33.565  1.00  0.00    -0.354 N 
ATOM     35  C   UNL A   1      39.548  29.803  30.369  1.00  0.00     0.074 A 
ATOM     36  C   UNL A   1      38.585  29.990  29.305  1.00  0.00     0.031 C 
ATOM     37  C   UNL A   1      37.852  34.245  34.674  1.00  0.00     0.029 A 
ATOM     38  C   UNL A   1      38.922  33.259  34.783  1.00  0.00     0.049 A 
ATOM     39  H   UNL A   1      39.550  31.907  33.326  1.00  0.00     0.167 HD
ATOM     40  C   UNL A   1      40.510  28.849  30.365  1.00  0.00     0.034 A 
ATOM     41  C   UNL A   1      39.698  33.070  35.868  1.00  0.00     0.034 A 
ATOM     42  C   UNL A   1      41.497  28.691  31.400  1.00  0.00     0.049 A 
ATOM     43  C   UNL A   1      40.785  32.030  35.823  1.00  0.00     0.074 A 
ATOM     44  C   UNL A   1      42.569  27.818  31.441  1.00  0.00     0.029 A 
ATOM     45  N   UNL A   1      41.528  29.416  32.582  1.00  0.00    -0.354 N 
ATOM     46  N   UNL A   1      41.115  31.223  34.845  1.00  0.00    -0.248 NA
ATOM     47  C   UNL A   1      41.629  31.897  37.020  1.00  0.00     0.031 C 
ATOM     48  C   UNL A   1      43.239  28.002  32.655  1.00  0.00     0.029 A 
ATOM     49  C   UNL A   1      42.595  29.004  33.363  1.00  0.00     0.049 A 
ATOM     50  H   UNL A   1      40.887  30.121  32.829  1.00  0.00     0.167 HD
ATOM     51  C   UNL A   1      42.222  30.511  35.292  1.00  0.00     0.074 A 
ATOM     52  C   UNL A   1      42.521  31.000  36.622  1.00  0.00     0.031 C 
ATOM     53  C   UNL A   1      42.916  29.531  34.664  1.00  0.00     0.034 A 
BRANCH  40  54
ATOM     54  C   UNL A   1      40.581  27.933  29.171  1.00  0.00     0.023 A 
ATOM     55  C   UNL A   1      39.697  26.837  29.086  1.00  0.00     0.012 A 
ATOM     56  C   UNL A   1      41.475  28.182  28.112  1.00  0.00     0.148 A 
ATOM     57  C   UNL A   1      39.724  25.984  27.984  1.00  0.00     0.002 A 
ATOM     58  C   UNL A   1      41.467  27.352  26.996  1.00  0.00     0.091 A 
ATOM     59  F   UNL A   1      42.322  29.215  28.218  1.00  0.00    -0.205 F 
ATOM     60  C   UNL A   1      40.601  26.247  26.935  1.00  0.00     0.022 A 
BRANCH  58  61
ATOM     61  S   UNL A   1      42.504  27.653  25.560  1.00  0.00     0.127 S 
ATOM     62  O   UNL A   1      42.217  26.478  24.737  1.00  0.00    -0.237 OA
ATOM     63  O   UNL A   1      41.957  28.907  25.040  1.00  0.00    -0.237 OA
ATOM     64  O   UNL A   1      43.866  27.749  26.063  1.00  0.00    -0.744 OA
ENDBRANCH  58  61
ENDBRANCH  40  54
BRANCH  41  65
ATOM     65  C   UNL A   1      39.521  33.937  37.067  1.00  0.00     0.023 A 
ATOM     66  C   UNL A   1      39.945  35.279  37.015  1.00  0.00     0.012 A 
ATOM     67  C   UNL A   1      38.905  33.457  38.239  1.00  0.00     0.148 A 
ATOM     68  C   UNL A   1      39.786  36.119  38.117  1.00  0.00     0.002 A 
ATOM     69  C   UNL A   1      38.700  34.313  39.315  1.00  0.00     0.091 A 
ATOM     70  F   UNL A   1      38.520  32.172  38.275  1.00  0.00    -0.205 F 
ATOM     71  C   UNL A   1      39.155  35.641  39.262  1.00  0.00     0.022 A 
BRANCH  69  72
ATOM     72  S   UNL A   1      37.779  33.823  40.776  1.00  0.00     0.127 S 
ATOM     73  O   UNL A   1      36.598  33.195  40.190  1.00  0.00    -0.237 OA
ATOM     74  O   UNL A   1      38.709  32.900  41.427  1.00  0.00    -0.237 OA
ATOM     75  O   UNL A   1      37.540  35.054  41.520  1.00  0.00    -0.744 OA
ENDBRANCH  69  72
ENDBRANCH  41  65
BRANCH  53  76
ATOM     76  C   UNL A   1      44.089  28.928  35.393  1.00  0.00     0.023 A 
ATOM     77  C   UNL A   1      45.374  29.484  35.228  1.00  0.00     0.012 A 
ATOM     78  C   UNL A   1      43.909  27.861  36.294  1.00  0.00     0.148 A 
ATOM     79  C   UNL A   1      46.465  28.969  35.926  1.00  0.00     0.002 A 
ATOM     80  C   UNL A   1      44.993  27.383  37.022  1.00  0.00     0.091 A 
ATOM     81  F   UNL A   1      42.684  27.332  36.424  1.00  0.00    -0.205 F 
ATOM     82  C   UNL A   1      46.273  27.929  36.831  1.00  0.00     0.022 A 
BRANCH  80  83
ATOM     83  S   UNL A   1      44.822  26.109  38.277  1.00  0.00     0.127 S 
ATOM     84  O   UNL A   1      43.882  26.730  39.209  1.00  0.00    -0.237 OA
ATOM     85  O   UNL A   1      44.273  24.989  37.512  1.00  0.00    -0.237 OA
ATOM     86  O   UNL A   1      46.163  25.880  38.800  1.00  0.00    -0.744 OA
ENDBRANCH  80  83
ENDBRANCH  53  76
ENDBRANCH  27  28
ENDBRANCH   2  22
TORSDOF 13
ENDMDL
