MODEL 1
REMARK VINA RESULT:     -13.3      0.000      0.000
REMARK SMILES O=C(NCCCNC(=O)[C@@H]1CC=CC[C@H]1C(=O)N1CC[NH+](Cc2ccc3c(c2)OCO3)CC1)c1ccc(-c2c3nc(c(-c4cccc(S(=O)(=O)[O-])c4F)c4ccc([nH]4)c(-c4cccc(S(=O)(=O)[O-])c4F)c4nc(c(-c5cccc(S(=O)(=O)[O-])c5F)c5ccc2[nH]5)C=C4)C=C3)cc1
REMARK SMILES IDX 5 1 4 2 3 3 1 4 2 5 34 7 35 8 96 9 36 10 95 11 37 12 38 13
REMARK SMILES IDX 39 14 89 15 40 16 94 17 88 18 90 19 41 20 93 21 87 22 86 23
REMARK SMILES IDX 42 25 74 26 54 27 73 28 55 29 58 30 72 31 91 32 56 33 57 34
REMARK SMILES IDX 71 36 92 37 59 38 43 39 44 40 52 41 45 42 47 43 53 44 46 45
REMARK SMILES IDX 48 46 49 47 50 48 51 49 75 50 76 51 84 52 77 53 79 54 85 55
REMARK SMILES IDX 78 56 80 57 81 58 82 59 83 60 60 61 61 62 69 63 62 64 64 65
REMARK SMILES IDX 70 66 63 67 65 68 66 69 67 70 68 71 6 72 7 73 8 74 9 76
REMARK SMILES IDX 10 77 11 78 15 79 12 80 14 81 13 82 16 83 17 84 18 85 19 86
REMARK SMILES IDX 33 87 20 88 32 89 21 90 22 92 23 93 24 94 28 95 25 96 27 97
REMARK SMILES IDX 26 98 29 99 31 100 30 101
REMARK H PARENT 3 6 90 24 58 35 7 75 21 91
REMARK Flexibility Score: inf
ROOT
ATOM      1  C   UNL A   1      33.925  27.683  25.885  1.00  0.00     0.042 C 
ENDROOT
BRANCH   1   2
ATOM      2  C   UNL A   1      33.458  28.265  27.209  1.00  0.00     0.118 C 
BRANCH   2   3
ATOM      3  N   UNL A   1      33.472  29.724  27.229  1.00  0.00    -0.352 N 
ATOM      4  O   UNL A   1      34.172  31.806  27.712  1.00  0.00    -0.269 OA
ATOM      5  C   UNL A   1      34.430  30.602  27.679  1.00  0.00     0.251 C 
ATOM      6  H   UNL A   1      32.664  30.148  26.859  1.00  0.00     0.163 HD
BRANCH   5   7
ATOM      7  C   UNL A   1      35.756  30.112  28.123  1.00  0.00     0.039 A 
ATOM      8  C   UNL A   1      36.866  30.226  27.287  1.00  0.00     0.014 A 
ATOM      9  C   UNL A   1      35.910  29.581  29.410  1.00  0.00     0.014 A 
ATOM     10  C   UNL A   1      38.087  29.688  27.672  1.00  0.00     0.010 A 
ATOM     11  C   UNL A   1      37.168  29.136  29.839  1.00  0.00     0.010 A 
ATOM     12  C   UNL A   1      38.265  29.172  28.966  1.00  0.00    -0.014 A 
BRANCH  12  13
ATOM     13  C   UNL A   1      39.644  28.819  29.395  1.00  0.00     0.031 A 
ATOM     14  C   UNL A   1      40.345  29.546  30.505  1.00  0.00     0.074 A 
ATOM     15  C   UNL A   1      40.242  27.779  28.779  1.00  0.00     0.049 A 
ATOM     16  N   UNL A   1      41.500  29.273  31.058  1.00  0.00    -0.248 NA
ATOM     17  C   UNL A   1      39.679  30.730  31.069  1.00  0.00     0.031 C 
ATOM     18  C   UNL A   1      39.677  27.038  27.646  1.00  0.00     0.029 A 
ATOM     19  N   UNL A   1      41.435  27.148  29.021  1.00  0.00    -0.354 N 
ATOM     20  C   UNL A   1      41.714  30.259  32.013  1.00  0.00     0.074 A 
ATOM     21  C   UNL A   1      40.571  31.146  31.960  1.00  0.00     0.031 C 
ATOM     22  C   UNL A   1      40.498  26.030  27.322  1.00  0.00     0.029 A 
ATOM     23  C   UNL A   1      41.671  26.081  28.185  1.00  0.00     0.049 A 
ATOM     24  H   UNL A   1      42.062  27.432  29.726  1.00  0.00     0.167 HD
ATOM     25  C   UNL A   1      42.759  30.397  32.865  1.00  0.00     0.034 A 
ATOM     26  C   UNL A   1      42.719  25.241  28.111  1.00  0.00     0.034 A 
ATOM     27  C   UNL A   1      43.880  29.495  32.923  1.00  0.00     0.049 A 
ATOM     28  C   UNL A   1      43.841  25.401  29.094  1.00  0.00     0.074 A 
ATOM     29  C   UNL A   1      44.965  29.526  33.783  1.00  0.00     0.029 A 
ATOM     30  N   UNL A   1      44.068  28.404  32.088  1.00  0.00    -0.354 N 
ATOM     31  N   UNL A   1      43.957  26.260  30.077  1.00  0.00    -0.248 NA
ATOM     32  C   UNL A   1      44.964  24.462  28.975  1.00  0.00     0.031 C 
ATOM     33  C   UNL A   1      45.816  28.464  33.457  1.00  0.00     0.029 A 
ATOM     34  C   UNL A   1      45.252  27.759  32.407  1.00  0.00     0.049 A 
ATOM     35  H   UNL A   1      43.450  28.129  31.372  1.00  0.00     0.167 HD
ATOM     36  C   UNL A   1      45.158  25.957  30.705  1.00  0.00     0.074 A 
ATOM     37  C   UNL A   1      45.709  24.807  30.016  1.00  0.00     0.031 C 
ATOM     38  C   UNL A   1      45.765  26.591  31.738  1.00  0.00     0.034 A 
BRANCH  25  39
ATOM     39  C   UNL A   1      42.726  31.541  33.847  1.00  0.00     0.023 A 
ATOM     40  C   UNL A   1      43.256  32.791  33.469  1.00  0.00     0.012 A 
ATOM     41  C   UNL A   1      42.089  31.410  35.097  1.00  0.00     0.148 A 
ATOM     42  C   UNL A   1      43.169  33.888  34.324  1.00  0.00     0.002 A 
ATOM     43  C   UNL A   1      41.974  32.518  35.931  1.00  0.00     0.091 A 
ATOM     44  F   UNL A   1      41.606  30.210  35.446  1.00  0.00    -0.205 F 
ATOM     45  C   UNL A   1      42.520  33.755  35.549  1.00  0.00     0.022 A 
BRANCH  43  46
ATOM     46  S   UNL A   1      41.095  32.474  37.497  1.00  0.00     0.127 S 
ATOM     47  O   UNL A   1      41.963  31.611  38.297  1.00  0.00    -0.237 OA
ATOM     48  O   UNL A   1      41.103  33.881  37.893  1.00  0.00    -0.237 OA
ATOM     49  O   UNL A   1      39.776  31.930  37.203  1.00  0.00    -0.744 OA
ENDBRANCH  43  46
ENDBRANCH  25  39
BRANCH  26  50
ATOM     50  C   UNL A   1      42.731  24.154  27.091  1.00  0.00     0.023 A 
ATOM     51  C   UNL A   1      43.445  24.328  25.891  1.00  0.00     0.012 A 
ATOM     52  C   UNL A   1      42.065  22.935  27.323  1.00  0.00     0.148 A 
ATOM     53  C   UNL A   1      43.470  23.319  24.927  1.00  0.00     0.002 A 
ATOM     54  C   UNL A   1      42.148  21.911  26.388  1.00  0.00     0.091 A 
ATOM     55  F   UNL A   1      41.371  22.793  28.461  1.00  0.00    -0.205 F 
ATOM     56  C   UNL A   1      42.834  22.106  25.180  1.00  0.00     0.022 A 
BRANCH  54  57
ATOM     57  S   UNL A   1      41.485  20.275  26.721  1.00  0.00     0.127 S 
ATOM     58  O   UNL A   1      40.060  20.554  26.875  1.00  0.00    -0.237 OA
ATOM     59  O   UNL A   1      41.842  19.543  25.504  1.00  0.00    -0.237 OA
ATOM     60  O   UNL A   1      42.183  19.817  27.914  1.00  0.00    -0.744 OA
ENDBRANCH  54  57
ENDBRANCH  26  50
BRANCH  38  61
ATOM     61  C   UNL A   1      47.092  26.042  32.189  1.00  0.00     0.023 A 
ATOM     62  C   UNL A   1      48.270  26.436  31.524  1.00  0.00     0.012 A 
ATOM     63  C   UNL A   1      47.178  25.168  33.288  1.00  0.00     0.148 A 
ATOM     64  C   UNL A   1      49.509  25.936  31.918  1.00  0.00     0.002 A 
ATOM     65  C   UNL A   1      48.422  24.710  33.708  1.00  0.00     0.091 A 
ATOM     66  F   UNL A   1      46.044  24.786  33.895  1.00  0.00    -0.205 F 
ATOM     67  C   UNL A   1      49.586  25.082  33.016  1.00  0.00     0.022 A 
BRANCH  65  68
ATOM     68  S   UNL A   1      48.621  23.679  35.164  1.00  0.00     0.127 S 
ATOM     69  O   UNL A   1      47.927  22.458  34.762  1.00  0.00    -0.237 OA
ATOM     70  O   UNL A   1      50.076  23.551  35.261  1.00  0.00    -0.237 OA
ATOM     71  O   UNL A   1      48.010  24.419  36.262  1.00  0.00    -0.744 OA
ENDBRANCH  65  68
ENDBRANCH  38  61
ENDBRANCH  12  13
ENDBRANCH   5   7
ENDBRANCH   2   3
ENDBRANCH   1   2
BRANCH   1  72
ATOM     72  C   UNL A   1      34.099  26.172  25.884  1.00  0.00     0.117 C 
BRANCH  72  73
ATOM     73  N   UNL A   1      34.556  25.623  24.625  1.00  0.00    -0.356 N 
ATOM     74  C   UNL A   1      34.309  24.431  24.015  1.00  0.00     0.224 C 
ATOM     75  H   UNL A   1      35.152  26.219  24.117  1.00  0.00     0.163 HD
ATOM     76  O   UNL A   1      34.587  24.377  22.813  1.00  0.00    -0.275 OA
BRANCH  74  77
ATOM     77  C   UNL A   1      33.774  23.205  24.780  1.00  0.00     0.095 C 
ATOM     78  C   UNL A   1      34.875  22.112  24.649  1.00  0.00     0.041 C 
ATOM     79  C   UNL A   1      32.416  22.714  24.236  1.00  0.00     0.095 C 
ATOM     80  C   UNL A   1      34.447  20.701  24.883  1.00  0.00    -0.030 C 
ATOM     81  C   UNL A   1      32.051  21.236  24.525  1.00  0.00     0.041 C 
ATOM     82  C   UNL A   1      33.176  20.306  24.808  1.00  0.00    -0.030 C 
BRANCH  79  83
ATOM     83  C   UNL A   1      31.164  23.521  24.605  1.00  0.00     0.227 C 
ATOM     84  O   UNL A   1      30.302  23.007  25.323  1.00  0.00    -0.275 OA
ATOM     85  N   UNL A   1      31.122  24.882  24.289  1.00  0.00    -0.331 N 
ATOM     86  C   UNL A   1      30.470  25.740  25.273  1.00  0.00     0.181 C 
ATOM     87  C   UNL A   1      30.992  25.342  22.908  1.00  0.00     0.181 C 
ATOM     88  C   UNL A   1      30.656  27.250  25.013  1.00  0.00     0.284 C 
ATOM     89  C   UNL A   1      31.192  26.848  22.696  1.00  0.00     0.284 C 
ATOM     90  N   UNL A   1      30.464  27.703  23.632  1.00  0.00    -0.328 N 
ATOM     91  H   UNL A   1      30.898  28.625  23.586  1.00  0.00     0.348 HD
BRANCH  90  92
ATOM     92  C   UNL A   1      29.104  28.086  23.237  1.00  0.00     0.299 C 
BRANCH  92  93
ATOM     93  C   UNL A   1      28.847  29.525  22.842  1.00  0.00     0.010 A 
ATOM     94  C   UNL A   1      29.122  30.577  23.747  1.00  0.00     0.013 A 
ATOM     95  C   UNL A   1      28.349  29.839  21.568  1.00  0.00     0.060 A 
ATOM     96  C   UNL A   1      28.823  31.907  23.434  1.00  0.00     0.051 A 
ATOM     97  C   UNL A   1      28.091  31.164  21.278  1.00  0.00     0.166 A 
ATOM     98  C   UNL A   1      28.305  32.168  22.188  1.00  0.00     0.165 A 
ATOM     99  O   UNL A   1      27.595  31.630  20.105  1.00  0.00    -0.454 OA
ATOM    100  O   UNL A   1      27.959  33.392  21.707  1.00  0.00    -0.454 OA
ATOM    101  C   UNL A   1      27.559  33.050  20.359  1.00  0.00     0.468 C 
ENDBRANCH  92  93
ENDBRANCH  90  92
ENDBRANCH  79  83
ENDBRANCH  74  77
ENDBRANCH  72  73
ENDBRANCH   1  72
TORSDOF 16
ENDMDL
MODEL 2
REMARK VINA RESULT:     -13.0      0.746      7.274
REMARK SMILES O=C(NCCCNC(=O)[C@@H]1CC=CC[C@H]1C(=O)N1CC[NH+](Cc2ccc3c(c2)OCO3)CC1)c1ccc(-c2c3nc(c(-c4cccc(S(=O)(=O)[O-])c4F)c4ccc([nH]4)c(-c4cccc(S(=O)(=O)[O-])c4F)c4nc(c(-c5cccc(S(=O)(=O)[O-])c5F)c5ccc2[nH]5)C=C4)C=C3)cc1
REMARK SMILES IDX 5 1 4 2 3 3 1 4 2 5 34 7 35 8 96 9 36 10 95 11 37 12 38 13
REMARK SMILES IDX 39 14 89 15 40 16 94 17 88 18 90 19 41 20 93 21 87 22 86 23
REMARK SMILES IDX 42 25 74 26 54 27 73 28 55 29 58 30 72 31 91 32 56 33 57 34
REMARK SMILES IDX 71 36 92 37 59 38 43 39 44 40 52 41 45 42 47 43 53 44 46 45
REMARK SMILES IDX 48 46 49 47 50 48 51 49 75 50 76 51 84 52 77 53 79 54 85 55
REMARK SMILES IDX 78 56 80 57 81 58 82 59 83 60 60 61 61 62 69 63 62 64 64 65
REMARK SMILES IDX 70 66 63 67 65 68 66 69 67 70 68 71 6 72 7 73 8 74 9 76
REMARK SMILES IDX 10 77 11 78 15 79 12 80 14 81 13 82 16 83 17 84 18 85 19 86
REMARK SMILES IDX 33 87 20 88 32 89 21 90 22 92 23 93 24 94 28 95 25 96 27 97
REMARK SMILES IDX 26 98 29 99 31 100 30 101
REMARK H PARENT 3 6 90 24 58 35 7 75 21 91
REMARK Flexibility Score: inf
ROOT
ATOM      1  C   UNL A   1      34.041  27.819  25.950  1.00  0.00     0.042 C 
ENDROOT
BRANCH   1   2
ATOM      2  C   UNL A   1      33.653  28.411  27.296  1.00  0.00     0.118 C 
BRANCH   2   3
ATOM      3  N   UNL A   1      33.757  29.865  27.331  1.00  0.00    -0.352 N 
ATOM      4  O   UNL A   1      34.594  31.894  27.824  1.00  0.00    -0.269 OA
ATOM      5  C   UNL A   1      34.776  30.678  27.773  1.00  0.00     0.251 C 
ATOM      6  H   UNL A   1      32.970  30.343  26.982  1.00  0.00     0.163 HD
BRANCH   5   7
ATOM      7  C   UNL A   1      36.078  30.102  28.186  1.00  0.00     0.039 A 
ATOM      8  C   UNL A   1      37.184  30.182  27.342  1.00  0.00     0.014 A 
ATOM      9  C   UNL A   1      36.214  29.522  29.453  1.00  0.00     0.014 A 
ATOM     10  C   UNL A   1      38.377  29.566  27.694  1.00  0.00     0.010 A 
ATOM     11  C   UNL A   1      37.450  28.995  29.854  1.00  0.00     0.010 A 
ATOM     12  C   UNL A   1      38.538  29.000  28.970  1.00  0.00    -0.014 A 
BRANCH  12  13
ATOM     13  C   UNL A   1      39.900  28.558  29.371  1.00  0.00     0.031 A 
ATOM     14  C   UNL A   1      40.603  27.419  28.692  1.00  0.00     0.074 A 
ATOM     15  C   UNL A   1      40.518  29.252  30.349  1.00  0.00     0.049 A 
ATOM     16  N   UNL A   1      41.831  27.000  28.862  1.00  0.00    -0.248 NA
ATOM     17  C   UNL A   1      39.839  26.644  27.702  1.00  0.00     0.031 C 
ATOM     18  C   UNL A   1      39.907  30.340  31.120  1.00  0.00     0.029 A 
ATOM     19  N   UNL A   1      41.791  29.169  30.852  1.00  0.00    -0.354 N 
ATOM     20  C   UNL A   1      41.984  25.902  28.025  1.00  0.00     0.074 A 
ATOM     21  C   UNL A   1      40.717  25.711  27.352  1.00  0.00     0.031 C 
ATOM     22  C   UNL A   1      40.815  30.851  31.962  1.00  0.00     0.029 A 
ATOM     23  C   UNL A   1      42.054  30.097  31.833  1.00  0.00     0.049 A 
ATOM     24  H   UNL A   1      42.452  28.509  30.541  1.00  0.00     0.167 HD
ATOM     25  C   UNL A   1      43.086  25.138  27.826  1.00  0.00     0.034 A 
ATOM     26  C   UNL A   1      43.167  30.314  32.558  1.00  0.00     0.034 A 
ATOM     27  C   UNL A   1      44.349  25.352  28.486  1.00  0.00     0.049 A 
ATOM     28  C   UNL A   1      44.379  29.473  32.286  1.00  0.00     0.074 A 
ATOM     29  C   UNL A   1      45.535  24.659  28.316  1.00  0.00     0.029 A 
ATOM     30  N   UNL A   1      44.591  26.324  29.444  1.00  0.00    -0.354 N 
ATOM     31  N   UNL A   1      44.541  28.527  31.392  1.00  0.00    -0.248 NA
ATOM     32  C   UNL A   1      45.570  29.745  33.100  1.00  0.00     0.031 C 
ATOM     33  C   UNL A   1      46.490  25.202  29.183  1.00  0.00     0.029 A 
ATOM     34  C   UNL A   1      45.904  26.247  29.880  1.00  0.00     0.049 A 
ATOM     35  H   UNL A   1      43.926  26.974  29.769  1.00  0.00     0.167 HD
ATOM     36  C   UNL A   1      45.855  28.100  31.527  1.00  0.00     0.074 A 
ATOM     37  C   UNL A   1      46.457  28.922  32.557  1.00  0.00     0.031 C 
ATOM     38  C   UNL A   1      46.498  27.099  30.877  1.00  0.00     0.034 A 
BRANCH  25  39
ATOM     39  C   UNL A   1      43.002  24.023  26.815  1.00  0.00     0.023 A 
ATOM     40  C   UNL A   1      43.638  24.172  25.567  1.00  0.00     0.012 A 
ATOM     41  C   UNL A   1      42.382  22.797  27.132  1.00  0.00     0.148 A 
ATOM     42  C   UNL A   1      43.645  23.129  24.642  1.00  0.00     0.002 A 
ATOM     43  C   UNL A   1      42.423  21.748  26.219  1.00  0.00     0.091 A 
ATOM     44  F   UNL A   1      41.768  22.679  28.317  1.00  0.00    -0.205 F 
ATOM     45  C   UNL A   1      43.048  21.915  24.972  1.00  0.00     0.022 A 
BRANCH  43  46
ATOM     46  S   UNL A   1      41.749  20.121  26.572  1.00  0.00     0.127 S 
ATOM     47  O   UNL A   1      40.316  20.406  26.642  1.00  0.00    -0.237 OA
ATOM     48  O   UNL A   1      42.162  19.356  25.396  1.00  0.00    -0.237 OA
ATOM     49  O   UNL A   1      42.360  19.694  27.823  1.00  0.00    -0.744 OA
ENDBRANCH  43  46
ENDBRANCH  25  39
BRANCH  26  50
ATOM     50  C   UNL A   1      43.189  31.397  33.581  1.00  0.00     0.023 A 
ATOM     51  C   UNL A   1      43.596  32.694  33.219  1.00  0.00     0.012 A 
ATOM     52  C   UNL A   1      42.773  31.153  34.905  1.00  0.00     0.148 A 
ATOM     53  C   UNL A   1      43.619  33.722  34.164  1.00  0.00     0.002 A 
ATOM     54  C   UNL A   1      42.737  32.194  35.823  1.00  0.00     0.091 A 
ATOM     55  F   UNL A   1      42.409  29.907  35.240  1.00  0.00    -0.205 F 
ATOM     56  C   UNL A   1      43.177  33.476  35.462  1.00  0.00     0.022 A 
BRANCH  54  57
ATOM     57  S   UNL A   1      42.033  31.982  37.462  1.00  0.00     0.127 S 
ATOM     58  O   UNL A   1      42.282  33.288  38.067  1.00  0.00    -0.237 OA
ATOM     59  O   UNL A   1      40.628  31.699  37.162  1.00  0.00    -0.237 OA
ATOM     60  O   UNL A   1      42.752  30.857  38.043  1.00  0.00    -0.744 OA
ENDBRANCH  54  57
ENDBRANCH  26  50
BRANCH  38  61
ATOM     61  C   UNL A   1      47.931  26.848  31.261  1.00  0.00     0.023 A 
ATOM     62  C   UNL A   1      48.962  27.546  30.601  1.00  0.00     0.012 A 
ATOM     63  C   UNL A   1      48.256  25.951  32.297  1.00  0.00     0.148 A 
ATOM     64  C   UNL A   1      50.296  27.324  30.935  1.00  0.00     0.002 A 
ATOM     65  C   UNL A   1      49.586  25.771  32.658  1.00  0.00     0.091 A 
ATOM     66  F   UNL A   1      47.264  25.279  32.898  1.00  0.00    -0.205 F 
ATOM     67  C   UNL A   1      50.608  26.446  31.970  1.00  0.00     0.022 A 
BRANCH  65  68
ATOM     68  S   UNL A   1      50.071  24.727  34.036  1.00  0.00     0.127 S 
ATOM     69  O   UNL A   1      49.250  25.263  35.120  1.00  0.00    -0.237 OA
ATOM     70  O   UNL A   1      49.676  23.395  33.574  1.00  0.00    -0.237 OA
ATOM     71  O   UNL A   1      51.509  24.907  34.186  1.00  0.00    -0.744 OA
ENDBRANCH  65  68
ENDBRANCH  38  61
ENDBRANCH  12  13
ENDBRANCH   5   7
ENDBRANCH   2   3
ENDBRANCH   1   2
BRANCH   1  72
ATOM     72  C   UNL A   1      34.000  26.300  25.892  1.00  0.00     0.117 C 
BRANCH  72  73
ATOM     73  N   UNL A   1      34.530  25.733  24.670  1.00  0.00    -0.356 N 
ATOM     74  C   UNL A   1      34.346  24.519  24.081  1.00  0.00     0.224 C 
ATOM     75  H   UNL A   1      35.133  26.333  24.174  1.00  0.00     0.163 HD
ATOM     76  O   UNL A   1      34.680  24.444  22.895  1.00  0.00    -0.275 OA
BRANCH  74  77
ATOM     77  C   UNL A   1      33.810  23.298  24.852  1.00  0.00     0.095 C 
ATOM     78  C   UNL A   1      34.915  22.207  24.734  1.00  0.00     0.041 C 
ATOM     79  C   UNL A   1      32.456  22.800  24.306  1.00  0.00     0.095 C 
ATOM     80  C   UNL A   1      34.489  20.796  24.976  1.00  0.00    -0.030 C 
ATOM     81  C   UNL A   1      32.093  21.323  24.604  1.00  0.00     0.041 C 
ATOM     82  C   UNL A   1      33.219  20.397  24.898  1.00  0.00    -0.030 C 
BRANCH  79  83
ATOM     83  C   UNL A   1      31.201  23.606  24.663  1.00  0.00     0.227 C 
ATOM     84  O   UNL A   1      30.344  23.101  25.394  1.00  0.00    -0.275 OA
ATOM     85  N   UNL A   1      31.150  24.961  24.323  1.00  0.00    -0.331 N 
ATOM     86  C   UNL A   1      30.495  25.834  25.293  1.00  0.00     0.181 C 
ATOM     87  C   UNL A   1      31.013  25.395  22.934  1.00  0.00     0.181 C 
ATOM     88  C   UNL A   1      30.672  27.340  25.005  1.00  0.00     0.284 C 
ATOM     89  C   UNL A   1      31.204  26.897  22.694  1.00  0.00     0.284 C 
ATOM     90  N   UNL A   1      30.474  27.766  23.616  1.00  0.00    -0.328 N 
ATOM     91  H   UNL A   1      30.903  28.689  23.552  1.00  0.00     0.348 HD
BRANCH  90  92
ATOM     92  C   UNL A   1      29.110  28.133  23.218  1.00  0.00     0.299 C 
BRANCH  92  93
ATOM     93  C   UNL A   1      28.839  29.569  22.820  1.00  0.00     0.010 A 
ATOM     94  C   UNL A   1      29.105  30.626  23.722  1.00  0.00     0.013 A 
ATOM     95  C   UNL A   1      28.337  29.875  21.546  1.00  0.00     0.060 A 
ATOM     96  C   UNL A   1      28.793  31.952  23.407  1.00  0.00     0.051 A 
ATOM     97  C   UNL A   1      28.065  31.197  21.253  1.00  0.00     0.166 A 
ATOM     98  C   UNL A   1      28.271  32.206  22.161  1.00  0.00     0.165 A 
ATOM     99  O   UNL A   1      27.563  31.656  20.079  1.00  0.00    -0.454 OA
ATOM    100  O   UNL A   1      27.912  33.424  21.677  1.00  0.00    -0.454 OA
ATOM    101  C   UNL A   1      27.513  33.075  20.331  1.00  0.00     0.468 C 
ENDBRANCH  92  93
ENDBRANCH  90  92
ENDBRANCH  79  83
ENDBRANCH  74  77
ENDBRANCH  72  73
ENDBRANCH   1  72
TORSDOF 16
ENDMDL
MODEL 3
REMARK VINA RESULT:     -12.9      3.784      9.823
REMARK SMILES O=C(NCCCNC(=O)[C@@H]1CC=CC[C@H]1C(=O)N1CC[NH+](Cc2ccc3c(c2)OCO3)CC1)c1ccc(-c2c3nc(c(-c4cccc(S(=O)(=O)[O-])c4F)c4ccc([nH]4)c(-c4cccc(S(=O)(=O)[O-])c4F)c4nc(c(-c5cccc(S(=O)(=O)[O-])c5F)c5ccc2[nH]5)C=C4)C=C3)cc1
REMARK SMILES IDX 5 1 4 2 3 3 1 4 2 5 34 7 35 8 96 9 36 10 95 11 37 12 38 13
REMARK SMILES IDX 39 14 89 15 40 16 94 17 88 18 90 19 41 20 93 21 87 22 86 23
REMARK SMILES IDX 42 25 74 26 54 27 73 28 55 29 58 30 72 31 91 32 56 33 57 34
REMARK SMILES IDX 71 36 92 37 59 38 43 39 44 40 52 41 45 42 47 43 53 44 46 45
REMARK SMILES IDX 48 46 49 47 50 48 51 49 75 50 76 51 84 52 77 53 79 54 85 55
REMARK SMILES IDX 78 56 80 57 81 58 82 59 83 60 60 61 61 62 69 63 62 64 64 65
REMARK SMILES IDX 70 66 63 67 65 68 66 69 67 70 68 71 6 72 7 73 8 74 9 76
REMARK SMILES IDX 10 77 11 78 15 79 12 80 14 81 13 82 16 83 17 84 18 85 19 86
REMARK SMILES IDX 33 87 20 88 32 89 21 90 22 92 23 93 24 94 28 95 25 96 27 97
REMARK SMILES IDX 26 98 29 99 31 100 30 101
REMARK H PARENT 3 6 90 24 58 35 7 75 21 91
REMARK Flexibility Score: inf
ROOT
ATOM      1  C   UNL A   1      31.480  31.876  26.521  1.00  0.00     0.042 C 
ENDROOT
BRANCH   1   2
ATOM      2  C   UNL A   1      32.711  32.455  27.199  1.00  0.00     0.118 C 
BRANCH   2   3
ATOM      3  N   UNL A   1      32.528  33.836  27.632  1.00  0.00    -0.352 N 
ATOM      4  O   UNL A   1      32.739  35.678  28.905  1.00  0.00    -0.269 OA
ATOM      5  C   UNL A   1      33.145  34.548  28.634  1.00  0.00     0.251 C 
ATOM      6  H   UNL A   1      31.854  34.341  27.122  1.00  0.00     0.163 HD
BRANCH   5   7
ATOM      7  C   UNL A   1      34.283  33.965  29.385  1.00  0.00     0.039 A 
ATOM      8  C   UNL A   1      34.056  33.046  30.408  1.00  0.00     0.014 A 
ATOM      9  C   UNL A   1      35.597  34.297  29.030  1.00  0.00     0.014 A 
ATOM     10  C   UNL A   1      35.118  32.569  31.165  1.00  0.00     0.010 A 
ATOM     11  C   UNL A   1      36.674  33.731  29.725  1.00  0.00     0.010 A 
ATOM     12  C   UNL A   1      36.442  32.873  30.809  1.00  0.00    -0.014 A 
BRANCH  12  13
ATOM     13  C   UNL A   1      37.537  32.156  31.514  1.00  0.00     0.031 A 
ATOM     14  C   UNL A   1      38.319  31.053  30.862  1.00  0.00     0.074 A 
ATOM     15  C   UNL A   1      37.847  32.563  32.763  1.00  0.00     0.049 A 
ATOM     16  N   UNL A   1      39.371  30.419  31.316  1.00  0.00    -0.248 NA
ATOM     17  C   UNL A   1      37.870  30.593  29.539  1.00  0.00     0.031 C 
ATOM     18  C   UNL A   1      37.115  33.585  33.517  1.00  0.00     0.029 A 
ATOM     19  N   UNL A   1      38.858  32.191  33.611  1.00  0.00    -0.354 N 
ATOM     20  C   UNL A   1      39.696  29.472  30.354  1.00  0.00     0.074 A 
ATOM     21  C   UNL A   1      38.722  29.605  29.291  1.00  0.00     0.031 C 
ATOM     22  C   UNL A   1      37.725  33.791  34.692  1.00  0.00     0.029 A 
ATOM     23  C   UNL A   1      38.858  32.882  34.800  1.00  0.00     0.049 A 
ATOM     24  H   UNL A   1      39.521  31.497  33.389  1.00  0.00     0.167 HD
ATOM     25  C   UNL A   1      40.723  28.587  30.352  1.00  0.00     0.034 A 
ATOM     26  C   UNL A   1      39.671  32.789  35.868  1.00  0.00     0.034 A 
ATOM     27  C   UNL A   1      41.699  28.478  31.406  1.00  0.00     0.049 A 
ATOM     28  C   UNL A   1      40.819  31.824  35.817  1.00  0.00     0.074 A 
ATOM     29  C   UNL A   1      42.801  27.643  31.474  1.00  0.00     0.029 A 
ATOM     30  N   UNL A   1      41.690  29.219  32.578  1.00  0.00    -0.354 N 
ATOM     31  N   UNL A   1      41.186  31.033  34.838  1.00  0.00    -0.248 NA
ATOM     32  C   UNL A   1      41.681  31.757  37.004  1.00  0.00     0.031 C 
ATOM     33  C   UNL A   1      43.449  27.869  32.693  1.00  0.00     0.029 A 
ATOM     34  C   UNL A   1      42.762  28.858  33.378  1.00  0.00     0.049 A 
ATOM     35  H   UNL A   1      41.019  29.902  32.809  1.00  0.00     0.167 HD
ATOM     36  C   UNL A   1      42.329  30.383  35.284  1.00  0.00     0.074 A 
ATOM     37  C   UNL A   1      42.618  30.908  36.604  1.00  0.00     0.031 C 
ATOM     38  C   UNL A   1      43.058  29.419  34.670  1.00  0.00     0.034 A 
BRANCH  25  39
ATOM     39  C   UNL A   1      40.883  27.690  29.151  1.00  0.00     0.023 A 
ATOM     40  C   UNL A   1      40.101  26.521  29.053  1.00  0.00     0.012 A 
ATOM     41  C   UNL A   1      41.727  28.048  28.081  1.00  0.00     0.148 A 
ATOM     42  C   UNL A   1      40.169  25.713  27.919  1.00  0.00     0.002 A 
ATOM     43  C   UNL A   1      41.763  27.256  26.937  1.00  0.00     0.091 A 
ATOM     44  F   UNL A   1      42.475  29.154  28.199  1.00  0.00    -0.205 F 
ATOM     45  C   UNL A   1      40.991  26.086  26.858  1.00  0.00     0.022 A 
BRANCH  43  46
ATOM     46  S   UNL A   1      42.731  27.683  25.485  1.00  0.00     0.127 S 
ATOM     47  O   UNL A   1      42.771  26.407  24.773  1.00  0.00    -0.237 OA
ATOM     48  O   UNL A   1      41.902  28.708  24.853  1.00  0.00    -0.237 OA
ATOM     49  O   UNL A   1      44.015  28.159  25.983  1.00  0.00    -0.744 OA
ENDBRANCH  43  46
ENDBRANCH  25  39
BRANCH  26  50
ATOM     50  C   UNL A   1      39.445  33.662  37.054  1.00  0.00     0.023 A 
ATOM     51  C   UNL A   1      39.865  35.005  37.026  1.00  0.00     0.012 A 
ATOM     52  C   UNL A   1      38.783  33.174  38.198  1.00  0.00     0.148 A 
ATOM     53  C   UNL A   1      39.657  35.837  38.127  1.00  0.00     0.002 A 
ATOM     54  C   UNL A   1      38.522  34.025  39.264  1.00  0.00     0.091 A 
ATOM     55  F   UNL A   1      38.408  31.887  38.218  1.00  0.00    -0.205 F 
ATOM     56  C   UNL A   1      38.974  35.353  39.240  1.00  0.00     0.022 A 
BRANCH  54  57
ATOM     57  S   UNL A   1      37.513  33.509  40.658  1.00  0.00     0.127 S 
ATOM     58  O   UNL A   1      38.352  32.485  41.273  1.00  0.00    -0.237 OA
ATOM     59  O   UNL A   1      37.388  34.749  41.426  1.00  0.00    -0.237 OA
ATOM     60  O   UNL A   1      36.261  33.048  40.071  1.00  0.00    -0.744 OA
ENDBRANCH  54  57
ENDBRANCH  26  50
BRANCH  38  61
ATOM     61  C   UNL A   1      44.244  28.879  35.423  1.00  0.00     0.023 A 
ATOM     62  C   UNL A   1      45.515  29.454  35.226  1.00  0.00     0.012 A 
ATOM     63  C   UNL A   1      44.096  27.829  36.350  1.00  0.00     0.148 A 
ATOM     64  C   UNL A   1      46.628  28.965  35.906  1.00  0.00     0.002 A 
ATOM     65  C   UNL A   1      45.202  27.379  37.062  1.00  0.00     0.091 A 
ATOM     66  F   UNL A   1      42.882  27.280  36.508  1.00  0.00    -0.205 F 
ATOM     67  C   UNL A   1      46.470  27.936  36.831  1.00  0.00     0.022 A 
BRANCH  65  68
ATOM     68  S   UNL A   1      45.072  26.119  38.334  1.00  0.00     0.127 S 
ATOM     69  O   UNL A   1      46.455  26.022  38.799  1.00  0.00    -0.237 OA
ATOM     70  O   UNL A   1      44.148  26.733  39.290  1.00  0.00    -0.237 OA
ATOM     71  O   UNL A   1      44.547  24.934  37.669  1.00  0.00    -0.744 OA
ENDBRANCH  65  68
ENDBRANCH  38  61
ENDBRANCH  12  13
ENDBRANCH   5   7
ENDBRANCH   2   3
ENDBRANCH   1   2
BRANCH   1  72
ATOM     72  C   UNL A   1      31.621  30.427  26.082  1.00  0.00     0.117 C 
BRANCH  72  73
ATOM     73  N   UNL A   1      32.652  29.688  26.779  1.00  0.00    -0.356 N 
ATOM     74  C   UNL A   1      33.533  28.741  26.352  1.00  0.00     0.224 C 
ATOM     75  H   UNL A   1      32.733  29.910  27.735  1.00  0.00     0.163 HD
ATOM     76  O   UNL A   1      34.491  28.525  27.101  1.00  0.00    -0.275 OA
BRANCH  74  77
ATOM     77  C   UNL A   1      33.325  27.945  25.049  1.00  0.00     0.095 C 
ATOM     78  C   UNL A   1      33.573  28.958  23.892  1.00  0.00     0.041 C 
ATOM     79  C   UNL A   1      31.921  27.312  24.960  1.00  0.00     0.095 C 
ATOM     80  C   UNL A   1      33.001  28.603  22.560  1.00  0.00    -0.030 C 
ATOM     81  C   UNL A   1      31.405  26.975  23.539  1.00  0.00     0.041 C 
ATOM     82  C   UNL A   1      32.011  27.724  22.405  1.00  0.00    -0.030 C 
BRANCH  79  83
ATOM     83  C   UNL A   1      31.648  26.057  25.799  1.00  0.00     0.227 C 
ATOM     84  O   UNL A   1      30.994  26.154  26.840  1.00  0.00    -0.275 OA
ATOM     85  N   UNL A   1      31.970  24.806  25.264  1.00  0.00    -0.331 N 
ATOM     86  C   UNL A   1      31.040  23.725  25.576  1.00  0.00     0.181 C 
ATOM     87  C   UNL A   1      33.359  24.378  25.104  1.00  0.00     0.181 C 
ATOM     88  C   UNL A   1      31.290  22.428  24.776  1.00  0.00     0.284 C 
ATOM     89  C   UNL A   1      33.560  23.090  24.297  1.00  0.00     0.284 C 
ATOM     90  N   UNL A   1      32.683  21.982  24.675  1.00  0.00    -0.328 N 
ATOM     91  H   UNL A   1      32.700  21.317  23.903  1.00  0.00     0.348 HD
BRANCH  90  92
ATOM     92  C   UNL A   1      33.179  21.096  25.735  1.00  0.00     0.299 C 
BRANCH  92  93
ATOM     93  C   UNL A   1      33.455  19.648  25.390  1.00  0.00     0.010 A 
ATOM     94  C   UNL A   1      34.595  19.295  24.631  1.00  0.00     0.013 A 
ATOM     95  C   UNL A   1      32.594  18.631  25.832  1.00  0.00     0.060 A 
ATOM     96  C   UNL A   1      34.832  17.974  24.236  1.00  0.00     0.051 A 
ATOM     97  C   UNL A   1      32.869  17.333  25.451  1.00  0.00     0.166 A 
ATOM     98  C   UNL A   1      33.946  17.013  24.662  1.00  0.00     0.165 A 
ATOM     99  O   UNL A   1      32.130  16.243  25.778  1.00  0.00    -0.454 OA
ATOM    100  O   UNL A   1      34.013  15.684  24.384  1.00  0.00    -0.454 OA
ATOM    101  C   UNL A   1      32.885  15.191  25.143  1.00  0.00     0.468 C 
ENDBRANCH  92  93
ENDBRANCH  90  92
ENDBRANCH  79  83
ENDBRANCH  74  77
ENDBRANCH  72  73
ENDBRANCH   1  72
TORSDOF 16
ENDMDL
