MODEL 1
REMARK VINA RESULT:     -10.6      0.000      0.000
REMARK SMILES [NH3+][C@H](CC(F)(F)C(F)(F)C(F)(F)C(F)(F)Cl)C(=O)NCCCNC(=O)c1ccc(-c2c3nc(c(-c4cccc(S(=O)(=O)[O-])c4F)c4ccc([nH]4)c(-c4cccc(S(=O)(=O)[O-])c4F)c4nc(c(-c5cccc(S(=O)(=O)[O-])c5F)c5ccc2[nH]5)C=C4)C=C3)cc1
REMARK SMILES IDX 20 1 19 2 17 3 18 4 2 6 1 7 3 11 4 12 5 13 6 14 7 15 8 16
REMARK SMILES IDX 9 17 10 18 11 19 12 20 13 21 14 22 15 23 16 24 21 25 22 26
REMARK SMILES IDX 23 27 24 28 25 30 26 31 27 32 88 33 28 34 87 35 29 36 30 37
REMARK SMILES IDX 31 38 81 39 32 40 86 41 80 42 82 43 33 44 85 45 79 46 78 47
REMARK SMILES IDX 34 49 66 50 46 51 65 52 47 53 50 54 64 55 83 56 48 57 49 58
REMARK SMILES IDX 63 60 84 61 51 62 35 63 36 64 44 65 37 66 39 67 45 68 38 69
REMARK SMILES IDX 40 70 41 71 42 72 43 73 67 74 68 75 76 76 69 77 71 78 77 79
REMARK SMILES IDX 70 80 72 81 73 82 74 83 75 84 52 85 53 86 61 87 54 88 56 89
REMARK SMILES IDX 62 90 55 91 57 92 58 93 59 94 60 95
REMARK H PARENT 19 5 1 8 1 9 1 10 23 29 82 48 50 59
REMARK Flexibility Score: inf
ROOT
ATOM      1  C   UNL A   1      34.279  35.499  28.402  1.00  0.00     0.118 C 
ENDROOT
BRANCH   1   2
ATOM      2  N   UNL A   1      33.606  36.436  29.285  1.00  0.00    -0.351 N 
ATOM      3  C   UNL A   1      33.308  36.473  30.606  1.00  0.00     0.278 C 
ATOM      4  O   UNL A   1      32.897  37.569  31.011  1.00  0.00    -0.268 OA
ATOM      5  H   UNL A   1      33.289  37.237  28.809  1.00  0.00     0.163 HD
BRANCH   3   6
ATOM      6  C   UNL A   1      33.373  35.283  31.597  1.00  0.00     0.277 C 
BRANCH   6   7
ATOM      7  N   UNL A   1      32.315  35.370  32.629  1.00  0.00    -0.347 N 
ATOM      8  H   UNL A   1      31.516  34.803  32.345  1.00  0.00     0.345 HD
ATOM      9  H   UNL A   1      32.021  36.341  32.734  1.00  0.00     0.345 HD
ATOM     10  H   UNL A   1      32.677  35.026  33.519  1.00  0.00     0.345 HD
ENDBRANCH   6   7
BRANCH   6  11
ATOM     11  C   UNL A   1      34.733  34.832  32.178  1.00  0.00     0.159 C 
BRANCH  11  12
ATOM     12  C   UNL A   1      34.917  33.365  32.537  1.00  0.00     0.323 C 
ATOM     13  F   UNL A   1      33.997  33.089  33.490  1.00  0.00    -0.199 F 
ATOM     14  F   UNL A   1      34.516  32.632  31.455  1.00  0.00    -0.199 F 
BRANCH  12  15
ATOM     15  C   UNL A   1      36.320  32.902  32.939  1.00  0.00     0.379 C 
ATOM     16  F   UNL A   1      36.295  31.576  33.249  1.00  0.00    -0.192 F 
ATOM     17  F   UNL A   1      37.164  32.984  31.880  1.00  0.00    -0.192 F 
BRANCH  15  18
ATOM     18  C   UNL A   1      36.831  33.738  34.094  1.00  0.00     0.392 C 
ATOM     19  F   UNL A   1      36.552  35.056  33.856  1.00  0.00    -0.191 F 
ATOM     20  F   UNL A   1      36.169  33.425  35.241  1.00  0.00    -0.191 F 
BRANCH  18  21
ATOM     21  C   UNL A   1      38.329  33.584  34.272  1.00  0.00     0.390 C 
ATOM     22  F   UNL A   1      38.744  34.089  35.459  1.00  0.00    -0.181 F 
ATOM     23  F   UNL A   1      38.687  32.273  34.268  1.00  0.00    -0.181 F 
ATOM     24  Cl  UNL A   1      39.223  34.396  32.952  1.00  0.00    -0.041 Cl
ENDBRANCH  18  21
ENDBRANCH  15  18
ENDBRANCH  12  15
ENDBRANCH  11  12
ENDBRANCH   6  11
ENDBRANCH   3   6
ENDBRANCH   1   2
BRANCH   1  25
ATOM     25  C   UNL A   1      33.589  34.142  28.223  1.00  0.00     0.042 C 
BRANCH  25  26
ATOM     26  C   UNL A   1      34.488  32.918  28.060  1.00  0.00     0.118 C 
BRANCH  26  27
ATOM     27  N   UNL A   1      33.778  31.727  27.628  1.00  0.00    -0.352 N 
ATOM     28  C   UNL A   1      34.225  30.425  27.595  1.00  0.00     0.251 C 
ATOM     29  H   UNL A   1      32.855  31.869  27.317  1.00  0.00     0.163 HD
ATOM     30  O   UNL A   1      33.505  29.546  27.126  1.00  0.00    -0.269 OA
BRANCH  28  31
ATOM     31  C   UNL A   1      35.586  30.082  28.076  1.00  0.00     0.039 A 
ATOM     32  C   UNL A   1      35.740  29.693  29.411  1.00  0.00     0.014 A 
ATOM     33  C   UNL A   1      36.704  30.142  27.236  1.00  0.00     0.014 A 
ATOM     34  C   UNL A   1      36.997  29.308  29.887  1.00  0.00     0.010 A 
ATOM     35  C   UNL A   1      37.949  29.710  27.701  1.00  0.00     0.010 A 
ATOM     36  C   UNL A   1      38.110  29.286  29.030  1.00  0.00    -0.014 A 
BRANCH  36  37
ATOM     37  C   UNL A   1      39.435  28.807  29.514  1.00  0.00     0.031 A 
ATOM     38  C   UNL A   1      40.153  29.523  30.625  1.00  0.00     0.074 A 
ATOM     39  C   UNL A   1      40.028  27.756  28.911  1.00  0.00     0.049 A 
ATOM     40  N   UNL A   1      41.311  29.248  31.169  1.00  0.00    -0.248 NA
ATOM     41  C   UNL A   1      39.493  30.710  31.190  1.00  0.00     0.031 C 
ATOM     42  C   UNL A   1      39.478  27.013  27.776  1.00  0.00     0.029 A 
ATOM     43  N   UNL A   1      41.233  27.142  29.155  1.00  0.00    -0.354 N 
ATOM     44  C   UNL A   1      41.534  30.239  32.118  1.00  0.00     0.074 A 
ATOM     45  C   UNL A   1      40.400  31.138  32.058  1.00  0.00     0.031 C 
ATOM     46  C   UNL A   1      40.343  26.048  27.420  1.00  0.00     0.029 A 
ATOM     47  C   UNL A   1      41.516  26.111  28.289  1.00  0.00     0.049 A 
ATOM     48  H   UNL A   1      41.839  27.417  29.882  1.00  0.00     0.167 HD
ATOM     49  C   UNL A   1      42.568  30.375  32.981  1.00  0.00     0.034 A 
ATOM     50  C   UNL A   1      42.593  25.305  28.203  1.00  0.00     0.034 A 
ATOM     51  C   UNL A   1      43.672  29.457  33.078  1.00  0.00     0.049 A 
ATOM     52  C   UNL A   1      43.710  25.450  29.203  1.00  0.00     0.074 A 
ATOM     53  C   UNL A   1      44.720  29.468  33.984  1.00  0.00     0.029 A 
ATOM     54  N   UNL A   1      43.876  28.371  32.245  1.00  0.00    -0.354 N 
ATOM     55  N   UNL A   1      43.814  26.288  30.205  1.00  0.00    -0.248 NA
ATOM     56  C   UNL A   1      44.839  24.514  29.087  1.00  0.00     0.031 C 
ATOM     57  C   UNL A   1      45.563  28.391  33.690  1.00  0.00     0.029 A 
ATOM     58  C   UNL A   1      45.034  27.705  32.609  1.00  0.00     0.049 A 
ATOM     59  H   UNL A   1      43.285  28.110  31.501  1.00  0.00     0.167 HD
ATOM     60  C   UNL A   1      44.995  25.955  30.861  1.00  0.00     0.074 A 
ATOM     61  C   UNL A   1      45.566  24.830  30.151  1.00  0.00     0.031 C 
ATOM     62  C   UNL A   1      45.559  26.541  31.945  1.00  0.00     0.034 A 
BRANCH  49  63
ATOM     63  C   UNL A   1      42.526  31.527  33.948  1.00  0.00     0.023 A 
ATOM     64  C   UNL A   1      43.022  32.783  33.543  1.00  0.00     0.012 A 
ATOM     65  C   UNL A   1      41.932  31.395  35.219  1.00  0.00     0.148 A 
ATOM     66  C   UNL A   1      42.956  33.883  34.396  1.00  0.00     0.002 A 
ATOM     67  C   UNL A   1      41.836  32.506  36.050  1.00  0.00     0.091 A 
ATOM     68  F   UNL A   1      41.484  30.189  35.595  1.00  0.00    -0.205 F 
ATOM     69  C   UNL A   1      42.354  33.747  35.645  1.00  0.00     0.022 A 
BRANCH  67  70
ATOM     70  S   UNL A   1      41.009  32.446  37.645  1.00  0.00     0.127 S 
ATOM     71  O   UNL A   1      41.903  31.579  38.409  1.00  0.00    -0.237 OA
ATOM     72  O   UNL A   1      41.023  33.850  38.057  1.00  0.00    -0.237 OA
ATOM     73  O   UNL A   1      39.680  31.908  37.382  1.00  0.00    -0.744 OA
ENDBRANCH  67  70
ENDBRANCH  49  63
BRANCH  50  74
ATOM     74  C   UNL A   1      42.629  24.224  27.176  1.00  0.00     0.023 A 
ATOM     75  C   UNL A   1      43.341  24.435  25.980  1.00  0.00     0.012 A 
ATOM     76  C   UNL A   1      41.994  22.985  27.388  1.00  0.00     0.148 A 
ATOM     77  C   UNL A   1      43.399  23.443  25.000  1.00  0.00     0.002 A 
ATOM     78  C   UNL A   1      42.099  21.981  26.431  1.00  0.00     0.091 A 
ATOM     79  F   UNL A   1      41.306  22.808  28.524  1.00  0.00    -0.205 F 
ATOM     80  C   UNL A   1      42.788  22.213  25.230  1.00  0.00     0.022 A 
BRANCH  78  81
ATOM     81  S   UNL A   1      41.454  20.326  26.704  1.00  0.00     0.127 S 
ATOM     82  O   UNL A   1      42.162  19.926  27.917  1.00  0.00    -0.237 OA
ATOM     83  O   UNL A   1      40.024  20.580  26.879  1.00  0.00    -0.237 OA
ATOM     84  O   UNL A   1      41.782  19.578  25.497  1.00  0.00    -0.744 OA
ENDBRANCH  78  81
ENDBRANCH  50  74
BRANCH  62  85
ATOM     85  C   UNL A   1      46.847  25.965  32.472  1.00  0.00     0.023 A 
ATOM     86  C   UNL A   1      48.078  26.489  32.029  1.00  0.00     0.012 A 
ATOM     87  C   UNL A   1      46.836  24.982  33.483  1.00  0.00     0.148 A 
ATOM     88  C   UNL A   1      49.278  26.031  32.571  1.00  0.00     0.002 A 
ATOM     89  C   UNL A   1      48.035  24.561  34.047  1.00  0.00     0.091 A 
ATOM     90  F   UNL A   1      45.656  24.483  33.877  1.00  0.00    -0.205 F 
ATOM     91  C   UNL A   1      49.257  25.078  33.587  1.00  0.00     0.022 A 
BRANCH  89  92
ATOM     92  S   UNL A   1      48.099  23.404  35.421  1.00  0.00     0.127 S 
ATOM     93  O   UNL A   1      47.328  24.111  36.441  1.00  0.00    -0.237 OA
ATOM     94  O   UNL A   1      47.437  22.223  34.866  1.00  0.00    -0.237 OA
ATOM     95  O   UNL A   1      49.511  23.217  35.722  1.00  0.00    -0.744 OA
ENDBRANCH  89  92
ENDBRANCH  62  85
ENDBRANCH  36  37
ENDBRANCH  28  31
ENDBRANCH  26  27
ENDBRANCH  25  26
ENDBRANCH   1  25
TORSDOF 19
ENDMDL
MODEL 2
REMARK VINA RESULT:     -10.1      4.338      7.053
REMARK SMILES [NH3+][C@H](CC(F)(F)C(F)(F)C(F)(F)C(F)(F)Cl)C(=O)NCCCNC(=O)c1ccc(-c2c3nc(c(-c4cccc(S(=O)(=O)[O-])c4F)c4ccc([nH]4)c(-c4cccc(S(=O)(=O)[O-])c4F)c4nc(c(-c5cccc(S(=O)(=O)[O-])c5F)c5ccc2[nH]5)C=C4)C=C3)cc1
REMARK SMILES IDX 20 1 19 2 17 3 18 4 2 6 1 7 3 11 4 12 5 13 6 14 7 15 8 16
REMARK SMILES IDX 9 17 10 18 11 19 12 20 13 21 14 22 15 23 16 24 21 25 22 26
REMARK SMILES IDX 23 27 24 28 25 30 26 31 27 32 88 33 28 34 87 35 29 36 30 37
REMARK SMILES IDX 31 38 81 39 32 40 86 41 80 42 82 43 33 44 85 45 79 46 78 47
REMARK SMILES IDX 34 49 66 50 46 51 65 52 47 53 50 54 64 55 83 56 48 57 49 58
REMARK SMILES IDX 63 60 84 61 51 62 35 63 36 64 44 65 37 66 39 67 45 68 38 69
REMARK SMILES IDX 40 70 41 71 42 72 43 73 67 74 68 75 76 76 69 77 71 78 77 79
REMARK SMILES IDX 70 80 72 81 73 82 74 83 75 84 52 85 53 86 61 87 54 88 56 89
REMARK SMILES IDX 62 90 55 91 57 92 58 93 59 94 60 95
REMARK H PARENT 19 5 1 8 1 9 1 10 23 29 82 48 50 59
REMARK Flexibility Score: inf
ROOT
ATOM      1  C   UNL A   1      31.375  28.686  23.583  1.00  0.00     0.118 C 
ENDROOT
BRANCH   1   2
ATOM      2  N   UNL A   1      32.669  28.586  22.928  1.00  0.00    -0.351 N 
ATOM      3  C   UNL A   1      33.300  27.654  22.176  1.00  0.00     0.278 C 
ATOM      4  O   UNL A   1      34.338  28.050  21.627  1.00  0.00    -0.268 OA
ATOM      5  H   UNL A   1      33.220  29.390  23.066  1.00  0.00     0.163 HD
BRANCH   3   6
ATOM      6  C   UNL A   1      32.881  26.171  22.007  1.00  0.00     0.277 C 
BRANCH   6   7
ATOM      7  N   UNL A   1      31.841  26.010  20.965  1.00  0.00    -0.347 N 
ATOM      8  H   UNL A   1      30.920  26.153  21.379  1.00  0.00     0.345 HD
ATOM      9  H   UNL A   1      31.894  25.069  20.574  1.00  0.00     0.345 HD
ATOM     10  H   UNL A   1      31.991  26.695  20.225  1.00  0.00     0.345 HD
ENDBRANCH   6   7
BRANCH   6  11
ATOM     11  C   UNL A   1      32.615  25.295  23.252  1.00  0.00     0.159 C 
BRANCH  11  12
ATOM     12  C   UNL A   1      33.798  24.894  24.121  1.00  0.00     0.323 C 
ATOM     13  F   UNL A   1      34.886  24.919  23.318  1.00  0.00    -0.199 F 
ATOM     14  F   UNL A   1      34.009  25.912  25.010  1.00  0.00    -0.199 F 
BRANCH  12  15
ATOM     15  C   UNL A   1      33.691  23.584  24.907  1.00  0.00     0.379 C 
ATOM     16  F   UNL A   1      33.680  23.849  26.242  1.00  0.00    -0.192 F 
ATOM     17  F   UNL A   1      32.495  22.990  24.672  1.00  0.00    -0.192 F 
BRANCH  15  18
ATOM     18  C   UNL A   1      34.830  22.659  24.529  1.00  0.00     0.392 C 
ATOM     19  F   UNL A   1      34.970  22.647  23.168  1.00  0.00    -0.191 F 
ATOM     20  F   UNL A   1      36.011  23.130  25.014  1.00  0.00    -0.191 F 
BRANCH  18  21
ATOM     21  C   UNL A   1      34.576  21.241  25.002  1.00  0.00     0.390 C 
ATOM     22  F   UNL A   1      34.034  21.219  26.244  1.00  0.00    -0.181 F 
ATOM     23  F   UNL A   1      33.691  20.608  24.187  1.00  0.00    -0.181 F 
ATOM     24  Cl  UNL A   1      36.086  20.283  25.012  1.00  0.00    -0.041 Cl
ENDBRANCH  18  21
ENDBRANCH  15  18
ENDBRANCH  12  15
ENDBRANCH  11  12
ENDBRANCH   6  11
ENDBRANCH   3   6
ENDBRANCH   1   2
BRANCH   1  25
ATOM     25  C   UNL A   1      31.414  28.917  25.098  1.00  0.00     0.042 C 
BRANCH  25  26
ATOM     26  C   UNL A   1      32.629  29.652  25.662  1.00  0.00     0.118 C 
BRANCH  26  27
ATOM     27  N   UNL A   1      32.341  31.005  26.101  1.00  0.00    -0.352 N 
ATOM     28  C   UNL A   1      33.034  31.782  27.003  1.00  0.00     0.251 C 
ATOM     29  H   UNL A   1      31.544  31.423  25.702  1.00  0.00     0.163 HD
ATOM     30  O   UNL A   1      32.599  32.889  27.311  1.00  0.00    -0.269 OA
BRANCH  28  31
ATOM     31  C   UNL A   1      34.274  31.274  27.639  1.00  0.00     0.039 A 
ATOM     32  C   UNL A   1      35.345  32.157  27.806  1.00  0.00     0.014 A 
ATOM     33  C   UNL A   1      34.395  29.946  28.066  1.00  0.00     0.014 A 
ATOM     34  C   UNL A   1      36.509  31.731  28.453  1.00  0.00     0.010 A 
ATOM     35  C   UNL A   1      35.539  29.537  28.756  1.00  0.00     0.010 A 
ATOM     36  C   UNL A   1      36.609  30.424  28.959  1.00  0.00    -0.014 A 
BRANCH  36  37
ATOM     37  C   UNL A   1      37.818  29.989  29.712  1.00  0.00     0.031 A 
ATOM     38  C   UNL A   1      38.093  30.514  31.095  1.00  0.00     0.074 A 
ATOM     39  C   UNL A   1      38.708  29.161  29.129  1.00  0.00     0.049 A 
ATOM     40  N   UNL A   1      39.095  30.247  31.894  1.00  0.00    -0.248 NA
ATOM     41  C   UNL A   1      37.126  31.476  31.648  1.00  0.00     0.031 C 
ATOM     42  C   UNL A   1      38.604  28.632  27.768  1.00  0.00     0.029 A 
ATOM     43  N   UNL A   1      39.889  28.636  29.598  1.00  0.00    -0.354 N 
ATOM     44  C   UNL A   1      38.898  31.025  33.028  1.00  0.00     0.074 A 
ATOM     45  C   UNL A   1      37.692  31.794  32.805  1.00  0.00     0.031 C 
ATOM     46  C   UNL A   1      39.674  27.862  27.512  1.00  0.00     0.029 A 
ATOM     47  C   UNL A   1      40.551  27.853  28.680  1.00  0.00     0.049 A 
ATOM     48  H   UNL A   1      40.229  28.806  30.507  1.00  0.00     0.167 HD
ATOM     49  C   UNL A   1      39.632  31.074  34.165  1.00  0.00     0.034 A 
ATOM     50  C   UNL A   1      41.727  27.199  28.768  1.00  0.00     0.034 A 
ATOM     51  C   UNL A   1      40.803  30.275  34.412  1.00  0.00     0.049 A 
ATOM     52  C   UNL A   1      42.502  27.236  30.058  1.00  0.00     0.074 A 
ATOM     53  C   UNL A   1      41.559  30.195  35.569  1.00  0.00     0.029 A 
ATOM     54  N   UNL A   1      41.390  29.424  33.492  1.00  0.00    -0.354 N 
ATOM     55  N   UNL A   1      42.203  27.841  31.182  1.00  0.00    -0.248 NA
ATOM     56  C   UNL A   1      43.756  26.468  30.108  1.00  0.00     0.031 C 
ATOM     57  C   UNL A   1      42.610  29.300  35.344  1.00  0.00     0.029 A 
ATOM     58  C   UNL A   1      42.503  28.816  34.051  1.00  0.00     0.049 A 
ATOM     59  H   UNL A   1      41.066  29.273  32.574  1.00  0.00     0.167 HD
ATOM     60  C   UNL A   1      43.206  27.495  32.081  1.00  0.00     0.074 A 
ATOM     61  C   UNL A   1      44.117  26.617  31.377  1.00  0.00     0.031 C 
ATOM     62  C   UNL A   1      43.363  27.885  33.369  1.00  0.00     0.034 A 
BRANCH  49  63
ATOM     63  C   UNL A   1      39.152  31.977  35.270  1.00  0.00     0.023 A 
ATOM     64  C   UNL A   1      38.198  31.493  36.188  1.00  0.00     0.012 A 
ATOM     65  C   UNL A   1      39.693  33.265  35.449  1.00  0.00     0.148 A 
ATOM     66  C   UNL A   1      37.766  32.285  37.249  1.00  0.00     0.002 A 
ATOM     67  C   UNL A   1      39.284  34.036  36.532  1.00  0.00     0.091 A 
ATOM     68  F   UNL A   1      40.583  33.716  34.555  1.00  0.00    -0.205 F 
ATOM     69  C   UNL A   1      38.317  33.552  37.427  1.00  0.00     0.022 A 
BRANCH  67  70
ATOM     70  S   UNL A   1      39.993  35.649  36.887  1.00  0.00     0.127 S 
ATOM     71  O   UNL A   1      41.413  35.326  37.015  1.00  0.00    -0.237 OA
ATOM     72  O   UNL A   1      39.649  36.413  35.687  1.00  0.00    -0.237 OA
ATOM     73  O   UNL A   1      39.339  36.111  38.104  1.00  0.00    -0.744 OA
ENDBRANCH  67  70
ENDBRANCH  49  63
BRANCH  50  74
ATOM     74  C   UNL A   1      42.205  26.378  27.618  1.00  0.00     0.023 A 
ATOM     75  C   UNL A   1      43.049  26.967  26.656  1.00  0.00     0.012 A 
ATOM     76  C   UNL A   1      41.858  25.020  27.488  1.00  0.00     0.148 A 
ATOM     77  C   UNL A   1      43.518  26.226  25.571  1.00  0.00     0.002 A 
ATOM     78  C   UNL A   1      42.371  24.273  26.433  1.00  0.00     0.091 A 
ATOM     79  F   UNL A   1      41.039  24.482  28.402  1.00  0.00    -0.205 F 
ATOM     80  C   UNL A   1      43.188  24.877  25.465  1.00  0.00     0.022 A 
BRANCH  78  81
ATOM     81  S   UNL A   1      42.103  22.501  26.294  1.00  0.00     0.127 S 
ATOM     82  O   UNL A   1      40.652  22.429  26.139  1.00  0.00    -0.237 OA
ATOM     83  O   UNL A   1      42.869  22.168  25.094  1.00  0.00    -0.237 OA
ATOM     84  O   UNL A   1      42.642  21.931  27.522  1.00  0.00    -0.744 OA
ENDBRANCH  78  81
ENDBRANCH  50  74
BRANCH  62  85
ATOM     85  C   UNL A   1      44.541  27.344  34.136  1.00  0.00     0.023 A 
ATOM     86  C   UNL A   1      45.760  28.049  34.131  1.00  0.00     0.012 A 
ATOM     87  C   UNL A   1      44.408  26.196  34.944  1.00  0.00     0.148 A 
ATOM     88  C   UNL A   1      46.834  27.612  34.905  1.00  0.00     0.002 A 
ATOM     89  C   UNL A   1      45.470  25.790  35.744  1.00  0.00     0.091 A 
ATOM     90  F   UNL A   1      43.246  25.527  34.919  1.00  0.00    -0.205 F 
ATOM     91  C   UNL A   1      46.686  26.492  35.720  1.00  0.00     0.022 A 
BRANCH  89  92
ATOM     92  S   UNL A   1      45.340  24.412  36.892  1.00  0.00     0.127 S 
ATOM     93  O   UNL A   1      44.239  24.844  37.751  1.00  0.00    -0.237 OA
ATOM     94  O   UNL A   1      45.018  23.295  36.002  1.00  0.00    -0.237 OA
ATOM     95  O   UNL A   1      46.639  24.309  37.542  1.00  0.00    -0.744 OA
ENDBRANCH  89  92
ENDBRANCH  62  85
ENDBRANCH  36  37
ENDBRANCH  28  31
ENDBRANCH  26  27
ENDBRANCH  25  26
ENDBRANCH   1  25
TORSDOF 19
ENDMDL
MODEL 3
REMARK VINA RESULT:     -10.0      7.016     12.474
REMARK SMILES [NH3+][C@H](CC(F)(F)C(F)(F)C(F)(F)C(F)(F)Cl)C(=O)NCCCNC(=O)c1ccc(-c2c3nc(c(-c4cccc(S(=O)(=O)[O-])c4F)c4ccc([nH]4)c(-c4cccc(S(=O)(=O)[O-])c4F)c4nc(c(-c5cccc(S(=O)(=O)[O-])c5F)c5ccc2[nH]5)C=C4)C=C3)cc1
REMARK SMILES IDX 20 1 19 2 17 3 18 4 2 6 1 7 3 11 4 12 5 13 6 14 7 15 8 16
REMARK SMILES IDX 9 17 10 18 11 19 12 20 13 21 14 22 15 23 16 24 21 25 22 26
REMARK SMILES IDX 23 27 24 28 25 30 26 31 27 32 88 33 28 34 87 35 29 36 30 37
REMARK SMILES IDX 31 38 81 39 32 40 86 41 80 42 82 43 33 44 85 45 79 46 78 47
REMARK SMILES IDX 34 49 66 50 46 51 65 52 47 53 50 54 64 55 83 56 48 57 49 58
REMARK SMILES IDX 63 60 84 61 51 62 35 63 36 64 44 65 37 66 39 67 45 68 38 69
REMARK SMILES IDX 40 70 41 71 42 72 43 73 67 74 68 75 76 76 69 77 71 78 77 79
REMARK SMILES IDX 70 80 72 81 73 82 74 83 75 84 52 85 53 86 61 87 54 88 56 89
REMARK SMILES IDX 62 90 55 91 57 92 58 93 59 94 60 95
REMARK H PARENT 19 5 1 8 1 9 1 10 23 29 82 48 50 59
REMARK Flexibility Score: inf
ROOT
ATOM      1  C   UNL A   1      35.344  23.830  23.828  1.00  0.00     0.118 C 
ENDROOT
BRANCH   1   2
ATOM      2  N   UNL A   1      33.945  24.033  24.165  1.00  0.00    -0.351 N 
ATOM      3  C   UNL A   1      32.838  23.254  24.197  1.00  0.00     0.278 C 
ATOM      4  O   UNL A   1      31.858  23.773  24.751  1.00  0.00    -0.268 OA
ATOM      5  H   UNL A   1      33.756  24.961  24.435  1.00  0.00     0.163 HD
BRANCH   3   6
ATOM      6  C   UNL A   1      32.683  21.849  23.560  1.00  0.00     0.277 C 
BRANCH   6   7
ATOM      7  N   UNL A   1      32.043  21.918  22.227  1.00  0.00    -0.347 N 
ATOM      8  H   UNL A   1      32.353  21.129  21.659  1.00  0.00     0.345 HD
ATOM      9  H   UNL A   1      32.307  22.790  21.767  1.00  0.00     0.345 HD
ATOM     10  H   UNL A   1      31.029  21.884  22.333  1.00  0.00     0.345 HD
ENDBRANCH   6   7
BRANCH   6  11
ATOM     11  C   UNL A   1      32.160  20.668  24.409  1.00  0.00     0.159 C 
BRANCH  11  12
ATOM     12  C   UNL A   1      33.115  19.528  24.731  1.00  0.00     0.323 C 
ATOM     13  F   UNL A   1      34.363  20.012  24.537  1.00  0.00    -0.199 F 
ATOM     14  F   UNL A   1      33.041  19.309  26.080  1.00  0.00    -0.199 F 
BRANCH  12  15
ATOM     15  C   UNL A   1      32.896  18.193  24.015  1.00  0.00     0.379 C 
ATOM     16  F   UNL A   1      31.860  17.525  24.593  1.00  0.00    -0.192 F 
ATOM     17  F   UNL A   1      32.489  18.405  22.739  1.00  0.00    -0.192 F 
BRANCH  15  18
ATOM     18  C   UNL A   1      34.172  17.377  24.039  1.00  0.00     0.392 C 
ATOM     19  F   UNL A   1      34.377  16.821  22.806  1.00  0.00    -0.191 F 
ATOM     20  F   UNL A   1      35.249  18.179  24.262  1.00  0.00    -0.191 F 
BRANCH  18  21
ATOM     21  C   UNL A   1      34.102  16.264  25.067  1.00  0.00     0.390 C 
ATOM     22  F   UNL A   1      33.550  16.692  26.229  1.00  0.00    -0.181 F 
ATOM     23  F   UNL A   1      33.321  15.244  24.625  1.00  0.00    -0.181 F 
ATOM     24  Cl  UNL A   1      35.726  15.597  25.407  1.00  0.00    -0.041 Cl
ENDBRANCH  18  21
ENDBRANCH  15  18
ENDBRANCH  12  15
ENDBRANCH  11  12
ENDBRANCH   6  11
ENDBRANCH   3   6
ENDBRANCH   1   2
BRANCH   1  25
ATOM     25  C   UNL A   1      35.987  22.561  24.398  1.00  0.00     0.042 C 
BRANCH  25  26
ATOM     26  C   UNL A   1      36.814  22.710  25.674  1.00  0.00     0.118 C 
BRANCH  26  27
ATOM     27  N   UNL A   1      37.737  21.613  25.902  1.00  0.00    -0.352 N 
ATOM     28  C   UNL A   1      39.041  21.665  26.342  1.00  0.00     0.251 C 
ATOM     29  H   UNL A   1      37.384  20.713  25.718  1.00  0.00     0.163 HD
ATOM     30  O   UNL A   1      39.702  20.631  26.408  1.00  0.00    -0.269 OA
BRANCH  28  31
ATOM     31  C   UNL A   1      39.669  22.963  26.691  1.00  0.00     0.039 A 
ATOM     32  C   UNL A   1      40.592  22.995  27.740  1.00  0.00     0.014 A 
ATOM     33  C   UNL A   1      39.357  24.142  26.004  1.00  0.00     0.014 A 
ATOM     34  C   UNL A   1      41.247  24.188  28.061  1.00  0.00     0.010 A 
ATOM     35  C   UNL A   1      40.048  25.322  26.294  1.00  0.00     0.010 A 
ATOM     36  C   UNL A   1      41.002  25.358  27.324  1.00  0.00    -0.014 A 
BRANCH  36  37
ATOM     37  C   UNL A   1      41.751  26.612  27.615  1.00  0.00     0.031 A 
ATOM     38  C   UNL A   1      43.189  26.764  27.200  1.00  0.00     0.074 A 
ATOM     39  C   UNL A   1      41.154  27.602  28.310  1.00  0.00     0.049 A 
ATOM     40  N   UNL A   1      43.993  27.781  27.373  1.00  0.00    -0.248 NA
ATOM     41  C   UNL A   1      43.810  25.620  26.514  1.00  0.00     0.031 C 
ATOM     42  C   UNL A   1      39.789  27.560  28.836  1.00  0.00     0.029 A 
ATOM     43  N   UNL A   1      41.627  28.829  28.714  1.00  0.00    -0.354 N 
ATOM     44  C   UNL A   1      45.220  27.393  26.847  1.00  0.00     0.074 A 
ATOM     45  C   UNL A   1      45.060  26.036  26.369  1.00  0.00     0.031 C 
ATOM     46  C   UNL A   1      39.535  28.704  29.494  1.00  0.00     0.029 A 
ATOM     47  C   UNL A   1      40.722  29.556  29.453  1.00  0.00     0.049 A 
ATOM     48  H   UNL A   1      42.530  29.155  28.495  1.00  0.00     0.167 HD
ATOM     49  C   UNL A   1      46.365  28.108  26.741  1.00  0.00     0.034 A 
ATOM     50  C   UNL A   1      40.830  30.770  30.029  1.00  0.00     0.034 A 
ATOM     51  C   UNL A   1      46.515  29.473  27.169  1.00  0.00     0.049 A 
ATOM     52  C   UNL A   1      42.101  31.560  29.859  1.00  0.00     0.074 A 
ATOM     53  C   UNL A   1      47.612  30.304  27.021  1.00  0.00     0.029 A 
ATOM     54  N   UNL A   1      45.545  30.208  27.830  1.00  0.00    -0.354 N 
ATOM     55  N   UNL A   1      43.189  31.240  29.203  1.00  0.00    -0.248 NA
ATOM     56  C   UNL A   1      42.145  32.896  30.474  1.00  0.00     0.031 C 
ATOM     57  C   UNL A   1      47.308  31.540  27.602  1.00  0.00     0.029 A 
ATOM     58  C   UNL A   1      46.018  31.481  28.102  1.00  0.00     0.049 A 
ATOM     59  H   UNL A   1      44.651  29.874  28.073  1.00  0.00     0.167 HD
ATOM     60  C   UNL A   1      44.028  32.346  29.291  1.00  0.00     0.074 A 
ATOM     61  C   UNL A   1      43.319  33.351  30.053  1.00  0.00     0.031 C 
ATOM     62  C   UNL A   1      45.280  32.503  28.796  1.00  0.00     0.034 A 
BRANCH  49  63
ATOM     63  C   UNL A   1      47.541  27.450  26.070  1.00  0.00     0.023 A 
ATOM     64  C   UNL A   1      47.734  27.634  24.685  1.00  0.00     0.012 A 
ATOM     65  C   UNL A   1      48.491  26.719  26.809  1.00  0.00     0.148 A 
ATOM     66  C   UNL A   1      48.836  27.077  24.041  1.00  0.00     0.002 A 
ATOM     67  C   UNL A   1      49.608  26.198  26.166  1.00  0.00     0.091 A 
ATOM     68  F   UNL A   1      48.280  26.537  28.120  1.00  0.00    -0.205 F 
ATOM     69  C   UNL A   1      49.779  26.369  24.782  1.00  0.00     0.022 A 
BRANCH  67  70
ATOM     70  S   UNL A   1      50.915  25.337  27.051  1.00  0.00     0.127 S 
ATOM     71  O   UNL A   1      51.429  26.394  27.920  1.00  0.00    -0.237 OA
ATOM     72  O   UNL A   1      50.178  24.281  27.747  1.00  0.00    -0.237 OA
ATOM     73  O   UNL A   1      51.835  24.856  26.029  1.00  0.00    -0.744 OA
ENDBRANCH  67  70
ENDBRANCH  49  63
BRANCH  50  74
ATOM     74  C   UNL A   1      39.664  31.352  30.754  1.00  0.00     0.023 A 
ATOM     75  C   UNL A   1      38.633  31.967  30.017  1.00  0.00     0.012 A 
ATOM     76  C   UNL A   1      39.554  31.274  32.156  1.00  0.00     0.148 A 
ATOM     77  C   UNL A   1      37.526  32.517  30.664  1.00  0.00     0.002 A 
ATOM     78  C   UNL A   1      38.423  31.778  32.790  1.00  0.00     0.091 A 
ATOM     79  F   UNL A   1      40.553  30.702  32.842  1.00  0.00    -0.205 F 
ATOM     80  C   UNL A   1      37.415  32.413  32.048  1.00  0.00     0.022 A 
BRANCH  78  81
ATOM     81  S   UNL A   1      38.140  31.568  34.552  1.00  0.00     0.127 S 
ATOM     82  O   UNL A   1      36.883  32.286  34.741  1.00  0.00    -0.237 OA
ATOM     83  O   UNL A   1      38.044  30.114  34.676  1.00  0.00    -0.237 OA
ATOM     84  O   UNL A   1      39.309  32.145  35.204  1.00  0.00    -0.744 OA
ENDBRANCH  78  81
ENDBRANCH  50  74
BRANCH  62  85
ATOM     85  C   UNL A   1      45.969  33.824  29.019  1.00  0.00     0.023 A 
ATOM     86  C   UNL A   1      46.836  33.981  30.118  1.00  0.00     0.012 A 
ATOM     87  C   UNL A   1      45.842  34.870  28.082  1.00  0.00     0.148 A 
ATOM     88  C   UNL A   1      47.552  35.164  30.292  1.00  0.00     0.002 A 
ATOM     89  C   UNL A   1      46.590  36.031  28.241  1.00  0.00     0.091 A 
ATOM     90  F   UNL A   1      44.997  34.708  27.053  1.00  0.00    -0.205 F 
ATOM     91  C   UNL A   1      47.439  36.183  29.348  1.00  0.00     0.022 A 
BRANCH  89  92
ATOM     92  S   UNL A   1      46.577  37.358  27.028  1.00  0.00     0.127 S 
ATOM     93  O   UNL A   1      46.995  36.657  25.815  1.00  0.00    -0.237 OA
ATOM     94  O   UNL A   1      45.174  37.775  27.038  1.00  0.00    -0.237 OA
ATOM     95  O   UNL A   1      47.508  38.362  27.523  1.00  0.00    -0.744 OA
ENDBRANCH  89  92
ENDBRANCH  62  85
ENDBRANCH  36  37
ENDBRANCH  28  31
ENDBRANCH  26  27
ENDBRANCH  25  26
ENDBRANCH   1  25
TORSDOF 19
ENDMDL
