MODEL 1
REMARK VINA RESULT:     -10.2      0.000      0.000
REMARK SMILES CCN(Cc1ccccn1)C(=O)[C@H]([NH3+])CCC(=O)NCCCNC(=O)c1ccc(-c2c3nc(c(-c4cccc(S(=O)(=O)[O-])c4F)c4ccc([nH]4)c(-c4cccc(S(=O)(=O)[O-])c4F)c4nc(c(-c5cccc(S(=O)(=O)[O-])c5F)c5ccc2[nH]5)C=C4)C=C3)cc1
REMARK SMILES IDX 17 1 18 2 19 3 16 5 15 6 13 7 11 8 12 9 3 10 2 11 1 12 4 13
REMARK SMILES IDX 5 14 6 15 10 16 7 17 9 18 8 19 14 20 20 24 21 25 22 26 23 27
REMARK SMILES IDX 24 28 25 30 26 31 27 32 88 33 28 34 87 35 29 36 30 37 31 38
REMARK SMILES IDX 81 39 32 40 86 41 80 42 82 43 33 44 85 45 79 46 78 47 34 49
REMARK SMILES IDX 66 50 46 51 65 52 47 53 50 54 64 55 83 56 48 57 49 58 63 60
REMARK SMILES IDX 84 61 51 62 35 63 36 64 44 65 37 66 39 67 45 68 38 69 40 70
REMARK SMILES IDX 41 71 42 72 43 73 67 74 68 75 76 76 69 77 71 78 77 79 70 80
REMARK SMILES IDX 72 81 73 82 74 83 75 84 52 85 53 86 61 87 54 88 56 89 62 90
REMARK SMILES IDX 55 91 57 92 58 93 59 94 60 95
REMARK H PARENT 19 4 14 21 14 22 14 23 23 29 82 48 50 59
REMARK Flexibility Score: inf
ROOT
ATOM      1  C   UNL A   1      34.056  25.243  25.043  1.00  0.00     0.220 C 
ATOM      2  O   UNL A   1      35.162  24.706  25.150  1.00  0.00    -0.275 OA
ATOM      3  N   UNL A   1      33.581  25.929  26.119  1.00  0.00    -0.356 N 
ATOM      4  H   UNL A   1      34.175  25.899  26.904  1.00  0.00     0.163 HD
ENDROOT
BRANCH   1   5
ATOM      5  C   UNL A   1      33.280  25.160  23.742  1.00  0.00     0.106 C 
BRANCH   5   6
ATOM      6  C   UNL A   1      33.701  26.217  22.711  1.00  0.00     0.085 C 
BRANCH   6   7
ATOM      7  C   UNL A   1      32.888  27.512  22.783  1.00  0.00     0.271 C 
BRANCH   7   8
ATOM      8  C   UNL A   1      31.380  27.293  22.473  1.00  0.00     0.281 C 
ATOM      9  O   UNL A   1      31.033  26.760  21.416  1.00  0.00    -0.268 OA
BRANCH   8  10
ATOM     10  N   UNL A   1      30.451  27.847  23.359  1.00  0.00    -0.332 N 
BRANCH  10  11
ATOM     11  C   UNL A   1      29.249  27.070  23.674  1.00  0.00     0.116 C 
ATOM     12  C   UNL A   1      29.626  25.706  24.236  1.00  0.00     0.027 C 
ENDBRANCH  10  11
BRANCH  10  13
ATOM     13  C   UNL A   1      30.526  29.202  23.924  1.00  0.00     0.175 C 
BRANCH  13  14
ATOM     14  C   UNL A   1      29.673  30.219  23.182  1.00  0.00     0.060 A 
ATOM     15  C   UNL A   1      29.435  30.073  21.815  1.00  0.00     0.026 A 
ATOM     16  N   UNL A   1      29.141  31.239  23.907  1.00  0.00    -0.259 NA
ATOM     17  C   UNL A   1      28.603  30.984  21.172  1.00  0.00     0.004 A 
ATOM     18  C   UNL A   1      28.348  32.115  23.246  1.00  0.00     0.111 A 
ATOM     19  C   UNL A   1      28.046  32.026  21.899  1.00  0.00     0.020 A 
ENDBRANCH  13  14
ENDBRANCH  10  13
ENDBRANCH   8  10
ENDBRANCH   7   8
BRANCH   7  20
ATOM     20  N   UNL A   1      33.394  28.519  21.825  1.00  0.00    -0.347 N 
ATOM     21  H   UNL A   1      33.380  28.129  20.883  1.00  0.00     0.345 HD
ATOM     22  H   UNL A   1      34.350  28.774  22.073  1.00  0.00     0.345 HD
ATOM     23  H   UNL A   1      32.802  29.348  21.858  1.00  0.00     0.345 HD
ENDBRANCH   7  20
ENDBRANCH   6   7
ENDBRANCH   5   6
ENDBRANCH   1   5
BRANCH   3  24
ATOM     24  C   UNL A   1      32.364  26.698  26.331  1.00  0.00     0.117 C 
BRANCH  24  25
ATOM     25  C   UNL A   1      32.622  28.102  26.879  1.00  0.00     0.042 C 
BRANCH  25  26
ATOM     26  C   UNL A   1      33.708  28.888  26.151  1.00  0.00     0.118 C 
BRANCH  26  27
ATOM     27  N   UNL A   1      33.733  30.275  26.591  1.00  0.00    -0.352 N 
ATOM     28  C   UNL A   1      34.544  30.896  27.509  1.00  0.00     0.251 C 
ATOM     29  H   UNL A   1      33.064  30.857  26.164  1.00  0.00     0.163 HD
ATOM     30  O   UNL A   1      34.200  31.996  27.941  1.00  0.00    -0.269 OA
BRANCH  28  31
ATOM     31  C   UNL A   1      35.810  30.283  27.990  1.00  0.00     0.039 A 
ATOM     32  C   UNL A   1      35.813  29.664  29.246  1.00  0.00     0.014 A 
ATOM     33  C   UNL A   1      37.012  30.392  27.284  1.00  0.00     0.014 A 
ATOM     34  C   UNL A   1      36.999  29.142  29.778  1.00  0.00     0.010 A 
ATOM     35  C   UNL A   1      38.182  29.809  27.783  1.00  0.00     0.010 A 
ATOM     36  C   UNL A   1      38.197  29.198  29.046  1.00  0.00    -0.014 A 
BRANCH  36  37
ATOM     37  C   UNL A   1      39.462  28.640  29.603  1.00  0.00     0.031 A 
ATOM     38  C   UNL A   1      40.102  29.249  30.825  1.00  0.00     0.074 A 
ATOM     39  C   UNL A   1      40.072  27.610  28.981  1.00  0.00     0.049 A 
ATOM     40  N   UNL A   1      41.203  28.898  31.441  1.00  0.00    -0.248 NA
ATOM     41  C   UNL A   1      39.430  30.414  31.423  1.00  0.00     0.031 C 
ATOM     42  C   UNL A   1      39.603  26.971  27.750  1.00  0.00     0.029 A 
ATOM     43  N   UNL A   1      41.227  26.934  29.287  1.00  0.00    -0.354 N 
ATOM     44  C   UNL A   1      41.375  29.815  32.473  1.00  0.00     0.074 A 
ATOM     45  C   UNL A   1      40.279  30.756  32.383  1.00  0.00     0.031 C 
ATOM     46  C   UNL A   1      40.459  25.995  27.408  1.00  0.00     0.029 A 
ATOM     47  C   UNL A   1      41.549  25.952  28.380  1.00  0.00     0.049 A 
ATOM     48  H   UNL A   1      41.774  27.133  30.081  1.00  0.00     0.167 HD
ATOM     49  C   UNL A   1      42.335  29.856  33.429  1.00  0.00     0.034 A 
ATOM     50  C   UNL A   1      42.601  25.110  28.330  1.00  0.00     0.034 A 
ATOM     51  C   UNL A   1      43.397  28.893  33.554  1.00  0.00     0.049 A 
ATOM     52  C   UNL A   1      43.628  25.144  29.430  1.00  0.00     0.074 A 
ATOM     53  C   UNL A   1      44.361  28.799  34.544  1.00  0.00     0.029 A 
ATOM     54  N   UNL A   1      43.640  27.860  32.662  1.00  0.00    -0.354 N 
ATOM     55  N   UNL A   1      43.677  25.915  30.489  1.00  0.00    -0.248 NA
ATOM     56  C   UNL A   1      44.725  24.167  29.348  1.00  0.00     0.031 C 
ATOM     57  C   UNL A   1      45.199  27.721  34.240  1.00  0.00     0.029 A 
ATOM     58  C   UNL A   1      44.744  27.130  33.072  1.00  0.00     0.049 A 
ATOM     59  H   UNL A   1      43.108  27.673  31.856  1.00  0.00     0.167 HD
ATOM     60  C   UNL A   1      44.786  25.494  31.215  1.00  0.00     0.074 A 
ATOM     61  C   UNL A   1      45.368  24.386  30.488  1.00  0.00     0.031 C 
ATOM     62  C   UNL A   1      45.286  25.994  32.373  1.00  0.00     0.034 A 
BRANCH  49  63
ATOM     63  C   UNL A   1      42.249  30.949  34.464  1.00  0.00     0.023 A 
ATOM     64  C   UNL A   1      41.566  30.706  35.673  1.00  0.00     0.012 A 
ATOM     65  C   UNL A   1      42.898  32.185  34.274  1.00  0.00     0.148 A 
ATOM     66  C   UNL A   1      41.500  31.686  36.663  1.00  0.00     0.002 A 
ATOM     67  C   UNL A   1      42.865  33.142  35.283  1.00  0.00     0.091 A 
ATOM     68  F   UNL A   1      43.528  32.406  33.112  1.00  0.00    -0.205 F 
ATOM     69  C   UNL A   1      42.158  32.898  36.472  1.00  0.00     0.022 A 
BRANCH  67  70
ATOM     70  S   UNL A   1      43.745  34.704  35.166  1.00  0.00     0.127 S 
ATOM     71  O   UNL A   1      43.037  35.360  34.068  1.00  0.00    -0.237 OA
ATOM     72  O   UNL A   1      43.506  35.294  36.483  1.00  0.00    -0.237 OA
ATOM     73  O   UNL A   1      45.135  34.361  34.898  1.00  0.00    -0.744 OA
ENDBRANCH  67  70
ENDBRANCH  49  63
BRANCH  50  74
ATOM     74  C   UNL A   1      42.698  24.112  27.228  1.00  0.00     0.023 A 
ATOM     75  C   UNL A   1      43.490  24.399  26.099  1.00  0.00     0.012 A 
ATOM     76  C   UNL A   1      42.044  22.868  27.310  1.00  0.00     0.148 A 
ATOM     77  C   UNL A   1      43.604  23.477  25.058  1.00  0.00     0.002 A 
ATOM     78  C   UNL A   1      42.212  21.930  26.299  1.00  0.00     0.091 A 
ATOM     79  F   UNL A   1      41.280  22.619  28.384  1.00  0.00    -0.205 F 
ATOM     80  C   UNL A   1      42.977  22.238  25.163  1.00  0.00     0.022 A 
BRANCH  78  81
ATOM     81  S   UNL A   1      41.563  20.259  26.435  1.00  0.00     0.127 S 
ATOM     82  O   UNL A   1      40.129  20.483  26.299  1.00  0.00    -0.237 OA
ATOM     83  O   UNL A   1      42.197  19.591  25.299  1.00  0.00    -0.237 OA
ATOM     84  O   UNL A   1      42.017  19.774  27.735  1.00  0.00    -0.744 OA
ENDBRANCH  78  81
ENDBRANCH  50  74
BRANCH  62  85
ATOM     85  C   UNL A   1      46.512  25.335  32.950  1.00  0.00     0.023 A 
ATOM     86  C   UNL A   1      47.791  25.806  32.597  1.00  0.00     0.012 A 
ATOM     87  C   UNL A   1      46.394  24.296  33.896  1.00  0.00     0.148 A 
ATOM     88  C   UNL A   1      48.936  25.235  33.152  1.00  0.00     0.002 A 
ATOM     89  C   UNL A   1      47.538  23.763  34.479  1.00  0.00     0.091 A 
ATOM     90  F   UNL A   1      45.169  23.847  34.205  1.00  0.00    -0.205 F 
ATOM     91  C   UNL A   1      48.809  24.223  34.100  1.00  0.00     0.022 A 
BRANCH  89  92
ATOM     92  S   UNL A   1      47.465  22.522  35.777  1.00  0.00     0.127 S 
ATOM     93  O   UNL A   1      48.873  22.152  35.915  1.00  0.00    -0.237 OA
ATOM     94  O   UNL A   1      46.921  23.280  36.904  1.00  0.00    -0.237 OA
ATOM     95  O   UNL A   1      46.587  21.473  35.277  1.00  0.00    -0.744 OA
ENDBRANCH  89  92
ENDBRANCH  62  85
ENDBRANCH  36  37
ENDBRANCH  28  31
ENDBRANCH  26  27
ENDBRANCH  25  26
ENDBRANCH  24  25
ENDBRANCH   3  24
TORSDOF 21
ENDMDL
MODEL 2
REMARK VINA RESULT:     -10.1      2.512      4.646
REMARK SMILES CCN(Cc1ccccn1)C(=O)[C@H]([NH3+])CCC(=O)NCCCNC(=O)c1ccc(-c2c3nc(c(-c4cccc(S(=O)(=O)[O-])c4F)c4ccc([nH]4)c(-c4cccc(S(=O)(=O)[O-])c4F)c4nc(c(-c5cccc(S(=O)(=O)[O-])c5F)c5ccc2[nH]5)C=C4)C=C3)cc1
REMARK SMILES IDX 17 1 18 2 19 3 16 5 15 6 13 7 11 8 12 9 3 10 2 11 1 12 4 13
REMARK SMILES IDX 5 14 6 15 10 16 7 17 9 18 8 19 14 20 20 24 21 25 22 26 23 27
REMARK SMILES IDX 24 28 25 30 26 31 27 32 88 33 28 34 87 35 29 36 30 37 31 38
REMARK SMILES IDX 81 39 32 40 86 41 80 42 82 43 33 44 85 45 79 46 78 47 34 49
REMARK SMILES IDX 66 50 46 51 65 52 47 53 50 54 64 55 83 56 48 57 49 58 63 60
REMARK SMILES IDX 84 61 51 62 35 63 36 64 44 65 37 66 39 67 45 68 38 69 40 70
REMARK SMILES IDX 41 71 42 72 43 73 67 74 68 75 76 76 69 77 71 78 77 79 70 80
REMARK SMILES IDX 72 81 73 82 74 83 75 84 52 85 53 86 61 87 54 88 56 89 62 90
REMARK SMILES IDX 55 91 57 92 58 93 59 94 60 95
REMARK H PARENT 19 4 14 21 14 22 14 23 23 29 82 48 50 59
REMARK Flexibility Score: inf
ROOT
ATOM      1  C   UNL A   1      33.346  28.025  22.457  1.00  0.00     0.220 C 
ATOM      2  O   UNL A   1      34.434  28.305  21.945  1.00  0.00    -0.275 OA
ATOM      3  N   UNL A   1      32.576  29.054  22.907  1.00  0.00    -0.356 N 
ATOM      4  H   UNL A   1      32.994  29.939  22.800  1.00  0.00     0.163 HD
ENDROOT
BRANCH   1   5
ATOM      5  C   UNL A   1      32.884  26.582  22.548  1.00  0.00     0.106 C 
BRANCH   5   6
ATOM      6  C   UNL A   1      32.953  26.007  23.969  1.00  0.00     0.085 C 
BRANCH   6   7
ATOM      7  C   UNL A   1      33.040  24.479  24.015  1.00  0.00     0.271 C 
BRANCH   7   8
ATOM      8  C   UNL A   1      32.859  23.909  25.450  1.00  0.00     0.281 C 
ATOM      9  O   UNL A   1      32.855  24.665  26.425  1.00  0.00    -0.268 OA
BRANCH   8  10
ATOM     10  N   UNL A   1      32.847  22.518  25.597  1.00  0.00    -0.332 N 
BRANCH  10  11
ATOM     11  C   UNL A   1      31.780  21.763  24.936  1.00  0.00     0.116 C 
ATOM     12  C   UNL A   1      32.364  20.795  23.915  1.00  0.00     0.027 C 
ENDBRANCH  10  11
BRANCH  10  13
ATOM     13  C   UNL A   1      33.763  21.752  26.455  1.00  0.00     0.175 C 
BRANCH  13  14
ATOM     14  C   UNL A   1      35.202  21.753  25.964  1.00  0.00     0.060 A 
ATOM     15  C   UNL A   1      35.725  20.631  25.321  1.00  0.00     0.026 A 
ATOM     16  N   UNL A   1      35.927  22.888  26.152  1.00  0.00    -0.259 NA
ATOM     17  C   UNL A   1      37.026  20.679  24.829  1.00  0.00     0.004 A 
ATOM     18  C   UNL A   1      37.193  22.894  25.673  1.00  0.00     0.111 A 
ATOM     19  C   UNL A   1      37.777  21.832  25.005  1.00  0.00     0.020 A 
ENDBRANCH  13  14
ENDBRANCH  10  13
ENDBRANCH   8  10
ENDBRANCH   7   8
BRANCH   7  20
ATOM     20  N   UNL A   1      34.346  24.000  23.511  1.00  0.00    -0.347 N 
ATOM     21  H   UNL A   1      34.226  23.604  22.580  1.00  0.00     0.345 HD
ATOM     22  H   UNL A   1      34.710  23.284  24.141  1.00  0.00     0.345 HD
ATOM     23  H   UNL A   1      35.002  24.780  23.468  1.00  0.00     0.345 HD
ENDBRANCH   7  20
ENDBRANCH   6   7
ENDBRANCH   5   6
ENDBRANCH   1   5
BRANCH   3  24
ATOM     24  C   UNL A   1      31.256  29.096  23.516  1.00  0.00     0.117 C 
BRANCH  24  25
ATOM     25  C   UNL A   1      31.294  29.140  25.044  1.00  0.00     0.042 C 
BRANCH  25  26
ATOM     26  C   UNL A   1      32.561  29.746  25.639  1.00  0.00     0.118 C 
BRANCH  26  27
ATOM     27  N   UNL A   1      32.354  31.140  26.001  1.00  0.00    -0.352 N 
ATOM     28  C   UNL A   1      32.957  31.899  26.974  1.00  0.00     0.251 C 
ATOM     29  H   UNL A   1      31.676  31.611  25.464  1.00  0.00     0.163 HD
ATOM     30  O   UNL A   1      32.425  32.960  27.299  1.00  0.00    -0.269 OA
BRANCH  28  31
ATOM     31  C   UNL A   1      34.220  31.479  27.637  1.00  0.00     0.039 A 
ATOM     32  C   UNL A   1      34.365  30.134  27.998  1.00  0.00     0.014 A 
ATOM     33  C   UNL A   1      35.216  32.391  28.001  1.00  0.00     0.014 A 
ATOM     34  C   UNL A   1      35.502  29.705  28.696  1.00  0.00     0.010 A 
ATOM     35  C   UNL A   1      36.383  31.950  28.635  1.00  0.00     0.010 A 
ATOM     36  C   UNL A   1      36.530  30.606  29.012  1.00  0.00    -0.014 A 
BRANCH  36  37
ATOM     37  C   UNL A   1      37.745  30.156  29.750  1.00  0.00     0.031 A 
ATOM     38  C   UNL A   1      38.024  30.646  31.148  1.00  0.00     0.074 A 
ATOM     39  C   UNL A   1      38.632  29.340  29.145  1.00  0.00     0.049 A 
ATOM     40  N   UNL A   1      39.034  30.365  31.934  1.00  0.00    -0.248 NA
ATOM     41  C   UNL A   1      37.059  31.590  31.733  1.00  0.00     0.031 C 
ATOM     42  C   UNL A   1      38.524  28.847  27.771  1.00  0.00     0.029 A 
ATOM     43  N   UNL A   1      39.808  28.798  29.601  1.00  0.00    -0.354 N 
ATOM     44  C   UNL A   1      38.843  31.118  33.088  1.00  0.00     0.074 A 
ATOM     45  C   UNL A   1      37.637  31.892  32.888  1.00  0.00     0.031 C 
ATOM     46  C   UNL A   1      39.587  28.073  27.497  1.00  0.00     0.029 A 
ATOM     47  C   UNL A   1      40.463  28.032  28.665  1.00  0.00     0.049 A 
ATOM     48  H   UNL A   1      40.151  28.944  30.512  1.00  0.00     0.167 HD
ATOM     49  C   UNL A   1      39.583  31.142  34.224  1.00  0.00     0.034 A 
ATOM     50  C   UNL A   1      41.637  27.371  28.733  1.00  0.00     0.034 A 
ATOM     51  C   UNL A   1      40.753  30.337  34.448  1.00  0.00     0.049 A 
ATOM     52  C   UNL A   1      42.415  27.376  30.021  1.00  0.00     0.074 A 
ATOM     53  C   UNL A   1      41.514  30.226  35.600  1.00  0.00     0.029 A 
ATOM     54  N   UNL A   1      41.338  29.508  33.504  1.00  0.00    -0.354 N 
ATOM     55  N   UNL A   1      42.126  27.965  31.157  1.00  0.00    -0.248 NA
ATOM     56  C   UNL A   1      43.661  26.595  30.051  1.00  0.00     0.031 C 
ATOM     57  C   UNL A   1      42.569  29.343  35.346  1.00  0.00     0.029 A 
ATOM     58  C   UNL A   1      42.454  28.889  34.042  1.00  0.00     0.049 A 
ATOM     59  H   UNL A   1      41.009  29.378  32.585  1.00  0.00     0.167 HD
ATOM     60  C   UNL A   1      43.133  27.598  32.043  1.00  0.00     0.074 A 
ATOM     61  C   UNL A   1      44.028  26.718  31.320  1.00  0.00     0.031 C 
ATOM     62  C   UNL A   1      43.309  27.972  33.335  1.00  0.00     0.034 A 
BRANCH  49  63
ATOM     63  C   UNL A   1      39.112  32.030  35.348  1.00  0.00     0.023 A 
ATOM     64  C   UNL A   1      38.164  31.539  36.269  1.00  0.00     0.012 A 
ATOM     65  C   UNL A   1      39.654  33.317  35.536  1.00  0.00     0.148 A 
ATOM     66  C   UNL A   1      37.737  32.324  37.338  1.00  0.00     0.002 A 
ATOM     67  C   UNL A   1      39.255  34.079  36.630  1.00  0.00     0.091 A 
ATOM     68  F   UNL A   1      40.541  33.776  34.642  1.00  0.00    -0.205 F 
ATOM     69  C   UNL A   1      38.290  33.588  37.525  1.00  0.00     0.022 A 
BRANCH  67  70
ATOM     70  S   UNL A   1      39.965  35.687  37.001  1.00  0.00     0.127 S 
ATOM     71  O   UNL A   1      41.380  35.355  37.161  1.00  0.00    -0.237 OA
ATOM     72  O   UNL A   1      39.652  36.450  35.792  1.00  0.00    -0.237 OA
ATOM     73  O   UNL A   1      39.291  36.153  38.204  1.00  0.00    -0.744 OA
ENDBRANCH  67  70
ENDBRANCH  49  63
BRANCH  50  74
ATOM     74  C   UNL A   1      42.114  26.589  27.558  1.00  0.00     0.023 A 
ATOM     75  C   UNL A   1      42.858  27.233  26.551  1.00  0.00     0.012 A 
ATOM     76  C   UNL A   1      41.869  25.206  27.453  1.00  0.00     0.148 A 
ATOM     77  C   UNL A   1      43.325  26.520  25.446  1.00  0.00     0.002 A 
ATOM     78  C   UNL A   1      42.389  24.491  26.381  1.00  0.00     0.091 A 
ATOM     79  F   UNL A   1      41.142  24.613  28.412  1.00  0.00    -0.205 F 
ATOM     80  C   UNL A   1      43.102  25.148  25.366  1.00  0.00     0.022 A 
BRANCH  78  81
ATOM     81  S   UNL A   1      42.275  22.700  26.290  1.00  0.00     0.127 S 
ATOM     82  O   UNL A   1      40.833  22.488  26.336  1.00  0.00    -0.237 OA
ATOM     83  O   UNL A   1      42.902  22.419  24.999  1.00  0.00    -0.237 OA
ATOM     84  O   UNL A   1      43.034  22.207  27.436  1.00  0.00    -0.744 OA
ENDBRANCH  78  81
ENDBRANCH  50  74
BRANCH  62  85
ATOM     85  C   UNL A   1      44.500  27.413  34.070  1.00  0.00     0.023 A 
ATOM     86  C   UNL A   1      45.726  28.106  34.046  1.00  0.00     0.012 A 
ATOM     87  C   UNL A   1      44.384  26.240  34.844  1.00  0.00     0.148 A 
ATOM     88  C   UNL A   1      46.827  27.626  34.753  1.00  0.00     0.002 A 
ATOM     89  C   UNL A   1      45.473  25.792  35.584  1.00  0.00     0.091 A 
ATOM     90  F   UNL A   1      43.215  25.583  34.840  1.00  0.00    -0.205 F 
ATOM     91  C   UNL A   1      46.697  26.477  35.530  1.00  0.00     0.022 A 
BRANCH  89  92
ATOM     92  S   UNL A   1      45.369  24.376  36.685  1.00  0.00     0.127 S 
ATOM     93  O   UNL A   1      46.750  24.258  37.149  1.00  0.00    -0.237 OA
ATOM     94  O   UNL A   1      44.422  24.838  37.700  1.00  0.00    -0.237 OA
ATOM     95  O   UNL A   1      44.884  23.271  35.869  1.00  0.00    -0.744 OA
ENDBRANCH  89  92
ENDBRANCH  62  85
ENDBRANCH  36  37
ENDBRANCH  28  31
ENDBRANCH  26  27
ENDBRANCH  25  26
ENDBRANCH  24  25
ENDBRANCH   3  24
TORSDOF 21
ENDMDL
MODEL 3
REMARK VINA RESULT:     -10.1      3.000      4.970
REMARK SMILES CCN(Cc1ccccn1)C(=O)[C@H]([NH3+])CCC(=O)NCCCNC(=O)c1ccc(-c2c3nc(c(-c4cccc(S(=O)(=O)[O-])c4F)c4ccc([nH]4)c(-c4cccc(S(=O)(=O)[O-])c4F)c4nc(c(-c5cccc(S(=O)(=O)[O-])c5F)c5ccc2[nH]5)C=C4)C=C3)cc1
REMARK SMILES IDX 17 1 18 2 19 3 16 5 15 6 13 7 11 8 12 9 3 10 2 11 1 12 4 13
REMARK SMILES IDX 5 14 6 15 10 16 7 17 9 18 8 19 14 20 20 24 21 25 22 26 23 27
REMARK SMILES IDX 24 28 25 30 26 31 27 32 88 33 28 34 87 35 29 36 30 37 31 38
REMARK SMILES IDX 81 39 32 40 86 41 80 42 82 43 33 44 85 45 79 46 78 47 34 49
REMARK SMILES IDX 66 50 46 51 65 52 47 53 50 54 64 55 83 56 48 57 49 58 63 60
REMARK SMILES IDX 84 61 51 62 35 63 36 64 44 65 37 66 39 67 45 68 38 69 40 70
REMARK SMILES IDX 41 71 42 72 43 73 67 74 68 75 76 76 69 77 71 78 77 79 70 80
REMARK SMILES IDX 72 81 73 82 74 83 75 84 52 85 53 86 61 87 54 88 56 89 62 90
REMARK SMILES IDX 55 91 57 92 58 93 59 94 60 95
REMARK H PARENT 19 4 14 21 14 22 14 23 23 29 82 48 50 59
REMARK Flexibility Score: inf
ROOT
ATOM      1  C   UNL A   1      31.713  25.231  25.871  1.00  0.00     0.220 C 
ATOM      2  O   UNL A   1      30.700  24.671  26.296  1.00  0.00    -0.275 OA
ATOM      3  N   UNL A   1      31.568  26.092  24.826  1.00  0.00    -0.356 N 
ATOM      4  H   UNL A   1      30.644  26.158  24.491  1.00  0.00     0.163 HD
ENDROOT
BRANCH   1   5
ATOM      5  C   UNL A   1      33.062  24.982  26.519  1.00  0.00     0.106 C 
BRANCH   5   6
ATOM      6  C   UNL A   1      33.395  23.492  26.683  1.00  0.00     0.085 C 
BRANCH   6   7
ATOM      7  C   UNL A   1      34.622  23.041  25.887  1.00  0.00     0.271 C 
BRANCH   7   8
ATOM      8  C   UNL A   1      34.426  21.655  25.212  1.00  0.00     0.281 C 
ATOM      9  O   UNL A   1      35.317  20.803  25.266  1.00  0.00    -0.268 OA
BRANCH   8  10
ATOM     10  N   UNL A   1      33.279  21.471  24.432  1.00  0.00    -0.332 N 
BRANCH  10  11
ATOM     11  C   UNL A   1      33.098  22.328  23.258  1.00  0.00     0.116 C 
ATOM     12  C   UNL A   1      31.649  22.785  23.148  1.00  0.00     0.027 C 
ENDBRANCH  10  11
BRANCH  10  13
ATOM     13  C   UNL A   1      32.175  20.556  24.757  1.00  0.00     0.175 C 
BRANCH  13  14
ATOM     14  C   UNL A   1      32.530  19.088  24.579  1.00  0.00     0.060 A 
ATOM     15  C   UNL A   1      32.887  18.599  23.322  1.00  0.00     0.026 A 
ATOM     16  N   UNL A   1      32.511  18.300  25.687  1.00  0.00    -0.259 NA
ATOM     17  C   UNL A   1      33.264  17.265  23.197  1.00  0.00     0.004 A 
ATOM     18  C   UNL A   1      32.870  17.005  25.526  1.00  0.00     0.111 A 
ATOM     19  C   UNL A   1      33.258  16.450  24.318  1.00  0.00     0.020 A 
ENDBRANCH  13  14
ENDBRANCH  10  13
ENDBRANCH   8  10
ENDBRANCH   7   8
BRANCH   7  20
ATOM     20  N   UNL A   1      35.819  22.944  26.752  1.00  0.00    -0.347 N 
ATOM     21  H   UNL A   1      36.387  22.150  26.459  1.00  0.00     0.345 HD
ATOM     22  H   UNL A   1      35.527  22.813  27.721  1.00  0.00     0.345 HD
ATOM     23  H   UNL A   1      36.365  23.802  26.675  1.00  0.00     0.345 HD
ENDBRANCH   7  20
ENDBRANCH   6   7
ENDBRANCH   5   6
ENDBRANCH   1   5
BRANCH   3  24
ATOM     24  C   UNL A   1      32.515  26.934  24.111  1.00  0.00     0.117 C 
BRANCH  24  25
ATOM     25  C   UNL A   1      32.160  28.420  24.158  1.00  0.00     0.042 C 
BRANCH  25  26
ATOM     26  C   UNL A   1      33.254  29.326  24.715  1.00  0.00     0.118 C 
BRANCH  26  27
ATOM     27  N   UNL A   1      32.682  30.455  25.433  1.00  0.00    -0.352 N 
ATOM     28  C   UNL A   1      33.014  30.984  26.657  1.00  0.00     0.251 C 
ATOM     29  H   UNL A   1      31.942  30.910  24.970  1.00  0.00     0.163 HD
ATOM     30  O   UNL A   1      32.213  31.744  27.200  1.00  0.00    -0.269 OA
BRANCH  28  31
ATOM     31  C   UNL A   1      34.298  30.665  27.336  1.00  0.00     0.039 A 
ATOM     32  C   UNL A   1      34.503  29.356  27.789  1.00  0.00     0.014 A 
ATOM     33  C   UNL A   1      35.256  31.641  27.625  1.00  0.00     0.014 A 
ATOM     34  C   UNL A   1      35.661  29.025  28.504  1.00  0.00     0.010 A 
ATOM     35  C   UNL A   1      36.445  31.296  28.277  1.00  0.00     0.010 A 
ATOM     36  C   UNL A   1      36.652  29.990  28.746  1.00  0.00    -0.014 A 
BRANCH  36  37
ATOM     37  C   UNL A   1      37.890  29.644  29.501  1.00  0.00     0.031 A 
ATOM     38  C   UNL A   1      38.153  30.234  30.864  1.00  0.00     0.074 A 
ATOM     39  C   UNL A   1      38.812  28.834  28.942  1.00  0.00     0.049 A 
ATOM     40  N   UNL A   1      39.177  30.050  31.659  1.00  0.00    -0.248 NA
ATOM     41  C   UNL A   1      37.146  31.166  31.396  1.00  0.00     0.031 C 
ATOM     42  C   UNL A   1      38.721  28.250  27.603  1.00  0.00     0.029 A 
ATOM     43  N   UNL A   1      40.015  28.378  29.423  1.00  0.00    -0.354 N 
ATOM     44  C   UNL A   1      38.957  30.865  32.764  1.00  0.00     0.074 A 
ATOM     45  C   UNL A   1      37.714  31.567  32.525  1.00  0.00     0.031 C 
ATOM     46  C   UNL A   1      39.819  27.512  27.370  1.00  0.00     0.029 A 
ATOM     47  C   UNL A   1      40.701  27.585  28.532  1.00  0.00     0.049 A 
ATOM     48  H   UNL A   1      40.354  28.596  30.320  1.00  0.00     0.167 HD
ATOM     49  C   UNL A   1      39.700  30.996  33.891  1.00  0.00     0.034 A 
ATOM     50  C   UNL A   1      41.905  26.986  28.633  1.00  0.00     0.034 A 
ATOM     51  C   UNL A   1      40.908  30.261  34.156  1.00  0.00     0.049 A 
ATOM     52  C   UNL A   1      42.687  27.109  29.912  1.00  0.00     0.074 A 
ATOM     53  C   UNL A   1      41.678  30.259  35.308  1.00  0.00     0.029 A 
ATOM     54  N   UNL A   1      41.527  29.403  33.262  1.00  0.00    -0.354 N 
ATOM     55  N   UNL A   1      42.376  27.753  31.010  1.00  0.00    -0.248 NA
ATOM     56  C   UNL A   1      43.969  26.390  29.981  1.00  0.00     0.031 C 
ATOM     57  C   UNL A   1      42.773  29.413  35.102  1.00  0.00     0.029 A 
ATOM     58  C   UNL A   1      42.674  28.872  33.830  1.00  0.00     0.049 A 
ATOM     59  H   UNL A   1      41.201  29.200  32.356  1.00  0.00     0.167 HD
ATOM     60  C   UNL A   1      43.404  27.491  31.910  1.00  0.00     0.074 A 
ATOM     61  C   UNL A   1      44.335  26.610  31.238  1.00  0.00     0.031 C 
ATOM     62  C   UNL A   1      43.568  27.953  33.175  1.00  0.00     0.034 A 
BRANCH  49  63
ATOM     63  C   UNL A   1      39.192  31.930  34.960  1.00  0.00     0.023 A 
ATOM     64  C   UNL A   1      38.164  31.501  35.824  1.00  0.00     0.012 A 
ATOM     65  C   UNL A   1      39.775  33.197  35.158  1.00  0.00     0.148 A 
ATOM     66  C   UNL A   1      37.700  32.329  36.845  1.00  0.00     0.002 A 
ATOM     67  C   UNL A   1      39.337  34.001  36.204  1.00  0.00     0.091 A 
ATOM     68  F   UNL A   1      40.739  33.597  34.316  1.00  0.00    -0.205 F 
ATOM     69  C   UNL A   1      38.293  33.573  37.041  1.00  0.00     0.022 A 
BRANCH  67  70
ATOM     70  S   UNL A   1      40.088  35.587  36.588  1.00  0.00     0.127 S 
ATOM     71  O   UNL A   1      39.666  36.398  35.446  1.00  0.00    -0.237 OA
ATOM     72  O   UNL A   1      39.443  35.938  37.854  1.00  0.00    -0.237 OA
ATOM     73  O   UNL A   1      41.519  35.339  36.685  1.00  0.00    -0.744 OA
ENDBRANCH  67  70
ENDBRANCH  49  63
BRANCH  50  74
ATOM     74  C   UNL A   1      42.413  26.154  27.505  1.00  0.00     0.023 A 
ATOM     75  C   UNL A   1      43.321  26.712  26.586  1.00  0.00     0.012 A 
ATOM     76  C   UNL A   1      42.033  24.805  27.364  1.00  0.00     0.148 A 
ATOM     77  C   UNL A   1      43.820  25.951  25.527  1.00  0.00     0.002 A 
ATOM     78  C   UNL A   1      42.580  24.036  26.344  1.00  0.00     0.091 A 
ATOM     79  F   UNL A   1      41.153  24.296  28.238  1.00  0.00    -0.205 F 
ATOM     80  C   UNL A   1      43.460  24.610  25.413  1.00  0.00     0.022 A 
BRANCH  78  81
ATOM     81  S   UNL A   1      42.285  22.267  26.226  1.00  0.00     0.127 S 
ATOM     82  O   UNL A   1      43.044  21.916  25.032  1.00  0.00    -0.237 OA
ATOM     83  O   UNL A   1      42.847  21.779  27.485  1.00  0.00    -0.237 OA
ATOM     84  O   UNL A   1      40.835  22.124  26.132  1.00  0.00    -0.744 OA
ENDBRANCH  78  81
ENDBRANCH  50  74
BRANCH  62  85
ATOM     85  C   UNL A   1      44.786  27.498  33.935  1.00  0.00     0.023 A 
ATOM     86  C   UNL A   1      45.964  28.270  33.896  1.00  0.00     0.012 A 
ATOM     87  C   UNL A   1      44.742  26.345  34.744  1.00  0.00     0.148 A 
ATOM     88  C   UNL A   1      47.089  27.887  34.626  1.00  0.00     0.002 A 
ATOM     89  C   UNL A   1      45.852  25.994  35.505  1.00  0.00     0.091 A 
ATOM     90  F   UNL A   1      43.620  25.611  34.754  1.00  0.00    -0.205 F 
ATOM     91  C   UNL A   1      47.029  26.757  35.438  1.00  0.00     0.022 A 
BRANCH  89  92
ATOM     92  S   UNL A   1      45.834  24.609  36.649  1.00  0.00     0.127 S 
ATOM     93  O   UNL A   1      47.186  24.662  37.203  1.00  0.00    -0.237 OA
ATOM     94  O   UNL A   1      44.775  24.990  37.585  1.00  0.00    -0.237 OA
ATOM     95  O   UNL A   1      45.531  23.432  35.846  1.00  0.00    -0.744 OA
ENDBRANCH  89  92
ENDBRANCH  62  85
ENDBRANCH  36  37
ENDBRANCH  28  31
ENDBRANCH  26  27
ENDBRANCH  25  26
ENDBRANCH  24  25
ENDBRANCH   3  24
TORSDOF 21
ENDMDL
