MODEL 1
REMARK VINA RESULT:     -11.7      0.000      0.000
REMARK SMILES O=C(NCCCNC(=O)[C@H](CO)NC(=O)[C@H]1CC(=O)N(CC(F)(F)F)C1)c1ccc(-c2c3nc(c(-c4cccc(S(=O)(=O)[O-])c4F)c4ccc([nH]4)c(-c4cccc(S(=O)(=O)[O-])c4F)c4nc(c(-c5cccc(S(=O)(=O)[O-])c5F)c5ccc2[nH]5)C=C4)C=C3)cc1
REMARK SMILES IDX 5 1 4 2 3 3 1 4 2 5 27 7 28 8 89 9 29 10 88 11 30 12 31 13
REMARK SMILES IDX 32 14 82 15 33 16 87 17 81 18 83 19 34 20 86 21 80 22 79 23
REMARK SMILES IDX 35 25 67 26 47 27 66 28 48 29 51 30 65 31 84 32 49 33 50 34
REMARK SMILES IDX 64 36 85 37 52 38 36 39 37 40 45 41 38 42 40 43 46 44 39 45
REMARK SMILES IDX 41 46 42 47 43 48 44 49 68 50 69 51 77 52 70 53 72 54 78 55
REMARK SMILES IDX 71 56 73 57 74 58 75 59 76 60 53 61 54 62 62 63 55 64 57 65
REMARK SMILES IDX 63 66 56 67 58 68 59 69 60 70 61 71 6 72 7 73 8 74 9 76
REMARK SMILES IDX 10 77 13 78 14 79 15 81 16 82 17 83 26 84 18 85 20 86 19 87
REMARK SMILES IDX 21 88 22 89 23 90 24 91 25 92 11 93 12 94
REMARK H PARENT 3 6 83 24 51 35 7 75 13 80 12 95
REMARK Flexibility Score: inf
ROOT
ATOM      1  C   UNL A   1      31.681  28.814  26.271  1.00  0.00     0.042 C 
ENDROOT
BRANCH   1   2
ATOM      2  C   UNL A   1      32.648  29.852  25.717  1.00  0.00     0.118 C 
BRANCH   2   3
ATOM      3  N   UNL A   1      32.353  31.202  26.183  1.00  0.00    -0.352 N 
ATOM      4  O   UNL A   1      32.457  33.006  27.522  1.00  0.00    -0.269 OA
ATOM      5  C   UNL A   1      32.988  31.971  27.130  1.00  0.00     0.251 C 
ATOM      6  H   UNL A   1      31.577  31.629  25.753  1.00  0.00     0.163 HD
BRANCH   5   7
ATOM      7  C   UNL A   1      34.284  31.531  27.689  1.00  0.00     0.039 A 
ATOM      8  C   UNL A   1      34.490  30.192  28.021  1.00  0.00     0.014 A 
ATOM      9  C   UNL A   1      35.299  32.467  27.901  1.00  0.00     0.014 A 
ATOM     10  C   UNL A   1      35.609  29.829  28.755  1.00  0.00     0.010 A 
ATOM     11  C   UNL A   1      36.484  32.071  28.529  1.00  0.00     0.010 A 
ATOM     12  C   UNL A   1      36.627  30.761  29.012  1.00  0.00    -0.014 A 
BRANCH  12  13
ATOM     13  C   UNL A   1      37.840  30.320  29.747  1.00  0.00     0.031 A 
ATOM     14  C   UNL A   1      38.082  30.733  31.175  1.00  0.00     0.074 A 
ATOM     15  C   UNL A   1      38.719  29.515  29.119  1.00  0.00     0.049 A 
ATOM     16  N   UNL A   1      39.067  30.398  31.970  1.00  0.00    -0.248 NA
ATOM     17  C   UNL A   1      37.106  31.647  31.789  1.00  0.00     0.031 C 
ATOM     18  C   UNL A   1      38.608  29.070  27.727  1.00  0.00     0.029 A 
ATOM     19  N   UNL A   1      39.870  28.918  29.564  1.00  0.00    -0.354 N 
ATOM     20  C   UNL A   1      38.860  31.098  33.153  1.00  0.00     0.074 A 
ATOM     21  C   UNL A   1      37.657  31.881  32.971  1.00  0.00     0.031 C 
ATOM     22  C   UNL A   1      39.621  28.239  27.446  1.00  0.00     0.029 A 
ATOM     23  C   UNL A   1      40.490  28.143  28.611  1.00  0.00     0.049 A 
ATOM     24  H   UNL A   1      40.220  29.032  30.477  1.00  0.00     0.167 HD
ATOM     25  C   UNL A   1      39.599  31.082  34.289  1.00  0.00     0.034 A 
ATOM     26  C   UNL A   1      41.639  27.445  28.661  1.00  0.00     0.034 A 
ATOM     27  C   UNL A   1      40.776  30.275  34.473  1.00  0.00     0.049 A 
ATOM     28  C   UNL A   1      42.426  27.434  29.938  1.00  0.00     0.074 A 
ATOM     29  C   UNL A   1      41.554  30.134  35.610  1.00  0.00     0.029 A 
ATOM     30  N   UNL A   1      41.357  29.483  33.494  1.00  0.00    -0.354 N 
ATOM     31  N   UNL A   1      42.148  28.007  31.083  1.00  0.00    -0.248 NA
ATOM     32  C   UNL A   1      43.671  26.654  29.939  1.00  0.00     0.031 C 
ATOM     33  C   UNL A   1      42.627  29.290  35.306  1.00  0.00     0.029 A 
ATOM     34  C   UNL A   1      42.492  28.865  33.994  1.00  0.00     0.049 A 
ATOM     35  H   UNL A   1      41.014  29.377  32.578  1.00  0.00     0.167 HD
ATOM     36  C   UNL A   1      43.160  27.624  31.954  1.00  0.00     0.074 A 
ATOM     37  C   UNL A   1      44.047  26.757  31.206  1.00  0.00     0.031 C 
ATOM     38  C   UNL A   1      43.340  27.965  33.254  1.00  0.00     0.034 A 
BRANCH  25  39
ATOM     39  C   UNL A   1      39.155  31.964  35.431  1.00  0.00     0.023 A 
ATOM     40  C   UNL A   1      39.397  33.352  35.389  1.00  0.00     0.012 A 
ATOM     41  C   UNL A   1      38.451  31.422  36.524  1.00  0.00     0.148 A 
ATOM     42  C   UNL A   1      38.984  34.179  36.434  1.00  0.00     0.002 A 
ATOM     43  C   UNL A   1      37.999  32.259  37.539  1.00  0.00     0.091 A 
ATOM     44  F   UNL A   1      38.244  30.098  36.560  1.00  0.00    -0.205 F 
ATOM     45  C   UNL A   1      38.277  33.634  37.503  1.00  0.00     0.022 A 
BRANCH  43  46
ATOM     46  S   UNL A   1      37.007  31.664  38.914  1.00  0.00     0.127 S 
ATOM     47  O   UNL A   1      37.915  31.869  40.042  1.00  0.00    -0.237 OA
ATOM     48  O   UNL A   1      35.860  32.571  38.882  1.00  0.00    -0.237 OA
ATOM     49  O   UNL A   1      36.691  30.276  38.609  1.00  0.00    -0.744 OA
ENDBRANCH  43  46
ENDBRANCH  25  39
BRANCH  26  50
ATOM     50  C   UNL A   1      42.079  26.658  27.475  1.00  0.00     0.023 A 
ATOM     51  C   UNL A   1      42.785  27.302  26.441  1.00  0.00     0.012 A 
ATOM     52  C   UNL A   1      41.838  25.274  27.386  1.00  0.00     0.148 A 
ATOM     53  C   UNL A   1      43.216  26.585  25.324  1.00  0.00     0.002 A 
ATOM     54  C   UNL A   1      42.322  24.556  26.301  1.00  0.00     0.091 A 
ATOM     55  F   UNL A   1      41.159  24.682  28.380  1.00  0.00    -0.205 F 
ATOM     56  C   UNL A   1      42.995  25.213  25.259  1.00  0.00     0.022 A 
BRANCH  54  57
ATOM     57  S   UNL A   1      42.201  22.767  26.196  1.00  0.00     0.127 S 
ATOM     58  O   UNL A   1      42.841  22.499  24.911  1.00  0.00    -0.237 OA
ATOM     59  O   UNL A   1      42.970  22.346  27.368  1.00  0.00    -0.237 OA
ATOM     60  O   UNL A   1      40.779  22.462  26.269  1.00  0.00    -0.744 OA
ENDBRANCH  54  57
ENDBRANCH  26  50
BRANCH  38  61
ATOM     61  C   UNL A   1      44.510  27.350  33.976  1.00  0.00     0.023 A 
ATOM     62  C   UNL A   1      45.782  27.953  33.914  1.00  0.00     0.012 A 
ATOM     63  C   UNL A   1      44.329  26.194  34.763  1.00  0.00     0.148 A 
ATOM     64  C   UNL A   1      46.865  27.390  34.589  1.00  0.00     0.002 A 
ATOM     65  C   UNL A   1      45.400  25.672  35.477  1.00  0.00     0.091 A 
ATOM     66  F   UNL A   1      43.117  25.622  34.792  1.00  0.00    -0.205 F 
ATOM     67  C   UNL A   1      46.671  26.259  35.380  1.00  0.00     0.022 A 
BRANCH  65  68
ATOM     68  S   UNL A   1      45.216  24.282  36.599  1.00  0.00     0.127 S 
ATOM     69  O   UNL A   1      44.747  23.232  35.698  1.00  0.00    -0.237 OA
ATOM     70  O   UNL A   1      46.582  24.098  37.092  1.00  0.00    -0.237 OA
ATOM     71  O   UNL A   1      44.262  24.709  37.614  1.00  0.00    -0.744 OA
ENDBRANCH  65  68
ENDBRANCH  38  61
ENDBRANCH  12  13
ENDBRANCH   5   7
ENDBRANCH   2   3
ENDBRANCH   1   2
BRANCH   1  72
ATOM     72  C   UNL A   1      31.754  27.473  25.560  1.00  0.00     0.117 C 
BRANCH  72  73
ATOM     73  N   UNL A   1      31.131  27.521  24.249  1.00  0.00    -0.354 N 
ATOM     74  C   UNL A   1      31.658  27.380  23.002  1.00  0.00     0.244 C 
ATOM     75  H   UNL A   1      30.161  27.683  24.264  1.00  0.00     0.163 HD
ATOM     76  O   UNL A   1      30.905  27.552  22.041  1.00  0.00    -0.273 OA
BRANCH  74  77
ATOM     77  C   UNL A   1      33.148  27.085  22.787  1.00  0.00     0.197 C 
BRANCH  77  78
ATOM     78  N   UNL A   1      33.262  25.846  22.011  1.00  0.00    -0.342 N 
ATOM     79  C   UNL A   1      33.540  24.575  22.395  1.00  0.00     0.226 C 
ATOM     80  H   UNL A   1      33.110  25.956  21.045  1.00  0.00     0.164 HD
ATOM     81  O   UNL A   1      33.332  23.685  21.566  1.00  0.00    -0.275 OA
BRANCH  79  82
ATOM     82  C   UNL A   1      34.136  24.221  23.743  1.00  0.00     0.107 C 
ATOM     83  C   UNL A   1      33.083  24.123  24.845  1.00  0.00     0.115 C 
ATOM     84  C   UNL A   1      34.945  22.934  23.773  1.00  0.00     0.133 C 
ATOM     85  C   UNL A   1      33.375  22.825  25.540  1.00  0.00     0.223 C 
ATOM     86  N   UNL A   1      34.440  22.210  24.915  1.00  0.00    -0.333 N 
ATOM     87  O   UNL A   1      32.766  22.381  26.501  1.00  0.00    -0.275 OA
BRANCH  86  88
ATOM     88  C   UNL A   1      34.894  20.864  25.273  1.00  0.00     0.234 C 
BRANCH  88  89
ATOM     89  C   UNL A   1      33.985  19.730  24.798  1.00  0.00     0.406 C 
ATOM     90  F   UNL A   1      33.248  20.121  23.738  1.00  0.00    -0.169 F 
ATOM     91  F   UNL A   1      34.718  18.661  24.406  1.00  0.00    -0.169 F 
ATOM     92  F   UNL A   1      33.136  19.312  25.766  1.00  0.00    -0.169 F 
ENDBRANCH  88  89
ENDBRANCH  86  88
ENDBRANCH  79  82
ENDBRANCH  77  78
BRANCH  77  93
ATOM     93  C   UNL A   1      33.909  28.278  22.198  1.00  0.00     0.191 C 
BRANCH  93  94
ATOM     94  O   UNL A   1      33.708  29.454  22.984  1.00  0.00    -0.394 OA
ATOM     95  H   UNL A   1      34.567  29.815  23.251  1.00  0.00     0.210 HD
ENDBRANCH  93  94
ENDBRANCH  77  93
ENDBRANCH  74  77
ENDBRANCH  72  73
ENDBRANCH   1  72
TORSDOF 19
ENDMDL
MODEL 2
REMARK VINA RESULT:     -11.7      5.443     10.332
REMARK SMILES O=C(NCCCNC(=O)[C@H](CO)NC(=O)[C@H]1CC(=O)N(CC(F)(F)F)C1)c1ccc(-c2c3nc(c(-c4cccc(S(=O)(=O)[O-])c4F)c4ccc([nH]4)c(-c4cccc(S(=O)(=O)[O-])c4F)c4nc(c(-c5cccc(S(=O)(=O)[O-])c5F)c5ccc2[nH]5)C=C4)C=C3)cc1
REMARK SMILES IDX 5 1 4 2 3 3 1 4 2 5 27 7 28 8 89 9 29 10 88 11 30 12 31 13
REMARK SMILES IDX 32 14 82 15 33 16 87 17 81 18 83 19 34 20 86 21 80 22 79 23
REMARK SMILES IDX 35 25 67 26 47 27 66 28 48 29 51 30 65 31 84 32 49 33 50 34
REMARK SMILES IDX 64 36 85 37 52 38 36 39 37 40 45 41 38 42 40 43 46 44 39 45
REMARK SMILES IDX 41 46 42 47 43 48 44 49 68 50 69 51 77 52 70 53 72 54 78 55
REMARK SMILES IDX 71 56 73 57 74 58 75 59 76 60 53 61 54 62 62 63 55 64 57 65
REMARK SMILES IDX 63 66 56 67 58 68 59 69 60 70 61 71 6 72 7 73 8 74 9 76
REMARK SMILES IDX 10 77 13 78 14 79 15 81 16 82 17 83 26 84 18 85 20 86 19 87
REMARK SMILES IDX 21 88 22 89 23 90 24 91 25 92 11 93 12 94
REMARK H PARENT 3 6 83 24 51 35 7 75 13 80 12 95
REMARK Flexibility Score: inf
ROOT
ATOM      1  C   UNL A   1      35.919  21.910  24.071  1.00  0.00     0.042 C 
ENDROOT
BRANCH   1   2
ATOM      2  C   UNL A   1      36.699  22.059  25.371  1.00  0.00     0.118 C 
BRANCH   2   3
ATOM      3  N   UNL A   1      37.667  20.987  25.573  1.00  0.00    -0.352 N 
ATOM      4  O   UNL A   1      39.681  20.043  25.909  1.00  0.00    -0.269 OA
ATOM      5  C   UNL A   1      38.973  21.041  26.003  1.00  0.00     0.251 C 
ATOM      6  H   UNL A   1      37.334  20.083  25.368  1.00  0.00     0.163 HD
BRANCH   5   7
ATOM      7  C   UNL A   1      39.518  22.304  26.544  1.00  0.00     0.039 A 
ATOM      8  C   UNL A   1      39.033  23.531  26.095  1.00  0.00     0.014 A 
ATOM      9  C   UNL A   1      40.539  22.263  27.497  1.00  0.00     0.014 A 
ATOM     10  C   UNL A   1      39.702  24.700  26.426  1.00  0.00     0.010 A 
ATOM     11  C   UNL A   1      41.129  23.455  27.928  1.00  0.00     0.010 A 
ATOM     12  C   UNL A   1      40.754  24.680  27.355  1.00  0.00    -0.014 A 
BRANCH  12  13
ATOM     13  C   UNL A   1      41.406  25.960  27.733  1.00  0.00     0.031 A 
ATOM     14  C   UNL A   1      42.812  26.281  27.296  1.00  0.00     0.074 A 
ATOM     15  C   UNL A   1      40.706  26.852  28.460  1.00  0.00     0.049 A 
ATOM     16  N   UNL A   1      43.507  27.370  27.504  1.00  0.00    -0.248 NA
ATOM     17  C   UNL A   1      43.537  25.247  26.540  1.00  0.00     0.031 C 
ATOM     18  C   UNL A   1      39.347  26.643  28.967  1.00  0.00     0.029 A 
ATOM     19  N   UNL A   1      41.027  28.113  28.892  1.00  0.00    -0.354 N 
ATOM     20  C   UNL A   1      44.763  27.135  26.956  1.00  0.00     0.074 A 
ATOM     21  C   UNL A   1      44.736  25.796  26.409  1.00  0.00     0.031 C 
ATOM     22  C   UNL A   1      38.935  27.750  29.600  1.00  0.00     0.029 A 
ATOM     23  C   UNL A   1      40.022  28.721  29.606  1.00  0.00     0.049 A 
ATOM     24  H   UNL A   1      41.894  28.542  28.709  1.00  0.00     0.167 HD
ATOM     25  C   UNL A   1      45.835  27.962  26.905  1.00  0.00     0.034 A 
ATOM     26  C   UNL A   1      39.980  29.921  30.213  1.00  0.00     0.034 A 
ATOM     27  C   UNL A   1      45.843  29.304  27.423  1.00  0.00     0.049 A 
ATOM     28  C   UNL A   1      41.177  30.820  30.125  1.00  0.00     0.074 A 
ATOM     29  C   UNL A   1      46.856  30.246  27.358  1.00  0.00     0.029 A 
ATOM     30  N   UNL A   1      44.796  29.894  28.116  1.00  0.00    -0.354 N 
ATOM     31  N   UNL A   1      42.311  30.624  29.498  1.00  0.00    -0.248 NA
ATOM     32  C   UNL A   1      41.078  32.120  30.803  1.00  0.00     0.031 C 
ATOM     33  C   UNL A   1      46.436  31.390  28.046  1.00  0.00     0.029 A 
ATOM     34  C   UNL A   1      45.143  31.180  28.498  1.00  0.00     0.049 A 
ATOM     35  H   UNL A   1      43.933  29.462  28.308  1.00  0.00     0.167 HD
ATOM     36  C   UNL A   1      43.046  31.791  29.670  1.00  0.00     0.074 A 
ATOM     37  C   UNL A   1      42.219  32.693  30.446  1.00  0.00     0.031 C 
ATOM     38  C   UNL A   1      44.293  32.086  29.228  1.00  0.00     0.034 A 
BRANCH  25  39
ATOM     39  C   UNL A   1      47.097  27.440  26.262  1.00  0.00     0.023 A 
ATOM     40  C   UNL A   1      47.389  27.753  24.919  1.00  0.00     0.012 A 
ATOM     41  C   UNL A   1      48.021  26.680  27.008  1.00  0.00     0.148 A 
ATOM     42  C   UNL A   1      48.557  27.283  24.316  1.00  0.00     0.002 A 
ATOM     43  C   UNL A   1      49.206  26.258  26.416  1.00  0.00     0.091 A 
ATOM     44  F   UNL A   1      47.721  26.375  28.278  1.00  0.00    -0.205 F 
ATOM     45  C   UNL A   1      49.469  26.545  25.067  1.00  0.00     0.022 A 
BRANCH  43  46
ATOM     46  S   UNL A   1      50.480  25.374  27.324  1.00  0.00     0.127 S 
ATOM     47  O   UNL A   1      50.888  26.377  28.308  1.00  0.00    -0.237 OA
ATOM     48  O   UNL A   1      49.735  24.245  27.880  1.00  0.00    -0.237 OA
ATOM     49  O   UNL A   1      51.492  25.010  26.343  1.00  0.00    -0.744 OA
ENDBRANCH  43  46
ENDBRANCH  25  39
BRANCH  26  50
ATOM     50  C   UNL A   1      38.737  30.355  30.911  1.00  0.00     0.023 A 
ATOM     51  C   UNL A   1      38.596  30.110  32.290  1.00  0.00     0.012 A 
ATOM     52  C   UNL A   1      37.717  31.042  30.225  1.00  0.00     0.148 A 
ATOM     53  C   UNL A   1      37.446  30.515  32.968  1.00  0.00     0.002 A 
ATOM     54  C   UNL A   1      36.602  31.494  30.919  1.00  0.00     0.091 A 
ATOM     55  F   UNL A   1      37.869  31.259  28.911  1.00  0.00    -0.205 F 
ATOM     56  C   UNL A   1      36.456  31.216  32.286  1.00  0.00     0.022 A 
BRANCH  54  57
ATOM     57  S   UNL A   1      35.340  32.519  30.155  1.00  0.00     0.127 S 
ATOM     58  O   UNL A   1      34.901  31.676  29.046  1.00  0.00    -0.237 OA
ATOM     59  O   UNL A   1      34.372  32.663  31.243  1.00  0.00    -0.237 OA
ATOM     60  O   UNL A   1      36.011  33.757  29.780  1.00  0.00    -0.744 OA
ENDBRANCH  54  57
ENDBRANCH  26  50
BRANCH  38  61
ATOM     61  C   UNL A   1      44.824  33.466  29.519  1.00  0.00     0.023 A 
ATOM     62  C   UNL A   1      45.516  33.724  30.719  1.00  0.00     0.012 A 
ATOM     63  C   UNL A   1      44.676  34.496  28.569  1.00  0.00     0.148 A 
ATOM     64  C   UNL A   1      46.015  34.998  30.986  1.00  0.00     0.002 A 
ATOM     65  C   UNL A   1      45.226  35.747  28.818  1.00  0.00     0.091 A 
ATOM     66  F   UNL A   1      43.995  34.237  27.443  1.00  0.00    -0.205 F 
ATOM     67  C   UNL A   1      45.882  36.005  30.032  1.00  0.00     0.022 A 
BRANCH  65  68
ATOM     68  S   UNL A   1      45.191  37.068  27.603  1.00  0.00     0.127 S 
ATOM     69  O   UNL A   1      43.755  37.296  27.452  1.00  0.00    -0.237 OA
ATOM     70  O   UNL A   1      45.911  38.142  28.289  1.00  0.00    -0.237 OA
ATOM     71  O   UNL A   1      45.869  36.546  26.424  1.00  0.00    -0.744 OA
ENDBRANCH  65  68
ENDBRANCH  38  61
ENDBRANCH  12  13
ENDBRANCH   5   7
ENDBRANCH   2   3
ENDBRANCH   1   2
BRANCH   1  72
ATOM     72  C   UNL A   1      34.644  22.736  24.029  1.00  0.00     0.117 C 
BRANCH  72  73
ATOM     73  N   UNL A   1      33.466  21.925  24.283  1.00  0.00    -0.354 N 
ATOM     74  C   UNL A   1      32.598  21.912  25.330  1.00  0.00     0.244 C 
ATOM     75  H   UNL A   1      33.259  21.272  23.575  1.00  0.00     0.163 HD
ATOM     76  O   UNL A   1      31.716  21.050  25.330  1.00  0.00    -0.273 OA
BRANCH  74  77
ATOM     77  C   UNL A   1      32.742  22.885  26.507  1.00  0.00     0.197 C 
BRANCH  77  78
ATOM     78  N   UNL A   1      31.447  23.541  26.718  1.00  0.00    -0.342 N 
ATOM     79  C   UNL A   1      31.047  24.818  26.494  1.00  0.00     0.226 C 
ATOM     80  H   UNL A   1      30.749  22.954  27.087  1.00  0.00     0.164 HD
ATOM     81  O   UNL A   1      29.833  25.036  26.534  1.00  0.00    -0.275 OA
BRANCH  79  82
ATOM     82  C   UNL A   1      32.009  25.967  26.262  1.00  0.00     0.107 C 
ATOM     83  C   UNL A   1      32.761  25.846  24.938  1.00  0.00     0.115 C 
ATOM     84  C   UNL A   1      31.382  27.351  26.302  1.00  0.00     0.133 C 
ATOM     85  C   UNL A   1      32.627  27.196  24.296  1.00  0.00     0.223 C 
ATOM     86  N   UNL A   1      31.865  28.007  25.111  1.00  0.00    -0.333 N 
ATOM     87  O   UNL A   1      33.110  27.523  23.223  1.00  0.00    -0.275 OA
BRANCH  86  88
ATOM     88  C   UNL A   1      31.442  29.352  24.711  1.00  0.00     0.234 C 
BRANCH  88  89
ATOM     89  C   UNL A   1      30.309  29.392  23.684  1.00  0.00     0.406 C 
ATOM     90  F   UNL A   1      29.482  30.430  23.926  1.00  0.00    -0.169 F 
ATOM     91  F   UNL A   1      30.801  29.552  22.434  1.00  0.00    -0.169 F 
ATOM     92  F   UNL A   1      29.569  28.258  23.692  1.00  0.00    -0.169 F 
ENDBRANCH  88  89
ENDBRANCH  86  88
ENDBRANCH  79  82
ENDBRANCH  77  78
BRANCH  77  93
ATOM     93  C   UNL A   1      33.331  22.221  27.757  1.00  0.00     0.191 C 
BRANCH  93  94
ATOM     94  O   UNL A   1      33.977  20.991  27.427  1.00  0.00    -0.394 OA
ATOM     95  H   UNL A   1      33.363  20.427  26.930  1.00  0.00     0.210 HD
ENDBRANCH  93  94
ENDBRANCH  77  93
ENDBRANCH  74  77
ENDBRANCH  72  73
ENDBRANCH   1  72
TORSDOF 19
ENDMDL
MODEL 3
REMARK VINA RESULT:     -11.7      5.216     10.126
REMARK SMILES O=C(NCCCNC(=O)[C@H](CO)NC(=O)[C@H]1CC(=O)N(CC(F)(F)F)C1)c1ccc(-c2c3nc(c(-c4cccc(S(=O)(=O)[O-])c4F)c4ccc([nH]4)c(-c4cccc(S(=O)(=O)[O-])c4F)c4nc(c(-c5cccc(S(=O)(=O)[O-])c5F)c5ccc2[nH]5)C=C4)C=C3)cc1
REMARK SMILES IDX 5 1 4 2 3 3 1 4 2 5 27 7 28 8 89 9 29 10 88 11 30 12 31 13
REMARK SMILES IDX 32 14 82 15 33 16 87 17 81 18 83 19 34 20 86 21 80 22 79 23
REMARK SMILES IDX 35 25 67 26 47 27 66 28 48 29 51 30 65 31 84 32 49 33 50 34
REMARK SMILES IDX 64 36 85 37 52 38 36 39 37 40 45 41 38 42 40 43 46 44 39 45
REMARK SMILES IDX 41 46 42 47 43 48 44 49 68 50 69 51 77 52 70 53 72 54 78 55
REMARK SMILES IDX 71 56 73 57 74 58 75 59 76 60 53 61 54 62 62 63 55 64 57 65
REMARK SMILES IDX 63 66 56 67 58 68 59 69 60 70 61 71 6 72 7 73 8 74 9 76
REMARK SMILES IDX 10 77 13 78 14 79 15 81 16 82 17 83 26 84 18 85 20 86 19 87
REMARK SMILES IDX 21 88 22 89 23 90 24 91 25 92 11 93 12 94
REMARK H PARENT 3 6 83 24 51 35 7 75 13 80 12 95
REMARK Flexibility Score: inf
ROOT
ATOM      1  C   UNL A   1      36.883  22.092  23.819  1.00  0.00     0.042 C 
ENDROOT
BRANCH   1   2
ATOM      2  C   UNL A   1      37.187  22.079  25.311  1.00  0.00     0.118 C 
BRANCH   2   3
ATOM      3  N   UNL A   1      38.142  21.042  25.684  1.00  0.00    -0.352 N 
ATOM      4  O   UNL A   1      40.119  20.162  26.296  1.00  0.00    -0.269 OA
ATOM      5  C   UNL A   1      39.391  21.149  26.249  1.00  0.00     0.251 C 
ATOM      6  H   UNL A   1      37.846  20.121  25.501  1.00  0.00     0.163 HD
BRANCH   5   7
ATOM      7  C   UNL A   1      39.856  22.454  26.766  1.00  0.00     0.039 A 
ATOM      8  C   UNL A   1      39.355  23.641  26.236  1.00  0.00     0.014 A 
ATOM      9  C   UNL A   1      40.818  22.492  27.779  1.00  0.00     0.014 A 
ATOM     10  C   UNL A   1      39.959  24.848  26.555  1.00  0.00     0.010 A 
ATOM     11  C   UNL A   1      41.337  23.723  28.191  1.00  0.00     0.010 A 
ATOM     12  C   UNL A   1      40.953  24.908  27.544  1.00  0.00    -0.014 A 
BRANCH  12  13
ATOM     13  C   UNL A   1      41.534  26.227  27.904  1.00  0.00     0.031 A 
ATOM     14  C   UNL A   1      42.936  26.600  27.501  1.00  0.00     0.074 A 
ATOM     15  C   UNL A   1      40.771  27.106  28.584  1.00  0.00     0.049 A 
ATOM     16  N   UNL A   1      43.574  27.726  27.698  1.00  0.00    -0.248 NA
ATOM     17  C   UNL A   1      43.731  25.581  26.798  1.00  0.00     0.031 C 
ATOM     18  C   UNL A   1      39.407  26.847  29.055  1.00  0.00     0.029 A 
ATOM     19  N   UNL A   1      41.020  28.391  28.988  1.00  0.00    -0.354 N 
ATOM     20  C   UNL A   1      44.856  27.535  27.196  1.00  0.00     0.074 A 
ATOM     21  C   UNL A   1      44.908  26.181  26.687  1.00  0.00     0.031 C 
ATOM     22  C   UNL A   1      38.926  27.951  29.643  1.00  0.00     0.029 A 
ATOM     23  C   UNL A   1      39.966  28.972  29.653  1.00  0.00     0.049 A 
ATOM     24  H   UNL A   1      41.873  28.855  28.819  1.00  0.00     0.167 HD
ATOM     25  C   UNL A   1      45.891  28.408  27.153  1.00  0.00     0.034 A 
ATOM     26  C   UNL A   1      39.850  30.185  30.223  1.00  0.00     0.034 A 
ATOM     27  C   UNL A   1      45.821  29.764  27.632  1.00  0.00     0.049 A 
ATOM     28  C   UNL A   1      41.008  31.136  30.145  1.00  0.00     0.074 A 
ATOM     29  C   UNL A   1      46.791  30.750  27.570  1.00  0.00     0.029 A 
ATOM     30  N   UNL A   1      44.727  30.323  28.274  1.00  0.00    -0.354 N 
ATOM     31  N   UNL A   1      42.169  30.976  29.559  1.00  0.00    -0.248 NA
ATOM     32  C   UNL A   1      40.828  32.448  30.782  1.00  0.00     0.031 C 
ATOM     33  C   UNL A   1      46.298  31.891  28.211  1.00  0.00     0.029 A 
ATOM     34  C   UNL A   1      45.003  31.634  28.629  1.00  0.00     0.049 A 
ATOM     35  H   UNL A   1      43.879  29.857  28.453  1.00  0.00     0.167 HD
ATOM     36  C   UNL A   1      42.843  32.180  29.719  1.00  0.00     0.074 A 
ATOM     37  C   UNL A   1      41.952  33.063  30.443  1.00  0.00     0.031 C 
ATOM     38  C   UNL A   1      44.090  32.519  29.306  1.00  0.00     0.034 A 
BRANCH  25  39
ATOM     39  C   UNL A   1      47.195  27.928  26.565  1.00  0.00     0.023 A 
ATOM     40  C   UNL A   1      48.222  27.457  27.408  1.00  0.00     0.012 A 
ATOM     41  C   UNL A   1      47.383  27.896  25.169  1.00  0.00     0.148 A 
ATOM     42  C   UNL A   1      49.429  27.002  26.874  1.00  0.00     0.002 A 
ATOM     43  C   UNL A   1      48.569  27.396  24.642  1.00  0.00     0.091 A 
ATOM     44  F   UNL A   1      46.406  28.365  24.380  1.00  0.00    -0.205 F 
ATOM     45  C   UNL A   1      49.598  26.963  25.493  1.00  0.00     0.022 A 
BRANCH  43  46
ATOM     46  S   UNL A   1      48.847  27.226  22.875  1.00  0.00     0.127 S 
ATOM     47  O   UNL A   1      50.304  27.331  22.795  1.00  0.00    -0.237 OA
ATOM     48  O   UNL A   1      48.318  25.889  22.607  1.00  0.00    -0.237 OA
ATOM     49  O   UNL A   1      48.105  28.310  22.246  1.00  0.00    -0.744 OA
ENDBRANCH  43  46
ENDBRANCH  25  39
BRANCH  26  50
ATOM     50  C   UNL A   1      38.568  30.580  30.870  1.00  0.00     0.023 A 
ATOM     51  C   UNL A   1      38.367  30.303  32.235  1.00  0.00     0.012 A 
ATOM     52  C   UNL A   1      37.567  31.262  30.151  1.00  0.00     0.148 A 
ATOM     53  C   UNL A   1      37.178  30.670  32.867  1.00  0.00     0.002 A 
ATOM     54  C   UNL A   1      36.412  31.678  30.800  1.00  0.00     0.091 A 
ATOM     55  F   UNL A   1      37.777  31.511  28.851  1.00  0.00    -0.205 F 
ATOM     56  C   UNL A   1      36.207  31.367  32.153  1.00  0.00     0.022 A 
BRANCH  54  57
ATOM     57  S   UNL A   1      35.168  32.696  29.998  1.00  0.00     0.127 S 
ATOM     58  O   UNL A   1      34.671  31.797  28.959  1.00  0.00    -0.237 OA
ATOM     59  O   UNL A   1      34.234  32.946  31.097  1.00  0.00    -0.237 OA
ATOM     60  O   UNL A   1      35.872  33.880  29.526  1.00  0.00    -0.744 OA
ENDBRANCH  54  57
ENDBRANCH  26  50
BRANCH  38  61
ATOM     61  C   UNL A   1      44.547  33.930  29.573  1.00  0.00     0.023 A 
ATOM     62  C   UNL A   1      45.211  34.248  30.774  1.00  0.00     0.012 A 
ATOM     63  C   UNL A   1      44.360  34.931  28.599  1.00  0.00     0.148 A 
ATOM     64  C   UNL A   1      45.643  35.552  31.019  1.00  0.00     0.002 A 
ATOM     65  C   UNL A   1      44.843  36.213  28.827  1.00  0.00     0.091 A 
ATOM     66  F   UNL A   1      43.706  34.615  27.472  1.00  0.00    -0.205 F 
ATOM     67  C   UNL A   1      45.472  36.529  30.042  1.00  0.00     0.022 A 
BRANCH  65  68
ATOM     68  S   UNL A   1      44.758  37.505  27.582  1.00  0.00     0.127 S 
ATOM     69  O   UNL A   1      45.036  38.701  28.375  1.00  0.00    -0.237 OA
ATOM     70  O   UNL A   1      45.828  37.121  26.661  1.00  0.00    -0.237 OA
ATOM     71  O   UNL A   1      43.418  37.428  27.016  1.00  0.00    -0.744 OA
ENDBRANCH  65  68
ENDBRANCH  38  61
ENDBRANCH  12  13
ENDBRANCH   5   7
ENDBRANCH   2   3
ENDBRANCH   1   2
BRANCH   1  72
ATOM     72  C   UNL A   1      36.150  23.340  23.357  1.00  0.00     0.117 C 
BRANCH  72  73
ATOM     73  N   UNL A   1      35.551  24.058  24.468  1.00  0.00    -0.354 N 
ATOM     74  C   UNL A   1      34.282  24.510  24.661  1.00  0.00     0.244 C 
ATOM     75  H   UNL A   1      36.168  24.250  25.211  1.00  0.00     0.163 HD
ATOM     76  O   UNL A   1      34.061  25.172  25.677  1.00  0.00    -0.273 OA
BRANCH  74  77
ATOM     77  C   UNL A   1      33.176  24.268  23.627  1.00  0.00     0.197 C 
BRANCH  77  78
ATOM     78  N   UNL A   1      32.024  23.679  24.318  1.00  0.00    -0.342 N 
ATOM     79  C   UNL A   1      31.902  22.529  25.027  1.00  0.00     0.226 C 
ATOM     80  H   UNL A   1      31.198  24.210  24.255  1.00  0.00     0.164 HD
ATOM     81  O   UNL A   1      30.879  22.400  25.705  1.00  0.00    -0.275 OA
BRANCH  79  82
ATOM     82  C   UNL A   1      32.915  21.402  24.974  1.00  0.00     0.107 C 
ATOM     83  C   UNL A   1      32.828  20.476  26.186  1.00  0.00     0.115 C 
ATOM     84  C   UNL A   1      32.845  20.530  23.731  1.00  0.00     0.133 C 
ATOM     85  C   UNL A   1      32.808  19.091  25.609  1.00  0.00     0.223 C 
ATOM     86  N   UNL A   1      32.841  19.176  24.233  1.00  0.00    -0.333 N 
ATOM     87  O   UNL A   1      32.764  18.054  26.253  1.00  0.00    -0.275 OA
BRANCH  86  88
ATOM     88  C   UNL A   1      32.706  18.003  23.366  1.00  0.00     0.234 C 
BRANCH  88  89
ATOM     89  C   UNL A   1      33.922  17.077  23.342  1.00  0.00     0.406 C 
ATOM     90  F   UNL A   1      34.948  17.616  24.033  1.00  0.00    -0.169 F 
ATOM     91  F   UNL A   1      33.630  15.887  23.917  1.00  0.00    -0.169 F 
ATOM     92  F   UNL A   1      34.354  16.828  22.082  1.00  0.00    -0.169 F 
ENDBRANCH  88  89
ENDBRANCH  86  88
ENDBRANCH  79  82
ENDBRANCH  77  78
BRANCH  77  93
ATOM     93  C   UNL A   1      32.852  25.519  22.802  1.00  0.00     0.191 C 
BRANCH  93  94
ATOM     94  O   UNL A   1      33.955  25.884  21.970  1.00  0.00    -0.394 OA
ATOM     95  H   UNL A   1      34.186  26.812  22.129  1.00  0.00     0.210 HD
ENDBRANCH  93  94
ENDBRANCH  77  93
ENDBRANCH  74  77
ENDBRANCH  72  73
ENDBRANCH   1  72
TORSDOF 19
ENDMDL
