MODEL 1
REMARK VINA RESULT:     -12.3      0.000      0.000
REMARK SMILES O=C(NCCCNC(=O)[C@@H]1C=C[C@@H](NS(=O)(=O)c2ccc(F)c(F)c2F)C1)c1ccc(-c2c3nc(c(-c4cccc(S(=O)(=O)[O-])c4F)c4ccc([nH]4)c(-c4cccc(S(=O)(=O)[O-])c4F)c4nc(c(-c5cccc(S(=O)(=O)[O-])c5F)c5ccc2[nH]5)C=C4)C=C3)cc1
REMARK SMILES IDX 5 1 4 2 3 3 1 4 2 5 28 7 29 8 90 9 30 10 89 11 31 12 32 13
REMARK SMILES IDX 33 14 83 15 34 16 88 17 82 18 84 19 35 20 87 21 81 22 80 23
REMARK SMILES IDX 36 25 68 26 48 27 67 28 49 29 52 30 66 31 85 32 50 33 51 34
REMARK SMILES IDX 65 36 86 37 53 38 37 39 38 40 46 41 39 42 41 43 47 44 40 45
REMARK SMILES IDX 42 46 43 47 44 48 45 49 69 50 70 51 78 52 71 53 73 54 79 55
REMARK SMILES IDX 72 56 74 57 75 58 76 59 77 60 54 61 55 62 63 63 56 64 58 65
REMARK SMILES IDX 64 66 57 67 59 68 60 69 61 70 62 71 6 72 7 73 8 74 9 76
REMARK SMILES IDX 10 77 11 78 27 79 12 80 13 81 14 82 15 84 16 85 17 86 18 87
REMARK SMILES IDX 19 88 25 89 20 90 23 91 26 92 21 93 24 94 22 95
REMARK H PARENT 3 6 84 24 52 35 7 75 14 83
REMARK Flexibility Score: inf
ROOT
ATOM      1  C   UNL A   1      31.435  32.844  26.506  1.00  0.00     0.042 C 
ENDROOT
BRANCH   1   2
ATOM      2  C   UNL A   1      32.584  33.198  27.444  1.00  0.00     0.118 C 
BRANCH   2   3
ATOM      3  N   UNL A   1      32.587  34.606  27.814  1.00  0.00    -0.352 N 
ATOM      4  O   UNL A   1      32.966  36.419  29.081  1.00  0.00    -0.269 OA
ATOM      5  C   UNL A   1      33.277  35.262  28.806  1.00  0.00     0.251 C 
ATOM      6  H   UNL A   1      32.003  35.179  27.267  1.00  0.00     0.163 HD
BRANCH   5   7
ATOM      7  C   UNL A   1      34.364  34.586  29.552  1.00  0.00     0.039 A 
ATOM      8  C   UNL A   1      35.684  34.626  29.103  1.00  0.00     0.014 A 
ATOM      9  C   UNL A   1      34.062  33.928  30.750  1.00  0.00     0.014 A 
ATOM     10  C   UNL A   1      36.664  33.881  29.752  1.00  0.00     0.010 A 
ATOM     11  C   UNL A   1      35.069  33.258  31.454  1.00  0.00     0.010 A 
ATOM     12  C   UNL A   1      36.371  33.191  30.940  1.00  0.00    -0.014 A 
BRANCH  12  13
ATOM     13  C   UNL A   1      37.459  32.457  31.640  1.00  0.00     0.031 A 
ATOM     14  C   UNL A   1      38.208  31.338  30.967  1.00  0.00     0.074 A 
ATOM     15  C   UNL A   1      37.787  32.823  32.895  1.00  0.00     0.049 A 
ATOM     16  N   UNL A   1      39.236  30.657  31.409  1.00  0.00    -0.248 NA
ATOM     17  C   UNL A   1      37.744  30.917  29.636  1.00  0.00     0.031 C 
ATOM     18  C   UNL A   1      37.099  33.854  33.677  1.00  0.00     0.029 A 
ATOM     19  N   UNL A   1      38.785  32.388  33.730  1.00  0.00    -0.354 N 
ATOM     20  C   UNL A   1      39.513  29.704  30.436  1.00  0.00     0.074 A 
ATOM     21  C   UNL A   1      38.540  29.886  29.381  1.00  0.00     0.031 C 
ATOM     22  C   UNL A   1      37.723  34.005  34.854  1.00  0.00     0.029 A 
ATOM     23  C   UNL A   1      38.828  33.056  34.931  1.00  0.00     0.049 A 
ATOM     24  H   UNL A   1      39.412  31.667  33.491  1.00  0.00     0.167 HD
ATOM     25  C   UNL A   1      40.499  28.774  30.415  1.00  0.00     0.034 A 
ATOM     26  C   UNL A   1      39.666  32.927  35.978  1.00  0.00     0.034 A 
ATOM     27  C   UNL A   1      41.501  28.632  31.436  1.00  0.00     0.049 A 
ATOM     28  C   UNL A   1      40.785  31.929  35.897  1.00  0.00     0.074 A 
ATOM     29  C   UNL A   1      42.589  27.776  31.461  1.00  0.00     0.029 A 
ATOM     30  N   UNL A   1      41.541  29.360  32.614  1.00  0.00    -0.354 N 
ATOM     31  N   UNL A   1      41.118  31.142  34.904  1.00  0.00    -0.248 NA
ATOM     32  C   UNL A   1      41.664  31.823  37.071  1.00  0.00     0.031 C 
ATOM     33  C   UNL A   1      43.281  27.981  32.661  1.00  0.00     0.029 A 
ATOM     34  C   UNL A   1      42.628  28.970  33.379  1.00  0.00     0.049 A 
ATOM     35  H   UNL A   1      40.891  30.054  32.871  1.00  0.00     0.167 HD
ATOM     36  C   UNL A   1      42.256  30.464  35.320  1.00  0.00     0.074 A 
ATOM     37  C   UNL A   1      42.573  30.954  36.647  1.00  0.00     0.031 C 
ATOM     38  C   UNL A   1      42.963  29.506  34.673  1.00  0.00     0.034 A 
BRANCH  25  39
ATOM     39  C   UNL A   1      40.578  27.862  29.217  1.00  0.00     0.023 A 
ATOM     40  C   UNL A   1      39.705  26.758  29.128  1.00  0.00     0.012 A 
ATOM     41  C   UNL A   1      41.460  28.133  28.154  1.00  0.00     0.148 A 
ATOM     42  C   UNL A   1      39.727  25.925  28.010  1.00  0.00     0.002 A 
ATOM     43  C   UNL A   1      41.452  27.318  27.027  1.00  0.00     0.091 A 
ATOM     44  F   UNL A   1      42.301  29.171  28.267  1.00  0.00    -0.205 F 
ATOM     45  C   UNL A   1      40.592  26.210  26.956  1.00  0.00     0.022 A 
BRANCH  43  46
ATOM     46  S   UNL A   1      42.482  27.653  25.592  1.00  0.00     0.127 S 
ATOM     47  O   UNL A   1      41.927  28.921  25.121  1.00  0.00    -0.237 OA
ATOM     48  O   UNL A   1      43.817  27.755  26.182  1.00  0.00    -0.237 OA
ATOM     49  O   UNL A   1      42.302  26.514  24.702  1.00  0.00    -0.744 OA
ENDBRANCH  43  46
ENDBRANCH  25  39
BRANCH  26  50
ATOM     50  C   UNL A   1      39.521  33.830  37.154  1.00  0.00     0.023 A 
ATOM     51  C   UNL A   1      39.961  35.164  37.057  1.00  0.00     0.012 A 
ATOM     52  C   UNL A   1      38.899  33.397  38.341  1.00  0.00     0.148 A 
ATOM     53  C   UNL A   1      39.803  36.044  38.128  1.00  0.00     0.002 A 
ATOM     54  C   UNL A   1      38.694  34.295  39.383  1.00  0.00     0.091 A 
ATOM     55  F   UNL A   1      38.505  32.118  38.424  1.00  0.00    -0.205 F 
ATOM     56  C   UNL A   1      39.158  35.615  39.284  1.00  0.00     0.022 A 
BRANCH  54  57
ATOM     57  S   UNL A   1      37.739  33.856  40.840  1.00  0.00     0.127 S 
ATOM     58  O   UNL A   1      38.665  32.980  41.551  1.00  0.00    -0.237 OA
ATOM     59  O   UNL A   1      37.519  35.160  41.468  1.00  0.00    -0.237 OA
ATOM     60  O   UNL A   1      36.526  33.230  40.332  1.00  0.00    -0.744 OA
ENDBRANCH  54  57
ENDBRANCH  26  50
BRANCH  38  61
ATOM     61  C   UNL A   1      44.162  28.933  35.380  1.00  0.00     0.023 A 
ATOM     62  C   UNL A   1      45.435  29.488  35.148  1.00  0.00     0.012 A 
ATOM     63  C   UNL A   1      44.022  27.890  36.314  1.00  0.00     0.148 A 
ATOM     64  C   UNL A   1      46.556  28.993  35.813  1.00  0.00     0.002 A 
ATOM     65  C   UNL A   1      45.137  27.429  37.005  1.00  0.00     0.091 A 
ATOM     66  F   UNL A   1      42.806  27.356  36.504  1.00  0.00    -0.205 F 
ATOM     67  C   UNL A   1      46.406  27.972  36.749  1.00  0.00     0.022 A 
BRANCH  65  68
ATOM     68  S   UNL A   1      45.008  26.179  38.289  1.00  0.00     0.127 S 
ATOM     69  O   UNL A   1      46.404  26.018  38.690  1.00  0.00    -0.237 OA
ATOM     70  O   UNL A   1      44.159  26.832  39.285  1.00  0.00    -0.237 OA
ATOM     71  O   UNL A   1      44.395  25.022  37.648  1.00  0.00    -0.744 OA
ENDBRANCH  65  68
ENDBRANCH  38  61
ENDBRANCH  12  13
ENDBRANCH   5   7
ENDBRANCH   2   3
ENDBRANCH   1   2
BRANCH   1  72
ATOM     72  C   UNL A   1      31.012  31.381  26.580  1.00  0.00     0.117 C 
BRANCH  72  73
ATOM     73  N   UNL A   1      31.378  30.661  25.373  1.00  0.00    -0.356 N 
ATOM     74  C   UNL A   1      32.187  29.572  25.232  1.00  0.00     0.226 C 
ATOM     75  H   UNL A   1      30.988  31.008  24.538  1.00  0.00     0.163 HD
ATOM     76  O   UNL A   1      32.496  29.218  24.093  1.00  0.00    -0.274 OA
BRANCH  74  77
ATOM     77  C   UNL A   1      32.636  28.804  26.479  1.00  0.00     0.103 C 
ATOM     78  C   UNL A   1      33.910  28.040  26.276  1.00  0.00    -0.016 C 
ATOM     79  C   UNL A   1      31.657  27.667  26.815  1.00  0.00     0.042 C 
ATOM     80  C   UNL A   1      33.692  26.728  26.132  1.00  0.00    -0.011 C 
ATOM     81  C   UNL A   1      32.241  26.400  26.161  1.00  0.00     0.093 C 
BRANCH  81  82
ATOM     82  N   UNL A   1      31.930  25.258  27.010  1.00  0.00    -0.204 NA
ATOM     83  H   UNL A   1      31.197  25.573  27.647  1.00  0.00     0.142 HD
BRANCH  82  84
ATOM     84  S   UNL A   1      31.412  23.784  26.404  1.00  0.00     0.244 S 
ATOM     85  O   UNL A   1      30.660  23.110  27.435  1.00  0.00    -0.207 OA
ATOM     86  O   UNL A   1      30.836  24.112  25.117  1.00  0.00    -0.207 OA
BRANCH  84  87
ATOM     87  C   UNL A   1      32.854  22.834  26.077  1.00  0.00     0.121 A 
ATOM     88  C   UNL A   1      34.148  23.283  26.362  1.00  0.00     0.028 A 
ATOM     89  C   UNL A   1      32.650  21.563  25.543  1.00  0.00     0.181 A 
ATOM     90  C   UNL A   1      35.233  22.429  26.143  1.00  0.00     0.044 A 
ATOM     91  C   UNL A   1      33.732  20.725  25.314  1.00  0.00     0.195 A 
ATOM     92  F   UNL A   1      31.418  21.137  25.233  1.00  0.00    -0.202 F 
ATOM     93  C   UNL A   1      35.015  21.154  25.623  1.00  0.00     0.161 A 
ATOM     94  F   UNL A   1      33.538  19.505  24.793  1.00  0.00    -0.200 F 
ATOM     95  F   UNL A   1      36.064  20.346  25.416  1.00  0.00    -0.204 F 
ENDBRANCH  84  87
ENDBRANCH  82  84
ENDBRANCH  81  82
ENDBRANCH  74  77
ENDBRANCH  72  73
ENDBRANCH   1  72
TORSDOF 16
ENDMDL
MODEL 2
REMARK VINA RESULT:     -12.2      2.428      8.187
REMARK SMILES O=C(NCCCNC(=O)[C@@H]1C=C[C@@H](NS(=O)(=O)c2ccc(F)c(F)c2F)C1)c1ccc(-c2c3nc(c(-c4cccc(S(=O)(=O)[O-])c4F)c4ccc([nH]4)c(-c4cccc(S(=O)(=O)[O-])c4F)c4nc(c(-c5cccc(S(=O)(=O)[O-])c5F)c5ccc2[nH]5)C=C4)C=C3)cc1
REMARK SMILES IDX 5 1 4 2 3 3 1 4 2 5 28 7 29 8 90 9 30 10 89 11 31 12 32 13
REMARK SMILES IDX 33 14 83 15 34 16 88 17 82 18 84 19 35 20 87 21 81 22 80 23
REMARK SMILES IDX 36 25 68 26 48 27 67 28 49 29 52 30 66 31 85 32 50 33 51 34
REMARK SMILES IDX 65 36 86 37 53 38 37 39 38 40 46 41 39 42 41 43 47 44 40 45
REMARK SMILES IDX 42 46 43 47 44 48 45 49 69 50 70 51 78 52 71 53 73 54 79 55
REMARK SMILES IDX 72 56 74 57 75 58 76 59 77 60 54 61 55 62 63 63 56 64 58 65
REMARK SMILES IDX 64 66 57 67 59 68 60 69 61 70 62 71 6 72 7 73 8 74 9 76
REMARK SMILES IDX 10 77 11 78 27 79 12 80 13 81 14 82 15 84 16 85 17 86 18 87
REMARK SMILES IDX 19 88 25 89 20 90 23 91 26 92 21 93 24 94 22 95
REMARK H PARENT 3 6 84 24 52 35 7 75 14 83
REMARK Flexibility Score: inf
ROOT
ATOM      1  C   UNL A   1      33.020  29.341  24.927  1.00  0.00     0.042 C 
ENDROOT
BRANCH   1   2
ATOM      2  C   UNL A   1      32.316  29.708  26.229  1.00  0.00     0.118 C 
BRANCH   2   3
ATOM      3  N   UNL A   1      32.182  31.147  26.402  1.00  0.00    -0.352 N 
ATOM      4  O   UNL A   1      32.489  33.163  27.339  1.00  0.00    -0.269 OA
ATOM      5  C   UNL A   1      32.911  32.020  27.175  1.00  0.00     0.251 C 
ATOM      6  H   UNL A   1      31.453  31.561  25.885  1.00  0.00     0.163 HD
BRANCH   5   7
ATOM      7  C   UNL A   1      34.174  31.592  27.820  1.00  0.00     0.039 A 
ATOM      8  C   UNL A   1      34.361  30.275  28.240  1.00  0.00     0.014 A 
ATOM      9  C   UNL A   1      35.210  32.521  27.976  1.00  0.00     0.014 A 
ATOM     10  C   UNL A   1      35.505  29.928  28.955  1.00  0.00     0.010 A 
ATOM     11  C   UNL A   1      36.399  32.144  28.610  1.00  0.00     0.010 A 
ATOM     12  C   UNL A   1      36.541  30.856  29.144  1.00  0.00    -0.014 A 
BRANCH  12  13
ATOM     13  C   UNL A   1      37.775  30.430  29.858  1.00  0.00     0.031 A 
ATOM     14  C   UNL A   1      38.030  30.829  31.287  1.00  0.00     0.074 A 
ATOM     15  C   UNL A   1      38.667  29.654  29.209  1.00  0.00     0.049 A 
ATOM     16  N   UNL A   1      39.013  30.471  32.075  1.00  0.00    -0.248 NA
ATOM     17  C   UNL A   1      37.073  31.754  31.913  1.00  0.00     0.031 C 
ATOM     18  C   UNL A   1      38.562  29.247  27.806  1.00  0.00     0.029 A 
ATOM     19  N   UNL A   1      39.824  29.057  29.641  1.00  0.00    -0.354 N 
ATOM     20  C   UNL A   1      38.819  31.156  33.269  1.00  0.00     0.074 A 
ATOM     21  C   UNL A   1      37.628  31.961  33.101  1.00  0.00     0.031 C 
ATOM     22  C   UNL A   1      39.582  28.430  27.506  1.00  0.00     0.029 A 
ATOM     23  C   UNL A   1      40.436  28.288  28.679  1.00  0.00     0.049 A 
ATOM     24  H   UNL A   1      40.181  29.167  30.552  1.00  0.00     0.167 HD
ATOM     25  C   UNL A   1      39.553  31.106  34.406  1.00  0.00     0.034 A 
ATOM     26  C   UNL A   1      41.558  27.543  28.734  1.00  0.00     0.034 A 
ATOM     27  C   UNL A   1      40.703  30.263  34.592  1.00  0.00     0.049 A 
ATOM     28  C   UNL A   1      42.316  27.461  30.027  1.00  0.00     0.074 A 
ATOM     29  C   UNL A   1      41.462  30.081  35.736  1.00  0.00     0.029 A 
ATOM     30  N   UNL A   1      41.264  29.460  33.611  1.00  0.00    -0.354 N 
ATOM     31  N   UNL A   1      42.029  28.001  31.187  1.00  0.00    -0.248 NA
ATOM     32  C   UNL A   1      43.538  26.643  30.028  1.00  0.00     0.031 C 
ATOM     33  C   UNL A   1      42.488  29.175  35.442  1.00  0.00     0.029 A 
ATOM     34  C   UNL A   1      42.363  28.787  34.118  1.00  0.00     0.049 A 
ATOM     35  H   UNL A   1      40.931  29.381  32.688  1.00  0.00     0.167 HD
ATOM     36  C   UNL A   1      43.018  27.569  32.062  1.00  0.00     0.074 A 
ATOM     37  C   UNL A   1      43.897  26.700  31.305  1.00  0.00     0.031 C 
ATOM     38  C   UNL A   1      43.195  27.882  33.368  1.00  0.00     0.034 A 
BRANCH  25  39
ATOM     39  C   UNL A   1      39.107  31.956  35.568  1.00  0.00     0.023 A 
ATOM     40  C   UNL A   1      39.377  33.340  35.560  1.00  0.00     0.012 A 
ATOM     41  C   UNL A   1      38.365  31.403  36.629  1.00  0.00     0.148 A 
ATOM     42  C   UNL A   1      38.935  34.155  36.602  1.00  0.00     0.002 A 
ATOM     43  C   UNL A   1      37.897  32.229  37.647  1.00  0.00     0.091 A 
ATOM     44  F   UNL A   1      38.139  30.082  36.635  1.00  0.00    -0.205 F 
ATOM     45  C   UNL A   1      38.188  33.602  37.639  1.00  0.00     0.022 A 
BRANCH  43  46
ATOM     46  S   UNL A   1      36.866  31.614  38.985  1.00  0.00     0.127 S 
ATOM     47  O   UNL A   1      36.525  30.276  38.502  1.00  0.00    -0.237 OA
ATOM     48  O   UNL A   1      37.785  31.633  40.123  1.00  0.00    -0.237 OA
ATOM     49  O   UNL A   1      35.756  32.550  39.090  1.00  0.00    -0.744 OA
ENDBRANCH  43  46
ENDBRANCH  25  39
BRANCH  26  50
ATOM     50  C   UNL A   1      41.976  26.752  27.543  1.00  0.00     0.023 A 
ATOM     51  C   UNL A   1      42.710  27.384  26.520  1.00  0.00     0.012 A 
ATOM     52  C   UNL A   1      41.707  25.373  27.444  1.00  0.00     0.148 A 
ATOM     53  C   UNL A   1      43.150  26.661  25.411  1.00  0.00     0.002 A 
ATOM     54  C   UNL A   1      42.197  24.648  26.363  1.00  0.00     0.091 A 
ATOM     55  F   UNL A   1      40.989  24.792  28.416  1.00  0.00    -0.205 F 
ATOM     56  C   UNL A   1      42.907  25.292  25.339  1.00  0.00     0.022 A 
BRANCH  54  57
ATOM     57  S   UNL A   1      42.053  22.860  26.277  1.00  0.00     0.127 S 
ATOM     58  O   UNL A   1      42.687  22.570  24.994  1.00  0.00    -0.237 OA
ATOM     59  O   UNL A   1      42.814  22.431  27.451  1.00  0.00    -0.237 OA
ATOM     60  O   UNL A   1      40.624  22.583  26.362  1.00  0.00    -0.744 OA
ENDBRANCH  54  57
ENDBRANCH  26  50
BRANCH  38  61
ATOM     61  C   UNL A   1      44.376  27.269  34.073  1.00  0.00     0.023 A 
ATOM     62  C   UNL A   1      45.630  27.907  34.010  1.00  0.00     0.012 A 
ATOM     63  C   UNL A   1      44.233  26.100  34.843  1.00  0.00     0.148 A 
ATOM     64  C   UNL A   1      46.732  27.374  34.678  1.00  0.00     0.002 A 
ATOM     65  C   UNL A   1      45.325  25.596  35.541  1.00  0.00     0.091 A 
ATOM     66  F   UNL A   1      43.038  25.491  34.872  1.00  0.00    -0.205 F 
ATOM     67  C   UNL A   1      46.577  26.226  35.452  1.00  0.00     0.022 A 
BRANCH  65  68
ATOM     68  S   UNL A   1      45.183  24.174  36.629  1.00  0.00     0.127 S 
ATOM     69  O   UNL A   1      44.280  24.677  37.662  1.00  0.00    -0.237 OA
ATOM     70  O   UNL A   1      44.599  23.159  35.751  1.00  0.00    -0.237 OA
ATOM     71  O   UNL A   1      46.541  23.877  37.064  1.00  0.00    -0.744 OA
ENDBRANCH  65  68
ENDBRANCH  38  61
ENDBRANCH  12  13
ENDBRANCH   5   7
ENDBRANCH   2   3
ENDBRANCH   1   2
BRANCH   1  72
ATOM     72  C   UNL A   1      32.075  28.828  23.844  1.00  0.00     0.117 C 
BRANCH  72  73
ATOM     73  N   UNL A   1      32.809  28.247  22.733  1.00  0.00    -0.356 N 
ATOM     74  C   UNL A   1      33.283  26.976  22.586  1.00  0.00     0.226 C 
ATOM     75  H   UNL A   1      32.990  28.855  21.981  1.00  0.00     0.163 HD
ATOM     76  O   UNL A   1      34.024  26.737  21.631  1.00  0.00    -0.274 OA
BRANCH  74  77
ATOM     77  C   UNL A   1      32.839  25.891  23.571  1.00  0.00     0.103 C 
ATOM     78  C   UNL A   1      33.681  25.838  24.810  1.00  0.00    -0.016 C 
ATOM     79  C   UNL A   1      33.071  24.485  22.993  1.00  0.00     0.042 C 
ATOM     80  C   UNL A   1      34.532  24.805  24.797  1.00  0.00    -0.011 C 
ATOM     81  C   UNL A   1      34.440  24.027  23.531  1.00  0.00     0.093 C 
BRANCH  81  82
ATOM     82  N   UNL A   1      34.393  22.587  23.746  1.00  0.00    -0.204 NA
ATOM     83  H   UNL A   1      35.240  22.354  24.266  1.00  0.00     0.142 HD
BRANCH  82  84
ATOM     84  S   UNL A   1      33.135  21.825  24.547  1.00  0.00     0.244 S 
ATOM     85  O   UNL A   1      33.339  21.984  25.966  1.00  0.00    -0.207 OA
ATOM     86  O   UNL A   1      31.945  22.307  23.879  1.00  0.00    -0.207 OA
BRANCH  84  87
ATOM     87  C   UNL A   1      33.258  20.112  24.172  1.00  0.00     0.121 A 
ATOM     88  C   UNL A   1      32.297  19.420  23.428  1.00  0.00     0.028 A 
ATOM     89  C   UNL A   1      34.403  19.459  24.625  1.00  0.00     0.181 A 
ATOM     90  C   UNL A   1      32.515  18.076  23.107  1.00  0.00     0.044 A 
ATOM     91  C   UNL A   1      34.608  18.122  24.317  1.00  0.00     0.195 A 
ATOM     92  F   UNL A   1      35.313  20.104  25.369  1.00  0.00    -0.202 F 
ATOM     93  C   UNL A   1      33.672  17.438  23.553  1.00  0.00     0.161 A 
ATOM     94  F   UNL A   1      35.705  17.491  24.759  1.00  0.00    -0.200 F 
ATOM     95  F   UNL A   1      33.868  16.150  23.242  1.00  0.00    -0.204 F 
ENDBRANCH  84  87
ENDBRANCH  82  84
ENDBRANCH  81  82
ENDBRANCH  74  77
ENDBRANCH  72  73
ENDBRANCH   1  72
TORSDOF 16
ENDMDL
MODEL 3
REMARK VINA RESULT:     -12.1      1.689      7.735
REMARK SMILES O=C(NCCCNC(=O)[C@@H]1C=C[C@@H](NS(=O)(=O)c2ccc(F)c(F)c2F)C1)c1ccc(-c2c3nc(c(-c4cccc(S(=O)(=O)[O-])c4F)c4ccc([nH]4)c(-c4cccc(S(=O)(=O)[O-])c4F)c4nc(c(-c5cccc(S(=O)(=O)[O-])c5F)c5ccc2[nH]5)C=C4)C=C3)cc1
REMARK SMILES IDX 5 1 4 2 3 3 1 4 2 5 28 7 29 8 90 9 30 10 89 11 31 12 32 13
REMARK SMILES IDX 33 14 83 15 34 16 88 17 82 18 84 19 35 20 87 21 81 22 80 23
REMARK SMILES IDX 36 25 68 26 48 27 67 28 49 29 52 30 66 31 85 32 50 33 51 34
REMARK SMILES IDX 65 36 86 37 53 38 37 39 38 40 46 41 39 42 41 43 47 44 40 45
REMARK SMILES IDX 42 46 43 47 44 48 45 49 69 50 70 51 78 52 71 53 73 54 79 55
REMARK SMILES IDX 72 56 74 57 75 58 76 59 77 60 54 61 55 62 63 63 56 64 58 65
REMARK SMILES IDX 64 66 57 67 59 68 60 69 61 70 62 71 6 72 7 73 8 74 9 76
REMARK SMILES IDX 10 77 11 78 27 79 12 80 13 81 14 82 15 84 16 85 17 86 18 87
REMARK SMILES IDX 19 88 25 89 20 90 23 91 26 92 21 93 24 94 22 95
REMARK H PARENT 3 6 84 24 52 35 7 75 14 83
REMARK Flexibility Score: inf
ROOT
ATOM      1  C   UNL A   1      31.482  32.634  26.460  1.00  0.00     0.042 C 
ENDROOT
BRANCH   1   2
ATOM      2  C   UNL A   1      32.785  32.954  27.185  1.00  0.00     0.118 C 
BRANCH   2   3
ATOM      3  N   UNL A   1      32.716  34.204  27.929  1.00  0.00    -0.352 N 
ATOM      4  O   UNL A   1      33.082  35.640  29.614  1.00  0.00    -0.269 OA
ATOM      5  C   UNL A   1      33.453  34.638  29.005  1.00  0.00     0.251 C 
ATOM      6  H   UNL A   1      32.033  34.837  27.612  1.00  0.00     0.163 HD
BRANCH   5   7
ATOM      7  C   UNL A   1      34.663  33.905  29.445  1.00  0.00     0.039 A 
ATOM      8  C   UNL A   1      34.569  32.780  30.264  1.00  0.00     0.014 A 
ATOM      9  C   UNL A   1      35.918  34.330  28.996  1.00  0.00     0.014 A 
ATOM     10  C   UNL A   1      35.723  32.184  30.765  1.00  0.00     0.010 A 
ATOM     11  C   UNL A   1      37.076  33.669  29.424  1.00  0.00     0.010 A 
ATOM     12  C   UNL A   1      36.992  32.617  30.346  1.00  0.00    -0.014 A 
BRANCH  12  13
ATOM     13  C   UNL A   1      38.202  31.915  30.853  1.00  0.00     0.031 A 
ATOM     14  C   UNL A   1      38.780  32.228  32.207  1.00  0.00     0.074 A 
ATOM     15  C   UNL A   1      38.772  30.965  30.085  1.00  0.00     0.049 A 
ATOM     16  N   UNL A   1      39.777  31.648  32.828  1.00  0.00    -0.248 NA
ATOM     17  C   UNL A   1      38.176  33.338  32.960  1.00  0.00     0.031 C 
ATOM     18  C   UNL A   1      38.341  30.609  28.731  1.00  0.00     0.029 A 
ATOM     19  N   UNL A   1      39.822  30.116  30.331  1.00  0.00    -0.354 N 
ATOM     20  C   UNL A   1      39.948  32.345  34.018  1.00  0.00     0.074 A 
ATOM     21  C   UNL A   1      38.957  33.400  34.032  1.00  0.00     0.031 C 
ATOM     22  C   UNL A   1      39.085  29.586  28.285  1.00  0.00     0.029 A 
ATOM     23  C   UNL A   1      40.072  29.240  29.300  1.00  0.00     0.049 A 
ATOM     24  H   UNL A   1      40.344  30.132  31.165  1.00  0.00     0.167 HD
ATOM     25  C   UNL A   1      40.835  32.117  35.016  1.00  0.00     0.034 A 
ATOM     26  C   UNL A   1      40.990  28.260  29.186  1.00  0.00     0.034 A 
ATOM     27  C   UNL A   1      41.780  31.033  35.028  1.00  0.00     0.049 A 
ATOM     28  C   UNL A   1      41.920  27.993  30.335  1.00  0.00     0.074 A 
ATOM     29  C   UNL A   1      42.662  30.671  36.032  1.00  0.00     0.029 A 
ATOM     30  N   UNL A   1      41.971  30.136  33.989  1.00  0.00    -0.354 N 
ATOM     31  N   UNL A   1      41.963  28.570  31.511  1.00  0.00    -0.248 NA
ATOM     32  C   UNL A   1      42.907  26.920  30.152  1.00  0.00     0.031 C 
ATOM     33  C   UNL A   1      43.393  29.560  35.595  1.00  0.00     0.029 A 
ATOM     34  C   UNL A   1      42.960  29.225  34.321  1.00  0.00     0.049 A 
ATOM     35  H   UNL A   1      41.476  30.145  33.138  1.00  0.00     0.167 HD
ATOM     36  C   UNL A   1      42.964  27.916  32.218  1.00  0.00     0.074 A 
ATOM     37  C   UNL A   1      43.483  26.880  31.347  1.00  0.00     0.031 C 
ATOM     38  C   UNL A   1      43.427  28.165  33.467  1.00  0.00     0.034 A 
BRANCH  25  39
ATOM     39  C   UNL A   1      40.796  33.032  36.213  1.00  0.00     0.023 A 
ATOM     40  C   UNL A   1      41.601  34.188  36.229  1.00  0.00     0.012 A 
ATOM     41  C   UNL A   1      39.917  32.787  37.286  1.00  0.00     0.148 A 
ATOM     42  C   UNL A   1      41.550  35.074  37.305  1.00  0.00     0.002 A 
ATOM     43  C   UNL A   1      39.846  33.693  38.339  1.00  0.00     0.091 A 
ATOM     44  F   UNL A   1      39.177  31.669  37.267  1.00  0.00    -0.205 F 
ATOM     45  C   UNL A   1      40.667  34.832  38.354  1.00  0.00     0.022 A 
BRANCH  43  46
ATOM     46  S   UNL A   1      38.684  33.498  39.697  1.00  0.00     0.127 S 
ATOM     47  O   UNL A   1      37.423  33.316  38.981  1.00  0.00    -0.237 OA
ATOM     48  O   UNL A   1      39.182  32.295  40.365  1.00  0.00    -0.237 OA
ATOM     49  O   UNL A   1      38.793  34.716  40.488  1.00  0.00    -0.744 OA
ENDBRANCH  43  46
ENDBRANCH  25  39
BRANCH  26  50
ATOM     50  C   UNL A   1      41.010  27.409  27.963  1.00  0.00     0.023 A 
ATOM     51  C   UNL A   1      41.643  27.890  26.800  1.00  0.00     0.012 A 
ATOM     52  C   UNL A   1      40.465  26.111  27.961  1.00  0.00     0.148 A 
ATOM     53  C   UNL A   1      41.713  27.101  25.652  1.00  0.00     0.002 A 
ATOM     54  C   UNL A   1      40.589  25.309  26.831  1.00  0.00     0.091 A 
ATOM     55  F   UNL A   1      39.848  25.677  29.070  1.00  0.00    -0.205 F 
ATOM     56  C   UNL A   1      41.199  25.808  25.671  1.00  0.00     0.022 A 
BRANCH  54  57
ATOM     57  S   UNL A   1      40.086  23.585  26.831  1.00  0.00     0.127 S 
ATOM     58  O   UNL A   1      38.684  23.681  26.437  1.00  0.00    -0.237 OA
ATOM     59  O   UNL A   1      40.972  23.005  25.821  1.00  0.00    -0.237 OA
ATOM     60  O   UNL A   1      40.339  23.109  28.186  1.00  0.00    -0.744 OA
ENDBRANCH  54  57
ENDBRANCH  26  50
BRANCH  38  61
ATOM     61  C   UNL A   1      44.542  27.292  33.978  1.00  0.00     0.023 A 
ATOM     62  C   UNL A   1      45.878  27.641  33.703  1.00  0.00     0.012 A 
ATOM     63  C   UNL A   1      44.272  26.166  34.778  1.00  0.00     0.148 A 
ATOM     64  C   UNL A   1      46.929  26.864  34.191  1.00  0.00     0.002 A 
ATOM     65  C   UNL A   1      45.324  25.420  35.296  1.00  0.00     0.091 A 
ATOM     66  F   UNL A   1      42.993  25.833  35.010  1.00  0.00    -0.205 F 
ATOM     67  C   UNL A   1      46.652  25.761  34.996  1.00  0.00     0.022 A 
BRANCH  65  68
ATOM     68  S   UNL A   1      45.050  24.039  36.413  1.00  0.00     0.127 S 
ATOM     69  O   UNL A   1      44.321  23.104  35.559  1.00  0.00    -0.237 OA
ATOM     70  O   UNL A   1      46.413  23.624  36.746  1.00  0.00    -0.237 OA
ATOM     71  O   UNL A   1      44.302  24.588  37.536  1.00  0.00    -0.744 OA
ENDBRANCH  65  68
ENDBRANCH  38  61
ENDBRANCH  12  13
ENDBRANCH   5   7
ENDBRANCH   2   3
ENDBRANCH   1   2
BRANCH   1  72
ATOM     72  C   UNL A   1      31.106  31.157  26.500  1.00  0.00     0.117 C 
BRANCH  72  73
ATOM     73  N   UNL A   1      31.435  30.493  25.250  1.00  0.00    -0.356 N 
ATOM     74  C   UNL A   1      32.271  29.439  25.029  1.00  0.00     0.226 C 
ATOM     75  H   UNL A   1      30.991  30.855  24.449  1.00  0.00     0.163 HD
ATOM     76  O   UNL A   1      32.534  29.136  23.864  1.00  0.00    -0.274 OA
BRANCH  74  77
ATOM     77  C   UNL A   1      32.808  28.644  26.223  1.00  0.00     0.103 C 
ATOM     78  C   UNL A   1      33.967  27.760  25.872  1.00  0.00    -0.016 C 
ATOM     79  C   UNL A   1      31.781  27.608  26.710  1.00  0.00     0.042 C 
ATOM     80  C   UNL A   1      33.612  26.473  25.787  1.00  0.00    -0.011 C 
ATOM     81  C   UNL A   1      32.153  26.285  26.014  1.00  0.00     0.093 C 
BRANCH  81  82
ATOM     82  N   UNL A   1      31.852  25.186  26.922  1.00  0.00    -0.204 NA
ATOM     83  H   UNL A   1      31.088  25.513  27.514  1.00  0.00     0.142 HD
BRANCH  82  84
ATOM     84  S   UNL A   1      31.405  23.661  26.392  1.00  0.00     0.244 S 
ATOM     85  O   UNL A   1      30.701  22.998  27.462  1.00  0.00    -0.207 OA
ATOM     86  O   UNL A   1      30.799  23.898  25.098  1.00  0.00    -0.207 OA
BRANCH  84  87
ATOM     87  C   UNL A   1      32.891  22.772  26.089  1.00  0.00     0.121 A 
ATOM     88  C   UNL A   1      34.150  23.221  26.502  1.00  0.00     0.028 A 
ATOM     89  C   UNL A   1      32.758  21.548  25.437  1.00  0.00     0.181 A 
ATOM     90  C   UNL A   1      35.269  22.411  26.290  1.00  0.00     0.044 A 
ATOM     91  C   UNL A   1      33.874  20.754  25.216  1.00  0.00     0.195 A 
ATOM     92  F   UNL A   1      31.561  21.124  25.006  1.00  0.00    -0.202 F 
ATOM     93  C   UNL A   1      35.122  21.181  25.650  1.00  0.00     0.161 A 
ATOM     94  F   UNL A   1      33.749  19.580  24.582  1.00  0.00    -0.200 F 
ATOM     95  F   UNL A   1      36.203  20.415  25.451  1.00  0.00    -0.204 F 
ENDBRANCH  84  87
ENDBRANCH  82  84
ENDBRANCH  81  82
ENDBRANCH  74  77
ENDBRANCH  72  73
ENDBRANCH   1  72
TORSDOF 16
ENDMDL
