MODEL 1
REMARK VINA RESULT:     -12.1      0.000      0.000
REMARK SMILES COc1cc(/C=N/c2cccc(F)c2)ccc1OCc1cccc(C(=O)NCCCNC(=O)c2ccc(-c3c4nc(c(-c5cccc(S(=O)(=O)[O-])c5F)c5ccc([nH]5)c(-c5cccc(S(=O)(=O)[O-])c5F)c5nc(c(-c6cccc(S(=O)(=O)[O-])c6F)c6ccc3[nH]6)C=C5)C=C4)cc2)c1
REMARK SMILES IDX 28 1 27 2 25 3 26 4 24 6 20 7 21 8 97 9 22 10 23 11 19 12
REMARK SMILES IDX 18 13 17 14 3 15 4 16 5 17 16 18 15 19 2 20 1 21 6 22 7 23
REMARK SMILES IDX 8 24 9 25 14 26 10 27 12 28 11 29 13 30 29 31 30 32 31 33
REMARK SMILES IDX 32 34 33 36 34 37 35 38 96 39 36 40 95 41 37 42 38 43 39 44
REMARK SMILES IDX 89 45 40 46 94 47 88 48 90 49 41 50 93 51 87 52 86 53 42 55
REMARK SMILES IDX 74 56 54 57 73 58 55 59 58 60 72 61 91 62 56 63 57 64 71 66
REMARK SMILES IDX 92 67 59 68 43 69 44 70 52 71 45 72 47 73 53 74 46 75 48 76
REMARK SMILES IDX 49 77 50 78 51 79 75 80 76 81 84 82 77 83 79 84 85 85 78 86
REMARK SMILES IDX 80 87 81 88 82 89 83 90 60 91 61 92 69 93 62 94 64 95 70 96
REMARK SMILES IDX 63 97 65 98 66 99 67 100 68 101
REMARK H PARENT 27 5 31 35 90 54 58 65
REMARK Flexibility Score: inf
ROOT
ATOM      1  C   UNL A   1      36.845  20.723  24.998  1.00  0.00     0.118 C 
ENDROOT
BRANCH   1   2
ATOM      2  N   UNL A   1      35.626  19.946  24.936  1.00  0.00    -0.352 N 
ATOM      3  C   UNL A   1      34.299  20.295  24.987  1.00  0.00     0.251 C 
ATOM      4  O   UNL A   1      33.473  19.403  24.775  1.00  0.00    -0.269 OA
ATOM      5  H   UNL A   1      35.778  18.979  24.839  1.00  0.00     0.163 HD
BRANCH   3   6
ATOM      6  C   UNL A   1      33.798  21.647  25.382  1.00  0.00     0.040 A 
ATOM      7  C   UNL A   1      33.569  24.082  25.174  1.00  0.00    -0.010 A 
ATOM      8  C   UNL A   1      32.921  24.096  26.423  1.00  0.00     0.007 A 
ATOM      9  C   UNL A   1      33.937  22.829  24.637  1.00  0.00     0.021 A 
ATOM     10  C   UNL A   1      32.669  22.916  27.118  1.00  0.00     0.001 A 
ATOM     11  C   UNL A   1      33.126  21.703  26.610  1.00  0.00     0.014 A 
BRANCH   7  12
ATOM     12  C   UNL A   1      33.967  25.436  24.583  1.00  0.00     0.265 C 
BRANCH  12  13
ATOM     13  O   UNL A   1      32.965  26.429  24.382  1.00  0.00    -0.485 OA
BRANCH  13  14
ATOM     14  C   UNL A   1      33.094  27.657  24.963  1.00  0.00     0.161 A 
ATOM     15  C   UNL A   1      32.539  28.875  24.546  1.00  0.00     0.161 A 
ATOM     16  C   UNL A   1      32.624  29.988  25.397  1.00  0.00     0.060 A 
ATOM     17  C   UNL A   1      33.282  29.875  26.637  1.00  0.00    -0.003 A 
ATOM     18  C   UNL A   1      33.859  27.607  26.137  1.00  0.00     0.051 A 
ATOM     19  C   UNL A   1      33.957  28.709  26.978  1.00  0.00     0.014 A 
BRANCH  15  20
ATOM     20  O   UNL A   1      32.123  29.013  23.249  1.00  0.00    -0.493 OA
ATOM     21  C   UNL A   1      30.721  28.909  23.018  1.00  0.00     0.278 C 
ENDBRANCH  15  20
BRANCH  17  22
ATOM     22  C   UNL A   1      33.393  31.019  27.562  1.00  0.00     0.120 C 
ATOM     23  N   UNL A   1      34.528  31.603  27.795  1.00  0.00    -0.256 NA
BRANCH  23  24
ATOM     24  C   UNL A   1      34.634  32.579  28.829  1.00  0.00     0.066 A 
ATOM     25  C   UNL A   1      35.305  32.192  30.003  1.00  0.00     0.028 A 
ATOM     26  C   UNL A   1      34.010  33.833  28.832  1.00  0.00     0.067 A 
ATOM     27  C   UNL A   1      35.305  32.994  31.154  1.00  0.00     0.005 A 
ATOM     28  C   UNL A   1      34.011  34.627  29.980  1.00  0.00     0.125 A 
ATOM     29  C   UNL A   1      34.642  34.216  31.144  1.00  0.00     0.039 A 
ATOM     30  F   UNL A   1      33.367  35.802  29.963  1.00  0.00    -0.207 F 
ENDBRANCH  23  24
ENDBRANCH  17  22
ENDBRANCH  13  14
ENDBRANCH  12  13
ENDBRANCH   7  12
ENDBRANCH   3   6
ENDBRANCH   1   2
BRANCH   1  31
ATOM     31  C   UNL A   1      38.127  19.894  25.002  1.00  0.00     0.042 C 
BRANCH  31  32
ATOM     32  C   UNL A   1      39.271  20.493  25.820  1.00  0.00     0.118 C 
BRANCH  32  33
ATOM     33  N   UNL A   1      40.322  19.518  26.068  1.00  0.00    -0.352 N 
ATOM     34  C   UNL A   1      41.687  19.579  26.125  1.00  0.00     0.251 C 
ATOM     35  H   UNL A   1      39.973  18.612  26.231  1.00  0.00     0.163 HD
ATOM     36  O   UNL A   1      42.319  18.544  25.904  1.00  0.00    -0.269 OA
BRANCH  34  37
ATOM     37  C   UNL A   1      42.465  20.789  26.431  1.00  0.00     0.039 A 
ATOM     38  C   UNL A   1      42.698  21.656  25.349  1.00  0.00     0.014 A 
ATOM     39  C   UNL A   1      42.963  21.116  27.686  1.00  0.00     0.014 A 
ATOM     40  C   UNL A   1      43.315  22.881  25.545  1.00  0.00     0.010 A 
ATOM     41  C   UNL A   1      43.462  22.391  27.911  1.00  0.00     0.010 A 
ATOM     42  C   UNL A   1      43.620  23.284  26.845  1.00  0.00    -0.014 A 
BRANCH  42  43
ATOM     43  C   UNL A   1      44.043  24.668  27.111  1.00  0.00     0.031 A 
ATOM     44  C   UNL A   1      43.054  25.661  27.633  1.00  0.00     0.074 A 
ATOM     45  C   UNL A   1      45.301  25.018  26.781  1.00  0.00     0.049 A 
ATOM     46  N   UNL A   1      43.218  26.934  27.864  1.00  0.00    -0.248 NA
ATOM     47  C   UNL A   1      41.688  25.172  27.890  1.00  0.00     0.031 C 
ATOM     48  C   UNL A   1      46.297  24.126  26.172  1.00  0.00     0.029 A 
ATOM     49  N   UNL A   1      45.956  26.213  26.892  1.00  0.00    -0.354 N 
ATOM     50  C   UNL A   1      41.970  27.409  28.245  1.00  0.00     0.074 A 
ATOM     51  C   UNL A   1      41.050  26.297  28.177  1.00  0.00     0.031 C 
ATOM     52  C   UNL A   1      47.442  24.799  25.990  1.00  0.00     0.029 A 
ATOM     53  C   UNL A   1      47.252  26.173  26.432  1.00  0.00     0.049 A 
ATOM     54  H   UNL A   1      45.541  27.023  27.265  1.00  0.00     0.167 HD
ATOM     55  C   UNL A   1      41.639  28.657  28.645  1.00  0.00     0.034 A 
ATOM     56  C   UNL A   1      48.180  27.144  26.380  1.00  0.00     0.034 A 
ATOM     57  C   UNL A   1      42.592  29.727  28.749  1.00  0.00     0.049 A 
ATOM     58  C   UNL A   1      47.808  28.492  26.927  1.00  0.00     0.074 A 
ATOM     59  C   UNL A   1      42.399  31.015  29.209  1.00  0.00     0.029 A 
ATOM     60  N   UNL A   1      43.930  29.622  28.391  1.00  0.00    -0.354 N 
ATOM     61  N   UNL A   1      46.657  28.895  27.414  1.00  0.00    -0.248 NA
ATOM     62  C   UNL A   1      48.868  29.506  26.964  1.00  0.00     0.031 C 
ATOM     63  C   UNL A   1      43.621  31.693  29.118  1.00  0.00     0.029 A 
ATOM     64  C   UNL A   1      44.580  30.820  28.627  1.00  0.00     0.049 A 
ATOM     65  H   UNL A   1      44.354  28.814  28.023  1.00  0.00     0.167 HD
ATOM     66  C   UNL A   1      46.863  30.196  27.850  1.00  0.00     0.074 A 
ATOM     67  C   UNL A   1      48.257  30.502  27.591  1.00  0.00     0.031 C 
ATOM     68  C   UNL A   1      45.981  31.067  28.401  1.00  0.00     0.034 A 
BRANCH  55  69
ATOM     69  C   UNL A   1      40.206  28.902  29.039  1.00  0.00     0.023 A 
ATOM     70  C   UNL A   1      39.236  29.128  28.040  1.00  0.00     0.012 A 
ATOM     71  C   UNL A   1      39.814  28.896  30.391  1.00  0.00     0.148 A 
ATOM     72  C   UNL A   1      37.909  29.385  28.381  1.00  0.00     0.002 A 
ATOM     73  C   UNL A   1      38.479  29.104  30.721  1.00  0.00     0.091 A 
ATOM     74  F   UNL A   1      40.753  28.708  31.330  1.00  0.00    -0.205 F 
ATOM     75  C   UNL A   1      37.529  29.364  29.719  1.00  0.00     0.022 A 
BRANCH  73  76
ATOM     76  S   UNL A   1      37.873  29.023  32.409  1.00  0.00     0.127 S 
ATOM     77  O   UNL A   1      38.052  27.606  32.719  1.00  0.00    -0.237 OA
ATOM     78  O   UNL A   1      38.792  29.921  33.109  1.00  0.00    -0.237 OA
ATOM     79  O   UNL A   1      36.491  29.482  32.363  1.00  0.00    -0.744 OA
ENDBRANCH  73  76
ENDBRANCH  55  69
BRANCH  56  80
ATOM     80  C   UNL A   1      49.553  26.843  25.889  1.00  0.00     0.023 A 
ATOM     81  C   UNL A   1      50.440  26.127  26.716  1.00  0.00     0.012 A 
ATOM     82  C   UNL A   1      49.970  27.210  24.594  1.00  0.00     0.148 A 
ATOM     83  C   UNL A   1      51.728  25.816  26.281  1.00  0.00     0.002 A 
ATOM     84  C   UNL A   1      51.236  26.850  24.146  1.00  0.00     0.091 A 
ATOM     85  F   UNL A   1      49.113  27.891  23.821  1.00  0.00    -0.205 F 
ATOM     86  C   UNL A   1      52.123  26.169  24.994  1.00  0.00     0.022 A 
BRANCH  84  87
ATOM     87  S   UNL A   1      51.775  27.148  22.458  1.00  0.00     0.127 S 
ATOM     88  O   UNL A   1      52.468  28.431  22.590  1.00  0.00    -0.237 OA
ATOM     89  O   UNL A   1      52.653  26.001  22.213  1.00  0.00    -0.237 OA
ATOM     90  O   UNL A   1      50.567  27.159  21.656  1.00  0.00    -0.744 OA
ENDBRANCH  84  87
ENDBRANCH  56  80
BRANCH  68  91
ATOM     91  C   UNL A   1      46.515  32.415  28.796  1.00  0.00     0.023 A 
ATOM     92  C   UNL A   1      47.117  32.590  30.058  1.00  0.00     0.012 A 
ATOM     93  C   UNL A   1      46.465  33.493  27.893  1.00  0.00     0.148 A 
ATOM     94  C   UNL A   1      47.623  33.834  30.431  1.00  0.00     0.002 A 
ATOM     95  C   UNL A   1      47.019  34.714  28.251  1.00  0.00     0.091 A 
ATOM     96  F   UNL A   1      45.866  33.311  26.706  1.00  0.00    -0.205 F 
ATOM     97  C   UNL A   1      47.585  34.891  29.524  1.00  0.00     0.022 A 
BRANCH  95  98
ATOM     98  S   UNL A   1      47.105  36.091  27.101  1.00  0.00     0.127 S 
ATOM     99  O   UNL A   1      47.716  37.131  27.926  1.00  0.00    -0.237 OA
ATOM    100  O   UNL A   1      47.968  35.563  26.045  1.00  0.00    -0.237 OA
ATOM    101  O   UNL A   1      45.732  36.342  26.683  1.00  0.00    -0.744 OA
ENDBRANCH  95  98
ENDBRANCH  68  91
ENDBRANCH  42  43
ENDBRANCH  34  37
ENDBRANCH  32  33
ENDBRANCH  31  32
ENDBRANCH   1  31
TORSDOF 19
ENDMDL
MODEL 2
REMARK VINA RESULT:     -11.6      4.281     10.669
REMARK SMILES COc1cc(/C=N/c2cccc(F)c2)ccc1OCc1cccc(C(=O)NCCCNC(=O)c2ccc(-c3c4nc(c(-c5cccc(S(=O)(=O)[O-])c5F)c5ccc([nH]5)c(-c5cccc(S(=O)(=O)[O-])c5F)c5nc(c(-c6cccc(S(=O)(=O)[O-])c6F)c6ccc3[nH]6)C=C5)C=C4)cc2)c1
REMARK SMILES IDX 28 1 27 2 25 3 26 4 24 6 20 7 21 8 97 9 22 10 23 11 19 12
REMARK SMILES IDX 18 13 17 14 3 15 4 16 5 17 16 18 15 19 2 20 1 21 6 22 7 23
REMARK SMILES IDX 8 24 9 25 14 26 10 27 12 28 11 29 13 30 29 31 30 32 31 33
REMARK SMILES IDX 32 34 33 36 34 37 35 38 96 39 36 40 95 41 37 42 38 43 39 44
REMARK SMILES IDX 89 45 40 46 94 47 88 48 90 49 41 50 93 51 87 52 86 53 42 55
REMARK SMILES IDX 74 56 54 57 73 58 55 59 58 60 72 61 91 62 56 63 57 64 71 66
REMARK SMILES IDX 92 67 59 68 43 69 44 70 52 71 45 72 47 73 53 74 46 75 48 76
REMARK SMILES IDX 49 77 50 78 51 79 75 80 76 81 84 82 77 83 79 84 85 85 78 86
REMARK SMILES IDX 80 87 81 88 82 89 83 90 60 91 61 92 69 93 62 94 64 95 70 96
REMARK SMILES IDX 63 97 65 98 66 99 67 100 68 101
REMARK H PARENT 27 5 31 35 90 54 58 65
REMARK Flexibility Score: inf
ROOT
ATOM      1  C   UNL A   1      45.550  23.011  25.759  1.00  0.00     0.118 C 
ENDROOT
BRANCH   1   2
ATOM      2  N   UNL A   1      45.664  24.360  25.251  1.00  0.00    -0.352 N 
ATOM      3  C   UNL A   1      46.567  25.367  25.486  1.00  0.00     0.251 C 
ATOM      4  O   UNL A   1      46.473  26.383  24.792  1.00  0.00    -0.269 OA
ATOM      5  H   UNL A   1      44.957  24.604  24.612  1.00  0.00     0.163 HD
BRANCH   3   6
ATOM      6  C   UNL A   1      47.576  25.353  26.589  1.00  0.00     0.040 A 
ATOM      7  C   UNL A   1      48.331  25.563  28.916  1.00  0.00    -0.010 A 
ATOM      8  C   UNL A   1      49.659  25.485  28.459  1.00  0.00     0.007 A 
ATOM      9  C   UNL A   1      47.298  25.421  27.964  1.00  0.00     0.021 A 
ATOM     10  C   UNL A   1      49.948  25.297  27.110  1.00  0.00     0.001 A 
ATOM     11  C   UNL A   1      48.913  25.255  26.180  1.00  0.00     0.014 A 
BRANCH   7  12
ATOM     12  C   UNL A   1      48.121  25.958  30.379  1.00  0.00     0.265 C 
BRANCH  12  13
ATOM     13  O   UNL A   1      46.939  25.532  31.052  1.00  0.00    -0.485 OA
BRANCH  13  14
ATOM     14  C   UNL A   1      45.902  26.401  31.227  1.00  0.00     0.161 A 
ATOM     15  C   UNL A   1      44.528  26.142  31.121  1.00  0.00     0.161 A 
ATOM     16  C   UNL A   1      43.616  27.125  31.539  1.00  0.00     0.060 A 
ATOM     17  C   UNL A   1      44.090  28.357  32.031  1.00  0.00    -0.003 A 
ATOM     18  C   UNL A   1      46.343  27.682  31.590  1.00  0.00     0.051 A 
ATOM     19  C   UNL A   1      45.444  28.662  31.994  1.00  0.00     0.014 A 
BRANCH  15  20
ATOM     20  O   UNL A   1      44.105  25.043  30.422  1.00  0.00    -0.493 OA
ATOM     21  C   UNL A   1      44.027  23.821  31.150  1.00  0.00     0.278 C 
ENDBRANCH  15  20
BRANCH  17  22
ATOM     22  C   UNL A   1      43.166  29.415  32.482  1.00  0.00     0.120 C 
ATOM     23  N   UNL A   1      42.117  29.148  33.197  1.00  0.00    -0.256 NA
BRANCH  23  24
ATOM     24  C   UNL A   1      41.149  30.162  33.458  1.00  0.00     0.066 A 
ATOM     25  C   UNL A   1      41.579  31.496  33.338  1.00  0.00     0.028 A 
ATOM     26  C   UNL A   1      39.858  29.949  33.956  1.00  0.00     0.067 A 
ATOM     27  C   UNL A   1      40.780  32.572  33.754  1.00  0.00     0.005 A 
ATOM     28  C   UNL A   1      39.067  31.022  34.369  1.00  0.00     0.125 A 
ATOM     29  C   UNL A   1      39.518  32.330  34.284  1.00  0.00     0.039 A 
ATOM     30  F   UNL A   1      37.853  30.780  34.883  1.00  0.00    -0.207 F 
ENDBRANCH  23  24
ENDBRANCH  17  22
ENDBRANCH  13  14
ENDBRANCH  12  13
ENDBRANCH   7  12
ENDBRANCH   3   6
ENDBRANCH   1   2
BRANCH   1  31
ATOM     31  C   UNL A   1      44.137  22.607  26.175  1.00  0.00     0.042 C 
BRANCH  31  32
ATOM     32  C   UNL A   1      43.176  22.359  25.013  1.00  0.00     0.118 C 
BRANCH  32  33
ATOM     33  N   UNL A   1      41.859  21.955  25.481  1.00  0.00    -0.352 N 
ATOM     34  C   UNL A   1      40.975  22.455  26.397  1.00  0.00     0.251 C 
ATOM     35  H   UNL A   1      41.530  21.139  25.039  1.00  0.00     0.163 HD
ATOM     36  O   UNL A   1      40.165  21.675  26.900  1.00  0.00    -0.269 OA
BRANCH  34  37
ATOM     37  C   UNL A   1      40.915  23.859  26.830  1.00  0.00     0.039 A 
ATOM     38  C   UNL A   1      41.288  24.103  28.165  1.00  0.00     0.014 A 
ATOM     39  C   UNL A   1      40.528  24.923  26.026  1.00  0.00     0.014 A 
ATOM     40  C   UNL A   1      41.385  25.399  28.645  1.00  0.00     0.010 A 
ATOM     41  C   UNL A   1      40.747  26.222  26.460  1.00  0.00     0.010 A 
ATOM     42  C   UNL A   1      41.195  26.463  27.763  1.00  0.00    -0.014 A 
BRANCH  42  43
ATOM     43  C   UNL A   1      41.531  27.835  28.177  1.00  0.00     0.031 A 
ATOM     44  C   UNL A   1      42.954  28.294  28.149  1.00  0.00     0.074 A 
ATOM     45  C   UNL A   1      40.540  28.609  28.660  1.00  0.00     0.049 A 
ATOM     46  N   UNL A   1      43.453  29.434  28.536  1.00  0.00    -0.248 NA
ATOM     47  C   UNL A   1      43.958  27.330  27.663  1.00  0.00     0.031 C 
ATOM     48  C   UNL A   1      39.139  28.195  28.812  1.00  0.00     0.029 A 
ATOM     49  N   UNL A   1      40.554  29.893  29.129  1.00  0.00    -0.354 N 
ATOM     50  C   UNL A   1      44.828  29.311  28.388  1.00  0.00     0.074 A 
ATOM     51  C   UNL A   1      45.089  27.971  27.914  1.00  0.00     0.031 C 
ATOM     52  C   UNL A   1      38.427  29.216  29.311  1.00  0.00     0.029 A 
ATOM     53  C   UNL A   1      39.323  30.338  29.549  1.00  0.00     0.049 A 
ATOM     54  H   UNL A   1      41.368  30.446  29.162  1.00  0.00     0.167 HD
ATOM     55  C   UNL A   1      45.778  30.249  28.602  1.00  0.00     0.034 A 
ATOM     56  C   UNL A   1      38.964  31.526  30.065  1.00  0.00     0.034 A 
ATOM     57  C   UNL A   1      45.477  31.588  29.026  1.00  0.00     0.049 A 
ATOM     58  C   UNL A   1      40.027  32.579  30.193  1.00  0.00     0.074 A 
ATOM     59  C   UNL A   1      46.340  32.652  29.209  1.00  0.00     0.029 A 
ATOM     60  N   UNL A   1      44.201  32.048  29.326  1.00  0.00    -0.354 N 
ATOM     61  N   UNL A   1      41.308  32.494  29.921  1.00  0.00    -0.248 NA
ATOM     62  C   UNL A   1      39.594  33.903  30.653  1.00  0.00     0.031 C 
ATOM     63  C   UNL A   1      45.584  33.752  29.630  1.00  0.00     0.029 A 
ATOM     64  C   UNL A   1      44.249  33.381  29.685  1.00  0.00     0.049 A 
ATOM     65  H   UNL A   1      43.382  31.502  29.290  1.00  0.00     0.167 HD
ATOM     66  C   UNL A   1      41.829  33.760  30.139  1.00  0.00     0.074 A 
ATOM     67  C   UNL A   1      40.717  34.600  30.543  1.00  0.00     0.031 C 
ATOM     68  C   UNL A   1      43.110  34.194  30.032  1.00  0.00     0.034 A 
BRANCH  55  69
ATOM     69  C   UNL A   1      47.208  29.862  28.333  1.00  0.00     0.023 A 
ATOM     70  C   UNL A   1      47.604  29.517  27.024  1.00  0.00     0.012 A 
ATOM     71  C   UNL A   1      48.164  29.853  29.366  1.00  0.00     0.148 A 
ATOM     72  C   UNL A   1      48.915  29.128  26.755  1.00  0.00     0.002 A 
ATOM     73  C   UNL A   1      49.482  29.512  29.081  1.00  0.00     0.091 A 
ATOM     74  F   UNL A   1      47.766  30.156  30.610  1.00  0.00    -0.205 F 
ATOM     75  C   UNL A   1      49.856  29.135  27.780  1.00  0.00     0.022 A 
BRANCH  73  76
ATOM     76  S   UNL A   1      50.786  29.561  30.315  1.00  0.00     0.127 S 
ATOM     77  O   UNL A   1      50.188  28.794  31.407  1.00  0.00    -0.237 OA
ATOM     78  O   UNL A   1      51.885  28.886  29.626  1.00  0.00    -0.237 OA
ATOM     79  O   UNL A   1      51.019  30.971  30.598  1.00  0.00    -0.744 OA
ENDBRANCH  73  76
ENDBRANCH  55  69
BRANCH  56  80
ATOM     80  C   UNL A   1      37.537  31.800  30.393  1.00  0.00     0.023 A 
ATOM     81  C   UNL A   1      37.085  31.612  31.714  1.00  0.00     0.012 A 
ATOM     82  C   UNL A   1      36.640  32.294  29.425  1.00  0.00     0.148 A 
ATOM     83  C   UNL A   1      35.758  31.873  32.057  1.00  0.00     0.002 A 
ATOM     84  C   UNL A   1      35.333  32.603  29.786  1.00  0.00     0.091 A 
ATOM     85  F   UNL A   1      37.088  32.466  28.174  1.00  0.00    -0.205 F 
ATOM     86  C   UNL A   1      34.885  32.376  31.097  1.00  0.00     0.022 A 
BRANCH  84  87
ATOM     87  S   UNL A   1      34.183  33.380  28.646  1.00  0.00     0.127 S 
ATOM     88  O   UNL A   1      35.095  34.010  27.689  1.00  0.00    -0.237 OA
ATOM     89  O   UNL A   1      33.448  32.226  28.121  1.00  0.00    -0.237 OA
ATOM     90  O   UNL A   1      33.383  34.285  29.450  1.00  0.00    -0.744 OA
ENDBRANCH  84  87
ENDBRANCH  56  80
BRANCH  68  91
ATOM     91  C   UNL A   1      43.362  35.648  30.317  1.00  0.00     0.023 A 
ATOM     92  C   UNL A   1      43.763  36.053  31.604  1.00  0.00     0.012 A 
ATOM     93  C   UNL A   1      43.250  36.603  29.290  1.00  0.00     0.148 A 
ATOM     94  C   UNL A   1      44.008  37.398  31.877  1.00  0.00     0.002 A 
ATOM     95  C   UNL A   1      43.548  37.933  29.554  1.00  0.00     0.091 A 
ATOM     96  F   UNL A   1      42.844  36.199  28.076  1.00  0.00    -0.205 F 
ATOM     97  C   UNL A   1      43.912  38.334  30.850  1.00  0.00     0.022 A 
BRANCH  95  98
ATOM     98  S   UNL A   1      43.551  39.180  28.262  1.00  0.00     0.127 S 
ATOM     99  O   UNL A   1      42.121  39.367  28.024  1.00  0.00    -0.237 OA
ATOM    100  O   UNL A   1      44.213  40.308  28.918  1.00  0.00    -0.237 OA
ATOM    101  O   UNL A   1      44.304  38.602  27.157  1.00  0.00    -0.744 OA
ENDBRANCH  95  98
ENDBRANCH  68  91
ENDBRANCH  42  43
ENDBRANCH  34  37
ENDBRANCH  32  33
ENDBRANCH  31  32
ENDBRANCH   1  31
TORSDOF 19
ENDMDL
MODEL 3
REMARK VINA RESULT:     -11.3      5.826     12.174
REMARK SMILES COc1cc(/C=N/c2cccc(F)c2)ccc1OCc1cccc(C(=O)NCCCNC(=O)c2ccc(-c3c4nc(c(-c5cccc(S(=O)(=O)[O-])c5F)c5ccc([nH]5)c(-c5cccc(S(=O)(=O)[O-])c5F)c5nc(c(-c6cccc(S(=O)(=O)[O-])c6F)c6ccc3[nH]6)C=C5)C=C4)cc2)c1
REMARK SMILES IDX 28 1 27 2 25 3 26 4 24 6 20 7 21 8 97 9 22 10 23 11 19 12
REMARK SMILES IDX 18 13 17 14 3 15 4 16 5 17 16 18 15 19 2 20 1 21 6 22 7 23
REMARK SMILES IDX 8 24 9 25 14 26 10 27 12 28 11 29 13 30 29 31 30 32 31 33
REMARK SMILES IDX 32 34 33 36 34 37 35 38 96 39 36 40 95 41 37 42 38 43 39 44
REMARK SMILES IDX 89 45 40 46 94 47 88 48 90 49 41 50 93 51 87 52 86 53 42 55
REMARK SMILES IDX 74 56 54 57 73 58 55 59 58 60 72 61 91 62 56 63 57 64 71 66
REMARK SMILES IDX 92 67 59 68 43 69 44 70 52 71 45 72 47 73 53 74 46 75 48 76
REMARK SMILES IDX 49 77 50 78 51 79 75 80 76 81 84 82 77 83 79 84 85 85 78 86
REMARK SMILES IDX 80 87 81 88 82 89 83 90 60 91 61 92 69 93 62 94 64 95 70 96
REMARK SMILES IDX 63 97 65 98 66 99 67 100 68 101
REMARK H PARENT 27 5 31 35 90 54 58 65
REMARK Flexibility Score: inf
ROOT
ATOM      1  C   UNL A   1      33.735  31.969  27.577  1.00  0.00     0.118 C 
ENDROOT
BRANCH   1   2
ATOM      2  N   UNL A   1      34.747  30.956  27.782  1.00  0.00    -0.352 N 
ATOM      3  C   UNL A   1      34.860  29.657  27.350  1.00  0.00     0.251 C 
ATOM      4  O   UNL A   1      35.922  29.075  27.587  1.00  0.00    -0.269 OA
ATOM      5  H   UNL A   1      35.500  31.255  28.340  1.00  0.00     0.163 HD
BRANCH   3   6
ATOM      6  C   UNL A   1      33.753  28.882  26.712  1.00  0.00     0.040 A 
ATOM      7  C   UNL A   1      32.529  27.891  24.828  1.00  0.00    -0.010 A 
ATOM      8  C   UNL A   1      31.481  27.581  25.713  1.00  0.00     0.007 A 
ATOM      9  C   UNL A   1      33.694  28.480  25.368  1.00  0.00     0.021 A 
ATOM     10  C   UNL A   1      31.576  27.866  27.073  1.00  0.00     0.001 A 
ATOM     11  C   UNL A   1      32.696  28.532  27.563  1.00  0.00     0.014 A 
BRANCH   7  12
ATOM     12  C   UNL A   1      32.253  27.714  23.334  1.00  0.00     0.265 C 
BRANCH  12  13
ATOM     13  O   UNL A   1      31.362  26.686  22.909  1.00  0.00    -0.485 OA
BRANCH  13  14
ATOM     14  C   UNL A   1      31.792  25.393  22.843  1.00  0.00     0.161 A 
ATOM     15  C   UNL A   1      32.865  24.874  22.104  1.00  0.00     0.161 A 
ATOM     16  C   UNL A   1      33.270  23.549  22.333  1.00  0.00     0.060 A 
ATOM     17  C   UNL A   1      32.584  22.758  23.274  1.00  0.00    -0.003 A 
ATOM     18  C   UNL A   1      31.043  24.545  23.671  1.00  0.00     0.051 A 
ATOM     19  C   UNL A   1      31.433  23.230  23.892  1.00  0.00     0.014 A 
BRANCH  15  20
ATOM     20  O   UNL A   1      33.350  25.583  21.038  1.00  0.00    -0.493 OA
ATOM     21  C   UNL A   1      32.627  25.465  19.817  1.00  0.00     0.278 C 
ENDBRANCH  15  20
BRANCH  17  22
ATOM     22  C   UNL A   1      32.978  21.363  23.546  1.00  0.00     0.120 C 
ATOM     23  N   UNL A   1      32.195  20.365  23.271  1.00  0.00    -0.256 NA
BRANCH  23  24
ATOM     24  C   UNL A   1      32.526  19.051  23.714  1.00  0.00     0.066 A 
ATOM     25  C   UNL A   1      32.296  18.761  25.071  1.00  0.00     0.028 A 
ATOM     26  C   UNL A   1      33.185  18.076  22.954  1.00  0.00     0.067 A 
ATOM     27  C   UNL A   1      32.757  17.575  25.663  1.00  0.00     0.005 A 
ATOM     28  C   UNL A   1      33.642  16.898  23.547  1.00  0.00     0.125 A 
ATOM     29  C   UNL A   1      33.445  16.643  24.896  1.00  0.00     0.039 A 
ATOM     30  F   UNL A   1      34.309  16.006  22.801  1.00  0.00    -0.207 F 
ENDBRANCH  23  24
ENDBRANCH  17  22
ENDBRANCH  13  14
ENDBRANCH  12  13
ENDBRANCH   7  12
ENDBRANCH   3   6
ENDBRANCH   1   2
BRANCH   1  31
ATOM     31  C   UNL A   1      34.098  33.348  28.124  1.00  0.00     0.042 C 
BRANCH  31  32
ATOM     32  C   UNL A   1      32.920  34.311  28.260  1.00  0.00     0.118 C 
BRANCH  32  33
ATOM     33  N   UNL A   1      32.911  34.972  29.557  1.00  0.00    -0.352 N 
ATOM     34  C   UNL A   1      33.467  34.692  30.775  1.00  0.00     0.251 C 
ATOM     35  H   UNL A   1      32.389  35.806  29.558  1.00  0.00     0.163 HD
ATOM     36  O   UNL A   1      32.930  35.171  31.775  1.00  0.00    -0.269 OA
BRANCH  34  37
ATOM     37  C   UNL A   1      34.662  33.862  30.985  1.00  0.00     0.039 A 
ATOM     38  C   UNL A   1      35.897  34.506  30.789  1.00  0.00     0.014 A 
ATOM     39  C   UNL A   1      34.644  32.524  31.358  1.00  0.00     0.014 A 
ATOM     40  C   UNL A   1      37.086  33.856  31.076  1.00  0.00     0.010 A 
ATOM     41  C   UNL A   1      35.820  31.913  31.768  1.00  0.00     0.010 A 
ATOM     42  C   UNL A   1      37.041  32.585  31.648  1.00  0.00    -0.014 A 
BRANCH  42  43
ATOM     43  C   UNL A   1      38.265  31.973  32.189  1.00  0.00     0.031 A 
ATOM     44  C   UNL A   1      38.994  30.937  31.395  1.00  0.00     0.074 A 
ATOM     45  C   UNL A   1      38.638  32.308  33.440  1.00  0.00     0.049 A 
ATOM     46  N   UNL A   1      40.044  30.240  31.727  1.00  0.00    -0.248 NA
ATOM     47  C   UNL A   1      38.448  30.607  30.066  1.00  0.00     0.031 C 
ATOM     48  C   UNL A   1      37.919  33.240  34.318  1.00  0.00     0.029 A 
ATOM     49  N   UNL A   1      39.698  31.895  34.199  1.00  0.00    -0.354 N 
ATOM     50  C   UNL A   1      40.257  29.358  30.677  1.00  0.00     0.074 A 
ATOM     51  C   UNL A   1      39.203  29.578  29.713  1.00  0.00     0.031 C 
ATOM     52  C   UNL A   1      38.574  33.347  35.482  1.00  0.00     0.029 A 
ATOM     53  C   UNL A   1      39.733  32.467  35.449  1.00  0.00     0.049 A 
ATOM     54  H   UNL A   1      40.371  31.251  33.881  1.00  0.00     0.167 HD
ATOM     55  C   UNL A   1      41.263  28.467  30.526  1.00  0.00     0.034 A 
ATOM     56  C   UNL A   1      40.613  32.297  36.451  1.00  0.00     0.034 A 
ATOM     57  C   UNL A   1      42.322  28.309  31.484  1.00  0.00     0.049 A 
ATOM     58  C   UNL A   1      41.775  31.377  36.210  1.00  0.00     0.074 A 
ATOM     59  C   UNL A   1      43.436  27.495  31.415  1.00  0.00     0.029 A 
ATOM     60  N   UNL A   1      42.398  28.995  32.689  1.00  0.00    -0.354 N 
ATOM     61  N   UNL A   1      42.041  30.645  35.153  1.00  0.00    -0.248 NA
ATOM     62  C   UNL A   1      42.782  31.291  37.273  1.00  0.00     0.031 C 
ATOM     63  C   UNL A   1      44.180  27.682  32.585  1.00  0.00     0.029 A 
ATOM     64  C   UNL A   1      43.544  28.631  33.371  1.00  0.00     0.049 A 
ATOM     65  H   UNL A   1      41.732  29.645  33.011  1.00  0.00     0.167 HD
ATOM     66  C   UNL A   1      43.263  30.041  35.406  1.00  0.00     0.074 A 
ATOM     67  C   UNL A   1      43.695  30.514  36.708  1.00  0.00     0.031 C 
ATOM     68  C   UNL A   1      43.962  29.164  34.644  1.00  0.00     0.034 A 
BRANCH  55  69
ATOM     69  C   UNL A   1      41.277  27.644  29.265  1.00  0.00     0.023 A 
ATOM     70  C   UNL A   1      40.549  26.438  29.209  1.00  0.00     0.012 A 
ATOM     71  C   UNL A   1      41.996  28.067  28.131  1.00  0.00     0.148 A 
ATOM     72  C   UNL A   1      40.570  25.644  28.064  1.00  0.00     0.002 A 
ATOM     73  C   UNL A   1      41.972  27.296  26.974  1.00  0.00     0.091 A 
ATOM     74  F   UNL A   1      42.706  29.202  28.209  1.00  0.00    -0.205 F 
ATOM     75  C   UNL A   1      41.273  26.077  26.943  1.00  0.00     0.022 A 
BRANCH  73  76
ATOM     76  S   UNL A   1      42.783  27.801  25.454  1.00  0.00     0.127 S 
ATOM     77  O   UNL A   1      41.964  28.942  25.047  1.00  0.00    -0.237 OA
ATOM     78  O   UNL A   1      44.124  28.150  25.922  1.00  0.00    -0.237 OA
ATOM     79  O   UNL A   1      42.729  26.647  24.566  1.00  0.00    -0.744 OA
ENDBRANCH  73  76
ENDBRANCH  55  69
BRANCH  56  80
ATOM     80  C   UNL A   1      40.476  33.084  37.709  1.00  0.00     0.023 A 
ATOM     81  C   UNL A   1      39.679  32.580  38.754  1.00  0.00     0.012 A 
ATOM     82  C   UNL A   1      41.169  34.296  37.898  1.00  0.00     0.148 A 
ATOM     83  C   UNL A   1      39.541  33.285  39.950  1.00  0.00     0.002 A 
ATOM     84  C   UNL A   1      41.070  34.967  39.112  1.00  0.00     0.091 A 
ATOM     85  F   UNL A   1      41.922  34.761  36.892  1.00  0.00    -0.205 F 
ATOM     86  C   UNL A   1      40.243  34.473  40.133  1.00  0.00     0.022 A 
BRANCH  84  87
ATOM     87  S   UNL A   1      42.044  36.432  39.479  1.00  0.00     0.127 S 
ATOM     88  O   UNL A   1      42.157  36.356  40.937  1.00  0.00    -0.237 OA
ATOM     89  O   UNL A   1      43.288  36.158  38.755  1.00  0.00    -0.237 OA
ATOM     90  O   UNL A   1      41.282  37.551  38.958  1.00  0.00    -0.744 OA
ENDBRANCH  84  87
ENDBRANCH  56  80
BRANCH  68  91
ATOM     91  C   UNL A   1      45.284  28.697  35.185  1.00  0.00     0.023 A 
ATOM     92  C   UNL A   1      46.452  29.439  34.923  1.00  0.00     0.012 A 
ATOM     93  C   UNL A   1      45.356  27.548  35.995  1.00  0.00     0.148 A 
ATOM     94  C   UNL A   1      47.682  29.019  35.427  1.00  0.00     0.002 A 
ATOM     95  C   UNL A   1      46.574  27.168  36.539  1.00  0.00     0.091 A 
ATOM     96  F   UNL A   1      44.235  26.843  36.212  1.00  0.00    -0.205 F 
ATOM     97  C   UNL A   1      47.741  27.892  36.244  1.00  0.00     0.022 A 
BRANCH  95  98
ATOM     98  S   UNL A   1      46.714  25.791  37.684  1.00  0.00     0.127 S 
ATOM     99  O   UNL A   1      45.809  26.201  38.755  1.00  0.00    -0.237 OA
ATOM    100  O   UNL A   1      46.238  24.666  36.879  1.00  0.00    -0.237 OA
ATOM    101  O   UNL A   1      48.124  25.717  38.042  1.00  0.00    -0.744 OA
ENDBRANCH  95  98
ENDBRANCH  68  91
ENDBRANCH  42  43
ENDBRANCH  34  37
ENDBRANCH  32  33
ENDBRANCH  31  32
ENDBRANCH   1  31
TORSDOF 19
ENDMDL
