MODEL 1
REMARK VINA RESULT:     -13.2      0.000      0.000
REMARK SMILES O=C(NCCCNC(=O)c1cnccc1C(=O)N1CCC(Cc2ccccc2)CC1)c1ccc(-c2c3nc(c(-c4cccc(S(=O)(=O)[O-])c4F)c4ccc([nH]4)c(-c4cccc(S(=O)(=O)[O-])c4F)c4nc(c(-c5cccc(S(=O)(=O)[O-])c5F)c5ccc2[nH]5)C=C4)C=C3)cc1
REMARK SMILES IDX 5 1 4 2 3 3 1 4 2 5 31 7 32 8 93 9 33 10 92 11 34 12 35 13
REMARK SMILES IDX 36 14 86 15 37 16 91 17 85 18 87 19 38 20 90 21 84 22 83 23
REMARK SMILES IDX 39 25 71 26 51 27 70 28 52 29 55 30 69 31 88 32 53 33 54 34
REMARK SMILES IDX 68 36 89 37 56 38 40 39 41 40 49 41 42 42 44 43 50 44 43 45
REMARK SMILES IDX 45 46 46 47 47 48 48 49 72 50 73 51 81 52 74 53 76 54 82 55
REMARK SMILES IDX 75 56 77 57 78 58 79 59 80 60 57 61 58 62 66 63 59 64 61 65
REMARK SMILES IDX 67 66 60 67 62 68 63 69 64 70 65 71 6 72 7 73 8 74 9 76
REMARK SMILES IDX 10 77 11 78 15 79 12 80 14 81 13 82 16 83 17 84 18 85 19 86
REMARK SMILES IDX 30 87 20 88 29 89 21 90 22 91 23 92 24 93 28 94 25 95 27 96
REMARK SMILES IDX 26 97
REMARK H PARENT 3 6 87 24 55 35 7 75
REMARK Flexibility Score: inf
ROOT
ATOM      1  C   UNL A   1      31.894  31.547  26.763  1.00  0.00     0.042 C 
ENDROOT
BRANCH   1   2
ATOM      2  C   UNL A   1      33.055  32.398  27.275  1.00  0.00     0.118 C 
BRANCH   2   3
ATOM      3  N   UNL A   1      32.719  33.768  27.634  1.00  0.00    -0.352 N 
ATOM      4  O   UNL A   1      32.674  35.683  28.812  1.00  0.00    -0.269 OA
ATOM      5  C   UNL A   1      33.203  34.598  28.620  1.00  0.00     0.251 C 
ATOM      6  H   UNL A   1      32.021  34.173  27.072  1.00  0.00     0.163 HD
BRANCH   5   7
ATOM      7  C   UNL A   1      34.338  34.158  29.454  1.00  0.00     0.039 A 
ATOM      8  C   UNL A   1      35.644  34.474  29.085  1.00  0.00     0.014 A 
ATOM      9  C   UNL A   1      34.093  33.400  30.600  1.00  0.00     0.014 A 
ATOM     10  C   UNL A   1      36.703  33.833  29.706  1.00  0.00     0.010 A 
ATOM     11  C   UNL A   1      35.169  32.862  31.308  1.00  0.00     0.010 A 
ATOM     12  C   UNL A   1      36.478  33.021  30.828  1.00  0.00    -0.014 A 
BRANCH  12  13
ATOM     13  C   UNL A   1      37.632  32.374  31.496  1.00  0.00     0.031 A 
ATOM     14  C   UNL A   1      38.105  32.843  32.843  1.00  0.00     0.074 A 
ATOM     15  C   UNL A   1      38.240  31.344  30.876  1.00  0.00     0.049 A 
ATOM     16  N   UNL A   1      39.113  32.409  33.555  1.00  0.00    -0.248 NA
ATOM     17  C   UNL A   1      37.364  33.950  33.470  1.00  0.00     0.031 C 
ATOM     18  C   UNL A   1      37.875  30.824  29.555  1.00  0.00     0.029 A 
ATOM     19  N   UNL A   1      39.284  30.549  31.267  1.00  0.00    -0.354 N 
ATOM     20  C   UNL A   1      39.165  33.224  34.681  1.00  0.00     0.074 A 
ATOM     21  C   UNL A   1      38.086  34.179  34.560  1.00  0.00     0.031 C 
ATOM     22  C   UNL A   1      38.661  29.781  29.258  1.00  0.00     0.029 A 
ATOM     23  C   UNL A   1      39.629  29.601  30.333  1.00  0.00     0.049 A 
ATOM     24  H   UNL A   1      39.745  30.647  32.132  1.00  0.00     0.167 HD
ATOM     25  C   UNL A   1      40.026  33.168  35.724  1.00  0.00     0.034 A 
ATOM     26  C   UNL A   1      40.629  28.699  30.328  1.00  0.00     0.034 A 
ATOM     27  C   UNL A   1      41.059  32.176  35.857  1.00  0.00     0.049 A 
ATOM     28  C   UNL A   1      41.542  28.635  31.515  1.00  0.00     0.074 A 
ATOM     29  C   UNL A   1      41.948  31.995  36.901  1.00  0.00     0.029 A 
ATOM     30  N   UNL A   1      41.341  31.197  34.916  1.00  0.00    -0.354 N 
ATOM     31  N   UNL A   1      41.513  29.350  32.613  1.00  0.00    -0.248 NA
ATOM     32  C   UNL A   1      42.610  27.629  31.476  1.00  0.00     0.031 C 
ATOM     33  C   UNL A   1      42.775  30.910  36.587  1.00  0.00     0.029 A 
ATOM     34  C   UNL A   1      42.391  30.407  35.353  1.00  0.00     0.049 A 
ATOM     35  H   UNL A   1      40.863  31.080  34.063  1.00  0.00     0.167 HD
ATOM     36  C   UNL A   1      42.544  28.869  33.407  1.00  0.00     0.074 A 
ATOM     37  C   UNL A   1      43.163  27.784  32.672  1.00  0.00     0.031 C 
ATOM     38  C   UNL A   1      42.955  29.299  34.625  1.00  0.00     0.034 A 
BRANCH  25  39
ATOM     39  C   UNL A   1      39.865  34.187  36.822  1.00  0.00     0.023 A 
ATOM     40  C   UNL A   1      40.190  35.536  36.575  1.00  0.00     0.012 A 
ATOM     41  C   UNL A   1      39.345  33.822  38.080  1.00  0.00     0.148 A 
ATOM     42  C   UNL A   1      40.030  36.500  37.571  1.00  0.00     0.002 A 
ATOM     43  C   UNL A   1      39.153  34.796  39.055  1.00  0.00     0.091 A 
ATOM     44  F   UNL A   1      39.067  32.531  38.309  1.00  0.00    -0.205 F 
ATOM     45  C   UNL A   1      39.503  36.133  38.805  1.00  0.00     0.022 A 
BRANCH  43  46
ATOM     46  S   UNL A   1      38.411  34.423  40.649  1.00  0.00     0.127 S 
ATOM     47  O   UNL A   1      39.508  33.740  41.332  1.00  0.00    -0.237 OA
ATOM     48  O   UNL A   1      38.104  35.755  41.172  1.00  0.00    -0.237 OA
ATOM     49  O   UNL A   1      37.241  33.607  40.359  1.00  0.00    -0.744 OA
ENDBRANCH  43  46
ENDBRANCH  25  39
BRANCH  26  50
ATOM     50  C   UNL A   1      40.765  27.771  29.171  1.00  0.00     0.023 A 
ATOM     51  C   UNL A   1      39.916  26.654  29.077  1.00  0.00     0.012 A 
ATOM     52  C   UNL A   1      41.663  28.045  28.120  1.00  0.00     0.148 A 
ATOM     53  C   UNL A   1      39.964  25.819  27.961  1.00  0.00     0.002 A 
ATOM     54  C   UNL A   1      41.663  27.244  26.985  1.00  0.00     0.091 A 
ATOM     55  F   UNL A   1      42.474  29.106  28.236  1.00  0.00    -0.205 F 
ATOM     56  C   UNL A   1      40.825  26.122  26.909  1.00  0.00     0.022 A 
BRANCH  54  57
ATOM     57  S   UNL A   1      42.623  27.658  25.523  1.00  0.00     0.127 S 
ATOM     58  O   UNL A   1      42.359  26.512  24.658  1.00  0.00    -0.237 OA
ATOM     59  O   UNL A   1      42.000  28.912  25.094  1.00  0.00    -0.237 OA
ATOM     60  O   UNL A   1      43.996  27.805  25.988  1.00  0.00    -0.744 OA
ENDBRANCH  54  57
ENDBRANCH  26  50
BRANCH  38  61
ATOM     61  C   UNL A   1      44.118  28.581  35.252  1.00  0.00     0.023 A 
ATOM     62  C   UNL A   1      45.430  28.916  34.867  1.00  0.00     0.012 A 
ATOM     63  C   UNL A   1      43.912  27.633  36.272  1.00  0.00     0.148 A 
ATOM     64  C   UNL A   1      46.523  28.300  35.473  1.00  0.00     0.002 A 
ATOM     65  C   UNL A   1      45.007  27.055  36.902  1.00  0.00     0.091 A 
ATOM     66  F   UNL A   1      42.653  27.313  36.605  1.00  0.00    -0.205 F 
ATOM     67  C   UNL A   1      46.312  27.380  36.498  1.00  0.00     0.022 A 
BRANCH  65  68
ATOM     68  S   UNL A   1      44.825  25.927  38.289  1.00  0.00     0.127 S 
ATOM     69  O   UNL A   1      43.564  26.376  38.875  1.00  0.00    -0.237 OA
ATOM     70  O   UNL A   1      44.761  24.624  37.627  1.00  0.00    -0.237 OA
ATOM     71  O   UNL A   1      46.008  26.124  39.117  1.00  0.00    -0.744 OA
ENDBRANCH  65  68
ENDBRANCH  38  61
ENDBRANCH  12  13
ENDBRANCH   5   7
ENDBRANCH   2   3
ENDBRANCH   1   2
BRANCH   1  72
ATOM     72  C   UNL A   1      32.060  30.036  26.859  1.00  0.00     0.118 C 
BRANCH  72  73
ATOM     73  N   UNL A   1      33.078  29.501  25.968  1.00  0.00    -0.352 N 
ATOM     74  C   UNL A   1      32.938  28.717  24.860  1.00  0.00     0.253 C 
ATOM     75  H   UNL A   1      34.004  29.740  26.199  1.00  0.00     0.163 HD
ATOM     76  O   UNL A   1      33.930  28.357  24.230  1.00  0.00    -0.269 OA
BRANCH  74  77
ATOM     77  C   UNL A   1      31.635  28.215  24.441  1.00  0.00     0.070 A 
ATOM     78  C   UNL A   1      31.053  28.929  23.396  1.00  0.00     0.125 A 
ATOM     79  C   UNL A   1      30.947  27.121  24.958  1.00  0.00     0.055 A 
ATOM     80  N   UNL A   1      29.884  28.598  22.801  1.00  0.00    -0.264 NA
ATOM     81  C   UNL A   1      29.737  26.756  24.339  1.00  0.00     0.035 A 
ATOM     82  C   UNL A   1      29.261  27.504  23.276  1.00  0.00     0.112 A 
BRANCH  79  83
ATOM     83  C   UNL A   1      31.480  26.139  25.931  1.00  0.00     0.254 C 
ATOM     84  O   UNL A   1      31.423  26.504  27.110  1.00  0.00    -0.269 OA
ATOM     85  N   UNL A   1      31.929  24.863  25.596  1.00  0.00    -0.339 N 
ATOM     86  C   UNL A   1      31.678  23.837  26.599  1.00  0.00     0.120 C 
ATOM     87  C   UNL A   1      32.390  24.390  24.288  1.00  0.00     0.120 C 
ATOM     88  C   UNL A   1      32.761  22.791  26.720  1.00  0.00     0.025 C 
ATOM     89  C   UNL A   1      33.495  23.324  24.407  1.00  0.00     0.025 C 
ATOM     90  C   UNL A   1      33.067  22.179  25.349  1.00  0.00    -0.003 C 
BRANCH  90  91
ATOM     91  C   UNL A   1      34.131  21.068  25.450  1.00  0.00     0.039 C 
BRANCH  91  92
ATOM     92  C   UNL A   1      33.752  19.824  24.672  1.00  0.00    -0.048 A 
ATOM     93  C   UNL A   1      32.600  19.811  23.871  1.00  0.00     0.004 A 
ATOM     94  C   UNL A   1      34.585  18.695  24.673  1.00  0.00     0.004 A 
ATOM     95  C   UNL A   1      32.297  18.701  23.077  1.00  0.00     0.000 A 
ATOM     96  C   UNL A   1      34.278  17.586  23.882  1.00  0.00     0.000 A 
ATOM     97  C   UNL A   1      33.137  17.591  23.081  1.00  0.00     0.000 A 
ENDBRANCH  91  92
ENDBRANCH  90  91
ENDBRANCH  79  83
ENDBRANCH  74  77
ENDBRANCH  72  73
ENDBRANCH   1  72
TORSDOF 16
ENDMDL
MODEL 2
REMARK VINA RESULT:     -13.2      1.994      2.575
REMARK SMILES O=C(NCCCNC(=O)c1cnccc1C(=O)N1CCC(Cc2ccccc2)CC1)c1ccc(-c2c3nc(c(-c4cccc(S(=O)(=O)[O-])c4F)c4ccc([nH]4)c(-c4cccc(S(=O)(=O)[O-])c4F)c4nc(c(-c5cccc(S(=O)(=O)[O-])c5F)c5ccc2[nH]5)C=C4)C=C3)cc1
REMARK SMILES IDX 5 1 4 2 3 3 1 4 2 5 31 7 32 8 93 9 33 10 92 11 34 12 35 13
REMARK SMILES IDX 36 14 86 15 37 16 91 17 85 18 87 19 38 20 90 21 84 22 83 23
REMARK SMILES IDX 39 25 71 26 51 27 70 28 52 29 55 30 69 31 88 32 53 33 54 34
REMARK SMILES IDX 68 36 89 37 56 38 40 39 41 40 49 41 42 42 44 43 50 44 43 45
REMARK SMILES IDX 45 46 46 47 47 48 48 49 72 50 73 51 81 52 74 53 76 54 82 55
REMARK SMILES IDX 75 56 77 57 78 58 79 59 80 60 57 61 58 62 66 63 59 64 61 65
REMARK SMILES IDX 67 66 60 67 62 68 63 69 64 70 65 71 6 72 7 73 8 74 9 76
REMARK SMILES IDX 10 77 11 78 15 79 12 80 14 81 13 82 16 83 17 84 18 85 19 86
REMARK SMILES IDX 30 87 20 88 29 89 21 90 22 91 23 92 24 93 28 94 25 95 27 96
REMARK SMILES IDX 26 97
REMARK H PARENT 3 6 87 24 55 35 7 75
REMARK Flexibility Score: inf
ROOT
ATOM      1  C   UNL A   1      32.656  30.063  25.795  1.00  0.00     0.042 C 
ENDROOT
BRANCH   1   2
ATOM      2  C   UNL A   1      32.171  30.747  27.072  1.00  0.00     0.118 C 
BRANCH   2   3
ATOM      3  N   UNL A   1      32.361  32.189  27.123  1.00  0.00    -0.352 N 
ATOM      4  O   UNL A   1      33.287  34.171  27.642  1.00  0.00    -0.269 OA
ATOM      5  C   UNL A   1      33.404  32.956  27.591  1.00  0.00     0.251 C 
ATOM      6  H   UNL A   1      31.610  32.709  26.756  1.00  0.00     0.163 HD
BRANCH   5   7
ATOM      7  C   UNL A   1      34.644  32.302  28.052  1.00  0.00     0.039 A 
ATOM      8  C   UNL A   1      34.612  30.992  28.525  1.00  0.00     0.014 A 
ATOM      9  C   UNL A   1      35.843  33.017  28.037  1.00  0.00     0.014 A 
ATOM     10  C   UNL A   1      35.706  30.485  29.207  1.00  0.00     0.010 A 
ATOM     11  C   UNL A   1      36.984  32.452  28.607  1.00  0.00     0.010 A 
ATOM     12  C   UNL A   1      36.907  31.209  29.253  1.00  0.00    -0.014 A 
BRANCH  12  13
ATOM     13  C   UNL A   1      38.073  30.630  29.961  1.00  0.00     0.031 A 
ATOM     14  C   UNL A   1      38.395  31.030  31.374  1.00  0.00     0.074 A 
ATOM     15  C   UNL A   1      38.833  29.724  29.316  1.00  0.00     0.049 A 
ATOM     16  N   UNL A   1      39.390  30.644  32.129  1.00  0.00    -0.248 NA
ATOM     17  C   UNL A   1      37.494  31.999  32.021  1.00  0.00     0.031 C 
ATOM     18  C   UNL A   1      38.623  29.282  27.934  1.00  0.00     0.029 A 
ATOM     19  N   UNL A   1      39.927  29.011  29.728  1.00  0.00    -0.354 N 
ATOM     20  C   UNL A   1      39.271  31.362  33.314  1.00  0.00     0.074 A 
ATOM     21  C   UNL A   1      38.106  32.208  33.180  1.00  0.00     0.031 C 
ATOM     22  C   UNL A   1      39.538  28.354  27.623  1.00  0.00     0.029 A 
ATOM     23  C   UNL A   1      40.440  28.185  28.755  1.00  0.00     0.049 A 
ATOM     24  H   UNL A   1      40.311  29.083  30.632  1.00  0.00     0.167 HD
ATOM     25  C   UNL A   1      40.056  31.308  34.416  1.00  0.00     0.034 A 
ATOM     26  C   UNL A   1      41.530  27.395  28.762  1.00  0.00     0.034 A 
ATOM     27  C   UNL A   1      41.180  30.421  34.556  1.00  0.00     0.049 A 
ATOM     28  C   UNL A   1      42.357  27.326  30.010  1.00  0.00     0.074 A 
ATOM     29  C   UNL A   1      42.006  30.245  35.651  1.00  0.00     0.029 A 
ATOM     30  N   UNL A   1      41.633  29.558  33.569  1.00  0.00    -0.354 N 
ATOM     31  N   UNL A   1      42.171  27.940  31.154  1.00  0.00    -0.248 NA
ATOM     32  C   UNL A   1      43.529  26.442  29.981  1.00  0.00     0.031 C 
ATOM     33  C   UNL A   1      42.966  29.281  35.323  1.00  0.00     0.029 A 
ATOM     34  C   UNL A   1      42.729  28.847  34.027  1.00  0.00     0.049 A 
ATOM     35  H   UNL A   1      41.234  29.465  32.674  1.00  0.00     0.167 HD
ATOM     36  C   UNL A   1      43.189  27.503  31.989  1.00  0.00     0.074 A 
ATOM     37  C   UNL A   1      43.974  26.552  31.226  1.00  0.00     0.031 C 
ATOM     38  C   UNL A   1      43.462  27.869  33.265  1.00  0.00     0.034 A 
BRANCH  25  39
ATOM     39  C   UNL A   1      39.707  32.210  35.572  1.00  0.00     0.023 A 
ATOM     40  C   UNL A   1      40.265  33.501  35.643  1.00  0.00     0.012 A 
ATOM     41  C   UNL A   1      38.788  31.800  36.559  1.00  0.00     0.148 A 
ATOM     42  C   UNL A   1      39.941  34.361  36.693  1.00  0.00     0.002 A 
ATOM     43  C   UNL A   1      38.439  32.677  37.582  1.00  0.00     0.091 A 
ATOM     44  F   UNL A   1      38.286  30.559  36.492  1.00  0.00    -0.205 F 
ATOM     45  C   UNL A   1      39.021  33.952  37.655  1.00  0.00     0.022 A 
BRANCH  43  46
ATOM     46  S   UNL A   1      37.208  32.259  38.823  1.00  0.00     0.127 S 
ATOM     47  O   UNL A   1      37.703  32.992  39.987  1.00  0.00    -0.237 OA
ATOM     48  O   UNL A   1      35.980  32.801  38.240  1.00  0.00    -0.237 OA
ATOM     49  O   UNL A   1      37.233  30.808  38.931  1.00  0.00    -0.744 OA
ENDBRANCH  43  46
ENDBRANCH  25  39
BRANCH  26  50
ATOM     50  C   UNL A   1      41.850  26.587  27.553  1.00  0.00     0.023 A 
ATOM     51  C   UNL A   1      42.554  27.182  26.490  1.00  0.00     0.012 A 
ATOM     52  C   UNL A   1      41.546  25.212  27.494  1.00  0.00     0.148 A 
ATOM     53  C   UNL A   1      42.942  26.424  25.385  1.00  0.00     0.002 A 
ATOM     54  C   UNL A   1      41.988  24.452  26.419  1.00  0.00     0.091 A 
ATOM     55  F   UNL A   1      40.860  24.668  28.510  1.00  0.00    -0.205 F 
ATOM     56  C   UNL A   1      42.674  25.058  25.357  1.00  0.00     0.022 A 
BRANCH  54  57
ATOM     57  S   UNL A   1      41.825  22.663  26.383  1.00  0.00     0.127 S 
ATOM     58  O   UNL A   1      40.374  22.496  26.344  1.00  0.00    -0.237 OA
ATOM     59  O   UNL A   1      42.520  22.317  25.141  1.00  0.00    -0.237 OA
ATOM     60  O   UNL A   1      42.489  22.186  27.589  1.00  0.00    -0.744 OA
ENDBRANCH  54  57
ENDBRANCH  26  50
BRANCH  38  61
ATOM     61  C   UNL A   1      44.648  27.224  33.927  1.00  0.00     0.023 A 
ATOM     62  C   UNL A   1      45.918  27.823  33.813  1.00  0.00     0.012 A 
ATOM     63  C   UNL A   1      44.490  26.073  34.722  1.00  0.00     0.148 A 
ATOM     64  C   UNL A   1      47.020  27.271  34.462  1.00  0.00     0.002 A 
ATOM     65  C   UNL A   1      45.585  25.553  35.400  1.00  0.00     0.091 A 
ATOM     66  F   UNL A   1      43.277  25.506  34.796  1.00  0.00    -0.205 F 
ATOM     67  C   UNL A   1      46.852  26.145  35.265  1.00  0.00     0.022 A 
BRANCH  65  68
ATOM     68  S   UNL A   1      45.438  24.158  36.524  1.00  0.00     0.127 S 
ATOM     69  O   UNL A   1      44.524  24.685  37.535  1.00  0.00    -0.237 OA
ATOM     70  O   UNL A   1      44.866  23.122  35.664  1.00  0.00    -0.237 OA
ATOM     71  O   UNL A   1      46.791  23.876  36.985  1.00  0.00    -0.744 OA
ENDBRANCH  65  68
ENDBRANCH  38  61
ENDBRANCH  12  13
ENDBRANCH   5   7
ENDBRANCH   2   3
ENDBRANCH   1   2
BRANCH   1  72
ATOM     72  C   UNL A   1      33.250  28.669  25.949  1.00  0.00     0.118 C 
BRANCH  72  73
ATOM     73  N   UNL A   1      33.709  28.085  24.699  1.00  0.00    -0.352 N 
ATOM     74  C   UNL A   1      32.999  27.432  23.733  1.00  0.00     0.253 C 
ATOM     75  H   UNL A   1      34.672  28.174  24.523  1.00  0.00     0.163 HD
ATOM     76  O   UNL A   1      33.570  27.000  22.734  1.00  0.00    -0.269 OA
BRANCH  74  77
ATOM     77  C   UNL A   1      31.577  27.151  23.890  1.00  0.00     0.070 A 
ATOM     78  C   UNL A   1      30.753  27.848  23.009  1.00  0.00     0.125 A 
ATOM     79  C   UNL A   1      30.985  26.275  24.796  1.00  0.00     0.055 A 
ATOM     80  N   UNL A   1      29.412  27.689  22.928  1.00  0.00    -0.264 NA
ATOM     81  C   UNL A   1      29.593  26.088  24.713  1.00  0.00     0.035 A 
ATOM     82  C   UNL A   1      28.864  26.796  23.772  1.00  0.00     0.112 A 
BRANCH  79  83
ATOM     83  C   UNL A   1      31.700  25.319  25.674  1.00  0.00     0.254 C 
ATOM     84  O   UNL A   1      31.775  25.668  26.857  1.00  0.00    -0.269 OA
ATOM     85  N   UNL A   1      32.178  24.077  25.261  1.00  0.00    -0.339 N 
ATOM     86  C   UNL A   1      32.123  23.028  26.269  1.00  0.00     0.120 C 
ATOM     87  C   UNL A   1      32.492  23.646  23.895  1.00  0.00     0.120 C 
ATOM     88  C   UNL A   1      33.275  22.050  26.230  1.00  0.00     0.025 C 
ATOM     89  C   UNL A   1      33.665  22.651  23.850  1.00  0.00     0.025 C 
ATOM     90  C   UNL A   1      33.436  21.472  24.819  1.00  0.00    -0.003 C 
BRANCH  90  91
ATOM     91  C   UNL A   1      34.569  20.429  24.761  1.00  0.00     0.039 C 
BRANCH  91  92
ATOM     92  C   UNL A   1      34.051  19.008  24.667  1.00  0.00    -0.048 A 
ATOM     93  C   UNL A   1      34.919  17.956  24.336  1.00  0.00     0.004 A 
ATOM     94  C   UNL A   1      32.718  18.708  24.987  1.00  0.00     0.004 A 
ATOM     95  C   UNL A   1      34.468  16.634  24.342  1.00  0.00     0.000 A 
ATOM     96  C   UNL A   1      32.270  17.384  24.988  1.00  0.00     0.000 A 
ATOM     97  C   UNL A   1      33.146  16.348  24.670  1.00  0.00     0.000 A 
ENDBRANCH  91  92
ENDBRANCH  90  91
ENDBRANCH  79  83
ENDBRANCH  74  77
ENDBRANCH  72  73
ENDBRANCH   1  72
TORSDOF 16
ENDMDL
MODEL 3
REMARK VINA RESULT:     -13.1      6.327     11.608
REMARK SMILES O=C(NCCCNC(=O)c1cnccc1C(=O)N1CCC(Cc2ccccc2)CC1)c1ccc(-c2c3nc(c(-c4cccc(S(=O)(=O)[O-])c4F)c4ccc([nH]4)c(-c4cccc(S(=O)(=O)[O-])c4F)c4nc(c(-c5cccc(S(=O)(=O)[O-])c5F)c5ccc2[nH]5)C=C4)C=C3)cc1
REMARK SMILES IDX 5 1 4 2 3 3 1 4 2 5 31 7 32 8 93 9 33 10 92 11 34 12 35 13
REMARK SMILES IDX 36 14 86 15 37 16 91 17 85 18 87 19 38 20 90 21 84 22 83 23
REMARK SMILES IDX 39 25 71 26 51 27 70 28 52 29 55 30 69 31 88 32 53 33 54 34
REMARK SMILES IDX 68 36 89 37 56 38 40 39 41 40 49 41 42 42 44 43 50 44 43 45
REMARK SMILES IDX 45 46 46 47 47 48 48 49 72 50 73 51 81 52 74 53 76 54 82 55
REMARK SMILES IDX 75 56 77 57 78 58 79 59 80 60 57 61 58 62 66 63 59 64 61 65
REMARK SMILES IDX 67 66 60 67 62 68 63 69 64 70 65 71 6 72 7 73 8 74 9 76
REMARK SMILES IDX 10 77 11 78 15 79 12 80 14 81 13 82 16 83 17 84 18 85 19 86
REMARK SMILES IDX 30 87 20 88 29 89 21 90 22 91 23 92 24 93 28 94 25 95 27 96
REMARK SMILES IDX 26 97
REMARK H PARENT 3 6 87 24 55 35 7 75
REMARK Flexibility Score: inf
ROOT
ATOM      1  C   UNL A   1      37.998  20.116  25.025  1.00  0.00     0.042 C 
ENDROOT
BRANCH   1   2
ATOM      2  C   UNL A   1      39.111  20.324  26.051  1.00  0.00     0.118 C 
BRANCH   2   3
ATOM      3  N   UNL A   1      40.185  19.342  26.019  1.00  0.00    -0.352 N 
ATOM      4  O   UNL A   1      42.272  18.511  25.929  1.00  0.00    -0.269 OA
ATOM      5  C   UNL A   1      41.552  19.482  26.107  1.00  0.00     0.251 C 
ATOM      6  H   UNL A   1      39.879  18.413  25.916  1.00  0.00     0.163 HD
BRANCH   5   7
ATOM      7  C   UNL A   1      42.135  20.808  26.387  1.00  0.00     0.039 A 
ATOM      8  C   UNL A   1      42.472  21.165  27.691  1.00  0.00     0.014 A 
ATOM      9  C   UNL A   1      42.320  21.711  25.339  1.00  0.00     0.014 A 
ATOM     10  C   UNL A   1      42.753  22.489  27.986  1.00  0.00     0.010 A 
ATOM     11  C   UNL A   1      42.734  23.013  25.622  1.00  0.00     0.010 A 
ATOM     12  C   UNL A   1      42.890  23.428  26.954  1.00  0.00    -0.014 A 
BRANCH  12  13
ATOM     13  C   UNL A   1      43.225  24.832  27.293  1.00  0.00     0.031 A 
ATOM     14  C   UNL A   1      44.597  25.384  27.022  1.00  0.00     0.074 A 
ATOM     15  C   UNL A   1      42.268  25.609  27.835  1.00  0.00     0.049 A 
ATOM     16  N   UNL A   1      45.066  26.577  27.281  1.00  0.00    -0.248 NA
ATOM     17  C   UNL A   1      45.575  24.481  26.394  1.00  0.00     0.031 C 
ATOM     18  C   UNL A   1      40.909  25.165  28.161  1.00  0.00     0.029 A 
ATOM     19  N   UNL A   1      42.283  26.928  28.206  1.00  0.00    -0.354 N 
ATOM     20  C   UNL A   1      46.404  26.551  26.904  1.00  0.00     0.074 A 
ATOM     21  C   UNL A   1      46.674  25.224  26.396  1.00  0.00     0.031 C 
ATOM     22  C   UNL A   1      40.214  26.199  28.654  1.00  0.00     0.029 A 
ATOM     23  C   UNL A   1      41.094  27.357  28.745  1.00  0.00     0.049 A 
ATOM     24  H   UNL A   1      43.069  27.511  28.099  1.00  0.00     0.167 HD
ATOM     25  C   UNL A   1      47.318  27.549  26.964  1.00  0.00     0.034 A 
ATOM     26  C   UNL A   1      40.752  28.545  29.278  1.00  0.00     0.034 A 
ATOM     27  C   UNL A   1      47.020  28.881  27.420  1.00  0.00     0.049 A 
ATOM     28  C   UNL A   1      41.773  29.643  29.294  1.00  0.00     0.074 A 
ATOM     29  C   UNL A   1      47.856  29.981  27.467  1.00  0.00     0.029 A 
ATOM     30  N   UNL A   1      45.787  29.293  27.906  1.00  0.00    -0.354 N 
ATOM     31  N   UNL A   1      43.003  29.627  28.843  1.00  0.00    -0.248 NA
ATOM     32  C   UNL A   1      41.355  30.928  29.871  1.00  0.00     0.031 C 
ATOM     33  C   UNL A   1      47.131  31.058  27.990  1.00  0.00     0.029 A 
ATOM     34  C   UNL A   1      45.839  30.631  28.256  1.00  0.00     0.049 A 
ATOM     35  H   UNL A   1      44.992  28.718  27.988  1.00  0.00     0.167 HD
ATOM     36  C   UNL A   1      43.504  30.903  29.060  1.00  0.00     0.074 A 
ATOM     37  C   UNL A   1      42.433  31.674  29.662  1.00  0.00     0.031 C 
ATOM     38  C   UNL A   1      44.744  31.389  28.805  1.00  0.00     0.034 A 
BRANCH  25  39
ATOM     39  C   UNL A   1      48.717  27.249  26.494  1.00  0.00     0.023 A 
ATOM     40  C   UNL A   1      49.630  26.629  27.371  1.00  0.00     0.012 A 
ATOM     41  C   UNL A   1      49.115  27.533  25.172  1.00  0.00     0.148 A 
ATOM     42  C   UNL A   1      50.925  26.324  26.951  1.00  0.00     0.002 A 
ATOM     43  C   UNL A   1      50.395  27.190  24.749  1.00  0.00     0.091 A 
ATOM     44  F   UNL A   1      48.244  28.147  24.359  1.00  0.00    -0.205 F 
ATOM     45  C   UNL A   1      51.303  26.594  25.639  1.00  0.00     0.022 A 
BRANCH  43  46
ATOM     46  S   UNL A   1      50.943  27.437  23.055  1.00  0.00     0.127 S 
ATOM     47  O   UNL A   1      52.245  26.774  23.066  1.00  0.00    -0.237 OA
ATOM     48  O   UNL A   1      49.911  26.740  22.287  1.00  0.00    -0.237 OA
ATOM     49  O   UNL A   1      50.969  28.879  22.855  1.00  0.00    -0.744 OA
ENDBRANCH  43  46
ENDBRANCH  25  39
BRANCH  26  50
ATOM     50  C   UNL A   1      39.367  28.743  29.788  1.00  0.00     0.023 A 
ATOM     51  C   UNL A   1      39.074  28.438  31.130  1.00  0.00     0.012 A 
ATOM     52  C   UNL A   1      38.368  29.320  28.979  1.00  0.00     0.148 A 
ATOM     53  C   UNL A   1      37.808  28.695  31.655  1.00  0.00     0.002 A 
ATOM     54  C   UNL A   1      37.129  29.629  29.525  1.00  0.00     0.091 A 
ATOM     55  F   UNL A   1      38.662  29.589  27.698  1.00  0.00    -0.205 F 
ATOM     56  C   UNL A   1      36.842  29.305  30.859  1.00  0.00     0.022 A 
BRANCH  54  57
ATOM     57  S   UNL A   1      35.888  30.558  28.615  1.00  0.00     0.127 S 
ATOM     58  O   UNL A   1      36.713  31.332  27.691  1.00  0.00    -0.237 OA
ATOM     59  O   UNL A   1      35.101  29.491  27.995  1.00  0.00    -0.237 OA
ATOM     60  O   UNL A   1      35.163  31.326  29.619  1.00  0.00    -0.744 OA
ENDBRANCH  54  57
ENDBRANCH  26  50
BRANCH  38  61
ATOM     61  C   UNL A   1      45.004  32.827  29.155  1.00  0.00     0.023 A 
ATOM     62  C   UNL A   1      45.529  33.150  30.422  1.00  0.00     0.012 A 
ATOM     63  C   UNL A   1      44.803  33.846  28.205  1.00  0.00     0.148 A 
ATOM     64  C   UNL A   1      45.828  34.471  30.746  1.00  0.00     0.002 A 
ATOM     65  C   UNL A   1      45.143  35.155  28.521  1.00  0.00     0.091 A 
ATOM     66  F   UNL A   1      44.280  33.518  27.014  1.00  0.00    -0.205 F 
ATOM     67  C   UNL A   1      45.647  35.471  29.793  1.00  0.00     0.022 A 
BRANCH  65  68
ATOM     68  S   UNL A   1      45.024  36.489  27.322  1.00  0.00     0.127 S 
ATOM     69  O   UNL A   1      45.462  37.638  28.111  1.00  0.00    -0.237 OA
ATOM     70  O   UNL A   1      45.967  36.064  26.287  1.00  0.00    -0.237 OA
ATOM     71  O   UNL A   1      43.632  36.514  26.893  1.00  0.00    -0.744 OA
ENDBRANCH  65  68
ENDBRANCH  38  61
ENDBRANCH  12  13
ENDBRANCH   5   7
ENDBRANCH   2   3
ENDBRANCH   1   2
BRANCH   1  72
ATOM     72  C   UNL A   1      37.230  21.358  24.590  1.00  0.00     0.118 C 
BRANCH  72  73
ATOM     73  N   UNL A   1      36.585  22.063  25.687  1.00  0.00    -0.352 N 
ATOM     74  C   UNL A   1      35.258  22.187  25.979  1.00  0.00     0.253 C 
ATOM     75  H   UNL A   1      37.196  22.517  26.310  1.00  0.00     0.163 HD
ATOM     76  O   UNL A   1      34.901  22.835  26.961  1.00  0.00    -0.269 OA
BRANCH  74  77
ATOM     77  C   UNL A   1      34.229  21.638  25.103  1.00  0.00     0.070 A 
ATOM     78  C   UNL A   1      33.690  20.430  25.538  1.00  0.00     0.125 A 
ATOM     79  C   UNL A   1      33.743  22.193  23.922  1.00  0.00     0.055 A 
ATOM     80  N   UNL A   1      32.675  19.780  24.923  1.00  0.00    -0.264 NA
ATOM     81  C   UNL A   1      32.678  21.535  23.280  1.00  0.00     0.035 A 
ATOM     82  C   UNL A   1      32.179  20.359  23.814  1.00  0.00     0.112 A 
BRANCH  79  83
ATOM     83  C   UNL A   1      34.057  23.545  23.404  1.00  0.00     0.254 C 
ATOM     84  O   UNL A   1      35.120  23.621  22.781  1.00  0.00    -0.269 OA
ATOM     85  N   UNL A   1      33.204  24.643  23.505  1.00  0.00    -0.339 N 
ATOM     86  C   UNL A   1      33.253  25.569  22.382  1.00  0.00     0.120 C 
ATOM     87  C   UNL A   1      32.115  24.847  24.464  1.00  0.00     0.120 C 
ATOM     88  C   UNL A   1      33.083  27.024  22.751  1.00  0.00     0.025 C 
ATOM     89  C   UNL A   1      31.938  26.329  24.844  1.00  0.00     0.025 C 
ATOM     90  C   UNL A   1      31.814  27.216  23.588  1.00  0.00    -0.003 C 
BRANCH  90  91
ATOM     91  C   UNL A   1      31.584  28.701  23.934  1.00  0.00     0.039 C 
BRANCH  91  92
ATOM     92  C   UNL A   1      30.167  29.155  23.648  1.00  0.00    -0.048 A 
ATOM     93  C   UNL A   1      29.803  30.500  23.818  1.00  0.00     0.004 A 
ATOM     94  C   UNL A   1      29.216  28.259  23.135  1.00  0.00     0.004 A 
ATOM     95  C   UNL A   1      28.526  30.941  23.465  1.00  0.00     0.000 A 
ATOM     96  C   UNL A   1      27.938  28.704  22.787  1.00  0.00     0.000 A 
ATOM     97  C   UNL A   1      27.595  30.045  22.948  1.00  0.00     0.000 A 
ENDBRANCH  91  92
ENDBRANCH  90  91
ENDBRANCH  79  83
ENDBRANCH  74  77
ENDBRANCH  72  73
ENDBRANCH   1  72
TORSDOF 16
ENDMDL
