MODEL 1
REMARK VINA RESULT:     -11.8      0.000      0.000
REMARK SMILES Cc1sc2[nH]c(SCC(=O)NCCCNC(=O)c3ccc(-c4c5nc(c(-c6cccc(S(=O)(=O)[O-])c6F)c6ccc([nH]6)c(-c6cccc(S(=O)(=O)[O-])c6F)c6nc(c(-c7cccc(S(=O)(=O)[O-])c7F)c7ccc4[nH]7)C=C6)C=C5)cc3)nc(=O)c2c1C
REMARK SMILES IDX 13 1 12 2 11 3 9 4 10 5 8 7 7 8 6 9 1 10 2 11 3 12 85 13
REMARK SMILES IDX 4 14 84 15 86 16 5 17 82 18 81 20 83 21 14 22 15 23 16 24
REMARK SMILES IDX 17 26 18 27 19 28 80 29 20 30 79 31 21 32 22 33 23 34 73 35
REMARK SMILES IDX 24 36 78 37 72 38 74 39 25 40 77 41 71 42 70 43 26 45 58 46
REMARK SMILES IDX 38 47 57 48 39 49 42 50 56 51 75 52 40 53 41 54 55 56 76 57
REMARK SMILES IDX 43 58 27 59 28 60 36 61 29 62 31 63 37 64 30 65 32 66 33 67
REMARK SMILES IDX 34 68 35 69 59 70 60 71 68 72 61 73 63 74 69 75 62 76 64 77
REMARK SMILES IDX 65 78 66 79 67 80 44 81 45 82 53 83 46 84 48 85 54 86 47 87
REMARK SMILES IDX 49 88 50 89 51 90 52 91
REMARK H PARENT 11 6 5 19 15 25 74 44 42 55
REMARK Flexibility Score: inf
ROOT
ATOM      1  C   UNL A   1      42.729  38.928  27.440  1.00  0.00     0.042 C 
ENDROOT
BRANCH   1   2
ATOM      2  C   UNL A   1      42.377  40.416  27.577  1.00  0.00     0.117 C 
BRANCH   2   3
ATOM      3  N   UNL A   1      43.550  41.252  27.751  1.00  0.00    -0.355 N 
ATOM      4  C   UNL A   1      44.245  42.000  26.846  1.00  0.00     0.230 C 
ATOM      5  O   UNL A   1      45.107  42.765  27.286  1.00  0.00    -0.274 OA
ATOM      6  H   UNL A   1      43.900  41.285  28.670  1.00  0.00     0.163 HD
BRANCH   4   7
ATOM      7  C   UNL A   1      43.889  42.005  25.370  1.00  0.00     0.178 C 
BRANCH   7   8
ATOM      8  S   UNL A   1      45.027  42.919  24.303  1.00  0.00    -0.078 SA
BRANCH   8   9
ATOM      9  C   UNL A   1      44.084  43.175  22.856  1.00  0.00     0.170 A 
ATOM     10  C   UNL A   1      43.585  44.526  16.858  1.00  0.00     0.057 C 
ATOM     11  C   UNL A   1      43.540  44.205  18.318  1.00  0.00     0.007 A 
ATOM     12  S   UNL A   1      45.016  44.238  19.195  1.00  0.00    -0.122 S 
ATOM     13  C   UNL A   1      42.458  43.863  19.125  1.00  0.00    -0.022 A 
ATOM     14  C   UNL A   1      44.243  43.786  20.619  1.00  0.00     0.108 A 
ATOM     15  C   UNL A   1      42.892  43.590  20.479  1.00  0.00     0.080 A 
ATOM     16  C   UNL A   1      41.029  43.778  18.686  1.00  0.00     0.046 C 
ATOM     17  N   UNL A   1      44.837  43.598  21.803  1.00  0.00    -0.326 N 
ATOM     18  C   UNL A   1      42.114  43.149  21.651  1.00  0.00     0.282 A 
ATOM     19  H   UNL A   1      45.802  43.763  21.911  1.00  0.00     0.169 HD
ATOM     20  N   UNL A   1      42.815  42.936  22.831  1.00  0.00    -0.185 NA
ATOM     21  O   UNL A   1      40.906  42.933  21.566  1.00  0.00    -0.267 OA
ENDBRANCH   8   9
ENDBRANCH   7   8
ENDBRANCH   4   7
ENDBRANCH   2   3
ENDBRANCH   1   2
BRANCH   1  22
ATOM     22  C   UNL A   1      44.235  38.611  27.511  1.00  0.00     0.118 C 
BRANCH  22  23
ATOM     23  N   UNL A   1      44.562  37.494  26.642  1.00  0.00    -0.352 N 
ATOM     24  C   UNL A   1      44.765  36.168  26.903  1.00  0.00     0.251 C 
ATOM     25  H   UNL A   1      44.654  37.737  25.691  1.00  0.00     0.163 HD
ATOM     26  O   UNL A   1      45.487  35.546  26.121  1.00  0.00    -0.269 OA
BRANCH  24  27
ATOM     27  C   UNL A   1      44.134  35.447  28.034  1.00  0.00     0.039 A 
ATOM     28  C   UNL A   1      44.997  34.894  28.990  1.00  0.00     0.014 A 
ATOM     29  C   UNL A   1      42.775  35.121  28.066  1.00  0.00     0.014 A 
ATOM     30  C   UNL A   1      44.514  34.013  29.956  1.00  0.00     0.010 A 
ATOM     31  C   UNL A   1      42.290  34.236  29.043  1.00  0.00     0.010 A 
ATOM     32  C   UNL A   1      43.156  33.668  29.988  1.00  0.00    -0.014 A 
BRANCH  32  33
ATOM     33  C   UNL A   1      42.705  32.779  31.085  1.00  0.00     0.031 A 
ATOM     34  C   UNL A   1      41.311  33.023  31.583  1.00  0.00     0.074 A 
ATOM     35  C   UNL A   1      43.276  31.566  31.267  1.00  0.00     0.049 A 
ATOM     36  N   UNL A   1      40.250  32.517  31.027  1.00  0.00    -0.248 NA
ATOM     37  C   UNL A   1      41.010  34.066  32.566  1.00  0.00     0.031 C 
ATOM     38  C   UNL A   1      43.648  30.678  30.156  1.00  0.00     0.029 A 
ATOM     39  N   UNL A   1      43.428  30.780  32.391  1.00  0.00    -0.354 N 
ATOM     40  C   UNL A   1      39.146  33.185  31.538  1.00  0.00     0.074 A 
ATOM     41  C   UNL A   1      39.670  34.134  32.494  1.00  0.00     0.031 C 
ATOM     42  C   UNL A   1      43.823  29.429  30.636  1.00  0.00     0.029 A 
ATOM     43  C   UNL A   1      43.713  29.444  32.093  1.00  0.00     0.049 A 
ATOM     44  H   UNL A   1      43.344  31.124  33.310  1.00  0.00     0.167 HD
ATOM     45  C   UNL A   1      37.868  32.910  31.152  1.00  0.00     0.034 A 
ATOM     46  C   UNL A   1      43.331  28.377  32.857  1.00  0.00     0.034 A 
ATOM     47  C   UNL A   1      37.743  31.833  30.212  1.00  0.00     0.049 A 
ATOM     48  C   UNL A   1      41.856  28.324  32.530  1.00  0.00     0.074 A 
ATOM     49  C   UNL A   1      37.499  31.667  28.866  1.00  0.00     0.029 A 
ATOM     50  N   UNL A   1      37.942  30.558  30.684  1.00  0.00    -0.354 N 
ATOM     51  N   UNL A   1      41.334  27.897  31.409  1.00  0.00    -0.248 NA
ATOM     52  C   UNL A   1      40.980  29.188  33.322  1.00  0.00     0.031 C 
ATOM     53  C   UNL A   1      38.038  30.380  28.538  1.00  0.00     0.029 A 
ATOM     54  C   UNL A   1      38.577  29.840  29.707  1.00  0.00     0.049 A 
ATOM     55  H   UNL A   1      37.674  30.221  31.568  1.00  0.00     0.167 HD
ATOM     56  C   UNL A   1      40.210  28.701  31.197  1.00  0.00     0.074 A 
ATOM     57  C   UNL A   1      40.055  29.474  32.416  1.00  0.00     0.031 C 
ATOM     58  C   UNL A   1      39.564  28.822  29.999  1.00  0.00     0.034 A 
BRANCH  45  59
ATOM     59  C   UNL A   1      36.636  33.450  31.787  1.00  0.00     0.023 A 
ATOM     60  C   UNL A   1      36.340  32.956  33.074  1.00  0.00     0.012 A 
ATOM     61  C   UNL A   1      35.666  34.204  31.100  1.00  0.00     0.148 A 
ATOM     62  C   UNL A   1      35.093  33.162  33.656  1.00  0.00     0.002 A 
ATOM     63  C   UNL A   1      34.419  34.413  31.693  1.00  0.00     0.091 A 
ATOM     64  F   UNL A   1      35.955  34.658  29.872  1.00  0.00    -0.205 F 
ATOM     65  C   UNL A   1      34.130  33.883  32.963  1.00  0.00     0.022 A 
BRANCH  63  66
ATOM     66  S   UNL A   1      33.077  35.311  30.899  1.00  0.00     0.127 S 
ATOM     67  O   UNL A   1      32.013  35.218  31.897  1.00  0.00    -0.237 OA
ATOM     68  O   UNL A   1      33.654  36.648  30.748  1.00  0.00    -0.237 OA
ATOM     69  O   UNL A   1      32.818  34.619  29.644  1.00  0.00    -0.744 OA
ENDBRANCH  63  66
ENDBRANCH  45  59
BRANCH  46  70
ATOM     70  C   UNL A   1      43.887  28.335  34.256  1.00  0.00     0.023 A 
ATOM     71  C   UNL A   1      44.731  29.409  34.630  1.00  0.00     0.012 A 
ATOM     72  C   UNL A   1      43.664  27.329  35.219  1.00  0.00     0.148 A 
ATOM     73  C   UNL A   1      45.224  29.551  35.929  1.00  0.00     0.002 A 
ATOM     74  C   UNL A   1      44.122  27.492  36.529  1.00  0.00     0.091 A 
ATOM     75  F   UNL A   1      43.006  26.219  34.860  1.00  0.00    -0.205 F 
ATOM     76  C   UNL A   1      44.891  28.608  36.890  1.00  0.00     0.022 A 
BRANCH  74  77
ATOM     77  S   UNL A   1      43.721  26.348  37.859  1.00  0.00     0.127 S 
ATOM     78  O   UNL A   1      42.260  26.332  37.819  1.00  0.00    -0.237 OA
ATOM     79  O   UNL A   1      44.363  25.120  37.389  1.00  0.00    -0.237 OA
ATOM     80  O   UNL A   1      44.298  26.924  39.066  1.00  0.00    -0.744 OA
ENDBRANCH  74  77
ENDBRANCH  46  70
BRANCH  58  81
ATOM     81  C   UNL A   1      40.010  27.918  28.889  1.00  0.00     0.023 A 
ATOM     82  C   UNL A   1      39.285  26.732  28.675  1.00  0.00     0.012 A 
ATOM     83  C   UNL A   1      41.037  28.274  27.988  1.00  0.00     0.148 A 
ATOM     84  C   UNL A   1      39.548  25.928  27.569  1.00  0.00     0.002 A 
ATOM     85  C   UNL A   1      41.280  27.476  26.872  1.00  0.00     0.091 A 
ATOM     86  F   UNL A   1      41.734  29.397  28.211  1.00  0.00    -0.205 F 
ATOM     87  C   UNL A   1      40.532  26.307  26.660  1.00  0.00     0.022 A 
BRANCH  85  88
ATOM     88  S   UNL A   1      42.494  27.887  25.611  1.00  0.00     0.127 S 
ATOM     89  O   UNL A   1      42.467  26.696  24.761  1.00  0.00    -0.237 OA
ATOM     90  O   UNL A   1      41.905  29.079  25.001  1.00  0.00    -0.237 OA
ATOM     91  O   UNL A   1      43.753  28.109  26.308  1.00  0.00    -0.744 OA
ENDBRANCH  85  88
ENDBRANCH  58  81
ENDBRANCH  32  33
ENDBRANCH  24  27
ENDBRANCH  22  23
ENDBRANCH   1  22
TORSDOF 15
ENDMDL
MODEL 2
REMARK VINA RESULT:     -11.6      5.985     12.488
REMARK SMILES Cc1sc2[nH]c(SCC(=O)NCCCNC(=O)c3ccc(-c4c5nc(c(-c6cccc(S(=O)(=O)[O-])c6F)c6ccc([nH]6)c(-c6cccc(S(=O)(=O)[O-])c6F)c6nc(c(-c7cccc(S(=O)(=O)[O-])c7F)c7ccc4[nH]7)C=C6)C=C5)cc3)nc(=O)c2c1C
REMARK SMILES IDX 13 1 12 2 11 3 9 4 10 5 8 7 7 8 6 9 1 10 2 11 3 12 85 13
REMARK SMILES IDX 4 14 84 15 86 16 5 17 82 18 81 20 83 21 14 22 15 23 16 24
REMARK SMILES IDX 17 26 18 27 19 28 80 29 20 30 79 31 21 32 22 33 23 34 73 35
REMARK SMILES IDX 24 36 78 37 72 38 74 39 25 40 77 41 71 42 70 43 26 45 58 46
REMARK SMILES IDX 38 47 57 48 39 49 42 50 56 51 75 52 40 53 41 54 55 56 76 57
REMARK SMILES IDX 43 58 27 59 28 60 36 61 29 62 31 63 37 64 30 65 32 66 33 67
REMARK SMILES IDX 34 68 35 69 59 70 60 71 68 72 61 73 63 74 69 75 62 76 64 77
REMARK SMILES IDX 65 78 66 79 67 80 44 81 45 82 53 83 46 84 48 85 54 86 47 87
REMARK SMILES IDX 49 88 50 89 51 90 52 91
REMARK H PARENT 11 6 5 19 15 25 74 44 42 55
REMARK Flexibility Score: inf
ROOT
ATOM      1  C   UNL A   1      38.662  22.340  26.294  1.00  0.00     0.042 C 
ENDROOT
BRANCH   1   2
ATOM      2  C   UNL A   1      37.400  21.921  25.528  1.00  0.00     0.117 C 
BRANCH   2   3
ATOM      3  N   UNL A   1      36.235  21.818  26.387  1.00  0.00    -0.355 N 
ATOM      4  C   UNL A   1      34.961  21.419  26.105  1.00  0.00     0.230 C 
ATOM      5  O   UNL A   1      34.197  21.251  27.059  1.00  0.00    -0.274 OA
ATOM      6  H   UNL A   1      36.389  22.076  27.324  1.00  0.00     0.163 HD
BRANCH   4   7
ATOM      7  C   UNL A   1      34.529  21.057  24.696  1.00  0.00     0.178 C 
BRANCH   7   8
ATOM      8  S   UNL A   1      32.782  21.340  24.326  1.00  0.00    -0.078 SA
BRANCH   8   9
ATOM      9  C   UNL A   1      32.564  23.023  24.735  1.00  0.00     0.170 A 
ATOM     10  C   UNL A   1      33.151  29.039  23.507  1.00  0.00     0.057 C 
ATOM     11  C   UNL A   1      32.956  27.626  23.956  1.00  0.00     0.007 A 
ATOM     12  S   UNL A   1      33.588  26.374  22.965  1.00  0.00    -0.122 S 
ATOM     13  C   UNL A   1      32.316  27.128  25.087  1.00  0.00    -0.022 A 
ATOM     14  C   UNL A   1      33.007  25.186  24.005  1.00  0.00     0.108 A 
ATOM     15  C   UNL A   1      32.328  25.681  25.091  1.00  0.00     0.080 A 
ATOM     16  C   UNL A   1      31.689  27.948  26.172  1.00  0.00     0.046 C 
ATOM     17  N   UNL A   1      33.142  23.865  23.834  1.00  0.00    -0.326 N 
ATOM     18  C   UNL A   1      31.736  24.732  26.050  1.00  0.00     0.282 A 
ATOM     19  H   UNL A   1      33.650  23.509  23.070  1.00  0.00     0.169 HD
ATOM     20  N   UNL A   1      31.885  23.379  25.775  1.00  0.00    -0.185 NA
ATOM     21  O   UNL A   1      31.095  25.129  27.022  1.00  0.00    -0.267 OA
ENDBRANCH   8   9
ENDBRANCH   7   8
ENDBRANCH   4   7
ENDBRANCH   2   3
ENDBRANCH   1   2
BRANCH   1  22
ATOM     22  C   UNL A   1      39.956  21.638  25.842  1.00  0.00     0.118 C 
BRANCH  22  23
ATOM     23  N   UNL A   1      40.840  21.422  26.975  1.00  0.00    -0.352 N 
ATOM     24  C   UNL A   1      41.736  22.243  27.598  1.00  0.00     0.251 C 
ATOM     25  H   UNL A   1      40.782  20.519  27.364  1.00  0.00     0.163 HD
ATOM     26  O   UNL A   1      42.680  21.705  28.181  1.00  0.00    -0.269 OA
BRANCH  24  27
ATOM     27  C   UNL A   1      41.605  23.719  27.643  1.00  0.00     0.039 A 
ATOM     28  C   UNL A   1      42.685  24.464  27.148  1.00  0.00     0.014 A 
ATOM     29  C   UNL A   1      40.582  24.373  28.335  1.00  0.00     0.014 A 
ATOM     30  C   UNL A   1      42.751  25.841  27.354  1.00  0.00     0.010 A 
ATOM     31  C   UNL A   1      40.649  25.760  28.539  1.00  0.00     0.010 A 
ATOM     32  C   UNL A   1      41.737  26.503  28.060  1.00  0.00    -0.014 A 
BRANCH  32  33
ATOM     33  C   UNL A   1      41.842  27.977  28.181  1.00  0.00     0.031 A 
ATOM     34  C   UNL A   1      40.544  28.725  28.116  1.00  0.00     0.074 A 
ATOM     35  C   UNL A   1      42.910  28.543  28.790  1.00  0.00     0.049 A 
ATOM     36  N   UNL A   1      39.770  28.912  29.144  1.00  0.00    -0.248 NA
ATOM     37  C   UNL A   1      39.910  29.070  26.842  1.00  0.00     0.031 C 
ATOM     38  C   UNL A   1      43.524  27.993  30.008  1.00  0.00     0.029 A 
ATOM     39  N   UNL A   1      43.508  29.777  28.639  1.00  0.00    -0.354 N 
ATOM     40  C   UNL A   1      38.542  29.355  28.673  1.00  0.00     0.074 A 
ATOM     41  C   UNL A   1      38.681  29.441  27.237  1.00  0.00     0.031 C 
ATOM     42  C   UNL A   1      44.285  28.948  30.581  1.00  0.00     0.029 A 
ATOM     43  C   UNL A   1      44.327  30.126  29.717  1.00  0.00     0.049 A 
ATOM     44  H   UNL A   1      43.372  30.353  27.852  1.00  0.00     0.167 HD
ATOM     45  C   UNL A   1      37.488  29.632  29.493  1.00  0.00     0.034 A 
ATOM     46  C   UNL A   1      44.539  31.404  30.151  1.00  0.00     0.034 A 
ATOM     47  C   UNL A   1      37.763  29.485  30.894  1.00  0.00     0.049 A 
ATOM     48  C   UNL A   1      43.219  31.683  30.830  1.00  0.00     0.074 A 
ATOM     49  C   UNL A   1      37.485  28.595  31.908  1.00  0.00     0.029 A 
ATOM     50  N   UNL A   1      38.555  30.440  31.485  1.00  0.00    -0.354 N 
ATOM     51  N   UNL A   1      42.832  31.199  31.983  1.00  0.00    -0.248 NA
ATOM     52  C   UNL A   1      42.134  32.168  29.976  1.00  0.00     0.031 C 
ATOM     53  C   UNL A   1      38.505  28.808  32.892  1.00  0.00     0.029 A 
ATOM     54  C   UNL A   1      39.342  29.817  32.416  1.00  0.00     0.049 A 
ATOM     55  H   UNL A   1      38.557  31.400  31.274  1.00  0.00     0.167 HD
ATOM     56  C   UNL A   1      41.452  31.010  31.857  1.00  0.00     0.074 A 
ATOM     57  C   UNL A   1      41.093  31.628  30.594  1.00  0.00     0.031 C 
ATOM     58  C   UNL A   1      40.704  30.227  32.691  1.00  0.00     0.034 A 
BRANCH  45  59
ATOM     59  C   UNL A   1      36.216  30.281  29.079  1.00  0.00     0.023 A 
ATOM     60  C   UNL A   1      35.452  29.582  28.122  1.00  0.00     0.012 A 
ATOM     61  C   UNL A   1      35.874  31.610  29.394  1.00  0.00     0.148 A 
ATOM     62  C   UNL A   1      34.398  30.197  27.452  1.00  0.00     0.002 A 
ATOM     63  C   UNL A   1      34.812  32.218  28.724  1.00  0.00     0.091 A 
ATOM     64  F   UNL A   1      36.616  32.267  30.296  1.00  0.00    -0.205 F 
ATOM     65  C   UNL A   1      34.083  31.516  27.746  1.00  0.00     0.022 A 
BRANCH  63  66
ATOM     66  S   UNL A   1      34.310  33.925  28.994  1.00  0.00     0.127 S 
ATOM     67  O   UNL A   1      33.202  34.071  28.051  1.00  0.00    -0.237 OA
ATOM     68  O   UNL A   1      33.912  33.904  30.402  1.00  0.00    -0.237 OA
ATOM     69  O   UNL A   1      35.484  34.738  28.709  1.00  0.00    -0.744 OA
ENDBRANCH  63  66
ENDBRANCH  45  59
BRANCH  46  70
ATOM     70  C   UNL A   1      45.194  32.336  29.164  1.00  0.00     0.023 A 
ATOM     71  C   UNL A   1      46.489  32.801  29.502  1.00  0.00     0.012 A 
ATOM     72  C   UNL A   1      44.642  32.800  27.953  1.00  0.00     0.148 A 
ATOM     73  C   UNL A   1      47.252  33.578  28.628  1.00  0.00     0.002 A 
ATOM     74  C   UNL A   1      45.421  33.542  27.061  1.00  0.00     0.091 A 
ATOM     75  F   UNL A   1      43.364  32.517  27.669  1.00  0.00    -0.205 F 
ATOM     76  C   UNL A   1      46.730  33.922  27.391  1.00  0.00     0.022 A 
BRANCH  74  77
ATOM     77  S   UNL A   1      44.854  34.013  25.418  1.00  0.00     0.127 S 
ATOM     78  O   UNL A   1      46.034  34.679  24.868  1.00  0.00    -0.237 OA
ATOM     79  O   UNL A   1      44.555  32.707  24.830  1.00  0.00    -0.237 OA
ATOM     80  O   UNL A   1      43.701  34.876  25.629  1.00  0.00    -0.744 OA
ENDBRANCH  74  77
ENDBRANCH  46  70
BRANCH  58  81
ATOM     81  C   UNL A   1      41.392  29.661  33.897  1.00  0.00     0.023 A 
ATOM     82  C   UNL A   1      41.431  30.448  35.062  1.00  0.00     0.012 A 
ATOM     83  C   UNL A   1      41.882  28.338  33.939  1.00  0.00     0.148 A 
ATOM     84  C   UNL A   1      41.914  29.925  36.258  1.00  0.00     0.002 A 
ATOM     85  C   UNL A   1      42.344  27.813  35.144  1.00  0.00     0.091 A 
ATOM     86  F   UNL A   1      41.856  27.602  32.819  1.00  0.00    -0.205 F 
ATOM     87  C   UNL A   1      42.355  28.605  36.303  1.00  0.00     0.022 A 
BRANCH  85  88
ATOM     88  S   UNL A   1      42.897  26.113  35.332  1.00  0.00     0.127 S 
ATOM     89  O   UNL A   1      43.533  26.142  36.650  1.00  0.00    -0.237 OA
ATOM     90  O   UNL A   1      41.633  25.378  35.287  1.00  0.00    -0.237 OA
ATOM     91  O   UNL A   1      43.804  25.849  34.224  1.00  0.00    -0.744 OA
ENDBRANCH  85  88
ENDBRANCH  58  81
ENDBRANCH  32  33
ENDBRANCH  24  27
ENDBRANCH  22  23
ENDBRANCH   1  22
TORSDOF 15
ENDMDL
MODEL 3
REMARK VINA RESULT:     -11.4      6.804     12.808
REMARK SMILES Cc1sc2[nH]c(SCC(=O)NCCCNC(=O)c3ccc(-c4c5nc(c(-c6cccc(S(=O)(=O)[O-])c6F)c6ccc([nH]6)c(-c6cccc(S(=O)(=O)[O-])c6F)c6nc(c(-c7cccc(S(=O)(=O)[O-])c7F)c7ccc4[nH]7)C=C6)C=C5)cc3)nc(=O)c2c1C
REMARK SMILES IDX 13 1 12 2 11 3 9 4 10 5 8 7 7 8 6 9 1 10 2 11 3 12 85 13
REMARK SMILES IDX 4 14 84 15 86 16 5 17 82 18 81 20 83 21 14 22 15 23 16 24
REMARK SMILES IDX 17 26 18 27 19 28 80 29 20 30 79 31 21 32 22 33 23 34 73 35
REMARK SMILES IDX 24 36 78 37 72 38 74 39 25 40 77 41 71 42 70 43 26 45 58 46
REMARK SMILES IDX 38 47 57 48 39 49 42 50 56 51 75 52 40 53 41 54 55 56 76 57
REMARK SMILES IDX 43 58 27 59 28 60 36 61 29 62 31 63 37 64 30 65 32 66 33 67
REMARK SMILES IDX 34 68 35 69 59 70 60 71 68 72 61 73 63 74 69 75 62 76 64 77
REMARK SMILES IDX 65 78 66 79 67 80 44 81 45 82 53 83 46 84 48 85 54 86 47 87
REMARK SMILES IDX 49 88 50 89 51 90 52 91
REMARK H PARENT 11 6 5 19 15 25 74 44 42 55
REMARK Flexibility Score: inf
ROOT
ATOM      1  C   UNL A   1      32.769  29.485  25.050  1.00  0.00     0.042 C 
ENDROOT
BRANCH   1   2
ATOM      2  C   UNL A   1      31.244  29.348  24.948  1.00  0.00     0.117 C 
BRANCH   2   3
ATOM      3  N   UNL A   1      30.746  29.649  23.619  1.00  0.00    -0.355 N 
ATOM      4  C   UNL A   1      30.402  28.818  22.594  1.00  0.00     0.230 C 
ATOM      5  O   UNL A   1      29.835  29.322  21.621  1.00  0.00    -0.274 OA
ATOM      6  H   UNL A   1      30.639  30.609  23.426  1.00  0.00     0.163 HD
BRANCH   4   7
ATOM      7  C   UNL A   1      30.575  27.313  22.692  1.00  0.00     0.178 C 
BRANCH   7   8
ATOM      8  S   UNL A   1      29.531  26.491  23.918  1.00  0.00    -0.078 SA
BRANCH   8   9
ATOM      9  C   UNL A   1      30.670  25.510  24.805  1.00  0.00     0.170 A 
ATOM     10  C   UNL A   1      36.394  23.520  25.958  1.00  0.00     0.057 C 
ATOM     11  C   UNL A   1      34.954  23.886  25.785  1.00  0.00     0.007 A 
ATOM     12  S   UNL A   1      34.544  24.952  24.502  1.00  0.00    -0.122 S 
ATOM     13  C   UNL A   1      33.839  23.500  26.524  1.00  0.00    -0.022 A 
ATOM     14  C   UNL A   1      32.916  24.921  24.927  1.00  0.00     0.108 A 
ATOM     15  C   UNL A   1      32.642  24.141  26.023  1.00  0.00     0.080 A 
ATOM     16  C   UNL A   1      33.841  22.553  27.684  1.00  0.00     0.046 C 
ATOM     17  N   UNL A   1      31.935  25.589  24.307  1.00  0.00    -0.326 N 
ATOM     18  C   UNL A   1      31.255  24.072  26.514  1.00  0.00     0.282 A 
ATOM     19  H   UNL A   1      32.126  26.128  23.506  1.00  0.00     0.169 HD
ATOM     20  N   UNL A   1      30.306  24.829  25.840  1.00  0.00    -0.185 NA
ATOM     21  O   UNL A   1      30.966  23.408  27.510  1.00  0.00    -0.267 OA
ENDBRANCH   8   9
ENDBRANCH   7   8
ENDBRANCH   4   7
ENDBRANCH   2   3
ENDBRANCH   1   2
BRANCH   1  22
ATOM     22  C   UNL A   1      33.320  29.526  26.488  1.00  0.00     0.118 C 
BRANCH  22  23
ATOM     23  N   UNL A   1      33.836  30.849  26.797  1.00  0.00    -0.352 N 
ATOM     24  C   UNL A   1      34.761  31.273  27.709  1.00  0.00     0.251 C 
ATOM     25  H   UNL A   1      33.449  31.571  26.250  1.00  0.00     0.163 HD
ATOM     26  O   UNL A   1      34.665  32.435  28.108  1.00  0.00    -0.269 OA
BRANCH  24  27
ATOM     27  C   UNL A   1      35.879  30.431  28.198  1.00  0.00     0.039 A 
ATOM     28  C   UNL A   1      35.896  30.137  29.569  1.00  0.00     0.014 A 
ATOM     29  C   UNL A   1      36.994  30.115  27.416  1.00  0.00     0.014 A 
ATOM     30  C   UNL A   1      37.016  29.550  30.155  1.00  0.00     0.010 A 
ATOM     31  C   UNL A   1      38.120  29.521  28.008  1.00  0.00     0.010 A 
ATOM     32  C   UNL A   1      38.144  29.244  29.382  1.00  0.00    -0.014 A 
BRANCH  32  33
ATOM     33  C   UNL A   1      39.270  28.560  30.062  1.00  0.00     0.031 A 
ATOM     34  C   UNL A   1      39.755  27.303  29.402  1.00  0.00     0.074 A 
ATOM     35  C   UNL A   1      40.099  29.247  30.881  1.00  0.00     0.049 A 
ATOM     36  N   UNL A   1      40.618  27.288  28.429  1.00  0.00    -0.248 NA
ATOM     37  C   UNL A   1      39.099  26.012  29.615  1.00  0.00     0.031 C 
ATOM     38  C   UNL A   1      40.572  30.608  30.588  1.00  0.00     0.029 A 
ATOM     39  N   UNL A   1      40.862  28.852  31.961  1.00  0.00    -0.354 N 
ATOM     40  C   UNL A   1      40.599  26.019  27.868  1.00  0.00     0.074 A 
ATOM     41  C   UNL A   1      39.643  25.261  28.643  1.00  0.00     0.031 C 
ATOM     42  C   UNL A   1      41.650  30.870  31.355  1.00  0.00     0.029 A 
ATOM     43  C   UNL A   1      41.870  29.764  32.286  1.00  0.00     0.049 A 
ATOM     44  H   UNL A   1      40.712  28.012  32.453  1.00  0.00     0.167 HD
ATOM     45  C   UNL A   1      41.378  25.665  26.806  1.00  0.00     0.034 A 
ATOM     46  C   UNL A   1      43.079  29.429  32.826  1.00  0.00     0.034 A 
ATOM     47  C   UNL A   1      42.266  26.694  26.344  1.00  0.00     0.049 A 
ATOM     48  C   UNL A   1      43.760  28.831  31.617  1.00  0.00     0.074 A 
ATOM     49  C   UNL A   1      42.356  27.576  25.290  1.00  0.00     0.029 A 
ATOM     50  N   UNL A   1      43.356  26.985  27.128  1.00  0.00    -0.354 N 
ATOM     51  N   UNL A   1      44.236  29.497  30.596  1.00  0.00    -0.248 NA
ATOM     52  C   UNL A   1      43.500  27.415  31.355  1.00  0.00     0.031 C 
ATOM     53  C   UNL A   1      43.201  28.637  25.753  1.00  0.00     0.029 A 
ATOM     54  C   UNL A   1      43.575  28.335  27.063  1.00  0.00     0.049 A 
ATOM     55  H   UNL A   1      43.886  26.337  27.645  1.00  0.00     0.167 HD
ATOM     56  C   UNL A   1      44.016  28.675  29.486  1.00  0.00     0.074 A 
ATOM     57  C   UNL A   1      43.559  27.410  30.030  1.00  0.00     0.031 C 
ATOM     58  C   UNL A   1      44.056  29.106  28.190  1.00  0.00     0.034 A 
BRANCH  45  59
ATOM     59  C   UNL A   1      41.547  24.286  26.276  1.00  0.00     0.023 A 
ATOM     60  C   UNL A   1      40.519  23.375  26.596  1.00  0.00     0.012 A 
ATOM     61  C   UNL A   1      42.741  23.803  25.711  1.00  0.00     0.148 A 
ATOM     62  C   UNL A   1      40.683  22.006  26.405  1.00  0.00     0.002 A 
ATOM     63  C   UNL A   1      42.898  22.430  25.514  1.00  0.00     0.091 A 
ATOM     64  F   UNL A   1      43.716  24.678  25.423  1.00  0.00    -0.205 F 
ATOM     65  C   UNL A   1      41.875  21.533  25.872  1.00  0.00     0.022 A 
BRANCH  63  66
ATOM     66  S   UNL A   1      44.394  21.682  24.852  1.00  0.00     0.127 S 
ATOM     67  O   UNL A   1      44.023  20.270  24.775  1.00  0.00    -0.237 OA
ATOM     68  O   UNL A   1      44.518  22.349  23.555  1.00  0.00    -0.237 OA
ATOM     69  O   UNL A   1      45.454  21.999  25.799  1.00  0.00    -0.744 OA
ENDBRANCH  63  66
ENDBRANCH  45  59
BRANCH  46  70
ATOM     70  C   UNL A   1      43.037  28.773  34.182  1.00  0.00     0.023 A 
ATOM     71  C   UNL A   1      41.847  28.952  34.930  1.00  0.00     0.012 A 
ATOM     72  C   UNL A   1      44.064  28.015  34.781  1.00  0.00     0.148 A 
ATOM     73  C   UNL A   1      41.632  28.309  36.151  1.00  0.00     0.002 A 
ATOM     74  C   UNL A   1      43.832  27.338  35.982  1.00  0.00     0.091 A 
ATOM     75  F   UNL A   1      45.260  27.952  34.183  1.00  0.00    -0.205 F 
ATOM     76  C   UNL A   1      42.614  27.473  36.662  1.00  0.00     0.022 A 
BRANCH  74  77
ATOM     77  S   UNL A   1      45.023  26.204  36.715  1.00  0.00     0.127 S 
ATOM     78  O   UNL A   1      46.204  27.054  36.859  1.00  0.00    -0.237 OA
ATOM     79  O   UNL A   1      44.357  25.858  37.971  1.00  0.00    -0.237 OA
ATOM     80  O   UNL A   1      45.164  25.109  35.767  1.00  0.00    -0.744 OA
ENDBRANCH  74  77
ENDBRANCH  46  70
BRANCH  58  81
ATOM     81  C   UNL A   1      44.509  30.515  27.952  1.00  0.00     0.023 A 
ATOM     82  C   UNL A   1      43.651  31.557  28.349  1.00  0.00     0.012 A 
ATOM     83  C   UNL A   1      45.799  30.827  27.470  1.00  0.00     0.148 A 
ATOM     84  C   UNL A   1      44.073  32.883  28.301  1.00  0.00     0.002 A 
ATOM     85  C   UNL A   1      46.222  32.153  27.445  1.00  0.00     0.091 A 
ATOM     86  F   UNL A   1      46.602  29.827  27.078  1.00  0.00    -0.205 F 
ATOM     87  C   UNL A   1      45.361  33.180  27.865  1.00  0.00     0.022 A 
BRANCH  85  88
ATOM     88  S   UNL A   1      47.875  32.652  26.943  1.00  0.00     0.127 S 
ATOM     89  O   UNL A   1      47.593  33.612  25.875  1.00  0.00    -0.237 OA
ATOM     90  O   UNL A   1      48.396  33.251  28.172  1.00  0.00    -0.237 OA
ATOM     91  O   UNL A   1      48.558  31.441  26.510  1.00  0.00    -0.744 OA
ENDBRANCH  85  88
ENDBRANCH  58  81
ENDBRANCH  32  33
ENDBRANCH  24  27
ENDBRANCH  22  23
ENDBRANCH   1  22
TORSDOF 15
ENDMDL
