MODEL 1
REMARK VINA RESULT:     -10.8      0.000      0.000
REMARK SMILES CCCCCC[C@@H](C)N1C[C@H](C(=O)NCCCNC(=O)c2ccc(-c3c4nc(c(-c5cccc(S(=O)(=O)[O-])c5F)c5ccc([nH]5)c(-c5cccc(S(=O)(=O)[O-])c5F)c5nc(c(-c6cccc(S(=O)(=O)[O-])c6F)c6ccc3[nH]6)C=C5)C=C4)cc2)CC1=O
REMARK SMILES IDX 12 1 13 2 14 3 11 5 9 6 10 7 85 8 84 9 86 10 7 11 8 12 6 13
REMARK SMILES IDX 5 14 4 15 3 16 2 17 1 18 15 19 16 20 17 21 18 22 19 23 20 25
REMARK SMILES IDX 21 26 22 27 83 28 23 29 82 30 24 31 25 32 26 33 76 34 27 35
REMARK SMILES IDX 81 36 75 37 77 38 28 39 80 40 74 41 73 42 29 44 61 45 41 46
REMARK SMILES IDX 60 47 42 48 45 49 59 50 78 51 43 52 44 53 58 55 79 56 46 57
REMARK SMILES IDX 30 58 31 59 39 60 32 61 34 62 40 63 33 64 35 65 36 66 37 67
REMARK SMILES IDX 38 68 62 69 63 70 71 71 64 72 66 73 72 74 65 75 67 76 68 77
REMARK SMILES IDX 69 78 70 79 47 80 48 81 56 82 49 83 51 84 57 85 50 86 52 87
REMARK SMILES IDX 53 88 54 89 55 90
REMARK H PARENT 14 4 18 24 77 43 45 54
REMARK Flexibility Score: inf
ROOT
ATOM      1  C   UNL A   1      31.630  29.279  23.848  1.00  0.00     0.225 C 
ATOM      2  O   UNL A   1      31.009  29.246  22.787  1.00  0.00    -0.275 OA
ATOM      3  N   UNL A   1      31.181  30.105  24.838  1.00  0.00    -0.356 N 
ATOM      4  H   UNL A   1      30.326  30.555  24.653  1.00  0.00     0.163 HD
ENDROOT
BRANCH   1   5
ATOM      5  C   UNL A   1      32.831  28.396  24.131  1.00  0.00     0.107 C 
ATOM      6  N   UNL A   1      32.408  26.300  23.162  1.00  0.00    -0.339 N 
ATOM      7  C   UNL A   1      32.345  26.991  24.431  1.00  0.00     0.133 C 
ATOM      8  C   UNL A   1      33.271  26.942  22.282  1.00  0.00     0.223 C 
ATOM      9  C   UNL A   1      33.746  28.222  22.925  1.00  0.00     0.115 C 
ATOM     10  O   UNL A   1      33.652  26.546  21.190  1.00  0.00    -0.275 OA
BRANCH   6  11
ATOM     11  C   UNL A   1      31.714  25.016  22.965  1.00  0.00     0.082 C 
ATOM     12  C   UNL A   1      30.439  24.959  23.810  1.00  0.00     0.031 C 
BRANCH  11  13
ATOM     13  C   UNL A   1      32.606  23.777  23.196  1.00  0.00     0.025 C 
BRANCH  13  14
ATOM     14  C   UNL A   1      34.055  24.073  23.610  1.00  0.00     0.002 C 
BRANCH  14  15
ATOM     15  C   UNL A   1      34.562  23.283  24.820  1.00  0.00     0.000 C 
BRANCH  15  16
ATOM     16  C   UNL A   1      34.158  23.853  26.184  1.00  0.00    -0.000 C 
BRANCH  16  17
ATOM     17  C   UNL A   1      33.226  22.964  27.014  1.00  0.00    -0.003 C 
ATOM     18  C   UNL A   1      31.754  23.309  26.847  1.00  0.00     0.004 C 
ENDBRANCH  16  17
ENDBRANCH  15  16
ENDBRANCH  14  15
ENDBRANCH  13  14
ENDBRANCH  11  13
ENDBRANCH   6  11
ENDBRANCH   1   5
BRANCH   3  19
ATOM     19  C   UNL A   1      31.781  30.415  26.125  1.00  0.00     0.117 C 
BRANCH  19  20
ATOM     20  C   UNL A   1      31.561  31.871  26.515  1.00  0.00     0.042 C 
BRANCH  20  21
ATOM     21  C   UNL A   1      32.735  32.497  27.263  1.00  0.00     0.118 C 
BRANCH  21  22
ATOM     22  N   UNL A   1      32.518  33.905  27.574  1.00  0.00    -0.352 N 
ATOM     23  C   UNL A   1      33.105  34.700  28.528  1.00  0.00     0.251 C 
ATOM     24  H   UNL A   1      31.847  34.356  27.013  1.00  0.00     0.163 HD
ATOM     25  O   UNL A   1      32.647  35.820  28.741  1.00  0.00    -0.269 OA
BRANCH  23  26
ATOM     26  C   UNL A   1      34.265  34.213  29.305  1.00  0.00     0.039 A 
ATOM     27  C   UNL A   1      34.035  33.482  30.474  1.00  0.00     0.014 A 
ATOM     28  C   UNL A   1      35.574  34.485  28.899  1.00  0.00     0.014 A 
ATOM     29  C   UNL A   1      35.115  32.969  31.196  1.00  0.00     0.010 A 
ATOM     30  C   UNL A   1      36.645  33.905  29.573  1.00  0.00     0.010 A 
ATOM     31  C   UNL A   1      36.429  33.143  30.732  1.00  0.00    -0.014 A 
BRANCH  31  32
ATOM     32  C   UNL A   1      37.585  32.523  31.431  1.00  0.00     0.031 A 
ATOM     33  C   UNL A   1      38.335  31.380  30.799  1.00  0.00     0.074 A 
ATOM     34  C   UNL A   1      37.905  32.931  32.676  1.00  0.00     0.049 A 
ATOM     35  N   UNL A   1      39.331  30.684  31.280  1.00  0.00    -0.248 NA
ATOM     36  C   UNL A   1      37.891  30.947  29.463  1.00  0.00     0.031 C 
ATOM     37  C   UNL A   1      37.213  33.981  33.425  1.00  0.00     0.029 A 
ATOM     38  N   UNL A   1      38.877  32.493  33.540  1.00  0.00    -0.354 N 
ATOM     39  C   UNL A   1      39.606  29.706  30.331  1.00  0.00     0.074 A 
ATOM     40  C   UNL A   1      38.652  29.881  29.258  1.00  0.00     0.031 C 
ATOM     41  C   UNL A   1      37.790  34.116  34.630  1.00  0.00     0.029 A 
ATOM     42  C   UNL A   1      38.865  33.137  34.756  1.00  0.00     0.049 A 
ATOM     43  H   UNL A   1      39.522  31.786  33.312  1.00  0.00     0.167 HD
ATOM     44  C   UNL A   1      40.576  28.761  30.340  1.00  0.00     0.034 A 
ATOM     45  C   UNL A   1      39.626  32.954  35.854  1.00  0.00     0.034 A 
ATOM     46  C   UNL A   1      41.545  28.611  31.393  1.00  0.00     0.049 A 
ATOM     47  C   UNL A   1      40.708  31.910  35.829  1.00  0.00     0.074 A 
ATOM     48  C   UNL A   1      42.627  27.750  31.449  1.00  0.00     0.029 A 
ATOM     49  N   UNL A   1      41.539  29.323  32.583  1.00  0.00    -0.354 N 
ATOM     50  N   UNL A   1      41.056  31.104  34.855  1.00  0.00    -0.248 NA
ATOM     51  C   UNL A   1      41.524  31.770  37.043  1.00  0.00     0.031 C 
ATOM     52  C   UNL A   1      43.249  27.910  32.691  1.00  0.00     0.029 A 
ATOM     53  C   UNL A   1      42.584  28.905  33.390  1.00  0.00     0.049 A 
ATOM     54  H   UNL A   1      40.888  30.022  32.819  1.00  0.00     0.167 HD
ATOM     55  C   UNL A   1      42.157  30.395  35.322  1.00  0.00     0.074 A 
ATOM     56  C   UNL A   1      42.427  30.877  36.661  1.00  0.00     0.031 C 
ATOM     57  C   UNL A   1      42.874  29.426  34.701  1.00  0.00     0.034 A 
BRANCH  44  58
ATOM     58  C   UNL A   1      40.659  27.827  29.160  1.00  0.00     0.023 A 
ATOM     59  C   UNL A   1      39.817  26.697  29.096  1.00  0.00     0.012 A 
ATOM     60  C   UNL A   1      41.531  28.097  28.087  1.00  0.00     0.148 A 
ATOM     61  C   UNL A   1      39.873  25.830  28.005  1.00  0.00     0.002 A 
ATOM     62  C   UNL A   1      41.545  27.255  26.981  1.00  0.00     0.091 A 
ATOM     63  F   UNL A   1      42.338  29.164  28.172  1.00  0.00    -0.205 F 
ATOM     64  C   UNL A   1      40.727  26.114  26.945  1.00  0.00     0.022 A 
BRANCH  62  65
ATOM     65  S   UNL A   1      42.548  27.584  25.527  1.00  0.00     0.127 S 
ATOM     66  O   UNL A   1      42.248  26.419  24.694  1.00  0.00    -0.237 OA
ATOM     67  O   UNL A   1      41.981  28.842  25.041  1.00  0.00    -0.237 OA
ATOM     68  O   UNL A   1      43.922  27.678  25.998  1.00  0.00    -0.744 OA
ENDBRANCH  62  65
ENDBRANCH  44  58
BRANCH  45  69
ATOM     69  C   UNL A   1      39.435  33.824  37.050  1.00  0.00     0.023 A 
ATOM     70  C   UNL A   1      39.880  35.160  37.009  1.00  0.00     0.012 A 
ATOM     71  C   UNL A   1      38.804  33.345  38.213  1.00  0.00     0.148 A 
ATOM     72  C   UNL A   1      39.735  35.993  38.119  1.00  0.00     0.002 A 
ATOM     73  C   UNL A   1      38.610  34.196  39.296  1.00  0.00     0.091 A 
ATOM     74  F   UNL A   1      38.393  32.070  38.234  1.00  0.00    -0.205 F 
ATOM     75  C   UNL A   1      39.093  35.515  39.257  1.00  0.00     0.022 A 
BRANCH  73  76
ATOM     76  S   UNL A   1      37.681  33.711  40.753  1.00  0.00     0.127 S 
ATOM     77  O   UNL A   1      37.538  34.984  41.455  1.00  0.00    -0.237 OA
ATOM     78  O   UNL A   1      36.448  33.190  40.163  1.00  0.00    -0.237 OA
ATOM     79  O   UNL A   1      38.495  32.708  41.426  1.00  0.00    -0.744 OA
ENDBRANCH  73  76
ENDBRANCH  45  69
BRANCH  57  80
ATOM     80  C   UNL A   1      44.057  28.848  35.436  1.00  0.00     0.023 A 
ATOM     81  C   UNL A   1      45.334  29.422  35.286  1.00  0.00     0.012 A 
ATOM     82  C   UNL A   1      43.881  27.777  36.335  1.00  0.00     0.148 A 
ATOM     83  C   UNL A   1      46.426  28.915  35.991  1.00  0.00     0.002 A 
ATOM     84  C   UNL A   1      44.963  27.314  37.076  1.00  0.00     0.091 A 
ATOM     85  F   UNL A   1      42.662  27.232  36.452  1.00  0.00    -0.205 F 
ATOM     86  C   UNL A   1      46.238  27.872  36.894  1.00  0.00     0.022 A 
BRANCH  84  87
ATOM     87  S   UNL A   1      44.796  26.043  38.335  1.00  0.00     0.127 S 
ATOM     88  O   UNL A   1      44.137  26.777  39.414  1.00  0.00    -0.237 OA
ATOM     89  O   UNL A   1      43.952  25.054  37.665  1.00  0.00    -0.237 OA
ATOM     90  O   UNL A   1      46.148  25.586  38.627  1.00  0.00    -0.744 OA
ENDBRANCH  84  87
ENDBRANCH  57  80
ENDBRANCH  31  32
ENDBRANCH  23  26
ENDBRANCH  21  22
ENDBRANCH  20  21
ENDBRANCH  19  20
ENDBRANCH   3  19
TORSDOF 19
ENDMDL
MODEL 2
REMARK VINA RESULT:     -10.6      2.904      8.366
REMARK SMILES CCCCCC[C@@H](C)N1C[C@H](C(=O)NCCCNC(=O)c2ccc(-c3c4nc(c(-c5cccc(S(=O)(=O)[O-])c5F)c5ccc([nH]5)c(-c5cccc(S(=O)(=O)[O-])c5F)c5nc(c(-c6cccc(S(=O)(=O)[O-])c6F)c6ccc3[nH]6)C=C5)C=C4)cc2)CC1=O
REMARK SMILES IDX 12 1 13 2 14 3 11 5 9 6 10 7 85 8 84 9 86 10 7 11 8 12 6 13
REMARK SMILES IDX 5 14 4 15 3 16 2 17 1 18 15 19 16 20 17 21 18 22 19 23 20 25
REMARK SMILES IDX 21 26 22 27 83 28 23 29 82 30 24 31 25 32 26 33 76 34 27 35
REMARK SMILES IDX 81 36 75 37 77 38 28 39 80 40 74 41 73 42 29 44 61 45 41 46
REMARK SMILES IDX 60 47 42 48 45 49 59 50 78 51 43 52 44 53 58 55 79 56 46 57
REMARK SMILES IDX 30 58 31 59 39 60 32 61 34 62 40 63 33 64 35 65 36 66 37 67
REMARK SMILES IDX 38 68 62 69 63 70 71 71 64 72 66 73 72 74 65 75 67 76 68 77
REMARK SMILES IDX 69 78 70 79 47 80 48 81 56 82 49 83 51 84 57 85 50 86 52 87
REMARK SMILES IDX 53 88 54 89 55 90
REMARK H PARENT 14 4 18 24 77 43 45 54
REMARK Flexibility Score: inf
ROOT
ATOM      1  C   UNL A   1      33.150  25.621  25.761  1.00  0.00     0.225 C 
ATOM      2  O   UNL A   1      32.384  24.862  26.353  1.00  0.00    -0.275 OA
ATOM      3  N   UNL A   1      32.887  26.960  25.789  1.00  0.00    -0.356 N 
ATOM      4  H   UNL A   1      32.136  27.229  26.366  1.00  0.00     0.163 HD
ENDROOT
BRANCH   1   5
ATOM      5  C   UNL A   1      34.408  25.145  25.060  1.00  0.00     0.107 C 
ATOM      6  N   UNL A   1      34.315  22.801  24.959  1.00  0.00    -0.339 N 
ATOM      7  C   UNL A   1      34.895  23.876  25.735  1.00  0.00     0.133 C 
ATOM      8  C   UNL A   1      33.947  23.235  23.692  1.00  0.00     0.223 C 
ATOM      9  C   UNL A   1      34.169  24.726  23.614  1.00  0.00     0.115 C 
ATOM     10  O   UNL A   1      33.563  22.554  22.753  1.00  0.00    -0.275 OA
BRANCH   6  11
ATOM     11  C   UNL A   1      34.280  21.425  25.484  1.00  0.00     0.082 C 
ATOM     12  C   UNL A   1      35.529  20.654  25.051  1.00  0.00     0.031 C 
BRANCH  11  13
ATOM     13  C   UNL A   1      32.987  20.654  25.141  1.00  0.00     0.025 C 
BRANCH  13  14
ATOM     14  C   UNL A   1      33.177  19.388  24.293  1.00  0.00     0.002 C 
BRANCH  14  15
ATOM     15  C   UNL A   1      32.346  18.179  24.732  1.00  0.00     0.000 C 
BRANCH  15  16
ATOM     16  C   UNL A   1      33.159  16.971  25.211  1.00  0.00    -0.000 C 
BRANCH  16  17
ATOM     17  C   UNL A   1      34.538  16.814  24.565  1.00  0.00    -0.003 C 
ATOM     18  C   UNL A   1      35.458  15.869  25.324  1.00  0.00     0.004 C 
ENDBRANCH  16  17
ENDBRANCH  15  16
ENDBRANCH  14  15
ENDBRANCH  13  14
ENDBRANCH  11  13
ENDBRANCH   6  11
ENDBRANCH   1   5
BRANCH   3  19
ATOM     19  C   UNL A   1      33.554  28.047  25.092  1.00  0.00     0.117 C 
BRANCH  19  20
ATOM     20  C   UNL A   1      32.700  29.308  25.063  1.00  0.00     0.042 C 
BRANCH  20  21
ATOM     21  C   UNL A   1      32.248  29.783  26.442  1.00  0.00     0.118 C 
BRANCH  21  22
ATOM     22  N   UNL A   1      32.256  31.235  26.567  1.00  0.00    -0.352 N 
ATOM     23  C   UNL A   1      33.118  32.059  27.248  1.00  0.00     0.251 C 
ATOM     24  H   UNL A   1      31.530  31.698  26.089  1.00  0.00     0.163 HD
ATOM     25  O   UNL A   1      32.840  33.250  27.372  1.00  0.00    -0.269 OA
BRANCH  23  26
ATOM     26  C   UNL A   1      34.360  31.522  27.844  1.00  0.00     0.039 A 
ATOM     27  C   UNL A   1      35.438  32.387  28.054  1.00  0.00     0.014 A 
ATOM     28  C   UNL A   1      34.475  30.170  28.180  1.00  0.00     0.014 A 
ATOM     29  C   UNL A   1      36.602  31.911  28.661  1.00  0.00     0.010 A 
ATOM     30  C   UNL A   1      35.603  29.717  28.859  1.00  0.00     0.010 A 
ATOM     31  C   UNL A   1      36.682  30.581  29.104  1.00  0.00    -0.014 A 
BRANCH  31  32
ATOM     32  C   UNL A   1      37.872  30.081  29.840  1.00  0.00     0.031 A 
ATOM     33  C   UNL A   1      38.147  30.539  31.248  1.00  0.00     0.074 A 
ATOM     34  C   UNL A   1      38.756  29.282  29.209  1.00  0.00     0.049 A 
ATOM     35  N   UNL A   1      39.159  30.251  32.024  1.00  0.00    -0.248 NA
ATOM     36  C   UNL A   1      37.170  31.460  31.853  1.00  0.00     0.031 C 
ATOM     37  C   UNL A   1      38.641  28.823  27.823  1.00  0.00     0.029 A 
ATOM     38  N   UNL A   1      39.939  28.736  29.641  1.00  0.00    -0.354 N 
ATOM     39  C   UNL A   1      38.967  30.986  33.189  1.00  0.00     0.074 A 
ATOM     40  C   UNL A   1      37.754  31.754  33.006  1.00  0.00     0.031 C 
ATOM     41  C   UNL A   1      39.700  28.054  27.524  1.00  0.00     0.029 A 
ATOM     42  C   UNL A   1      40.591  27.998  28.679  1.00  0.00     0.049 A 
ATOM     43  H   UNL A   1      40.288  28.859  30.552  1.00  0.00     0.167 HD
ATOM     44  C   UNL A   1      39.717  31.003  34.317  1.00  0.00     0.034 A 
ATOM     45  C   UNL A   1      41.776  27.357  28.717  1.00  0.00     0.034 A 
ATOM     46  C   UNL A   1      40.902  30.211  34.508  1.00  0.00     0.049 A 
ATOM     47  C   UNL A   1      42.579  27.379  29.989  1.00  0.00     0.074 A 
ATOM     48  C   UNL A   1      41.676  30.084  35.648  1.00  0.00     0.029 A 
ATOM     49  N   UNL A   1      41.498  29.428  33.532  1.00  0.00    -0.354 N 
ATOM     50  N   UNL A   1      42.295  27.948  31.135  1.00  0.00    -0.248 NA
ATOM     51  C   UNL A   1      43.851  26.643  29.984  1.00  0.00     0.031 C 
ATOM     52  C   UNL A   1      42.764  29.259  35.349  1.00  0.00     0.029 A 
ATOM     53  C   UNL A   1      42.643  28.833  34.036  1.00  0.00     0.049 A 
ATOM     54  H   UNL A   1      41.158  29.312  32.616  1.00  0.00     0.167 HD
ATOM     55  C   UNL A   1      43.330  27.604  31.999  1.00  0.00     0.074 A 
ATOM     56  C   UNL A   1      44.238  26.763  31.246  1.00  0.00     0.031 C 
ATOM     57  C   UNL A   1      43.514  27.959  33.294  1.00  0.00     0.034 A 
BRANCH  44  58
ATOM     58  C   UNL A   1      39.263  31.890  35.448  1.00  0.00     0.023 A 
ATOM     59  C   UNL A   1      38.384  31.387  36.429  1.00  0.00     0.012 A 
ATOM     60  C   UNL A   1      39.750  33.207  35.571  1.00  0.00     0.148 A 
ATOM     61  C   UNL A   1      37.963  32.191  37.488  1.00  0.00     0.002 A 
ATOM     62  C   UNL A   1      39.367  33.985  36.657  1.00  0.00     0.091 A 
ATOM     63  F   UNL A   1      40.571  33.676  34.620  1.00  0.00    -0.205 F 
ATOM     64  C   UNL A   1      38.463  33.484  37.607  1.00  0.00     0.022 A 
BRANCH  62  65
ATOM     65  S   UNL A   1      40.023  35.633  36.947  1.00  0.00     0.127 S 
ATOM     66  O   UNL A   1      39.368  35.992  38.204  1.00  0.00    -0.237 OA
ATOM     67  O   UNL A   1      41.459  35.376  37.060  1.00  0.00    -0.237 OA
ATOM     68  O   UNL A   1      39.637  36.429  35.791  1.00  0.00    -0.744 OA
ENDBRANCH  62  65
ENDBRANCH  44  58
BRANCH  45  69
ATOM     69  C   UNL A   1      42.247  26.584  27.532  1.00  0.00     0.023 A 
ATOM     70  C   UNL A   1      42.976  27.244  26.524  1.00  0.00     0.012 A 
ATOM     71  C   UNL A   1      41.995  25.205  27.407  1.00  0.00     0.148 A 
ATOM     72  C   UNL A   1      43.412  26.554  25.393  1.00  0.00     0.002 A 
ATOM     73  C   UNL A   1      42.482  24.510  26.305  1.00  0.00     0.091 A 
ATOM     74  F   UNL A   1      41.295  24.597  28.374  1.00  0.00    -0.205 F 
ATOM     75  C   UNL A   1      43.174  25.187  25.288  1.00  0.00     0.022 A 
BRANCH  73  76
ATOM     76  S   UNL A   1      42.338  22.728  26.146  1.00  0.00     0.127 S 
ATOM     77  O   UNL A   1      42.953  22.493  24.842  1.00  0.00    -0.237 OA
ATOM     78  O   UNL A   1      43.119  22.260  27.291  1.00  0.00    -0.237 OA
ATOM     79  O   UNL A   1      40.913  22.437  26.232  1.00  0.00    -0.744 OA
ENDBRANCH  73  76
ENDBRANCH  45  69
BRANCH  57  80
ATOM     80  C   UNL A   1      44.719  27.402  34.009  1.00  0.00     0.023 A 
ATOM     81  C   UNL A   1      45.917  28.139  34.060  1.00  0.00     0.012 A 
ATOM     82  C   UNL A   1      44.634  26.172  34.694  1.00  0.00     0.148 A 
ATOM     83  C   UNL A   1      47.024  27.647  34.751  1.00  0.00     0.002 A 
ATOM     84  C   UNL A   1      45.723  25.715  35.426  1.00  0.00     0.091 A 
ATOM     85  F   UNL A   1      43.491  25.476  34.619  1.00  0.00    -0.205 F 
ATOM     86  C   UNL A   1      46.923  26.443  35.443  1.00  0.00     0.022 A 
BRANCH  84  87
ATOM     87  S   UNL A   1      45.653  24.227  36.431  1.00  0.00     0.127 S 
ATOM     88  O   UNL A   1      45.048  24.728  37.664  1.00  0.00    -0.237 OA
ATOM     89  O   UNL A   1      44.786  23.358  35.634  1.00  0.00    -0.237 OA
ATOM     90  O   UNL A   1      47.028  23.760  36.556  1.00  0.00    -0.744 OA
ENDBRANCH  84  87
ENDBRANCH  57  80
ENDBRANCH  31  32
ENDBRANCH  23  26
ENDBRANCH  21  22
ENDBRANCH  20  21
ENDBRANCH  19  20
ENDBRANCH   3  19
TORSDOF 19
ENDMDL
MODEL 3
REMARK VINA RESULT:     -10.5      6.019     12.048
REMARK SMILES CCCCCC[C@@H](C)N1C[C@H](C(=O)NCCCNC(=O)c2ccc(-c3c4nc(c(-c5cccc(S(=O)(=O)[O-])c5F)c5ccc([nH]5)c(-c5cccc(S(=O)(=O)[O-])c5F)c5nc(c(-c6cccc(S(=O)(=O)[O-])c6F)c6ccc3[nH]6)C=C5)C=C4)cc2)CC1=O
REMARK SMILES IDX 12 1 13 2 14 3 11 5 9 6 10 7 85 8 84 9 86 10 7 11 8 12 6 13
REMARK SMILES IDX 5 14 4 15 3 16 2 17 1 18 15 19 16 20 17 21 18 22 19 23 20 25
REMARK SMILES IDX 21 26 22 27 83 28 23 29 82 30 24 31 25 32 26 33 76 34 27 35
REMARK SMILES IDX 81 36 75 37 77 38 28 39 80 40 74 41 73 42 29 44 61 45 41 46
REMARK SMILES IDX 60 47 42 48 45 49 59 50 78 51 43 52 44 53 58 55 79 56 46 57
REMARK SMILES IDX 30 58 31 59 39 60 32 61 34 62 40 63 33 64 35 65 36 66 37 67
REMARK SMILES IDX 38 68 62 69 63 70 71 71 64 72 66 73 72 74 65 75 67 76 68 77
REMARK SMILES IDX 69 78 70 79 47 80 48 81 56 82 49 83 51 84 57 85 50 86 52 87
REMARK SMILES IDX 53 88 54 89 55 90
REMARK H PARENT 14 4 18 24 77 43 45 54
REMARK Flexibility Score: inf
ROOT
ATOM      1  C   UNL A   1      34.208  20.902  25.764  1.00  0.00     0.225 C 
ATOM      2  O   UNL A   1      33.256  20.125  25.811  1.00  0.00    -0.275 OA
ATOM      3  N   UNL A   1      35.348  20.495  25.133  1.00  0.00    -0.356 N 
ATOM      4  H   UNL A   1      35.288  19.624  24.679  1.00  0.00     0.163 HD
ENDROOT
BRANCH   1   5
ATOM      5  C   UNL A   1      34.151  22.314  26.316  1.00  0.00     0.107 C 
ATOM      6  N   UNL A   1      32.124  23.264  25.610  1.00  0.00    -0.339 N 
ATOM      7  C   UNL A   1      33.529  23.222  25.272  1.00  0.00     0.133 C 
ATOM      8  C   UNL A   1      31.913  22.895  26.933  1.00  0.00     0.223 C 
ATOM      9  C   UNL A   1      33.230  22.451  27.522  1.00  0.00     0.115 C 
ATOM     10  O   UNL A   1      30.870  22.958  27.568  1.00  0.00    -0.275 OA
BRANCH   6  11
ATOM     11  C   UNL A   1      31.129  23.772  24.649  1.00  0.00     0.082 C 
ATOM     12  C   UNL A   1      31.640  23.616  23.215  1.00  0.00     0.031 C 
BRANCH  11  13
ATOM     13  C   UNL A   1      30.662  25.216  24.933  1.00  0.00     0.025 C 
BRANCH  13  14
ATOM     14  C   UNL A   1      31.740  26.300  24.797  1.00  0.00     0.002 C 
BRANCH  14  15
ATOM     15  C   UNL A   1      31.254  27.636  24.228  1.00  0.00     0.000 C 
BRANCH  15  16
ATOM     16  C   UNL A   1      30.542  27.546  22.873  1.00  0.00    -0.000 C 
BRANCH  16  17
ATOM     17  C   UNL A   1      29.421  28.566  22.655  1.00  0.00    -0.003 C 
ATOM     18  C   UNL A   1      29.665  29.892  23.360  1.00  0.00     0.004 C 
ENDBRANCH  16  17
ENDBRANCH  15  16
ENDBRANCH  14  15
ENDBRANCH  13  14
ENDBRANCH  11  13
ENDBRANCH   6  11
ENDBRANCH   1   5
BRANCH   3  19
ATOM     19  C   UNL A   1      36.637  21.160  25.034  1.00  0.00     0.117 C 
BRANCH  19  20
ATOM     20  C   UNL A   1      37.784  20.160  24.962  1.00  0.00     0.042 C 
BRANCH  20  21
ATOM     21  C   UNL A   1      38.987  20.534  25.825  1.00  0.00     0.118 C 
BRANCH  21  22
ATOM     22  N   UNL A   1      39.976  19.467  25.905  1.00  0.00    -0.352 N 
ATOM     23  C   UNL A   1      41.339  19.534  26.059  1.00  0.00     0.251 C 
ATOM     24  H   UNL A   1      39.611  18.556  25.838  1.00  0.00     0.163 HD
ATOM     25  O   UNL A   1      42.011  18.515  25.922  1.00  0.00    -0.269 OA
BRANCH  23  26
ATOM     26  C   UNL A   1      41.999  20.821  26.370  1.00  0.00     0.039 A 
ATOM     27  C   UNL A   1      42.358  21.668  25.318  1.00  0.00     0.014 A 
ATOM     28  C   UNL A   1      42.280  21.189  27.688  1.00  0.00     0.014 A 
ATOM     29  C   UNL A   1      42.936  22.909  25.592  1.00  0.00     0.010 A 
ATOM     30  C   UNL A   1      42.780  22.459  27.963  1.00  0.00     0.010 A 
ATOM     31  C   UNL A   1      43.118  23.333  26.918  1.00  0.00    -0.014 A 
BRANCH  31  32
ATOM     32  C   UNL A   1      43.640  24.688  27.232  1.00  0.00     0.031 A 
ATOM     33  C   UNL A   1      42.719  25.759  27.757  1.00  0.00     0.074 A 
ATOM     34  C   UNL A   1      44.927  24.984  26.960  1.00  0.00     0.049 A 
ATOM     35  N   UNL A   1      42.984  27.008  28.037  1.00  0.00    -0.248 NA
ATOM     36  C   UNL A   1      41.312  25.381  27.973  1.00  0.00     0.031 C 
ATOM     37  C   UNL A   1      45.904  24.057  26.385  1.00  0.00     0.029 A 
ATOM     38  N   UNL A   1      45.628  26.155  27.106  1.00  0.00    -0.354 N 
ATOM     39  C   UNL A   1      41.774  27.577  28.418  1.00  0.00     0.074 A 
ATOM     40  C   UNL A   1      40.768  26.543  28.307  1.00  0.00     0.031 C 
ATOM     41  C   UNL A   1      47.080  24.689  26.242  1.00  0.00     0.029 A 
ATOM     42  C   UNL A   1      46.932  26.076  26.673  1.00  0.00     0.049 A 
ATOM     43  H   UNL A   1      45.237  26.974  27.486  1.00  0.00     0.167 HD
ATOM     44  C   UNL A   1      41.525  28.839  28.843  1.00  0.00     0.034 A 
ATOM     45  C   UNL A   1      47.898  27.014  26.619  1.00  0.00     0.034 A 
ATOM     46  C   UNL A   1      42.533  29.855  28.985  1.00  0.00     0.049 A 
ATOM     47  C   UNL A   1      47.598  28.403  27.115  1.00  0.00     0.074 A 
ATOM     48  C   UNL A   1      42.400  31.132  29.500  1.00  0.00     0.029 A 
ATOM     49  N   UNL A   1      43.856  29.719  28.593  1.00  0.00    -0.354 N 
ATOM     50  N   UNL A   1      46.487  28.875  27.625  1.00  0.00    -0.248 NA
ATOM     51  C   UNL A   1      48.694  29.380  27.056  1.00  0.00     0.031 C 
ATOM     52  C   UNL A   1      43.631  31.784  29.379  1.00  0.00     0.029 A 
ATOM     53  C   UNL A   1      44.545  30.896  28.833  1.00  0.00     0.049 A 
ATOM     54  H   UNL A   1      44.248  28.905  28.203  1.00  0.00     0.167 HD
ATOM     55  C   UNL A   1      46.763  30.189  27.988  1.00  0.00     0.074 A 
ATOM     56  C   UNL A   1      48.151  30.431  27.654  1.00  0.00     0.031 C 
ATOM     57  C   UNL A   1      45.939  31.112  28.542  1.00  0.00     0.034 A 
BRANCH  44  58
ATOM     58  C   UNL A   1      40.106  29.189  29.212  1.00  0.00     0.023 A 
ATOM     59  C   UNL A   1      39.184  29.544  28.206  1.00  0.00     0.012 A 
ATOM     60  C   UNL A   1      39.671  29.114  30.550  1.00  0.00     0.148 A 
ATOM     61  C   UNL A   1      37.864  29.859  28.530  1.00  0.00     0.002 A 
ATOM     62  C   UNL A   1      38.342  29.379  30.858  1.00  0.00     0.091 A 
ATOM     63  F   UNL A   1      40.565  28.793  31.496  1.00  0.00    -0.205 F 
ATOM     64  C   UNL A   1      37.441  29.767  29.853  1.00  0.00     0.022 A 
BRANCH  62  65
ATOM     65  S   UNL A   1      37.679  29.204  32.520  1.00  0.00     0.127 S 
ATOM     66  O   UNL A   1      38.565  30.083  33.283  1.00  0.00    -0.237 OA
ATOM     67  O   UNL A   1      36.315  29.706  32.359  1.00  0.00    -0.237 OA
ATOM     68  O   UNL A   1      37.772  27.788  32.843  1.00  0.00    -0.744 OA
ENDBRANCH  62  65
ENDBRANCH  44  58
BRANCH  45  69
ATOM     69  C   UNL A   1      49.262  26.657  26.135  1.00  0.00     0.023 A 
ATOM     70  C   UNL A   1      50.089  25.847  26.938  1.00  0.00     0.012 A 
ATOM     71  C   UNL A   1      49.737  27.097  24.885  1.00  0.00     0.148 A 
ATOM     72  C   UNL A   1      51.378  25.512  26.523  1.00  0.00     0.002 A 
ATOM     73  C   UNL A   1      51.001  26.714  24.451  1.00  0.00     0.091 A 
ATOM     74  F   UNL A   1      48.939  27.872  24.139  1.00  0.00    -0.205 F 
ATOM     75  C   UNL A   1      51.831  25.937  25.277  1.00  0.00     0.022 A 
BRANCH  73  76
ATOM     76  S   UNL A   1      51.620  27.103  22.811  1.00  0.00     0.127 S 
ATOM     77  O   UNL A   1      52.800  26.247  22.725  1.00  0.00    -0.237 OA
ATOM     78  O   UNL A   1      50.499  26.697  21.964  1.00  0.00    -0.237 OA
ATOM     79  O   UNL A   1      51.880  28.536  22.816  1.00  0.00    -0.744 OA
ENDBRANCH  73  76
ENDBRANCH  45  69
BRANCH  57  80
ATOM     80  C   UNL A   1      46.521  32.464  28.872  1.00  0.00     0.023 A 
ATOM     81  C   UNL A   1      47.094  32.699  30.136  1.00  0.00     0.012 A 
ATOM     82  C   UNL A   1      46.561  33.479  27.895  1.00  0.00     0.148 A 
ATOM     83  C   UNL A   1      47.667  33.934  30.436  1.00  0.00     0.002 A 
ATOM     84  C   UNL A   1      47.182  34.688  28.183  1.00  0.00     0.091 A 
ATOM     85  F   UNL A   1      45.994  33.243  26.703  1.00  0.00    -0.205 F 
ATOM     86  C   UNL A   1      47.722  34.923  29.456  1.00  0.00     0.022 A 
BRANCH  84  87
ATOM     87  S   UNL A   1      47.391  35.981  26.953  1.00  0.00     0.127 S 
ATOM     88  O   UNL A   1      47.882  37.091  27.768  1.00  0.00    -0.237 OA
ATOM     89  O   UNL A   1      48.388  35.396  26.056  1.00  0.00    -0.237 OA
ATOM     90  O   UNL A   1      46.079  36.182  26.352  1.00  0.00    -0.744 OA
ENDBRANCH  84  87
ENDBRANCH  57  80
ENDBRANCH  31  32
ENDBRANCH  23  26
ENDBRANCH  21  22
ENDBRANCH  20  21
ENDBRANCH  19  20
ENDBRANCH   3  19
TORSDOF 19
ENDMDL
