MODEL 1
REMARK VINA RESULT:     -10.9      0.000      0.000
REMARK SMILES C[C@H](CC(=O)NCCCNC(=O)c1ccc(-c2c3nc(c(-c4cccc(S(=O)(=O)[O-])c4F)c4ccc([nH]4)c(-c4cccc(S(=O)(=O)[O-])c4F)c4nc(c(-c5cccc(S(=O)(=O)[O-])c5F)c5ccc2[nH]5)C=C4)C=C3)cc1)NC(=O)CS[C@H]1CCS(=O)(=O)C1
REMARK SMILES IDX 7 1 6 2 4 3 5 4 3 6 2 7 1 8 76 9 77 10 78 12 79 13 80 14
REMARK SMILES IDX 81 15 82 16 87 17 83 18 84 19 85 20 86 21 8 22 9 23 10 24
REMARK SMILES IDX 11 25 12 27 13 28 14 29 75 30 15 31 74 32 16 33 17 34 18 35
REMARK SMILES IDX 68 36 19 37 73 38 67 39 69 40 20 41 72 42 66 43 65 44 21 46
REMARK SMILES IDX 53 47 33 48 52 49 34 50 37 51 51 52 70 53 35 54 36 55 50 57
REMARK SMILES IDX 71 58 38 59 22 60 23 61 31 62 24 63 26 64 32 65 25 66 27 67
REMARK SMILES IDX 28 68 29 69 30 70 54 71 55 72 63 73 56 74 58 75 64 76 57 77
REMARK SMILES IDX 59 78 60 79 61 80 62 81 39 82 40 83 48 84 41 85 43 86 49 87
REMARK SMILES IDX 42 88 44 89 45 90 46 91 47 92
REMARK H PARENT 6 5 76 11 10 26 69 45 37 56
REMARK Flexibility Score: inf
ROOT
ATOM      1  C   UNL A   1      31.329  29.024  23.772  1.00  0.00     0.117 C 
ENDROOT
BRANCH   1   2
ATOM      2  N   UNL A   1      30.906  27.858  23.025  1.00  0.00    -0.356 N 
ATOM      3  C   UNL A   1      30.629  26.616  23.496  1.00  0.00     0.222 C 
ATOM      4  O   UNL A   1      30.519  25.686  22.698  1.00  0.00    -0.275 OA
ATOM      5  H   UNL A   1      30.807  27.983  22.054  1.00  0.00     0.163 HD
BRANCH   3   6
ATOM      6  C   UNL A   1      30.417  26.406  24.974  1.00  0.00     0.124 C 
BRANCH   6   7
ATOM      7  C   UNL A   1      31.307  25.387  25.712  1.00  0.00     0.088 C 
ATOM      8  C   UNL A   1      32.678  25.897  26.141  1.00  0.00     0.031 C 
BRANCH   7   9
ATOM      9  N   UNL A   1      30.567  24.688  26.762  1.00  0.00    -0.352 N 
ATOM     10  C   UNL A   1      30.557  23.357  27.084  1.00  0.00     0.230 C 
ATOM     11  H   UNL A   1      29.991  25.259  27.319  1.00  0.00     0.163 HD
ATOM     12  O   UNL A   1      29.534  22.915  27.612  1.00  0.00    -0.274 OA
BRANCH  10  13
ATOM     13  C   UNL A   1      31.798  22.496  26.897  1.00  0.00     0.169 C 
BRANCH  13  14
ATOM     14  S   UNL A   1      32.129  21.972  25.171  1.00  0.00    -0.148 SA
BRANCH  14  15
ATOM     15  C   UNL A   1      33.923  22.202  25.063  1.00  0.00     0.063 C 
ATOM     16  C   UNL A   1      34.731  20.932  24.749  1.00  0.00     0.031 C 
ATOM     17  C   UNL A   1      34.374  23.205  24.006  1.00  0.00     0.151 C 
ATOM     18  C   UNL A   1      36.189  21.382  24.752  1.00  0.00     0.138 C 
ATOM     19  S   UNL A   1      36.160  23.021  24.031  1.00  0.00     0.151 S 
ATOM     20  O   UNL A   1      36.697  23.956  25.002  1.00  0.00    -0.229 OA
ATOM     21  O   UNL A   1      36.651  22.946  22.676  1.00  0.00    -0.229 OA
ENDBRANCH  14  15
ENDBRANCH  13  14
ENDBRANCH  10  13
ENDBRANCH   7   9
ENDBRANCH   6   7
ENDBRANCH   3   6
ENDBRANCH   1   2
BRANCH   1  22
ATOM     22  C   UNL A   1      32.847  29.036  23.916  1.00  0.00     0.042 C 
BRANCH  22  23
ATOM     23  C   UNL A   1      33.306  29.324  25.333  1.00  0.00     0.118 C 
BRANCH  23  24
ATOM     24  N   UNL A   1      32.909  30.657  25.748  1.00  0.00    -0.352 N 
ATOM     25  C   UNL A   1      33.263  31.348  26.876  1.00  0.00     0.251 C 
ATOM     26  H   UNL A   1      32.301  31.128  25.133  1.00  0.00     0.163 HD
ATOM     27  O   UNL A   1      32.561  32.280  27.254  1.00  0.00    -0.269 OA
BRANCH  25  28
ATOM     28  C   UNL A   1      34.487  30.977  27.617  1.00  0.00     0.039 A 
ATOM     29  C   UNL A   1      34.635  29.664  28.062  1.00  0.00     0.014 A 
ATOM     30  C   UNL A   1      35.463  31.933  27.919  1.00  0.00     0.014 A 
ATOM     31  C   UNL A   1      35.767  29.311  28.794  1.00  0.00     0.010 A 
ATOM     32  C   UNL A   1      36.643  31.552  28.539  1.00  0.00     0.010 A 
ATOM     33  C   UNL A   1      36.790  30.248  29.023  1.00  0.00    -0.014 A 
BRANCH  33  34
ATOM     34  C   UNL A   1      38.002  29.874  29.788  1.00  0.00     0.031 A 
ATOM     35  C   UNL A   1      38.231  30.416  31.174  1.00  0.00     0.074 A 
ATOM     36  C   UNL A   1      38.923  29.080  29.207  1.00  0.00     0.049 A 
ATOM     37  N   UNL A   1      39.211  30.165  32.002  1.00  0.00    -0.248 NA
ATOM     38  C   UNL A   1      37.250  31.387  31.689  1.00  0.00     0.031 C 
ATOM     39  C   UNL A   1      38.861  28.583  27.831  1.00  0.00     0.029 A 
ATOM     40  N   UNL A   1      40.093  28.563  29.696  1.00  0.00    -0.354 N 
ATOM     41  C   UNL A   1      38.987  30.971  33.112  1.00  0.00     0.074 A 
ATOM     42  C   UNL A   1      37.803  31.751  32.836  1.00  0.00     0.031 C 
ATOM     43  C   UNL A   1      39.934  27.816  27.593  1.00  0.00     0.029 A 
ATOM     44  C   UNL A   1      40.774  27.792  28.785  1.00  0.00     0.049 A 
ATOM     45  H   UNL A   1      40.416  28.728  30.611  1.00  0.00     0.167 HD
ATOM     46  C   UNL A   1      39.687  31.035  34.269  1.00  0.00     0.034 A 
ATOM     47  C   UNL A   1      41.948  27.141  28.897  1.00  0.00     0.034 A 
ATOM     48  C   UNL A   1      40.845  30.229  34.546  1.00  0.00     0.049 A 
ATOM     49  C   UNL A   1      42.669  27.172  30.214  1.00  0.00     0.074 A 
ATOM     50  C   UNL A   1      41.567  30.135  35.723  1.00  0.00     0.029 A 
ATOM     51  N   UNL A   1      41.463  29.393  33.630  1.00  0.00    -0.354 N 
ATOM     52  N   UNL A   1      42.342  27.799  31.318  1.00  0.00    -0.248 NA
ATOM     53  C   UNL A   1      43.896  26.371  30.315  1.00  0.00     0.031 C 
ATOM     54  C   UNL A   1      42.648  29.276  35.502  1.00  0.00     0.029 A 
ATOM     55  C   UNL A   1      42.573  28.796  34.204  1.00  0.00     0.049 A 
ATOM     56  H   UNL A   1      41.159  29.246  32.705  1.00  0.00     0.167 HD
ATOM     57  C   UNL A   1      43.309  27.450  32.254  1.00  0.00     0.074 A 
ATOM     58  C   UNL A   1      44.212  26.529  31.592  1.00  0.00     0.031 C 
ATOM     59  C   UNL A   1      43.448  27.865  33.538  1.00  0.00     0.034 A 
BRANCH  46  60
ATOM     60  C   UNL A   1      39.201  31.990  35.331  1.00  0.00     0.023 A 
ATOM     61  C   UNL A   1      38.224  31.577  36.260  1.00  0.00     0.012 A 
ATOM     62  C   UNL A   1      39.743  33.287  35.433  1.00  0.00     0.148 A 
ATOM     63  C   UNL A   1      37.763  32.450  37.244  1.00  0.00     0.002 A 
ATOM     64  C   UNL A   1      39.317  34.134  36.450  1.00  0.00     0.091 A 
ATOM     65  F   UNL A   1      40.654  33.673  34.528  1.00  0.00    -0.205 F 
ATOM     66  C   UNL A   1      38.316  33.723  37.346  1.00  0.00     0.022 A 
BRANCH  64  67
ATOM     67  S   UNL A   1      40.030  35.760  36.716  1.00  0.00     0.127 S 
ATOM     68  O   UNL A   1      41.453  35.445  36.819  1.00  0.00    -0.237 OA
ATOM     69  O   UNL A   1      39.648  36.466  35.492  1.00  0.00    -0.237 OA
ATOM     70  O   UNL A   1      39.414  36.275  37.931  1.00  0.00    -0.744 OA
ENDBRANCH  64  67
ENDBRANCH  46  60
BRANCH  47  71
ATOM     71  C   UNL A   1      42.474  26.369  27.738  1.00  0.00     0.023 A 
ATOM     72  C   UNL A   1      43.443  26.942  26.893  1.00  0.00     0.012 A 
ATOM     73  C   UNL A   1      42.050  25.047  27.503  1.00  0.00     0.148 A 
ATOM     74  C   UNL A   1      43.959  26.221  25.815  1.00  0.00     0.002 A 
ATOM     75  C   UNL A   1      42.612  24.314  26.466  1.00  0.00     0.091 A 
ATOM     76  F   UNL A   1      41.122  24.524  28.317  1.00  0.00    -0.205 F 
ATOM     77  C   UNL A   1      43.552  24.905  25.609  1.00  0.00     0.022 A 
BRANCH  75  78
ATOM     78  S   UNL A   1      42.253  22.572  26.218  1.00  0.00     0.127 S 
ATOM     79  O   UNL A   1      42.989  22.287  24.988  1.00  0.00    -0.237 OA
ATOM     80  O   UNL A   1      42.819  21.973  27.427  1.00  0.00    -0.237 OA
ATOM     81  O   UNL A   1      40.804  22.475  26.123  1.00  0.00    -0.744 OA
ENDBRANCH  75  78
ENDBRANCH  47  71
BRANCH  59  82
ATOM     82  C   UNL A   1      44.609  27.306  34.319  1.00  0.00     0.023 A 
ATOM     83  C   UNL A   1      45.865  27.944  34.270  1.00  0.00     0.012 A 
ATOM     84  C   UNL A   1      44.446  26.165  35.129  1.00  0.00     0.148 A 
ATOM     85  C   UNL A   1      46.953  27.424  34.971  1.00  0.00     0.002 A 
ATOM     86  C   UNL A   1      45.518  25.688  35.872  1.00  0.00     0.091 A 
ATOM     87  F   UNL A   1      43.248  25.561  35.153  1.00  0.00    -0.205 F 
ATOM     88  C   UNL A   1      46.776  26.303  35.779  1.00  0.00     0.022 A 
BRANCH  86  89
ATOM     89  S   UNL A   1      45.357  24.313  37.015  1.00  0.00     0.127 S 
ATOM     90  O   UNL A   1      44.897  23.243  36.132  1.00  0.00    -0.237 OA
ATOM     91  O   UNL A   1      46.727  24.154  37.504  1.00  0.00    -0.237 OA
ATOM     92  O   UNL A   1      44.402  24.744  38.028  1.00  0.00    -0.744 OA
ENDBRANCH  86  89
ENDBRANCH  59  82
ENDBRANCH  33  34
ENDBRANCH  25  28
ENDBRANCH  23  24
ENDBRANCH  22  23
ENDBRANCH   1  22
TORSDOF 18
ENDMDL
MODEL 2
REMARK VINA RESULT:     -10.7      2.110      2.570
REMARK SMILES C[C@H](CC(=O)NCCCNC(=O)c1ccc(-c2c3nc(c(-c4cccc(S(=O)(=O)[O-])c4F)c4ccc([nH]4)c(-c4cccc(S(=O)(=O)[O-])c4F)c4nc(c(-c5cccc(S(=O)(=O)[O-])c5F)c5ccc2[nH]5)C=C4)C=C3)cc1)NC(=O)CS[C@H]1CCS(=O)(=O)C1
REMARK SMILES IDX 7 1 6 2 4 3 5 4 3 6 2 7 1 8 76 9 77 10 78 12 79 13 80 14
REMARK SMILES IDX 81 15 82 16 87 17 83 18 84 19 85 20 86 21 8 22 9 23 10 24
REMARK SMILES IDX 11 25 12 27 13 28 14 29 75 30 15 31 74 32 16 33 17 34 18 35
REMARK SMILES IDX 68 36 19 37 73 38 67 39 69 40 20 41 72 42 66 43 65 44 21 46
REMARK SMILES IDX 53 47 33 48 52 49 34 50 37 51 51 52 70 53 35 54 36 55 50 57
REMARK SMILES IDX 71 58 38 59 22 60 23 61 31 62 24 63 26 64 32 65 25 66 27 67
REMARK SMILES IDX 28 68 29 69 30 70 54 71 55 72 63 73 56 74 58 75 64 76 57 77
REMARK SMILES IDX 59 78 60 79 61 80 62 81 39 82 40 83 48 84 41 85 43 86 49 87
REMARK SMILES IDX 42 88 44 89 45 90 46 91 47 92
REMARK H PARENT 6 5 76 11 10 26 69 45 37 56
REMARK Flexibility Score: inf
ROOT
ATOM      1  C   UNL A   1      32.839  27.873  24.460  1.00  0.00     0.117 C 
ENDROOT
BRANCH   1   2
ATOM      2  N   UNL A   1      32.035  27.311  25.526  1.00  0.00    -0.356 N 
ATOM      3  C   UNL A   1      31.615  26.028  25.671  1.00  0.00     0.222 C 
ATOM      4  O   UNL A   1      30.744  25.776  26.501  1.00  0.00    -0.275 OA
ATOM      5  H   UNL A   1      31.760  27.937  26.233  1.00  0.00     0.163 HD
BRANCH   3   6
ATOM      6  C   UNL A   1      32.252  24.935  24.851  1.00  0.00     0.124 C 
BRANCH   6   7
ATOM      7  C   UNL A   1      33.461  24.179  25.437  1.00  0.00     0.088 C 
ATOM      8  C   UNL A   1      34.814  24.861  25.263  1.00  0.00     0.031 C 
BRANCH   7   9
ATOM      9  N   UNL A   1      33.193  23.708  26.795  1.00  0.00    -0.352 N 
ATOM     10  C   UNL A   1      33.311  22.448  27.321  1.00  0.00     0.230 C 
ATOM     11  H   UNL A   1      32.882  24.398  27.424  1.00  0.00     0.163 HD
ATOM     12  O   UNL A   1      32.577  22.166  28.272  1.00  0.00    -0.274 OA
BRANCH  10  13
ATOM     13  C   UNL A   1      34.379  21.487  26.820  1.00  0.00     0.169 C 
BRANCH  13  14
ATOM     14  S   UNL A   1      34.319  21.124  25.024  1.00  0.00    -0.148 SA
BRANCH  14  15
ATOM     15  C   UNL A   1      33.738  19.408  25.023  1.00  0.00     0.063 C 
ATOM     16  C   UNL A   1      32.486  19.138  24.172  1.00  0.00     0.031 C 
ATOM     17  C   UNL A   1      34.758  18.390  24.523  1.00  0.00     0.151 C 
ATOM     18  C   UNL A   1      32.187  17.655  24.371  1.00  0.00     0.138 C 
ATOM     19  S   UNL A   1      33.797  16.875  24.457  1.00  0.00     0.151 S 
ATOM     20  O   UNL A   1      33.913  16.210  25.742  1.00  0.00    -0.229 OA
ATOM     21  O   UNL A   1      34.058  16.199  23.209  1.00  0.00    -0.229 OA
ENDBRANCH  14  15
ENDBRANCH  13  14
ENDBRANCH  10  13
ENDBRANCH   7   9
ENDBRANCH   6   7
ENDBRANCH   3   6
ENDBRANCH   1   2
BRANCH   1  22
ATOM     22  C   UNL A   1      33.124  29.345  24.737  1.00  0.00     0.042 C 
BRANCH  22  23
ATOM     23  C   UNL A   1      33.141  29.679  26.217  1.00  0.00     0.118 C 
BRANCH  23  24
ATOM     24  N   UNL A   1      33.056  31.112  26.428  1.00  0.00    -0.352 N 
ATOM     25  C   UNL A   1      33.667  31.878  27.385  1.00  0.00     0.251 C 
ATOM     26  H   UNL A   1      32.479  31.600  25.797  1.00  0.00     0.163 HD
ATOM     27  O   UNL A   1      33.204  32.981  27.657  1.00  0.00    -0.269 OA
BRANCH  25  28
ATOM     28  C   UNL A   1      34.879  31.379  28.069  1.00  0.00     0.039 A 
ATOM     29  C   UNL A   1      36.011  32.192  28.113  1.00  0.00     0.014 A 
ATOM     30  C   UNL A   1      34.918  30.094  28.620  1.00  0.00     0.014 A 
ATOM     31  C   UNL A   1      37.172  31.719  28.723  1.00  0.00     0.010 A 
ATOM     32  C   UNL A   1      36.031  29.675  29.333  1.00  0.00     0.010 A 
ATOM     33  C   UNL A   1      37.185  30.464  29.355  1.00  0.00    -0.014 A 
BRANCH  33  34
ATOM     34  C   UNL A   1      38.412  29.963  30.018  1.00  0.00     0.031 A 
ATOM     35  C   UNL A   1      38.786  30.439  31.397  1.00  0.00     0.074 A 
ATOM     36  C   UNL A   1      39.215  29.112  29.350  1.00  0.00     0.049 A 
ATOM     37  N   UNL A   1      39.798  30.079  32.143  1.00  0.00    -0.248 NA
ATOM     38  C   UNL A   1      37.934  31.474  32.007  1.00  0.00     0.031 C 
ATOM     39  C   UNL A   1      39.011  28.667  27.970  1.00  0.00     0.029 A 
ATOM     40  N   UNL A   1      40.368  28.481  29.737  1.00  0.00    -0.354 N 
ATOM     41  C   UNL A   1      39.726  30.865  33.286  1.00  0.00     0.074 A 
ATOM     42  C   UNL A   1      38.597  31.752  33.120  1.00  0.00     0.031 C 
ATOM     43  C   UNL A   1      39.994  27.819  27.633  1.00  0.00     0.029 A 
ATOM     44  C   UNL A   1      40.912  27.684  28.759  1.00  0.00     0.049 A 
ATOM     45  H   UNL A   1      40.769  28.589  30.630  1.00  0.00     0.167 HD
ATOM     46  C   UNL A   1      40.510  30.832  34.389  1.00  0.00     0.034 A 
ATOM     47  C   UNL A   1      42.029  26.933  28.766  1.00  0.00     0.034 A 
ATOM     48  C   UNL A   1      41.610  29.921  34.559  1.00  0.00     0.049 A 
ATOM     49  C   UNL A   1      42.842  26.859  30.026  1.00  0.00     0.074 A 
ATOM     50  C   UNL A   1      42.403  29.728  35.676  1.00  0.00     0.029 A 
ATOM     51  N   UNL A   1      42.085  29.065  33.578  1.00  0.00    -0.354 N 
ATOM     52  N   UNL A   1      42.652  27.476  31.168  1.00  0.00    -0.248 NA
ATOM     53  C   UNL A   1      43.998  25.953  30.015  1.00  0.00     0.031 C 
ATOM     54  C   UNL A   1      43.386  28.787  35.353  1.00  0.00     0.029 A 
ATOM     55  C   UNL A   1      43.176  28.357  34.053  1.00  0.00     0.049 A 
ATOM     56  H   UNL A   1      41.703  28.974  32.675  1.00  0.00     0.167 HD
ATOM     57  C   UNL A   1      43.649  27.016  32.020  1.00  0.00     0.074 A 
ATOM     58  C   UNL A   1      44.418  26.043  31.269  1.00  0.00     0.031 C 
ATOM     59  C   UNL A   1      43.916  27.376  33.300  1.00  0.00     0.034 A 
BRANCH  46  60
ATOM     60  C   UNL A   1      40.187  31.791  35.508  1.00  0.00     0.023 A 
ATOM     61  C   UNL A   1      40.965  32.953  35.689  1.00  0.00     0.012 A 
ATOM     62  C   UNL A   1      39.087  31.561  36.357  1.00  0.00     0.148 A 
ATOM     63  C   UNL A   1      40.681  33.847  36.721  1.00  0.00     0.002 A 
ATOM     64  C   UNL A   1      38.778  32.482  37.351  1.00  0.00     0.091 A 
ATOM     65  F   UNL A   1      38.372  30.439  36.188  1.00  0.00    -0.205 F 
ATOM     66  C   UNL A   1      39.583  33.617  37.544  1.00  0.00     0.022 A 
BRANCH  64  67
ATOM     67  S   UNL A   1      37.334  32.320  38.406  1.00  0.00     0.127 S 
ATOM     68  O   UNL A   1      37.796  32.958  39.638  1.00  0.00    -0.237 OA
ATOM     69  O   UNL A   1      36.326  33.081  37.666  1.00  0.00    -0.237 OA
ATOM     70  O   UNL A   1      37.065  30.892  38.504  1.00  0.00    -0.744 OA
ENDBRANCH  64  67
ENDBRANCH  46  60
BRANCH  47  71
ATOM     71  C   UNL A   1      42.400  26.155  27.552  1.00  0.00     0.023 A 
ATOM     72  C   UNL A   1      43.156  26.764  26.532  1.00  0.00     0.012 A 
ATOM     73  C   UNL A   1      42.048  24.798  27.432  1.00  0.00     0.148 A 
ATOM     74  C   UNL A   1      43.527  26.041  25.397  1.00  0.00     0.002 A 
ATOM     75  C   UNL A   1      42.472  24.067  26.330  1.00  0.00     0.091 A 
ATOM     76  F   UNL A   1      41.323  24.241  28.413  1.00  0.00    -0.205 F 
ATOM     77  C   UNL A   1      43.196  24.691  25.302  1.00  0.00     0.022 A 
BRANCH  75  78
ATOM     78  S   UNL A   1      42.215  22.295  26.196  1.00  0.00     0.127 S 
ATOM     79  O   UNL A   1      42.764  21.816  27.462  1.00  0.00    -0.237 OA
ATOM     80  O   UNL A   1      40.759  22.210  26.083  1.00  0.00    -0.237 OA
ATOM     81  O   UNL A   1      42.934  21.880  24.999  1.00  0.00    -0.744 OA
ENDBRANCH  75  78
ENDBRANCH  47  71
BRANCH  59  82
ATOM     82  C   UNL A   1      45.077  26.695  33.978  1.00  0.00     0.023 A 
ATOM     83  C   UNL A   1      46.374  27.236  33.869  1.00  0.00     0.012 A 
ATOM     84  C   UNL A   1      44.876  25.536  34.752  1.00  0.00     0.148 A 
ATOM     85  C   UNL A   1      47.459  26.604  34.474  1.00  0.00     0.002 A 
ATOM     86  C   UNL A   1      45.952  24.945  35.400  1.00  0.00     0.091 A 
ATOM     87  F   UNL A   1      43.637  25.025  34.832  1.00  0.00    -0.205 F 
ATOM     88  C   UNL A   1      47.247  25.465  35.247  1.00  0.00     0.022 A 
BRANCH  86  89
ATOM     89  S   UNL A   1      45.756  23.536  36.496  1.00  0.00     0.127 S 
ATOM     90  O   UNL A   1      44.889  24.087  37.537  1.00  0.00    -0.237 OA
ATOM     91  O   UNL A   1      45.113  22.552  35.625  1.00  0.00    -0.237 OA
ATOM     92  O   UNL A   1      47.100  23.173  36.926  1.00  0.00    -0.744 OA
ENDBRANCH  86  89
ENDBRANCH  59  82
ENDBRANCH  33  34
ENDBRANCH  25  28
ENDBRANCH  23  24
ENDBRANCH  22  23
ENDBRANCH   1  22
TORSDOF 18
ENDMDL
MODEL 3
REMARK VINA RESULT:     -10.6      5.480      8.737
REMARK SMILES C[C@H](CC(=O)NCCCNC(=O)c1ccc(-c2c3nc(c(-c4cccc(S(=O)(=O)[O-])c4F)c4ccc([nH]4)c(-c4cccc(S(=O)(=O)[O-])c4F)c4nc(c(-c5cccc(S(=O)(=O)[O-])c5F)c5ccc2[nH]5)C=C4)C=C3)cc1)NC(=O)CS[C@H]1CCS(=O)(=O)C1
REMARK SMILES IDX 7 1 6 2 4 3 5 4 3 6 2 7 1 8 76 9 77 10 78 12 79 13 80 14
REMARK SMILES IDX 81 15 82 16 87 17 83 18 84 19 85 20 86 21 8 22 9 23 10 24
REMARK SMILES IDX 11 25 12 27 13 28 14 29 75 30 15 31 74 32 16 33 17 34 18 35
REMARK SMILES IDX 68 36 19 37 73 38 67 39 69 40 20 41 72 42 66 43 65 44 21 46
REMARK SMILES IDX 53 47 33 48 52 49 34 50 37 51 51 52 70 53 35 54 36 55 50 57
REMARK SMILES IDX 71 58 38 59 22 60 23 61 31 62 24 63 26 64 32 65 25 66 27 67
REMARK SMILES IDX 28 68 29 69 30 70 54 71 55 72 63 73 56 74 58 75 64 76 57 77
REMARK SMILES IDX 59 78 60 79 61 80 62 81 39 82 40 83 48 84 41 85 43 86 49 87
REMARK SMILES IDX 42 88 44 89 45 90 46 91 47 92
REMARK H PARENT 6 5 76 11 10 26 69 45 37 56
REMARK Flexibility Score: inf
ROOT
ATOM      1  C   UNL A   1      36.419  20.181  24.939  1.00  0.00     0.117 C 
ENDROOT
BRANCH   1   2
ATOM      2  N   UNL A   1      35.285  19.281  24.938  1.00  0.00    -0.356 N 
ATOM      3  C   UNL A   1      33.965  19.596  24.919  1.00  0.00     0.222 C 
ATOM      4  O   UNL A   1      33.138  18.719  25.165  1.00  0.00    -0.275 OA
ATOM      5  H   UNL A   1      35.498  18.321  24.952  1.00  0.00     0.163 HD
BRANCH   3   6
ATOM      6  C   UNL A   1      33.534  20.995  24.554  1.00  0.00     0.124 C 
BRANCH   6   7
ATOM      7  C   UNL A   1      33.390  22.041  25.677  1.00  0.00     0.088 C 
ATOM      8  C   UNL A   1      33.666  21.537  27.089  1.00  0.00     0.031 C 
BRANCH   7   9
ATOM      9  N   UNL A   1      34.069  23.291  25.338  1.00  0.00    -0.352 N 
ATOM     10  C   UNL A   1      33.589  24.574  25.340  1.00  0.00     0.230 C 
ATOM     11  H   UNL A   1      35.011  23.195  25.070  1.00  0.00     0.163 HD
ATOM     12  O   UNL A   1      34.118  25.372  24.562  1.00  0.00    -0.274 OA
BRANCH  10  13
ATOM     13  C   UNL A   1      32.526  25.011  26.337  1.00  0.00     0.169 C 
BRANCH  13  14
ATOM     14  S   UNL A   1      30.811  25.029  25.689  1.00  0.00    -0.148 SA
BRANCH  14  15
ATOM     15  C   UNL A   1      30.657  26.745  25.128  1.00  0.00     0.063 C 
ATOM     16  C   UNL A   1      31.651  27.735  25.757  1.00  0.00     0.031 C 
ATOM     17  C   UNL A   1      30.830  26.942  23.625  1.00  0.00     0.151 C 
ATOM     18  C   UNL A   1      31.290  29.091  25.157  1.00  0.00     0.138 C 
ATOM     19  S   UNL A   1      30.831  28.730  23.464  1.00  0.00     0.151 S 
ATOM     20  O   UNL A   1      29.461  29.166  23.260  1.00  0.00    -0.229 OA
ATOM     21  O   UNL A   1      31.907  29.130  22.590  1.00  0.00    -0.229 OA
ENDBRANCH  14  15
ENDBRANCH  13  14
ENDBRANCH  10  13
ENDBRANCH   7   9
ENDBRANCH   6   7
ENDBRANCH   3   6
ENDBRANCH   1   2
BRANCH   1  22
ATOM     22  C   UNL A   1      37.721  19.389  24.996  1.00  0.00     0.042 C 
BRANCH  22  23
ATOM     23  C   UNL A   1      38.882  20.196  25.549  1.00  0.00     0.118 C 
BRANCH  23  24
ATOM     24  N   UNL A   1      39.897  19.326  26.113  1.00  0.00    -0.352 N 
ATOM     25  C   UNL A   1      41.191  19.621  26.448  1.00  0.00     0.251 C 
ATOM     26  H   UNL A   1      39.616  18.397  26.277  1.00  0.00     0.163 HD
ATOM     27  O   UNL A   1      42.007  18.709  26.550  1.00  0.00    -0.269 OA
BRANCH  25  28
ATOM     28  C   UNL A   1      41.592  21.021  26.696  1.00  0.00     0.039 A 
ATOM     29  C   UNL A   1      41.603  21.919  25.629  1.00  0.00     0.014 A 
ATOM     30  C   UNL A   1      42.006  21.438  27.966  1.00  0.00     0.014 A 
ATOM     31  C   UNL A   1      42.014  23.233  25.842  1.00  0.00     0.010 A 
ATOM     32  C   UNL A   1      42.296  22.774  28.201  1.00  0.00     0.010 A 
ATOM     33  C   UNL A   1      42.346  23.677  27.134  1.00  0.00    -0.014 A 
BRANCH  33  34
ATOM     34  C   UNL A   1      42.770  25.077  27.368  1.00  0.00     0.031 A 
ATOM     35  C   UNL A   1      41.830  26.064  28.009  1.00  0.00     0.074 A 
ATOM     36  C   UNL A   1      43.991  25.469  26.956  1.00  0.00     0.049 A 
ATOM     37  N   UNL A   1      42.045  27.315  28.326  1.00  0.00    -0.248 NA
ATOM     38  C   UNL A   1      40.464  25.600  28.307  1.00  0.00     0.031 C 
ATOM     39  C   UNL A   1      44.945  24.629  26.227  1.00  0.00     0.029 A 
ATOM     40  N   UNL A   1      44.633  26.673  27.079  1.00  0.00    -0.354 N 
ATOM     41  C   UNL A   1      40.838  27.793  28.821  1.00  0.00     0.074 A 
ATOM     42  C   UNL A   1      39.882  26.714  28.724  1.00  0.00     0.031 C 
ATOM     43  C   UNL A   1      46.058  25.338  25.986  1.00  0.00     0.029 A 
ATOM     44  C   UNL A   1      45.885  26.686  26.515  1.00  0.00     0.049 A 
ATOM     45  H   UNL A   1      44.235  27.453  27.528  1.00  0.00     0.167 HD
ATOM     46  C   UNL A   1      40.557  29.012  29.338  1.00  0.00     0.034 A 
ATOM     47  C   UNL A   1      46.793  27.678  26.428  1.00  0.00     0.034 A 
ATOM     48  C   UNL A   1      41.525  30.069  29.461  1.00  0.00     0.049 A 
ATOM     49  C   UNL A   1      46.483  28.999  27.071  1.00  0.00     0.074 A 
ATOM     50  C   UNL A   1      41.378  31.305  30.066  1.00  0.00     0.029 A 
ATOM     51  N   UNL A   1      42.814  30.022  28.954  1.00  0.00    -0.354 N 
ATOM     52  N   UNL A   1      45.396  29.376  27.700  1.00  0.00    -0.248 NA
ATOM     53  C   UNL A   1      47.541  30.017  27.033  1.00  0.00     0.031 C 
ATOM     54  C   UNL A   1      42.565  32.022  29.883  1.00  0.00     0.029 A 
ATOM     55  C   UNL A   1      43.469  31.215  29.208  1.00  0.00     0.049 A 
ATOM     56  H   UNL A   1      43.206  29.253  28.480  1.00  0.00     0.167 HD
ATOM     57  C   UNL A   1      45.645  30.666  28.153  1.00  0.00     0.074 A 
ATOM     58  C   UNL A   1      47.001  30.988  27.754  1.00  0.00     0.031 C 
ATOM     59  C   UNL A   1      44.825  31.513  28.824  1.00  0.00     0.034 A 
BRANCH  46  60
ATOM     60  C   UNL A   1      39.153  29.258  29.833  1.00  0.00     0.023 A 
ATOM     61  C   UNL A   1      38.788  28.875  31.141  1.00  0.00     0.012 A 
ATOM     62  C   UNL A   1      38.206  29.906  29.017  1.00  0.00     0.148 A 
ATOM     63  C   UNL A   1      37.493  29.093  31.611  1.00  0.00     0.002 A 
ATOM     64  C   UNL A   1      36.933  30.167  29.510  1.00  0.00     0.091 A 
ATOM     65  F   UNL A   1      38.562  30.242  27.768  1.00  0.00    -0.205 F 
ATOM     66  C   UNL A   1      36.571  29.748  30.801  1.00  0.00     0.022 A 
BRANCH  64  67
ATOM     67  S   UNL A   1      35.701  31.080  28.576  1.00  0.00     0.127 S 
ATOM     68  O   UNL A   1      35.122  30.026  27.744  1.00  0.00    -0.237 OA
ATOM     69  O   UNL A   1      34.819  31.575  29.634  1.00  0.00    -0.237 OA
ATOM     70  O   UNL A   1      36.427  32.116  27.856  1.00  0.00    -0.744 OA
ENDBRANCH  64  67
ENDBRANCH  46  60
BRANCH  47  71
ATOM     71  C   UNL A   1      48.094  27.427  25.749  1.00  0.00     0.023 A 
ATOM     72  C   UNL A   1      49.196  26.964  26.491  1.00  0.00     0.012 A 
ATOM     73  C   UNL A   1      48.222  27.599  24.358  1.00  0.00     0.148 A 
ATOM     74  C   UNL A   1      50.416  26.707  25.863  1.00  0.00     0.002 A 
ATOM     75  C   UNL A   1      49.420  27.284  23.730  1.00  0.00     0.091 A 
ATOM     76  F   UNL A   1      47.161  28.047  23.672  1.00  0.00    -0.205 F 
ATOM     77  C   UNL A   1      50.524  26.855  24.482  1.00  0.00     0.022 A 
BRANCH  75  78
ATOM     78  S   UNL A   1      49.602  27.307  21.943  1.00  0.00     0.127 S 
ATOM     79  O   UNL A   1      49.311  28.704  21.631  1.00  0.00    -0.237 OA
ATOM     80  O   UNL A   1      51.003  26.918  21.779  1.00  0.00    -0.237 OA
ATOM     81  O   UNL A   1      48.646  26.334  21.434  1.00  0.00    -0.744 OA
ENDBRANCH  75  78
ENDBRANCH  47  71
BRANCH  59  82
ATOM     82  C   UNL A   1      45.382  32.864  29.188  1.00  0.00     0.023 A 
ATOM     83  C   UNL A   1      46.071  33.039  30.405  1.00  0.00     0.012 A 
ATOM     84  C   UNL A   1      45.251  33.955  28.307  1.00  0.00     0.148 A 
ATOM     85  C   UNL A   1      46.573  34.290  30.763  1.00  0.00     0.002 A 
ATOM     86  C   UNL A   1      45.804  35.183  28.643  1.00  0.00     0.091 A 
ATOM     87  F   UNL A   1      44.578  33.776  27.160  1.00  0.00    -0.205 F 
ATOM     88  C   UNL A   1      46.448  35.358  29.878  1.00  0.00     0.022 A 
BRANCH  86  89
ATOM     89  S   UNL A   1      45.780  36.586  27.523  1.00  0.00     0.127 S 
ATOM     90  O   UNL A   1      46.358  36.009  26.310  1.00  0.00    -0.237 OA
ATOM     91  O   UNL A   1      44.352  36.889  27.434  1.00  0.00    -0.237 OA
ATOM     92  O   UNL A   1      46.577  37.624  28.164  1.00  0.00    -0.744 OA
ENDBRANCH  86  89
ENDBRANCH  59  82
ENDBRANCH  33  34
ENDBRANCH  25  28
ENDBRANCH  23  24
ENDBRANCH  22  23
ENDBRANCH   1  22
TORSDOF 18
ENDMDL
