MODEL 1
REMARK VINA RESULT:     -11.0      0.000      0.000
REMARK SMILES O=C(C[C@@H](c1ccccc1)[NH+]1CCCCC1)NCCCNC(=O)c1ccc(-c2c3nc(c(-c4cccc(S(=O)(=O)[O-])c4F)c4ccc([nH]4)c(-c4cccc(S(=O)(=O)[O-])c4F)c4nc(c(-c5cccc(S(=O)(=O)[O-])c5F)c5ccc2[nH]5)C=C4)C=C3)cc1
REMARK SMILES IDX 19 1 18 2 17 3 1 4 2 5 3 7 4 8 5 9 6 10 10 11 7 12 9 13 8 14
REMARK SMILES IDX 11 15 12 16 16 17 13 19 15 20 14 21 20 22 21 23 22 24 23 26
REMARK SMILES IDX 24 27 25 28 86 29 26 30 85 31 27 32 28 33 29 34 79 35 30 36
REMARK SMILES IDX 84 37 78 38 80 39 31 40 83 41 77 42 76 43 32 45 64 46 44 47
REMARK SMILES IDX 63 48 45 49 48 50 62 51 81 52 46 53 47 54 61 56 82 57 49 58
REMARK SMILES IDX 33 59 34 60 42 61 35 62 37 63 43 64 36 65 38 66 39 67 40 68
REMARK SMILES IDX 41 69 65 70 66 71 74 72 67 73 69 74 75 75 68 76 70 77 71 78
REMARK SMILES IDX 72 79 73 80 50 81 51 82 59 83 52 84 54 85 60 86 53 87 55 88
REMARK SMILES IDX 56 89 57 90 58 91
REMARK H PARENT 17 6 11 18 21 25 80 44 48 55
REMARK Flexibility Score: inf
ROOT
ATOM      1  C   UNL A   1      33.026  27.801  25.409  1.00  0.00     0.042 C 
ENDROOT
BRANCH   1   2
ATOM      2  C   UNL A   1      32.202  26.615  25.891  1.00  0.00     0.117 C 
BRANCH   2   3
ATOM      3  N   UNL A   1      32.999  25.412  25.977  1.00  0.00    -0.356 N 
ATOM      4  O   UNL A   1      31.550  24.194  27.277  1.00  0.00    -0.275 OA
ATOM      5  C   UNL A   1      32.609  24.291  26.665  1.00  0.00     0.226 C 
ATOM      6  H   UNL A   1      33.868  25.396  25.514  1.00  0.00     0.163 HD
BRANCH   5   7
ATOM      7  C   UNL A   1      33.612  23.154  26.618  1.00  0.00     0.170 C 
BRANCH   7   8
ATOM      8  C   UNL A   1      34.404  23.137  25.285  1.00  0.00     0.224 C 
BRANCH   8   9
ATOM      9  C   UNL A   1      35.866  22.768  25.571  1.00  0.00     0.010 A 
ATOM     10  C   UNL A   1      36.762  23.717  26.096  1.00  0.00     0.010 A 
ATOM     11  C   UNL A   1      36.368  21.512  25.191  1.00  0.00     0.010 A 
ATOM     12  C   UNL A   1      38.127  23.440  26.178  1.00  0.00     0.001 A 
ATOM     13  C   UNL A   1      37.735  21.236  25.280  1.00  0.00     0.001 A 
ATOM     14  C   UNL A   1      38.615  22.204  25.757  1.00  0.00     0.000 A 
ENDBRANCH   8   9
BRANCH   8  15
ATOM     15  N   UNL A   1      33.877  22.252  24.206  1.00  0.00    -0.328 N 
ATOM     16  C   UNL A   1      33.020  21.152  24.659  1.00  0.00     0.262 C 
ATOM     17  C   UNL A   1      33.218  23.059  23.162  1.00  0.00     0.262 C 
ATOM     18  H   UNL A   1      34.693  21.781  23.814  1.00  0.00     0.348 HD
ATOM     19  C   UNL A   1      32.565  20.258  23.504  1.00  0.00     0.062 C 
ATOM     20  C   UNL A   1      32.730  22.218  21.980  1.00  0.00     0.062 C 
ATOM     21  C   UNL A   1      31.841  21.071  22.442  1.00  0.00     0.012 C 
ENDBRANCH   8  15
ENDBRANCH   7   8
ENDBRANCH   5   7
ENDBRANCH   2   3
ENDBRANCH   1   2
BRANCH   1  22
ATOM     22  C   UNL A   1      34.022  28.351  26.426  1.00  0.00     0.118 C 
BRANCH  22  23
ATOM     23  N   UNL A   1      33.729  29.713  26.846  1.00  0.00    -0.352 N 
ATOM     24  C   UNL A   1      34.446  30.551  27.662  1.00  0.00     0.251 C 
ATOM     25  H   UNL A   1      32.891  30.089  26.491  1.00  0.00     0.163 HD
ATOM     26  O   UNL A   1      33.964  31.636  27.990  1.00  0.00    -0.269 OA
BRANCH  24  27
ATOM     27  C   UNL A   1      35.784  30.159  28.162  1.00  0.00     0.039 A 
ATOM     28  C   UNL A   1      35.892  29.637  29.454  1.00  0.00     0.014 A 
ATOM     29  C   UNL A   1      36.932  30.321  27.381  1.00  0.00     0.014 A 
ATOM     30  C   UNL A   1      37.138  29.229  29.938  1.00  0.00     0.010 A 
ATOM     31  C   UNL A   1      38.160  29.840  27.836  1.00  0.00     0.010 A 
ATOM     32  C   UNL A   1      38.281  29.298  29.124  1.00  0.00    -0.014 A 
BRANCH  32  33
ATOM     33  C   UNL A   1      39.591  28.787  29.609  1.00  0.00     0.031 A 
ATOM     34  C   UNL A   1      40.325  29.476  30.731  1.00  0.00     0.074 A 
ATOM     35  C   UNL A   1      40.154  27.722  29.002  1.00  0.00     0.049 A 
ATOM     36  N   UNL A   1      41.461  29.151  31.295  1.00  0.00    -0.248 NA
ATOM     37  C   UNL A   1      39.719  30.702  31.276  1.00  0.00     0.031 C 
ATOM     38  C   UNL A   1      39.597  27.017  27.846  1.00  0.00     0.029 A 
ATOM     39  N   UNL A   1      41.327  27.055  29.261  1.00  0.00    -0.354 N 
ATOM     40  C   UNL A   1      41.719  30.140  32.237  1.00  0.00     0.074 A 
ATOM     41  C   UNL A   1      40.641  31.100  32.142  1.00  0.00     0.031 C 
ATOM     42  C   UNL A   1      40.415  26.008  27.508  1.00  0.00     0.029 A 
ATOM     43  C   UNL A   1      41.566  26.007  28.403  1.00  0.00     0.049 A 
ATOM     44  H   UNL A   1      41.937  27.303  29.992  1.00  0.00     0.167 HD
ATOM     45  C   UNL A   1      42.742  30.229  33.121  1.00  0.00     0.034 A 
ATOM     46  C   UNL A   1      42.597  25.140  28.343  1.00  0.00     0.034 A 
ATOM     47  C   UNL A   1      43.796  29.257  33.238  1.00  0.00     0.049 A 
ATOM     48  C   UNL A   1      43.695  25.233  29.367  1.00  0.00     0.074 A 
ATOM     49  C   UNL A   1      44.828  29.214  34.161  1.00  0.00     0.029 A 
ATOM     50  N   UNL A   1      43.965  28.166  32.402  1.00  0.00    -0.354 N 
ATOM     51  N   UNL A   1      43.830  26.079  30.359  1.00  0.00    -0.248 NA
ATOM     52  C   UNL A   1      44.761  24.223  29.290  1.00  0.00     0.031 C 
ATOM     53  C   UNL A   1      45.638  28.113  33.862  1.00  0.00     0.029 A 
ATOM     54  C   UNL A   1      45.089  27.448  32.777  1.00  0.00     0.049 A 
ATOM     55  H   UNL A   1      43.373  27.934  31.650  1.00  0.00     0.167 HD
ATOM     56  C   UNL A   1      44.972  25.682  31.046  1.00  0.00     0.074 A 
ATOM     57  C   UNL A   1      45.475  24.504  30.370  1.00  0.00     0.031 C 
ATOM     58  C   UNL A   1      45.558  26.250  32.128  1.00  0.00     0.034 A 
BRANCH  45  59
ATOM     59  C   UNL A   1      42.745  31.399  34.075  1.00  0.00     0.023 A 
ATOM     60  C   UNL A   1      43.410  32.590  33.714  1.00  0.00     0.012 A 
ATOM     61  C   UNL A   1      42.039  31.346  35.293  1.00  0.00     0.148 A 
ATOM     62  C   UNL A   1      43.405  33.694  34.566  1.00  0.00     0.002 A 
ATOM     63  C   UNL A   1      41.999  32.467  36.115  1.00  0.00     0.091 A 
ATOM     64  F   UNL A   1      41.427  30.202  35.627  1.00  0.00    -0.205 F 
ATOM     65  C   UNL A   1      42.691  33.636  35.760  1.00  0.00     0.022 A 
BRANCH  63  66
ATOM     66  S   UNL A   1      41.040  32.523  37.633  1.00  0.00     0.127 S 
ATOM     67  O   UNL A   1      39.801  31.863  37.224  1.00  0.00    -0.237 OA
ATOM     68  O   UNL A   1      41.872  31.741  38.549  1.00  0.00    -0.237 OA
ATOM     69  O   UNL A   1      40.913  33.931  37.978  1.00  0.00    -0.744 OA
ENDBRANCH  63  66
ENDBRANCH  45  59
BRANCH  46  70
ATOM     70  C   UNL A   1      42.604  24.061  27.313  1.00  0.00     0.023 A 
ATOM     71  C   UNL A   1      43.139  24.322  26.037  1.00  0.00     0.012 A 
ATOM     72  C   UNL A   1      42.100  22.777  27.598  1.00  0.00     0.148 A 
ATOM     73  C   UNL A   1      43.139  23.336  25.050  1.00  0.00     0.002 A 
ATOM     74  C   UNL A   1      42.156  21.782  26.629  1.00  0.00     0.091 A 
ATOM     75  F   UNL A   1      41.585  22.552  28.814  1.00  0.00    -0.205 F 
ATOM     76  C   UNL A   1      42.657  22.064  25.348  1.00  0.00     0.022 A 
BRANCH  74  77
ATOM     77  S   UNL A   1      41.682  20.083  26.966  1.00  0.00     0.127 S 
ATOM     78  O   UNL A   1      40.540  20.262  27.858  1.00  0.00    -0.237 OA
ATOM     79  O   UNL A   1      41.349  19.593  25.627  1.00  0.00    -0.237 OA
ATOM     80  O   UNL A   1      42.856  19.457  27.559  1.00  0.00    -0.744 OA
ENDBRANCH  74  77
ENDBRANCH  46  70
BRANCH  58  81
ATOM     81  C   UNL A   1      46.793  25.585  32.682  1.00  0.00     0.023 A 
ATOM     82  C   UNL A   1      48.069  25.974  32.227  1.00  0.00     0.012 A 
ATOM     83  C   UNL A   1      46.689  24.604  33.689  1.00  0.00     0.148 A 
ATOM     84  C   UNL A   1      49.218  25.366  32.732  1.00  0.00     0.002 A 
ATOM     85  C   UNL A   1      47.840  24.042  34.226  1.00  0.00     0.091 A 
ATOM     86  F   UNL A   1      45.467  24.233  34.097  1.00  0.00    -0.205 F 
ATOM     87  C   UNL A   1      49.104  24.409  33.738  1.00  0.00     0.022 A 
BRANCH  85  88
ATOM     88  S   UNL A   1      47.794  22.876  35.592  1.00  0.00     0.127 S 
ATOM     89  O   UNL A   1      47.364  21.650  34.922  1.00  0.00    -0.237 OA
ATOM     90  O   UNL A   1      49.185  22.870  36.043  1.00  0.00    -0.237 OA
ATOM     91  O   UNL A   1      46.850  23.427  36.555  1.00  0.00    -0.744 OA
ENDBRANCH  85  88
ENDBRANCH  58  81
ENDBRANCH  32  33
ENDBRANCH  24  27
ENDBRANCH  22  23
ENDBRANCH   1  22
TORSDOF 16
ENDMDL
MODEL 2
REMARK VINA RESULT:     -11.0      4.859      9.729
REMARK SMILES O=C(C[C@@H](c1ccccc1)[NH+]1CCCCC1)NCCCNC(=O)c1ccc(-c2c3nc(c(-c4cccc(S(=O)(=O)[O-])c4F)c4ccc([nH]4)c(-c4cccc(S(=O)(=O)[O-])c4F)c4nc(c(-c5cccc(S(=O)(=O)[O-])c5F)c5ccc2[nH]5)C=C4)C=C3)cc1
REMARK SMILES IDX 19 1 18 2 17 3 1 4 2 5 3 7 4 8 5 9 6 10 10 11 7 12 9 13 8 14
REMARK SMILES IDX 11 15 12 16 16 17 13 19 15 20 14 21 20 22 21 23 22 24 23 26
REMARK SMILES IDX 24 27 25 28 86 29 26 30 85 31 27 32 28 33 29 34 79 35 30 36
REMARK SMILES IDX 84 37 78 38 80 39 31 40 83 41 77 42 76 43 32 45 64 46 44 47
REMARK SMILES IDX 63 48 45 49 48 50 62 51 81 52 46 53 47 54 61 56 82 57 49 58
REMARK SMILES IDX 33 59 34 60 42 61 35 62 37 63 43 64 36 65 38 66 39 67 40 68
REMARK SMILES IDX 41 69 65 70 66 71 74 72 67 73 69 74 75 75 68 76 70 77 71 78
REMARK SMILES IDX 72 79 73 80 50 81 51 82 59 83 52 84 54 85 60 86 53 87 55 88
REMARK SMILES IDX 56 89 57 90 58 91
REMARK H PARENT 17 6 11 18 21 25 80 44 48 55
REMARK Flexibility Score: inf
ROOT
ATOM      1  C   UNL A   1      34.947  21.331  25.612  1.00  0.00     0.042 C 
ENDROOT
BRANCH   1   2
ATOM      2  C   UNL A   1      34.045  21.851  24.500  1.00  0.00     0.117 C 
BRANCH   2   3
ATOM      3  N   UNL A   1      33.871  23.284  24.582  1.00  0.00    -0.356 N 
ATOM      4  O   UNL A   1      33.963  23.717  22.329  1.00  0.00    -0.275 OA
ATOM      5  C   UNL A   1      33.843  24.108  23.486  1.00  0.00     0.226 C 
ATOM      6  H   UNL A   1      33.765  23.690  25.473  1.00  0.00     0.163 HD
BRANCH   5   7
ATOM      7  C   UNL A   1      33.655  25.575  23.818  1.00  0.00     0.170 C 
BRANCH   7   8
ATOM      8  C   UNL A   1      32.364  25.820  24.642  1.00  0.00     0.224 C 
BRANCH   8   9
ATOM      9  C   UNL A   1      32.657  26.846  25.746  1.00  0.00     0.010 A 
ATOM     10  C   UNL A   1      31.704  27.130  26.741  1.00  0.00     0.010 A 
ATOM     11  C   UNL A   1      33.834  27.614  25.708  1.00  0.00     0.010 A 
ATOM     12  C   UNL A   1      31.892  28.192  27.627  1.00  0.00     0.001 A 
ATOM     13  C   UNL A   1      34.022  28.672  26.600  1.00  0.00     0.001 A 
ATOM     14  C   UNL A   1      33.045  28.971  27.547  1.00  0.00     0.000 A 
ENDBRANCH   8   9
BRANCH   8  15
ATOM     15  N   UNL A   1      31.156  26.251  23.881  1.00  0.00    -0.328 N 
ATOM     16  C   UNL A   1      29.886  26.149  24.609  1.00  0.00     0.262 C 
ATOM     17  C   UNL A   1      31.358  27.603  23.329  1.00  0.00     0.262 C 
ATOM     18  H   UNL A   1      31.057  25.578  23.120  1.00  0.00     0.348 HD
ATOM     19  C   UNL A   1      28.690  26.554  23.747  1.00  0.00     0.062 C 
ATOM     20  C   UNL A   1      30.186  28.073  22.463  1.00  0.00     0.062 C 
ATOM     21  C   UNL A   1      28.864  27.967  23.210  1.00  0.00     0.012 C 
ENDBRANCH   8  15
ENDBRANCH   7   8
ENDBRANCH   5   7
ENDBRANCH   2   3
ENDBRANCH   1   2
BRANCH   1  22
ATOM     22  C   UNL A   1      36.365  21.897  25.611  1.00  0.00     0.118 C 
BRANCH  22  23
ATOM     23  N   UNL A   1      37.398  20.874  25.653  1.00  0.00    -0.352 N 
ATOM     24  C   UNL A   1      38.734  20.990  25.939  1.00  0.00     0.251 C 
ATOM     25  H   UNL A   1      37.092  19.961  25.443  1.00  0.00     0.163 HD
ATOM     26  O   UNL A   1      39.470  20.011  25.806  1.00  0.00    -0.269 OA
BRANCH  24  27
ATOM     27  C   UNL A   1      39.302  22.281  26.391  1.00  0.00     0.039 A 
ATOM     28  C   UNL A   1      40.376  22.267  27.286  1.00  0.00     0.014 A 
ATOM     29  C   UNL A   1      38.774  23.502  25.960  1.00  0.00     0.014 A 
ATOM     30  C   UNL A   1      40.950  23.471  27.703  1.00  0.00     0.010 A 
ATOM     31  C   UNL A   1      39.399  24.698  26.315  1.00  0.00     0.010 A 
ATOM     32  C   UNL A   1      40.489  24.699  27.198  1.00  0.00    -0.014 A 
BRANCH  32  33
ATOM     33  C   UNL A   1      41.154  25.974  27.577  1.00  0.00     0.031 A 
ATOM     34  C   UNL A   1      42.579  26.256  27.174  1.00  0.00     0.074 A 
ATOM     35  C   UNL A   1      40.489  26.869  28.336  1.00  0.00     0.049 A 
ATOM     36  N   UNL A   1      43.302  27.324  27.396  1.00  0.00    -0.248 NA
ATOM     37  C   UNL A   1      43.293  25.194  26.447  1.00  0.00     0.031 C 
ATOM     38  C   UNL A   1      39.139  26.683  28.874  1.00  0.00     0.029 A 
ATOM     39  N   UNL A   1      40.862  28.106  28.803  1.00  0.00    -0.354 N 
ATOM     40  C   UNL A   1      44.558  27.054  26.865  1.00  0.00     0.074 A 
ATOM     41  C   UNL A   1      44.511  25.706  26.343  1.00  0.00     0.031 C 
ATOM     42  C   UNL A   1      38.791  27.771  29.577  1.00  0.00     0.029 A 
ATOM     43  C   UNL A   1      39.896  28.722  29.567  1.00  0.00     0.049 A 
ATOM     44  H   UNL A   1      41.736  28.514  28.608  1.00  0.00     0.167 HD
ATOM     45  C   UNL A   1      45.643  27.863  26.789  1.00  0.00     0.034 A 
ATOM     46  C   UNL A   1      39.900  29.918  30.188  1.00  0.00     0.034 A 
ATOM     47  C   UNL A   1      45.679  29.215  27.278  1.00  0.00     0.049 A 
ATOM     48  C   UNL A   1      41.100  30.814  30.046  1.00  0.00     0.074 A 
ATOM     49  C   UNL A   1      46.702  30.142  27.169  1.00  0.00     0.029 A 
ATOM     50  N   UNL A   1      44.656  29.833  27.979  1.00  0.00    -0.354 N 
ATOM     51  N   UNL A   1      42.216  30.605  29.392  1.00  0.00    -0.248 NA
ATOM     52  C   UNL A   1      41.023  32.132  30.694  1.00  0.00     0.031 C 
ATOM     53  C   UNL A   1      46.308  31.310  27.832  1.00  0.00     0.029 A 
ATOM     54  C   UNL A   1      45.024  31.124  28.320  1.00  0.00     0.049 A 
ATOM     55  H   UNL A   1      43.792  29.415  28.202  1.00  0.00     0.167 HD
ATOM     56  C   UNL A   1      42.957  31.774  29.517  1.00  0.00     0.074 A 
ATOM     57  C   UNL A   1      42.151  32.697  30.288  1.00  0.00     0.031 C 
ATOM     58  C   UNL A   1      44.198  32.053  29.048  1.00  0.00     0.034 A 
BRANCH  45  59
ATOM     59  C   UNL A   1      46.874  27.322  26.104  1.00  0.00     0.023 A 
ATOM     60  C   UNL A   1      47.055  27.539  24.722  1.00  0.00     0.012 A 
ATOM     61  C   UNL A   1      47.881  26.658  26.834  1.00  0.00     0.148 A 
ATOM     62  C   UNL A   1      48.196  27.072  24.071  1.00  0.00     0.002 A 
ATOM     63  C   UNL A   1      49.037  26.238  26.187  1.00  0.00     0.091 A 
ATOM     64  F   UNL A   1      47.685  26.446  28.143  1.00  0.00    -0.205 F 
ATOM     65  C   UNL A   1      49.191  26.432  24.804  1.00  0.00     0.022 A 
BRANCH  63  66
ATOM     66  S   UNL A   1      50.414  25.478  27.056  1.00  0.00     0.127 S 
ATOM     67  O   UNL A   1      51.356  25.241  25.963  1.00  0.00    -0.237 OA
ATOM     68  O   UNL A   1      50.811  26.537  27.984  1.00  0.00    -0.237 OA
ATOM     69  O   UNL A   1      49.879  24.282  27.690  1.00  0.00    -0.744 OA
ENDBRANCH  63  66
ENDBRANCH  45  59
BRANCH  46  70
ATOM     70  C   UNL A   1      38.696  30.368  30.944  1.00  0.00     0.023 A 
ATOM     71  C   UNL A   1      38.603  30.102  32.324  1.00  0.00     0.012 A 
ATOM     72  C   UNL A   1      37.656  31.072  30.308  1.00  0.00     0.148 A 
ATOM     73  C   UNL A   1      37.478  30.495  33.049  1.00  0.00     0.002 A 
ATOM     74  C   UNL A   1      36.565  31.512  31.048  1.00  0.00     0.091 A 
ATOM     75  F   UNL A   1      37.758  31.306  28.992  1.00  0.00    -0.205 F 
ATOM     76  C   UNL A   1      36.464  31.207  32.415  1.00  0.00     0.022 A 
BRANCH  74  77
ATOM     77  S   UNL A   1      35.279  32.549  30.345  1.00  0.00     0.127 S 
ATOM     78  O   UNL A   1      36.030  33.744  29.969  1.00  0.00    -0.237 OA
ATOM     79  O   UNL A   1      34.815  31.733  29.222  1.00  0.00    -0.237 OA
ATOM     80  O   UNL A   1      34.294  32.728  31.404  1.00  0.00    -0.744 OA
ENDBRANCH  74  77
ENDBRANCH  46  70
BRANCH  58  81
ATOM     81  C   UNL A   1      44.753  33.429  29.318  1.00  0.00     0.023 A 
ATOM     82  C   UNL A   1      45.436  33.692  30.523  1.00  0.00     0.012 A 
ATOM     83  C   UNL A   1      44.637  34.451  28.355  1.00  0.00     0.148 A 
ATOM     84  C   UNL A   1      45.953  34.960  30.783  1.00  0.00     0.002 A 
ATOM     85  C   UNL A   1      45.202  35.697  28.598  1.00  0.00     0.091 A 
ATOM     86  F   UNL A   1      43.969  34.190  27.222  1.00  0.00    -0.205 F 
ATOM     87  C   UNL A   1      45.846  35.958  29.818  1.00  0.00     0.022 A 
BRANCH  85  88
ATOM     88  S   UNL A   1      45.199  37.010  27.373  1.00  0.00     0.127 S 
ATOM     89  O   UNL A   1      45.970  36.405  26.287  1.00  0.00    -0.237 OA
ATOM     90  O   UNL A   1      43.773  37.171  27.093  1.00  0.00    -0.237 OA
ATOM     91  O   UNL A   1      45.821  38.160  28.017  1.00  0.00    -0.744 OA
ENDBRANCH  85  88
ENDBRANCH  58  81
ENDBRANCH  32  33
ENDBRANCH  24  27
ENDBRANCH  22  23
ENDBRANCH   1  22
TORSDOF 16
ENDMDL
MODEL 3
REMARK VINA RESULT:     -10.9      2.377      3.380
REMARK SMILES O=C(C[C@@H](c1ccccc1)[NH+]1CCCCC1)NCCCNC(=O)c1ccc(-c2c3nc(c(-c4cccc(S(=O)(=O)[O-])c4F)c4ccc([nH]4)c(-c4cccc(S(=O)(=O)[O-])c4F)c4nc(c(-c5cccc(S(=O)(=O)[O-])c5F)c5ccc2[nH]5)C=C4)C=C3)cc1
REMARK SMILES IDX 19 1 18 2 17 3 1 4 2 5 3 7 4 8 5 9 6 10 10 11 7 12 9 13 8 14
REMARK SMILES IDX 11 15 12 16 16 17 13 19 15 20 14 21 20 22 21 23 22 24 23 26
REMARK SMILES IDX 24 27 25 28 86 29 26 30 85 31 27 32 28 33 29 34 79 35 30 36
REMARK SMILES IDX 84 37 78 38 80 39 31 40 83 41 77 42 76 43 32 45 64 46 44 47
REMARK SMILES IDX 63 48 45 49 48 50 62 51 81 52 46 53 47 54 61 56 82 57 49 58
REMARK SMILES IDX 33 59 34 60 42 61 35 62 37 63 43 64 36 65 38 66 39 67 40 68
REMARK SMILES IDX 41 69 65 70 66 71 74 72 67 73 69 74 75 75 68 76 70 77 71 78
REMARK SMILES IDX 72 79 73 80 50 81 51 82 59 83 52 84 54 85 60 86 53 87 55 88
REMARK SMILES IDX 56 89 57 90 58 91
REMARK H PARENT 17 6 11 18 21 25 80 44 48 55
REMARK Flexibility Score: inf
ROOT
ATOM      1  C   UNL A   1      32.548  29.015  23.853  1.00  0.00     0.042 C 
ENDROOT
BRANCH   1   2
ATOM      2  C   UNL A   1      33.502  28.237  22.956  1.00  0.00     0.117 C 
BRANCH   2   3
ATOM      3  N   UNL A   1      33.718  26.894  23.445  1.00  0.00    -0.356 N 
ATOM      4  O   UNL A   1      33.651  25.829  21.412  1.00  0.00    -0.275 OA
ATOM      5  C   UNL A   1      33.776  25.791  22.632  1.00  0.00     0.226 C 
ATOM      6  H   UNL A   1      33.831  26.765  24.415  1.00  0.00     0.163 HD
BRANCH   5   7
ATOM      7  C   UNL A   1      34.007  24.487  23.372  1.00  0.00     0.170 C 
BRANCH   7   8
ATOM      8  C   UNL A   1      32.741  23.591  23.371  1.00  0.00     0.224 C 
BRANCH   8   9
ATOM      9  C   UNL A   1      33.102  22.207  23.927  1.00  0.00     0.010 A 
ATOM     10  C   UNL A   1      34.320  21.991  24.597  1.00  0.00     0.010 A 
ATOM     11  C   UNL A   1      32.279  21.099  23.663  1.00  0.00     0.010 A 
ATOM     12  C   UNL A   1      34.731  20.701  24.933  1.00  0.00     0.001 A 
ATOM     13  C   UNL A   1      32.691  19.808  24.006  1.00  0.00     0.001 A 
ATOM     14  C   UNL A   1      33.922  19.608  24.625  1.00  0.00     0.000 A 
ENDBRANCH   8   9
BRANCH   8  15
ATOM     15  N   UNL A   1      31.549  24.116  24.100  1.00  0.00    -0.328 N 
ATOM     16  C   UNL A   1      31.822  24.675  25.427  1.00  0.00     0.262 C 
ATOM     17  C   UNL A   1      30.812  25.069  23.250  1.00  0.00     0.262 C 
ATOM     18  H   UNL A   1      30.965  23.301  24.292  1.00  0.00     0.348 HD
ATOM     19  C   UNL A   1      30.547  25.140  26.133  1.00  0.00     0.062 C 
ATOM     20  C   UNL A   1      29.528  25.581  23.906  1.00  0.00     0.062 C 
ATOM     21  C   UNL A   1      29.801  26.161  25.287  1.00  0.00     0.012 C 
ENDBRANCH   8  15
ENDBRANCH   7   8
ENDBRANCH   5   7
ENDBRANCH   2   3
ENDBRANCH   1   2
BRANCH   1  22
ATOM     22  C   UNL A   1      33.057  29.271  25.269  1.00  0.00     0.118 C 
BRANCH  22  23
ATOM     23  N   UNL A   1      32.611  30.539  25.826  1.00  0.00    -0.352 N 
ATOM     24  C   UNL A   1      33.129  31.269  26.864  1.00  0.00     0.251 C 
ATOM     25  H   UNL A   1      31.818  30.930  25.392  1.00  0.00     0.163 HD
ATOM     26  O   UNL A   1      32.529  32.270  27.259  1.00  0.00    -0.269 OA
BRANCH  24  27
ATOM     27  C   UNL A   1      34.390  30.860  27.523  1.00  0.00     0.039 A 
ATOM     28  C   UNL A   1      35.391  31.817  27.712  1.00  0.00     0.014 A 
ATOM     29  C   UNL A   1      34.604  29.541  27.936  1.00  0.00     0.014 A 
ATOM     30  C   UNL A   1      36.578  31.464  28.360  1.00  0.00     0.010 A 
ATOM     31  C   UNL A   1      35.755  29.212  28.652  1.00  0.00     0.010 A 
ATOM     32  C   UNL A   1      36.761  30.165  28.865  1.00  0.00    -0.014 A 
BRANCH  32  33
ATOM     33  C   UNL A   1      37.989  29.812  29.627  1.00  0.00     0.031 A 
ATOM     34  C   UNL A   1      38.238  30.379  31.002  1.00  0.00     0.074 A 
ATOM     35  C   UNL A   1      38.916  29.015  29.059  1.00  0.00     0.049 A 
ATOM     36  N   UNL A   1      39.239  30.157  31.815  1.00  0.00    -0.248 NA
ATOM     37  C   UNL A   1      37.249  31.336  31.523  1.00  0.00     0.031 C 
ATOM     38  C   UNL A   1      38.846  28.473  27.700  1.00  0.00     0.029 A 
ATOM     39  N   UNL A   1      40.108  28.534  29.544  1.00  0.00    -0.354 N 
ATOM     40  C   UNL A   1      39.018  30.962  32.926  1.00  0.00     0.074 A 
ATOM     41  C   UNL A   1      37.806  31.709  32.667  1.00  0.00     0.031 C 
ATOM     42  C   UNL A   1      39.932  27.720  27.469  1.00  0.00     0.029 A 
ATOM     43  C   UNL A   1      40.791  27.745  28.647  1.00  0.00     0.049 A 
ATOM     44  H   UNL A   1      40.441  28.734  30.449  1.00  0.00     0.167 HD
ATOM     45  C   UNL A   1      39.736  31.052  34.072  1.00  0.00     0.034 A 
ATOM     46  C   UNL A   1      41.975  27.111  28.760  1.00  0.00     0.034 A 
ATOM     47  C   UNL A   1      40.923  30.285  34.344  1.00  0.00     0.049 A 
ATOM     48  C   UNL A   1      42.728  27.190  30.060  1.00  0.00     0.074 A 
ATOM     49  C   UNL A   1      41.671  30.242  35.508  1.00  0.00     0.029 A 
ATOM     50  N   UNL A   1      41.543  29.438  33.440  1.00  0.00    -0.354 N 
ATOM     51  N   UNL A   1      42.411  27.824  31.162  1.00  0.00    -0.248 NA
ATOM     52  C   UNL A   1      43.983  26.428  30.146  1.00  0.00     0.031 C 
ATOM     53  C   UNL A   1      42.762  29.391  35.297  1.00  0.00     0.029 A 
ATOM     54  C   UNL A   1      42.671  28.874  34.014  1.00  0.00     0.049 A 
ATOM     55  H   UNL A   1      41.229  29.261  32.524  1.00  0.00     0.167 HD
ATOM     56  C   UNL A   1      43.404  27.510  32.083  1.00  0.00     0.074 A 
ATOM     57  C   UNL A   1      44.319  26.607  31.416  1.00  0.00     0.031 C 
ATOM     58  C   UNL A   1      43.552  27.941  33.359  1.00  0.00     0.034 A 
BRANCH  45  59
ATOM     59  C   UNL A   1      39.229  31.982  35.146  1.00  0.00     0.023 A 
ATOM     60  C   UNL A   1      38.244  31.531  36.050  1.00  0.00     0.012 A 
ATOM     61  C   UNL A   1      39.770  33.274  35.306  1.00  0.00     0.148 A 
ATOM     62  C   UNL A   1      37.778  32.362  37.068  1.00  0.00     0.002 A 
ATOM     63  C   UNL A   1      39.334  34.078  36.353  1.00  0.00     0.091 A 
ATOM     64  F   UNL A   1      40.693  33.692  34.429  1.00  0.00    -0.205 F 
ATOM     65  C   UNL A   1      38.330  33.630  37.226  1.00  0.00     0.022 A 
BRANCH  63  66
ATOM     66  S   UNL A   1      40.041  35.695  36.692  1.00  0.00     0.127 S 
ATOM     67  O   UNL A   1      41.467  35.381  36.776  1.00  0.00    -0.237 OA
ATOM     68  O   UNL A   1      39.653  36.454  35.503  1.00  0.00    -0.237 OA
ATOM     69  O   UNL A   1      39.428  36.150  37.931  1.00  0.00    -0.744 OA
ENDBRANCH  63  66
ENDBRANCH  45  59
BRANCH  46  70
ATOM     70  C   UNL A   1      42.489  26.285  27.629  1.00  0.00     0.023 A 
ATOM     71  C   UNL A   1      43.415  26.844  26.727  1.00  0.00     0.012 A 
ATOM     72  C   UNL A   1      42.079  24.950  27.455  1.00  0.00     0.148 A 
ATOM     73  C   UNL A   1      43.895  26.099  25.649  1.00  0.00     0.002 A 
ATOM     74  C   UNL A   1      42.606  24.195  26.414  1.00  0.00     0.091 A 
ATOM     75  F   UNL A   1      41.189  24.441  28.318  1.00  0.00    -0.205 F 
ATOM     76  C   UNL A   1      43.499  24.773  25.498  1.00  0.00     0.022 A 
BRANCH  74  77
ATOM     77  S   UNL A   1      42.255  22.444  26.221  1.00  0.00     0.127 S 
ATOM     78  O   UNL A   1      42.996  22.123  25.004  1.00  0.00    -0.237 OA
ATOM     79  O   UNL A   1      42.818  21.887  27.451  1.00  0.00    -0.237 OA
ATOM     80  O   UNL A   1      40.805  22.342  26.125  1.00  0.00    -0.744 OA
ENDBRANCH  74  77
ENDBRANCH  46  70
BRANCH  58  81
ATOM     81  C   UNL A   1      44.728  27.412  34.142  1.00  0.00     0.023 A 
ATOM     82  C   UNL A   1      45.953  28.110  34.135  1.00  0.00     0.012 A 
ATOM     83  C   UNL A   1      44.604  26.245  34.922  1.00  0.00     0.148 A 
ATOM     84  C   UNL A   1      47.046  27.630  34.855  1.00  0.00     0.002 A 
ATOM     85  C   UNL A   1      45.681  25.803  35.680  1.00  0.00     0.091 A 
ATOM     86  F   UNL A   1      43.437  25.583  34.903  1.00  0.00    -0.205 F 
ATOM     87  C   UNL A   1      46.907  26.484  35.635  1.00  0.00     0.022 A 
BRANCH  85  88
ATOM     88  S   UNL A   1      45.563  24.395  36.790  1.00  0.00     0.127 S 
ATOM     89  O   UNL A   1      45.297  23.302  35.856  1.00  0.00    -0.237 OA
ATOM     90  O   UNL A   1      46.893  24.367  37.399  1.00  0.00    -0.237 OA
ATOM     91  O   UNL A   1      44.482  24.706  37.716  1.00  0.00    -0.744 OA
ENDBRANCH  85  88
ENDBRANCH  58  81
ENDBRANCH  32  33
ENDBRANCH  24  27
ENDBRANCH  22  23
ENDBRANCH   1  22
TORSDOF 16
ENDMDL
