MODEL 1
REMARK VINA RESULT:     -12.0      0.000      0.000
REMARK SMILES CC(C)CC[C@H](C(=O)NCCCNC(=O)c1ccc(-c2c3nc(c(-c4cccc(S(=O)(=O)[O-])c4F)c4ccc([nH]4)c(-c4cccc(S(=O)(=O)[O-])c4F)c4nc(c(-c5cccc(S(=O)(=O)[O-])c5F)c5ccc2[nH]5)C=C4)C=C3)cc1)c1ccc(F)cc1
REMARK SMILES IDX 11 1 10 2 9 3 7 4 8 5 6 7 5 8 4 9 2 10 1 11 3 12 79 13 80 14
REMARK SMILES IDX 85 15 81 16 84 17 82 18 83 19 12 20 13 21 14 22 15 24 16 25
REMARK SMILES IDX 17 26 78 27 18 28 77 29 19 30 20 31 21 32 71 33 22 34 76 35
REMARK SMILES IDX 70 36 72 37 23 38 75 39 69 40 68 41 24 43 56 44 36 45 55 46
REMARK SMILES IDX 37 47 40 48 54 49 73 50 38 51 39 52 53 54 74 55 41 56 25 57
REMARK SMILES IDX 26 58 34 59 27 60 29 61 35 62 28 63 30 64 31 65 32 66 33 67
REMARK SMILES IDX 57 68 58 69 66 70 59 71 61 72 67 73 60 74 62 75 63 76 64 77
REMARK SMILES IDX 65 78 42 79 43 80 51 81 44 82 46 83 52 84 45 85 47 86 48 87
REMARK SMILES IDX 49 88 50 89
REMARK H PARENT 9 6 13 23 72 42 40 53
REMARK Flexibility Score: inf
ROOT
ATOM      1  C   UNL A   1      31.732  28.844  26.988  1.00  0.00     0.042 C 
ENDROOT
BRANCH   1   2
ATOM      2  C   UNL A   1      32.178  27.408  26.758  1.00  0.00     0.117 C 
BRANCH   2   3
ATOM      3  N   UNL A   1      31.110  26.443  26.902  1.00  0.00    -0.356 N 
ATOM      4  C   UNL A   1      30.495  25.647  25.984  1.00  0.00     0.227 C 
ATOM      5  O   UNL A   1      29.821  24.743  26.483  1.00  0.00    -0.274 OA
ATOM      6  H   UNL A   1      30.768  26.345  27.820  1.00  0.00     0.163 HD
BRANCH   4   7
ATOM      7  C   UNL A   1      30.590  25.936  24.468  1.00  0.00     0.108 C 
BRANCH   7   8
ATOM      8  C   UNL A   1      30.534  24.687  23.544  1.00  0.00     0.018 C 
BRANCH   8   9
ATOM      9  C   UNL A   1      31.780  24.027  22.927  1.00  0.00     0.004 C 
BRANCH   9  10
ATOM     10  C   UNL A   1      32.861  24.895  22.265  1.00  0.00    -0.017 C 
ATOM     11  C   UNL A   1      32.212  25.866  21.273  1.00  0.00     0.007 C 
ATOM     12  C   UNL A   1      33.610  25.724  23.315  1.00  0.00     0.007 C 
ENDBRANCH   9  10
ENDBRANCH   8   9
ENDBRANCH   7   8
BRANCH   7  13
ATOM     13  C   UNL A   1      29.751  27.116  23.898  1.00  0.00    -0.035 A 
ATOM     14  C   UNL A   1      28.349  26.957  23.777  1.00  0.00     0.007 A 
ATOM     15  C   UNL A   1      30.284  28.329  23.428  1.00  0.00     0.007 A 
ATOM     16  C   UNL A   1      27.525  27.981  23.294  1.00  0.00     0.039 A 
ATOM     17  C   UNL A   1      29.465  29.346  22.918  1.00  0.00     0.039 A 
ATOM     18  C   UNL A   1      28.094  29.171  22.873  1.00  0.00     0.123 A 
ATOM     19  F   UNL A   1      27.311  30.153  22.405  1.00  0.00    -0.207 F 
ENDBRANCH   7  13
ENDBRANCH   4   7
ENDBRANCH   2   3
ENDBRANCH   1   2
BRANCH   1  20
ATOM     20  C   UNL A   1      32.599  29.917  26.332  1.00  0.00     0.118 C 
BRANCH  20  21
ATOM     21  N   UNL A   1      32.410  31.270  26.850  1.00  0.00    -0.352 N 
ATOM     22  C   UNL A   1      33.282  32.132  27.477  1.00  0.00     0.251 C 
ATOM     23  H   UNL A   1      31.501  31.628  26.730  1.00  0.00     0.163 HD
ATOM     24  O   UNL A   1      32.900  33.238  27.848  1.00  0.00    -0.269 OA
BRANCH  22  25
ATOM     25  C   UNL A   1      34.661  31.693  27.764  1.00  0.00     0.039 A 
ATOM     26  C   UNL A   1      35.685  32.645  27.784  1.00  0.00     0.014 A 
ATOM     27  C   UNL A   1      34.918  30.373  28.120  1.00  0.00     0.014 A 
ATOM     28  C   UNL A   1      36.929  32.301  28.316  1.00  0.00     0.010 A 
ATOM     29  C   UNL A   1      36.107  30.071  28.762  1.00  0.00     0.010 A 
ATOM     30  C   UNL A   1      37.118  31.037  28.891  1.00  0.00    -0.014 A 
BRANCH  30  31
ATOM     31  C   UNL A   1      38.330  30.680  29.675  1.00  0.00     0.031 A 
ATOM     32  C   UNL A   1      39.312  29.696  29.098  1.00  0.00     0.074 A 
ATOM     33  C   UNL A   1      38.449  31.096  30.953  1.00  0.00     0.049 A 
ATOM     34  N   UNL A   1      40.263  29.030  29.695  1.00  0.00    -0.248 NA
ATOM     35  C   UNL A   1      39.152  29.366  27.670  1.00  0.00     0.031 C 
ATOM     36  C   UNL A   1      37.515  31.983  31.654  1.00  0.00     0.029 A 
ATOM     37  N   UNL A   1      39.385  30.791  31.910  1.00  0.00    -0.354 N 
ATOM     38  C   UNL A   1      40.763  28.153  28.739  1.00  0.00     0.074 A 
ATOM     39  C   UNL A   1      39.986  28.346  27.535  1.00  0.00     0.031 C 
ATOM     40  C   UNL A   1      37.929  32.155  32.920  1.00  0.00     0.029 A 
ATOM     41  C   UNL A   1      39.130  31.359  33.138  1.00  0.00     0.049 A 
ATOM     42  H   UNL A   1      40.168  30.218  31.734  1.00  0.00     0.167 HD
ATOM     43  C   UNL A   1      41.800  27.289  28.844  1.00  0.00     0.034 A 
ATOM     44  C   UNL A   1      39.786  31.241  34.310  1.00  0.00     0.034 A 
ATOM     45  C   UNL A   1      42.627  27.182  30.014  1.00  0.00     0.049 A 
ATOM     46  C   UNL A   1      41.009  30.365  34.362  1.00  0.00     0.074 A 
ATOM     47  C   UNL A   1      43.752  26.403  30.208  1.00  0.00     0.029 A 
ATOM     48  N   UNL A   1      42.433  27.908  31.180  1.00  0.00    -0.354 N 
ATOM     49  N   UNL A   1      41.530  29.622  33.416  1.00  0.00    -0.248 NA
ATOM     50  C   UNL A   1      41.756  30.338  35.628  1.00  0.00     0.031 C 
ATOM     51  C   UNL A   1      44.251  26.672  31.487  1.00  0.00     0.029 A 
ATOM     52  C   UNL A   1      43.436  27.620  32.086  1.00  0.00     0.049 A 
ATOM     53  H   UNL A   1      41.691  28.535  31.339  1.00  0.00     0.167 HD
ATOM     54  C   UNL A   1      42.686  29.073  33.955  1.00  0.00     0.074 A 
ATOM     55  C   UNL A   1      42.798  29.582  35.307  1.00  0.00     0.031 C 
ATOM     56  C   UNL A   1      43.568  28.210  33.393  1.00  0.00     0.034 A 
BRANCH  43  57
ATOM     57  C   UNL A   1      42.149  26.467  27.631  1.00  0.00     0.023 A 
ATOM     58  C   UNL A   1      42.821  27.081  26.554  1.00  0.00     0.012 A 
ATOM     59  C   UNL A   1      41.848  25.092  27.562  1.00  0.00     0.148 A 
ATOM     60  C   UNL A   1      43.146  26.356  25.409  1.00  0.00     0.002 A 
ATOM     61  C   UNL A   1      42.217  24.364  26.435  1.00  0.00     0.091 A 
ATOM     62  F   UNL A   1      41.194  24.527  28.586  1.00  0.00    -0.205 F 
ATOM     63  C   UNL A   1      42.853  24.997  25.354  1.00  0.00     0.022 A 
BRANCH  61  64
ATOM     64  S   UNL A   1      41.956  22.592  26.295  1.00  0.00     0.127 S 
ATOM     65  O   UNL A   1      42.609  22.298  25.019  1.00  0.00    -0.237 OA
ATOM     66  O   UNL A   1      42.660  22.082  27.472  1.00  0.00    -0.237 OA
ATOM     67  O   UNL A   1      40.513  22.396  26.319  1.00  0.00    -0.744 OA
ENDBRANCH  61  64
ENDBRANCH  43  57
BRANCH  44  68
ATOM     68  C   UNL A   1      39.363  32.042  35.495  1.00  0.00     0.023 A 
ATOM     69  C   UNL A   1      39.708  33.409  35.549  1.00  0.00     0.012 A 
ATOM     70  C   UNL A   1      38.607  31.488  36.545  1.00  0.00     0.148 A 
ATOM     71  C   UNL A   1      39.343  34.195  36.642  1.00  0.00     0.002 A 
ATOM     72  C   UNL A   1      38.202  32.291  37.608  1.00  0.00     0.091 A 
ATOM     73  F   UNL A   1      38.294  30.186  36.489  1.00  0.00    -0.205 F 
ATOM     74  C   UNL A   1      38.583  33.641  37.667  1.00  0.00     0.022 A 
BRANCH  72  75
ATOM     75  S   UNL A   1      37.107  31.680  38.895  1.00  0.00     0.127 S 
ATOM     76  O   UNL A   1      37.913  31.877  40.096  1.00  0.00    -0.237 OA
ATOM     77  O   UNL A   1      35.954  32.574  38.775  1.00  0.00    -0.237 OA
ATOM     78  O   UNL A   1      36.824  30.298  38.528  1.00  0.00    -0.744 OA
ENDBRANCH  72  75
ENDBRANCH  44  68
BRANCH  56  79
ATOM     79  C   UNL A   1      44.763  27.805  34.207  1.00  0.00     0.023 A 
ATOM     80  C   UNL A   1      45.926  28.598  34.180  1.00  0.00     0.012 A 
ATOM     81  C   UNL A   1      44.694  26.696  35.073  1.00  0.00     0.148 A 
ATOM     82  C   UNL A   1      47.013  28.282  34.993  1.00  0.00     0.002 A 
ATOM     83  C   UNL A   1      45.764  26.413  35.911  1.00  0.00     0.091 A 
ATOM     84  F   UNL A   1      43.584  25.944  35.062  1.00  0.00    -0.205 F 
ATOM     85  C   UNL A   1      46.926  27.200  35.867  1.00  0.00     0.022 A 
BRANCH  83  86
ATOM     86  S   UNL A   1      45.704  25.096  37.131  1.00  0.00     0.127 S 
ATOM     87  O   UNL A   1      44.383  25.301  37.724  1.00  0.00    -0.237 OA
ATOM     88  O   UNL A   1      45.822  23.897  36.301  1.00  0.00    -0.237 OA
ATOM     89  O   UNL A   1      46.833  25.325  38.021  1.00  0.00    -0.744 OA
ENDBRANCH  83  86
ENDBRANCH  56  79
ENDBRANCH  30  31
ENDBRANCH  22  25
ENDBRANCH  20  21
ENDBRANCH   1  20
TORSDOF 17
ENDMDL
MODEL 2
REMARK VINA RESULT:     -11.9      5.376     10.202
REMARK SMILES CC(C)CC[C@H](C(=O)NCCCNC(=O)c1ccc(-c2c3nc(c(-c4cccc(S(=O)(=O)[O-])c4F)c4ccc([nH]4)c(-c4cccc(S(=O)(=O)[O-])c4F)c4nc(c(-c5cccc(S(=O)(=O)[O-])c5F)c5ccc2[nH]5)C=C4)C=C3)cc1)c1ccc(F)cc1
REMARK SMILES IDX 11 1 10 2 9 3 7 4 8 5 6 7 5 8 4 9 2 10 1 11 3 12 79 13 80 14
REMARK SMILES IDX 85 15 81 16 84 17 82 18 83 19 12 20 13 21 14 22 15 24 16 25
REMARK SMILES IDX 17 26 78 27 18 28 77 29 19 30 20 31 21 32 71 33 22 34 76 35
REMARK SMILES IDX 70 36 72 37 23 38 75 39 69 40 68 41 24 43 56 44 36 45 55 46
REMARK SMILES IDX 37 47 40 48 54 49 73 50 38 51 39 52 53 54 74 55 41 56 25 57
REMARK SMILES IDX 26 58 34 59 27 60 29 61 35 62 28 63 30 64 31 65 32 66 33 67
REMARK SMILES IDX 57 68 58 69 66 70 59 71 61 72 67 73 60 74 62 75 63 76 64 77
REMARK SMILES IDX 65 78 42 79 43 80 51 81 44 82 46 83 52 84 45 85 47 86 48 87
REMARK SMILES IDX 49 88 50 89
REMARK H PARENT 9 6 13 23 72 42 40 53
REMARK Flexibility Score: inf
ROOT
ATOM      1  C   UNL A   1      35.783  22.706  23.847  1.00  0.00     0.042 C 
ENDROOT
BRANCH   1   2
ATOM      2  C   UNL A   1      34.410  23.353  23.950  1.00  0.00     0.117 C 
BRANCH   2   3
ATOM      3  N   UNL A   1      34.057  24.141  22.788  1.00  0.00    -0.356 N 
ATOM      4  C   UNL A   1      33.560  25.405  22.683  1.00  0.00     0.227 C 
ATOM      5  O   UNL A   1      33.637  25.875  21.546  1.00  0.00    -0.274 OA
ATOM      6  H   UNL A   1      34.201  23.687  21.927  1.00  0.00     0.163 HD
BRANCH   4   7
ATOM      7  C   UNL A   1      32.893  26.115  23.883  1.00  0.00     0.108 C 
BRANCH   7   8
ATOM      8  C   UNL A   1      33.769  27.177  24.603  1.00  0.00     0.018 C 
BRANCH   8   9
ATOM      9  C   UNL A   1      33.539  27.630  26.056  1.00  0.00     0.004 C 
BRANCH   9  10
ATOM     10  C   UNL A   1      32.402  28.611  26.383  1.00  0.00    -0.017 C 
ATOM     11  C   UNL A   1      31.546  28.049  27.523  1.00  0.00     0.007 C 
ATOM     12  C   UNL A   1      32.965  29.962  26.837  1.00  0.00     0.007 C 
ENDBRANCH   9  10
ENDBRANCH   8   9
ENDBRANCH   7   8
BRANCH   7  13
ATOM     13  C   UNL A   1      31.421  26.594  23.719  1.00  0.00    -0.035 A 
ATOM     14  C   UNL A   1      31.179  27.860  23.134  1.00  0.00     0.007 A 
ATOM     15  C   UNL A   1      30.291  25.887  24.165  1.00  0.00     0.007 A 
ATOM     16  C   UNL A   1      29.882  28.349  22.933  1.00  0.00     0.039 A 
ATOM     17  C   UNL A   1      28.993  26.385  23.991  1.00  0.00     0.039 A 
ATOM     18  C   UNL A   1      28.799  27.601  23.361  1.00  0.00     0.123 A 
ATOM     19  F   UNL A   1      27.556  28.066  23.175  1.00  0.00    -0.207 F 
ENDBRANCH   7  13
ENDBRANCH   4   7
ENDBRANCH   2   3
ENDBRANCH   1   2
BRANCH   1  20
ATOM     20  C   UNL A   1      36.492  22.449  25.176  1.00  0.00     0.118 C 
BRANCH  20  21
ATOM     21  N   UNL A   1      37.520  21.412  25.141  1.00  0.00    -0.352 N 
ATOM     22  C   UNL A   1      38.755  21.337  25.746  1.00  0.00     0.251 C 
ATOM     23  H   UNL A   1      37.290  20.630  24.589  1.00  0.00     0.163 HD
ATOM     24  O   UNL A   1      39.475  20.359  25.565  1.00  0.00    -0.269 OA
BRANCH  22  25
ATOM     25  C   UNL A   1      39.239  22.470  26.556  1.00  0.00     0.039 A 
ATOM     26  C   UNL A   1      40.279  22.258  27.466  1.00  0.00     0.014 A 
ATOM     27  C   UNL A   1      38.745  23.752  26.337  1.00  0.00     0.014 A 
ATOM     28  C   UNL A   1      40.928  23.355  28.034  1.00  0.00     0.010 A 
ATOM     29  C   UNL A   1      39.470  24.839  26.800  1.00  0.00     0.010 A 
ATOM     30  C   UNL A   1      40.585  24.655  27.634  1.00  0.00    -0.014 A 
BRANCH  30  31
ATOM     31  C   UNL A   1      41.377  25.852  28.017  1.00  0.00     0.031 A 
ATOM     32  C   UNL A   1      40.711  26.949  28.803  1.00  0.00     0.074 A 
ATOM     33  C   UNL A   1      42.616  26.028  27.511  1.00  0.00     0.049 A 
ATOM     34  N   UNL A   1      41.100  28.180  29.000  1.00  0.00    -0.248 NA
ATOM     35  C   UNL A   1      39.394  26.635  29.388  1.00  0.00     0.031 C 
ATOM     36  C   UNL A   1      43.335  25.074  26.662  1.00  0.00     0.029 A 
ATOM     37  N   UNL A   1      43.475  27.095  27.601  1.00  0.00    -0.354 N 
ATOM     38  C   UNL A   1      40.049  28.805  29.662  1.00  0.00     0.074 A 
ATOM     39  C   UNL A   1      38.992  27.827  29.800  1.00  0.00     0.031 C 
ATOM     40  C   UNL A   1      44.526  25.594  26.318  1.00  0.00     0.029 A 
ATOM     41  C   UNL A   1      44.638  26.933  26.881  1.00  0.00     0.049 A 
ATOM     42  H   UNL A   1      43.278  27.902  28.131  1.00  0.00     0.167 HD
ATOM     43  C   UNL A   1      39.983  30.069  30.142  1.00  0.00     0.034 A 
ATOM     44  C   UNL A   1      45.673  27.775  26.689  1.00  0.00     0.034 A 
ATOM     45  C   UNL A   1      41.079  30.994  30.086  1.00  0.00     0.049 A 
ATOM     46  C   UNL A   1      45.622  29.132  27.339  1.00  0.00     0.074 A 
ATOM     47  C   UNL A   1      41.158  32.272  30.609  1.00  0.00     0.029 A 
ATOM     48  N   UNL A   1      42.305  30.725  29.496  1.00  0.00    -0.354 N 
ATOM     49  N   UNL A   1      44.661  29.668  28.052  1.00  0.00    -0.248 NA
ATOM     50  C   UNL A   1      46.809  29.986  27.191  1.00  0.00     0.031 C 
ATOM     51  C   UNL A   1      42.441  32.768  30.352  1.00  0.00     0.029 A 
ATOM     52  C   UNL A   1      43.159  31.798  29.670  1.00  0.00     0.049 A 
ATOM     53  H   UNL A   1      42.534  29.892  29.023  1.00  0.00     0.167 HD
ATOM     54  C   UNL A   1      45.142  30.902  28.473  1.00  0.00     0.074 A 
ATOM     55  C   UNL A   1      46.487  31.027  27.948  1.00  0.00     0.031 C 
ATOM     56  C   UNL A   1      44.522  31.856  29.210  1.00  0.00     0.034 A 
BRANCH  43  57
ATOM     57  C   UNL A   1      38.719  30.481  30.850  1.00  0.00     0.023 A 
ATOM     58  C   UNL A   1      38.559  30.164  32.214  1.00  0.00     0.012 A 
ATOM     59  C   UNL A   1      37.707  31.205  30.187  1.00  0.00     0.148 A 
ATOM     60  C   UNL A   1      37.397  30.517  32.897  1.00  0.00     0.002 A 
ATOM     61  C   UNL A   1      36.570  31.594  30.888  1.00  0.00     0.091 A 
ATOM     62  F   UNL A   1      37.866  31.483  28.885  1.00  0.00    -0.205 F 
ATOM     63  C   UNL A   1      36.408  31.239  32.236  1.00  0.00     0.022 A 
BRANCH  61  64
ATOM     64  S   UNL A   1      35.270  32.594  30.152  1.00  0.00     0.127 S 
ATOM     65  O   UNL A   1      34.328  32.716  31.265  1.00  0.00    -0.237 OA
ATOM     66  O   UNL A   1      35.982  33.827  29.817  1.00  0.00    -0.237 OA
ATOM     67  O   UNL A   1      34.787  31.840  29.003  1.00  0.00    -0.744 OA
ENDBRANCH  61  64
ENDBRANCH  43  57
BRANCH  44  68
ATOM     68  C   UNL A   1      46.879  27.328  25.935  1.00  0.00     0.023 A 
ATOM     69  C   UNL A   1      47.803  26.476  26.574  1.00  0.00     0.012 A 
ATOM     70  C   UNL A   1      47.111  27.705  24.598  1.00  0.00     0.148 A 
ATOM     71  C   UNL A   1      48.951  26.040  25.911  1.00  0.00     0.002 A 
ATOM     72  C   UNL A   1      48.232  27.225  23.926  1.00  0.00     0.091 A 
ATOM     73  F   UNL A   1      46.232  28.524  24.004  1.00  0.00    -0.205 F 
ATOM     74  C   UNL A   1      49.162  26.406  24.586  1.00  0.00     0.022 A 
BRANCH  72  75
ATOM     75  S   UNL A   1      48.499  27.543  22.178  1.00  0.00     0.127 S 
ATOM     76  O   UNL A   1      48.635  26.191  21.643  1.00  0.00    -0.237 OA
ATOM     77  O   UNL A   1      47.267  28.234  21.794  1.00  0.00    -0.237 OA
ATOM     78  O   UNL A   1      49.690  28.381  22.121  1.00  0.00    -0.744 OA
ENDBRANCH  72  75
ENDBRANCH  44  68
BRANCH  56  79
ATOM     79  C   UNL A   1      45.304  33.092  29.550  1.00  0.00     0.023 A 
ATOM     80  C   UNL A   1      46.105  33.116  30.707  1.00  0.00     0.012 A 
ATOM     81  C   UNL A   1      45.320  34.191  28.667  1.00  0.00     0.148 A 
ATOM     82  C   UNL A   1      46.901  34.223  30.991  1.00  0.00     0.002 A 
ATOM     83  C   UNL A   1      46.148  35.273  28.935  1.00  0.00     0.091 A 
ATOM     84  F   UNL A   1      44.531  34.153  27.584  1.00  0.00    -0.205 F 
ATOM     85  C   UNL A   1      46.933  35.294  30.099  1.00  0.00     0.022 A 
BRANCH  83  86
ATOM     86  S   UNL A   1      46.321  36.651  27.797  1.00  0.00     0.127 S 
ATOM     87  O   UNL A   1      46.922  37.671  28.655  1.00  0.00    -0.237 OA
ATOM     88  O   UNL A   1      47.219  36.104  26.779  1.00  0.00    -0.237 OA
ATOM     89  O   UNL A   1      44.977  36.946  27.319  1.00  0.00    -0.744 OA
ENDBRANCH  83  86
ENDBRANCH  56  79
ENDBRANCH  30  31
ENDBRANCH  22  25
ENDBRANCH  20  21
ENDBRANCH   1  20
TORSDOF 17
ENDMDL
MODEL 3
REMARK VINA RESULT:     -11.8      2.329      3.212
REMARK SMILES CC(C)CC[C@H](C(=O)NCCCNC(=O)c1ccc(-c2c3nc(c(-c4cccc(S(=O)(=O)[O-])c4F)c4ccc([nH]4)c(-c4cccc(S(=O)(=O)[O-])c4F)c4nc(c(-c5cccc(S(=O)(=O)[O-])c5F)c5ccc2[nH]5)C=C4)C=C3)cc1)c1ccc(F)cc1
REMARK SMILES IDX 11 1 10 2 9 3 7 4 8 5 6 7 5 8 4 9 2 10 1 11 3 12 79 13 80 14
REMARK SMILES IDX 85 15 81 16 84 17 82 18 83 19 12 20 13 21 14 22 15 24 16 25
REMARK SMILES IDX 17 26 78 27 18 28 77 29 19 30 20 31 21 32 71 33 22 34 76 35
REMARK SMILES IDX 70 36 72 37 23 38 75 39 69 40 68 41 24 43 56 44 36 45 55 46
REMARK SMILES IDX 37 47 40 48 54 49 73 50 38 51 39 52 53 54 74 55 41 56 25 57
REMARK SMILES IDX 26 58 34 59 27 60 29 61 35 62 28 63 30 64 31 65 32 66 33 67
REMARK SMILES IDX 57 68 58 69 66 70 59 71 61 72 67 73 60 74 62 75 63 76 64 77
REMARK SMILES IDX 65 78 42 79 43 80 51 81 44 82 46 83 52 84 45 85 47 86 48 87
REMARK SMILES IDX 49 88 50 89
REMARK H PARENT 9 6 13 23 72 42 40 53
REMARK Flexibility Score: inf
ROOT
ATOM      1  C   UNL A   1      31.911  27.805  26.719  1.00  0.00     0.042 C 
ENDROOT
BRANCH   1   2
ATOM      2  C   UNL A   1      31.293  26.845  25.713  1.00  0.00     0.117 C 
BRANCH   2   3
ATOM      3  N   UNL A   1      30.791  25.628  26.312  1.00  0.00    -0.356 N 
ATOM      4  C   UNL A   1      31.365  24.401  26.459  1.00  0.00     0.227 C 
ATOM      5  O   UNL A   1      30.778  23.672  27.260  1.00  0.00    -0.274 OA
ATOM      6  H   UNL A   1      29.880  25.697  26.678  1.00  0.00     0.163 HD
BRANCH   4   7
ATOM      7  C   UNL A   1      32.588  23.974  25.615  1.00  0.00     0.108 C 
BRANCH   7   8
ATOM      8  C   UNL A   1      33.950  23.976  26.363  1.00  0.00     0.018 C 
BRANCH   8   9
ATOM      9  C   UNL A   1      35.307  24.173  25.663  1.00  0.00     0.004 C 
BRANCH   9  10
ATOM     10  C   UNL A   1      36.427  23.140  25.856  1.00  0.00    -0.017 C 
ATOM     11  C   UNL A   1      35.834  21.728  25.877  1.00  0.00     0.007 C 
ATOM     12  C   UNL A   1      37.435  23.211  24.704  1.00  0.00     0.007 C 
ENDBRANCH   9  10
ENDBRANCH   8   9
ENDBRANCH   7   8
BRANCH   7  13
ATOM     13  C   UNL A   1      32.437  22.730  24.692  1.00  0.00    -0.035 A 
ATOM     14  C   UNL A   1      32.532  21.440  25.267  1.00  0.00     0.007 A 
ATOM     15  C   UNL A   1      32.269  22.779  23.297  1.00  0.00     0.007 A 
ATOM     16  C   UNL A   1      32.384  20.275  24.506  1.00  0.00     0.039 A 
ATOM     17  C   UNL A   1      32.149  21.614  22.527  1.00  0.00     0.039 A 
ATOM     18  C   UNL A   1      32.188  20.375  23.139  1.00  0.00     0.123 A 
ATOM     19  F   UNL A   1      32.051  19.263  22.404  1.00  0.00    -0.207 F 
ENDBRANCH   7  13
ENDBRANCH   4   7
ENDBRANCH   2   3
ENDBRANCH   1   2
BRANCH   1  20
ATOM     20  C   UNL A   1      32.715  28.959  26.121  1.00  0.00     0.118 C 
BRANCH  20  21
ATOM     21  N   UNL A   1      32.364  30.285  26.623  1.00  0.00    -0.352 N 
ATOM     22  C   UNL A   1      33.123  31.250  27.247  1.00  0.00     0.251 C 
ATOM     23  H   UNL A   1      31.420  30.533  26.491  1.00  0.00     0.163 HD
ATOM     24  O   UNL A   1      32.610  32.307  27.603  1.00  0.00    -0.269 OA
BRANCH  22  25
ATOM     25  C   UNL A   1      34.540  30.979  27.550  1.00  0.00     0.039 A 
ATOM     26  C   UNL A   1      35.423  32.054  27.682  1.00  0.00     0.014 A 
ATOM     27  C   UNL A   1      34.966  29.680  27.812  1.00  0.00     0.014 A 
ATOM     28  C   UNL A   1      36.688  31.839  28.231  1.00  0.00     0.010 A 
ATOM     29  C   UNL A   1      36.169  29.489  28.473  1.00  0.00     0.010 A 
ATOM     30  C   UNL A   1      37.034  30.569  28.714  1.00  0.00    -0.014 A 
BRANCH  30  31
ATOM     31  C   UNL A   1      38.263  30.316  29.512  1.00  0.00     0.031 A 
ATOM     32  C   UNL A   1      39.296  29.359  28.982  1.00  0.00     0.074 A 
ATOM     33  C   UNL A   1      38.358  30.799  30.769  1.00  0.00     0.049 A 
ATOM     34  N   UNL A   1      40.281  28.775  29.608  1.00  0.00    -0.248 NA
ATOM     35  C   UNL A   1      39.156  28.952  27.572  1.00  0.00     0.031 C 
ATOM     36  C   UNL A   1      37.377  31.667  31.427  1.00  0.00     0.029 A 
ATOM     37  N   UNL A   1      39.308  30.591  31.737  1.00  0.00    -0.354 N 
ATOM     38  C   UNL A   1      40.828  27.880  28.696  1.00  0.00     0.074 A 
ATOM     39  C   UNL A   1      40.043  27.973  27.485  1.00  0.00     0.031 C 
ATOM     40  C   UNL A   1      37.780  31.923  32.683  1.00  0.00     0.029 A 
ATOM     41  C   UNL A   1      39.022  31.203  32.937  1.00  0.00     0.049 A 
ATOM     42  H   UNL A   1      40.120  30.053  31.588  1.00  0.00     0.167 HD
ATOM     43  C   UNL A   1      41.910  27.079  28.841  1.00  0.00     0.034 A 
ATOM     44  C   UNL A   1      39.681  31.178  34.112  1.00  0.00     0.034 A 
ATOM     45  C   UNL A   1      42.740  27.074  30.012  1.00  0.00     0.049 A 
ATOM     46  C   UNL A   1      40.949  30.372  34.204  1.00  0.00     0.074 A 
ATOM     47  C   UNL A   1      43.905  26.365  30.242  1.00  0.00     0.029 A 
ATOM     48  N   UNL A   1      42.507  27.843  31.143  1.00  0.00    -0.354 N 
ATOM     49  N   UNL A   1      41.510  29.613  33.294  1.00  0.00    -0.248 NA
ATOM     50  C   UNL A   1      41.695  30.445  35.469  1.00  0.00     0.031 C 
ATOM     51  C   UNL A   1      44.388  26.723  31.507  1.00  0.00     0.029 A 
ATOM     52  C   UNL A   1      43.522  27.653  32.060  1.00  0.00     0.049 A 
ATOM     53  H   UNL A   1      41.732  28.437  31.272  1.00  0.00     0.167 HD
ATOM     54  C   UNL A   1      42.694  29.153  33.858  1.00  0.00     0.074 A 
ATOM     55  C   UNL A   1      42.777  29.732  35.184  1.00  0.00     0.031 C 
ATOM     56  C   UNL A   1      43.621  28.312  33.337  1.00  0.00     0.034 A 
BRANCH  43  57
ATOM     57  C   UNL A   1      42.304  26.219  27.668  1.00  0.00     0.023 A 
ATOM     58  C   UNL A   1      43.103  26.773  26.646  1.00  0.00     0.012 A 
ATOM     59  C   UNL A   1      41.918  24.866  27.585  1.00  0.00     0.148 A 
ATOM     60  C   UNL A   1      43.474  26.013  25.539  1.00  0.00     0.002 A 
ATOM     61  C   UNL A   1      42.331  24.100  26.499  1.00  0.00     0.091 A 
ATOM     62  F   UNL A   1      41.144  24.360  28.554  1.00  0.00    -0.205 F 
ATOM     63  C   UNL A   1      43.096  24.675  25.471  1.00  0.00     0.022 A 
BRANCH  61  64
ATOM     64  S   UNL A   1      41.965  22.347  26.352  1.00  0.00     0.127 S 
ATOM     65  O   UNL A   1      42.518  21.824  27.600  1.00  0.00    -0.237 OA
ATOM     66  O   UNL A   1      40.503  22.342  26.283  1.00  0.00    -0.237 OA
ATOM     67  O   UNL A   1      42.630  21.900  25.136  1.00  0.00    -0.744 OA
ENDBRANCH  61  64
ENDBRANCH  43  57
BRANCH  44  68
ATOM     68  C   UNL A   1      39.215  32.011  35.257  1.00  0.00     0.023 A 
ATOM     69  C   UNL A   1      38.260  31.474  36.145  1.00  0.00     0.012 A 
ATOM     70  C   UNL A   1      39.717  33.304  35.499  1.00  0.00     0.148 A 
ATOM     71  C   UNL A   1      37.788  32.220  37.225  1.00  0.00     0.002 A 
ATOM     72  C   UNL A   1      39.279  34.024  36.607  1.00  0.00     0.091 A 
ATOM     73  F   UNL A   1      40.617  33.810  34.642  1.00  0.00    -0.205 F 
ATOM     74  C   UNL A   1      38.302  33.490  37.462  1.00  0.00     0.022 A 
BRANCH  72  75
ATOM     75  S   UNL A   1      39.997  35.610  37.053  1.00  0.00     0.127 S 
ATOM     76  O   UNL A   1      39.651  36.433  35.899  1.00  0.00    -0.237 OA
ATOM     77  O   UNL A   1      39.279  35.943  38.285  1.00  0.00    -0.237 OA
ATOM     78  O   UNL A   1      41.417  35.342  37.250  1.00  0.00    -0.744 OA
ENDBRANCH  72  75
ENDBRANCH  44  68
BRANCH  56  79
ATOM     79  C   UNL A   1      44.835  28.012  34.167  1.00  0.00     0.023 A 
ATOM     80  C   UNL A   1      45.978  28.825  34.053  1.00  0.00     0.012 A 
ATOM     81  C   UNL A   1      44.804  26.985  35.132  1.00  0.00     0.148 A 
ATOM     82  C   UNL A   1      47.081  28.612  34.876  1.00  0.00     0.002 A 
ATOM     83  C   UNL A   1      45.891  26.805  35.977  1.00  0.00     0.091 A 
ATOM     84  F   UNL A   1      43.713  26.209  35.205  1.00  0.00    -0.205 F 
ATOM     85  C   UNL A   1      47.032  27.612  35.846  1.00  0.00     0.022 A 
BRANCH  83  86
ATOM     86  S   UNL A   1      45.877  25.604  37.313  1.00  0.00     0.127 S 
ATOM     87  O   UNL A   1      44.767  26.085  38.134  1.00  0.00    -0.237 OA
ATOM     88  O   UNL A   1      45.614  24.352  36.603  1.00  0.00    -0.237 OA
ATOM     89  O   UNL A   1      47.193  25.681  37.931  1.00  0.00    -0.744 OA
ENDBRANCH  83  86
ENDBRANCH  56  79
ENDBRANCH  30  31
ENDBRANCH  22  25
ENDBRANCH  20  21
ENDBRANCH   1  20
TORSDOF 17
ENDMDL
