MODEL 1
REMARK VINA RESULT:     -14.6      0.000      0.000
REMARK SMILES Cc1ccccc1NC(=S)NN1C(=O)CS[C@H]1c1ccccc1C(=O)NCCCNC(=O)c1ccc(-c2c3nc(c(-c4cccc(S(=O)(=O)[O-])c4F)c4ccc([nH]4)c(-c4cccc(S(=O)(=O)[O-])c4F)c4nc(c(-c5cccc(S(=O)(=O)[O-])c5F)c5ccc2[nH]5)C=C4)C=C3)cc1
REMARK SMILES IDX 27 1 26 2 24 3 25 4 23 6 18 7 19 8 20 9 22 10 21 11 17 12
REMARK SMILES IDX 12 13 13 14 14 15 15 16 16 17 11 18 9 20 10 21 8 22 7 24
REMARK SMILES IDX 1 25 2 26 3 27 4 28 6 29 5 30 28 31 29 32 30 33 31 34 32 36
REMARK SMILES IDX 33 37 34 38 95 39 35 40 94 41 36 42 37 43 38 44 88 45 39 46
REMARK SMILES IDX 93 47 87 48 89 49 40 50 92 51 86 52 85 53 41 55 73 56 53 57
REMARK SMILES IDX 72 58 54 59 57 60 71 61 90 62 55 63 56 64 70 66 91 67 58 68
REMARK SMILES IDX 42 69 43 70 51 71 44 72 46 73 52 74 45 75 47 76 48 77 49 78
REMARK SMILES IDX 50 79 74 80 75 81 83 82 76 83 78 84 84 85 77 86 79 87 80 88
REMARK SMILES IDX 81 89 82 90 59 91 60 92 68 93 61 94 63 95 69 96 62 97 64 98
REMARK SMILES IDX 65 99 66 100 67 101
REMARK H PARENT 26 5 11 19 8 23 30 35 89 54 57 65
REMARK Flexibility Score: inf
ROOT
ATOM      1  C   UNL A   1      32.881  28.997  27.548  1.00  0.00     0.118 C 
ENDROOT
BRANCH   1   2
ATOM      2  N   UNL A   1      34.001  28.043  26.289  1.00  0.00    -0.352 N 
ATOM      3  C   UNL A   1      33.855  26.493  25.802  1.00  0.00     0.251 C 
ATOM      4  O   UNL A   1      34.808  25.997  25.195  1.00  0.00    -0.269 OA
ATOM      5  H   UNL A   1      34.746  28.552  25.897  1.00  0.00     0.163 HD
BRANCH   3   6
ATOM      6  C   UNL A   1      32.441  25.459  26.060  1.00  0.00     0.046 A 
ATOM      7  C   UNL A   1      31.055  25.637  25.449  1.00  0.00    -0.001 A 
ATOM      8  C   UNL A   1      30.071  24.653  25.549  1.00  0.00     0.007 A 
ATOM      9  C   UNL A   1      30.356  23.492  26.258  1.00  0.00     0.000 A 
ATOM     10  C   UNL A   1      32.637  24.283  26.791  1.00  0.00     0.014 A 
ATOM     11  C   UNL A   1      31.602  23.322  26.887  1.00  0.00     0.001 A 
BRANCH   7  12
ATOM     12  C   UNL A   1      30.673  27.024  24.937  1.00  0.00     0.197 C 
ATOM     13  N   UNL A   1      31.894  27.149  24.143  1.00  0.00    -0.236 N 
ATOM     14  C   UNL A   1      32.599  28.752  23.361  1.00  0.00     0.252 C 
ATOM     15  O   UNL A   1      33.752  29.121  23.301  1.00  0.00    -0.272 OA
ATOM     16  C   UNL A   1      30.748  29.322  22.386  1.00  0.00     0.174 C 
ATOM     17  S   UNL A   1      29.265  27.714  23.404  1.00  0.00    -0.120 SA
BRANCH  13  18
ATOM     18  N   UNL A   1      31.357  25.687  22.973  1.00  0.00    -0.270 N 
ATOM     19  H   UNL A   1      30.389  25.715  22.798  1.00  0.00     0.191 HD
BRANCH  18  20
ATOM     20  C   UNL A   1      31.990  24.535  22.262  1.00  0.00     0.189 C 
ATOM     21  S   UNL A   1      32.663  24.887  20.755  1.00  0.00    -0.039 S 
BRANCH  20  22
ATOM     22  N   UNL A   1      31.883  23.174  22.607  1.00  0.00    -0.331 N 
ATOM     23  H   UNL A   1      30.968  22.824  22.510  1.00  0.00     0.169 HD
BRANCH  22  24
ATOM     24  C   UNL A   1      32.852  22.149  23.086  1.00  0.00     0.043 A 
ATOM     25  C   UNL A   1      32.218  19.657  22.708  1.00  0.00     0.046 C 
ATOM     26  C   UNL A   1      32.420  20.894  23.604  1.00  0.00    -0.028 A 
ATOM     27  C   UNL A   1      32.818  20.459  24.888  1.00  0.00     0.005 A 
ATOM     28  C   UNL A   1      33.932  21.024  25.462  1.00  0.00     0.000 A 
ATOM     29  C   UNL A   1      34.100  22.549  23.540  1.00  0.00     0.026 A 
ATOM     30  C   UNL A   1      34.630  21.989  24.730  1.00  0.00     0.002 A 
ENDBRANCH  22  24
ENDBRANCH  20  22
ENDBRANCH  18  20
ENDBRANCH  13  18
ENDBRANCH   7  12
ENDBRANCH   3   6
ENDBRANCH   1   2
BRANCH   1  31
ATOM     31  C   UNL A   1      31.661  30.631  26.600  1.00  0.00     0.042 C 
BRANCH  31  32
ATOM     32  C   UNL A   1      32.040  32.381  27.232  1.00  0.00     0.118 C 
BRANCH  32  33
ATOM     33  N   UNL A   1      33.497  32.709  27.347  1.00  0.00    -0.352 N 
ATOM     34  C   UNL A   1      34.264  33.201  28.384  1.00  0.00     0.251 C 
ATOM     35  H   UNL A   1      34.007  32.543  26.521  1.00  0.00     0.163 HD
ATOM     36  O   UNL A   1      34.068  34.231  28.996  1.00  0.00    -0.269 OA
BRANCH  34  37
ATOM     37  C   UNL A   1      35.416  32.252  28.569  1.00  0.00     0.039 A 
ATOM     38  C   UNL A   1      35.355  31.006  29.172  1.00  0.00     0.014 A 
ATOM     39  C   UNL A   1      36.659  32.883  28.398  1.00  0.00     0.014 A 
ATOM     40  C   UNL A   1      36.537  30.489  29.722  1.00  0.00     0.010 A 
ATOM     41  C   UNL A   1      37.743  32.490  29.137  1.00  0.00     0.010 A 
ATOM     42  C   UNL A   1      37.681  31.292  29.829  1.00  0.00    -0.014 A 
BRANCH  42  43
ATOM     43  C   UNL A   1      39.002  30.803  30.195  1.00  0.00     0.031 A 
ATOM     44  C   UNL A   1      39.335  29.516  29.560  1.00  0.00     0.074 A 
ATOM     45  C   UNL A   1      39.906  31.554  30.863  1.00  0.00     0.049 A 
ATOM     46  N   UNL A   1      40.020  28.582  30.120  1.00  0.00    -0.248 NA
ATOM     47  C   UNL A   1      38.726  29.112  28.280  1.00  0.00     0.031 C 
ATOM     48  C   UNL A   1      41.360  31.493  30.773  1.00  0.00     0.029 A 
ATOM     49  N   UNL A   1      39.690  32.528  31.843  1.00  0.00    -0.354 N 
ATOM     50  C   UNL A   1      40.237  27.659  29.118  1.00  0.00     0.074 A 
ATOM     51  C   UNL A   1      39.181  27.866  28.169  1.00  0.00     0.031 C 
ATOM     52  C   UNL A   1      41.894  32.189  31.793  1.00  0.00     0.029 A 
ATOM     53  C   UNL A   1      40.814  32.540  32.695  1.00  0.00     0.049 A 
ATOM     54  H   UNL A   1      38.895  33.103  31.923  1.00  0.00     0.167 HD
ATOM     55  C   UNL A   1      41.478  27.116  28.988  1.00  0.00     0.034 A 
ATOM     56  C   UNL A   1      40.793  32.273  34.044  1.00  0.00     0.034 A 
ATOM     57  C   UNL A   1      42.356  27.637  30.049  1.00  0.00     0.049 A 
ATOM     58  C   UNL A   1      41.709  31.214  34.516  1.00  0.00     0.074 A 
ATOM     59  C   UNL A   1      43.274  28.676  30.041  1.00  0.00     0.029 A 
ATOM     60  N   UNL A   1      42.092  27.356  31.382  1.00  0.00    -0.354 N 
ATOM     61  N   UNL A   1      42.406  30.470  33.721  1.00  0.00    -0.248 NA
ATOM     62  C   UNL A   1      41.716  30.765  35.907  1.00  0.00     0.031 C 
ATOM     63  C   UNL A   1      43.540  29.033  31.386  1.00  0.00     0.029 A 
ATOM     64  C   UNL A   1      42.800  28.209  32.218  1.00  0.00     0.049 A 
ATOM     65  H   UNL A   1      41.483  26.647  31.694  1.00  0.00     0.167 HD
ATOM     66  C   UNL A   1      42.545  29.277  34.360  1.00  0.00     0.074 A 
ATOM     67  C   UNL A   1      42.305  29.573  35.763  1.00  0.00     0.031 C 
ATOM     68  C   UNL A   1      42.646  28.111  33.665  1.00  0.00     0.034 A 
BRANCH  55  69
ATOM     69  C   UNL A   1      42.030  26.486  27.714  1.00  0.00     0.023 A 
ATOM     70  C   UNL A   1      42.322  27.379  26.659  1.00  0.00     0.012 A 
ATOM     71  C   UNL A   1      42.265  25.115  27.440  1.00  0.00     0.148 A 
ATOM     72  C   UNL A   1      42.741  26.954  25.397  1.00  0.00     0.002 A 
ATOM     73  C   UNL A   1      42.655  24.682  26.167  1.00  0.00     0.091 A 
ATOM     74  F   UNL A   1      42.183  24.209  28.415  1.00  0.00    -0.205 F 
ATOM     75  C   UNL A   1      42.890  25.601  25.143  1.00  0.00     0.022 A 
BRANCH  73  76
ATOM     76  S   UNL A   1      42.869  22.942  25.743  1.00  0.00     0.127 S 
ATOM     77  O   UNL A   1      43.945  22.533  26.650  1.00  0.00    -0.237 OA
ATOM     78  O   UNL A   1      41.559  22.380  26.068  1.00  0.00    -0.237 OA
ATOM     79  O   UNL A   1      43.232  22.901  24.332  1.00  0.00    -0.744 OA
ENDBRANCH  73  76
ENDBRANCH  55  69
BRANCH  56  80
ATOM     80  C   UNL A   1      39.525  32.452  34.822  1.00  0.00     0.023 A 
ATOM     81  C   UNL A   1      39.572  33.628  35.537  1.00  0.00     0.012 A 
ATOM     82  C   UNL A   1      38.338  32.091  34.157  1.00  0.00     0.148 A 
ATOM     83  C   UNL A   1      38.882  34.660  34.952  1.00  0.00     0.002 A 
ATOM     84  C   UNL A   1      37.513  33.100  33.726  1.00  0.00     0.091 A 
ATOM     85  F   UNL A   1      38.096  30.799  33.896  1.00  0.00    -0.205 F 
ATOM     86  C   UNL A   1      37.920  34.412  33.958  1.00  0.00     0.022 A 
BRANCH  84  87
ATOM     87  S   UNL A   1      35.948  32.749  32.955  1.00  0.00     0.127 S 
ATOM     88  O   UNL A   1      36.046  31.312  32.713  1.00  0.00    -0.237 OA
ATOM     89  O   UNL A   1      34.976  33.094  33.994  1.00  0.00    -0.237 OA
ATOM     90  O   UNL A   1      35.919  33.601  31.777  1.00  0.00    -0.744 OA
ENDBRANCH  84  87
ENDBRANCH  56  80
BRANCH  68  91
ATOM     91  C   UNL A   1      42.646  26.789  34.361  1.00  0.00     0.023 A 
ATOM     92  C   UNL A   1      41.519  26.270  35.029  1.00  0.00     0.012 A 
ATOM     93  C   UNL A   1      43.822  26.017  34.366  1.00  0.00     0.148 A 
ATOM     94  C   UNL A   1      41.624  25.160  35.865  1.00  0.00     0.002 A 
ATOM     95  C   UNL A   1      43.876  24.832  35.075  1.00  0.00     0.091 A 
ATOM     96  F   UNL A   1      44.912  26.460  33.726  1.00  0.00    -0.205 F 
ATOM     97  C   UNL A   1      42.810  24.440  35.889  1.00  0.00     0.022 A 
BRANCH  95  98
ATOM     98  S   UNL A   1      45.269  23.725  34.895  1.00  0.00     0.127 S 
ATOM     99  O   UNL A   1      46.362  24.533  35.430  1.00  0.00    -0.237 OA
ATOM    100  O   UNL A   1      44.873  22.595  35.735  1.00  0.00    -0.237 OA
ATOM    101  O   UNL A   1      45.339  23.416  33.472  1.00  0.00    -0.744 OA
ENDBRANCH  95  98
ENDBRANCH  68  91
ENDBRANCH  42  43
ENDBRANCH  34  37
ENDBRANCH  32  33
ENDBRANCH  31  32
ENDBRANCH   1  31
TORSDOF 18
ENDMDL
MODEL 2
REMARK VINA RESULT:     -14.0      2.788      4.046
REMARK SMILES Cc1ccccc1NC(=S)NN1C(=O)CS[C@H]1c1ccccc1C(=O)NCCCNC(=O)c1ccc(-c2c3nc(c(-c4cccc(S(=O)(=O)[O-])c4F)c4ccc([nH]4)c(-c4cccc(S(=O)(=O)[O-])c4F)c4nc(c(-c5cccc(S(=O)(=O)[O-])c5F)c5ccc2[nH]5)C=C4)C=C3)cc1
REMARK SMILES IDX 27 1 26 2 24 3 25 4 23 6 18 7 19 8 20 9 22 10 21 11 17 12
REMARK SMILES IDX 12 13 13 14 14 15 15 16 16 17 11 18 9 20 10 21 8 22 7 24
REMARK SMILES IDX 1 25 2 26 3 27 4 28 6 29 5 30 28 31 29 32 30 33 31 34 32 36
REMARK SMILES IDX 33 37 34 38 95 39 35 40 94 41 36 42 37 43 38 44 88 45 39 46
REMARK SMILES IDX 93 47 87 48 89 49 40 50 92 51 86 52 85 53 41 55 73 56 53 57
REMARK SMILES IDX 72 58 54 59 57 60 71 61 90 62 55 63 56 64 70 66 91 67 58 68
REMARK SMILES IDX 42 69 43 70 51 71 44 72 46 73 52 74 45 75 47 76 48 77 49 78
REMARK SMILES IDX 50 79 74 80 75 81 83 82 76 83 78 84 84 85 77 86 79 87 80 88
REMARK SMILES IDX 81 89 82 90 59 91 60 92 68 93 61 94 63 95 69 96 62 97 64 98
REMARK SMILES IDX 65 99 66 100 67 101
REMARK H PARENT 26 5 11 19 8 23 30 35 89 54 57 65
REMARK Flexibility Score: inf
ROOT
ATOM      1  C   UNL A   1      32.466  30.359  27.041  1.00  0.00     0.118 C 
ENDROOT
BRANCH   1   2
ATOM      2  N   UNL A   1      33.043  29.975  25.232  1.00  0.00    -0.352 N 
ATOM      3  C   UNL A   1      33.357  28.516  24.576  1.00  0.00     0.251 C 
ATOM      4  O   UNL A   1      33.953  28.496  23.495  1.00  0.00    -0.269 OA
ATOM      5  H   UNL A   1      33.160  30.752  24.639  1.00  0.00     0.163 HD
BRANCH   3   6
ATOM      6  C   UNL A   1      32.910  26.952  25.275  1.00  0.00     0.046 A 
ATOM      7  C   UNL A   1      31.551  26.265  25.184  1.00  0.00    -0.001 A 
ATOM      8  C   UNL A   1      31.362  24.943  25.589  1.00  0.00     0.007 A 
ATOM      9  C   UNL A   1      32.440  24.247  26.122  1.00  0.00     0.000 A 
ATOM     10  C   UNL A   1      33.934  26.200  25.860  1.00  0.00     0.014 A 
ATOM     11  C   UNL A   1      33.691  24.869  26.279  1.00  0.00     0.001 A 
BRANCH   7  12
ATOM     12  C   UNL A   1      30.333  27.132  24.875  1.00  0.00     0.197 C 
ATOM     13  N   UNL A   1      30.902  27.616  23.620  1.00  0.00    -0.236 N 
ATOM     14  C   UNL A   1      30.297  29.112  22.583  1.00  0.00     0.252 C 
ATOM     15  O   UNL A   1      30.956  29.953  22.011  1.00  0.00    -0.272 OA
ATOM     16  C   UNL A   1      28.223  28.478  22.524  1.00  0.00     0.174 C 
ATOM     17  S   UNL A   1      28.327  26.671  24.118  1.00  0.00    -0.120 SA
BRANCH  13  18
ATOM     18  N   UNL A   1      30.840  25.836  22.832  1.00  0.00    -0.270 N 
ATOM     19  H   UNL A   1      29.928  25.468  22.867  1.00  0.00     0.191 HD
BRANCH  18  20
ATOM     20  C   UNL A   1      31.776  24.866  22.188  1.00  0.00     0.189 C 
ATOM     21  S   UNL A   1      32.702  25.479  20.916  1.00  0.00    -0.039 S 
BRANCH  20  22
ATOM     22  N   UNL A   1      31.801  23.471  22.375  1.00  0.00    -0.331 N 
ATOM     23  H   UNL A   1      30.915  23.053  22.268  1.00  0.00     0.169 HD
BRANCH  22  24
ATOM     24  C   UNL A   1      32.873  22.489  22.698  1.00  0.00     0.043 A 
ATOM     25  C   UNL A   1      32.216  19.975  22.681  1.00  0.00     0.046 C 
ATOM     26  C   UNL A   1      32.596  21.282  23.402  1.00  0.00    -0.028 A 
ATOM     27  C   UNL A   1      33.287  20.955  24.590  1.00  0.00     0.005 A 
ATOM     28  C   UNL A   1      34.493  21.565  24.843  1.00  0.00     0.000 A 
ATOM     29  C   UNL A   1      34.185  22.925  22.817  1.00  0.00     0.026 A 
ATOM     30  C   UNL A   1      34.985  22.465  23.894  1.00  0.00     0.002 A 
ENDBRANCH  22  24
ENDBRANCH  20  22
ENDBRANCH  18  20
ENDBRANCH  13  18
ENDBRANCH   7  12
ENDBRANCH   3   6
ENDBRANCH   1   2
BRANCH   1  31
ATOM     31  C   UNL A   1      33.412  32.206  27.908  1.00  0.00     0.042 C 
BRANCH  31  32
ATOM     32  C   UNL A   1      35.308  32.252  27.815  1.00  0.00     0.118 C 
BRANCH  32  33
ATOM     33  N   UNL A   1      35.996  31.018  28.315  1.00  0.00    -0.352 N 
ATOM     34  C   UNL A   1      36.269  29.799  27.728  1.00  0.00     0.251 C 
ATOM     35  H   UNL A   1      36.314  31.092  29.244  1.00  0.00     0.163 HD
ATOM     36  O   UNL A   1      35.457  29.045  27.230  1.00  0.00    -0.269 OA
BRANCH  34  37
ATOM     37  C   UNL A   1      37.745  29.557  27.879  1.00  0.00     0.039 A 
ATOM     38  C   UNL A   1      38.699  29.708  26.885  1.00  0.00     0.014 A 
ATOM     39  C   UNL A   1      38.049  28.811  29.029  1.00  0.00     0.014 A 
ATOM     40  C   UNL A   1      39.890  28.977  27.008  1.00  0.00     0.010 A 
ATOM     41  C   UNL A   1      39.096  27.928  29.026  1.00  0.00     0.010 A 
ATOM     42  C   UNL A   1      40.018  27.989  27.995  1.00  0.00    -0.014 A 
BRANCH  42  43
ATOM     43  C   UNL A   1      41.264  27.320  28.337  1.00  0.00     0.031 A 
ATOM     44  C   UNL A   1      41.181  25.854  28.216  1.00  0.00     0.074 A 
ATOM     45  C   UNL A   1      42.427  27.981  28.528  1.00  0.00     0.049 A 
ATOM     46  N   UNL A   1      41.776  25.023  28.996  1.00  0.00    -0.248 NA
ATOM     47  C   UNL A   1      40.228  25.213  27.292  1.00  0.00     0.031 C 
ATOM     48  C   UNL A   1      43.780  27.503  28.270  1.00  0.00     0.029 A 
ATOM     49  N   UNL A   1      42.639  29.253  29.068  1.00  0.00    -0.354 N 
ATOM     50  C   UNL A   1      41.571  23.788  28.415  1.00  0.00     0.074 A 
ATOM     51  C   UNL A   1      40.389  23.932  27.615  1.00  0.00     0.031 C 
ATOM     52  C   UNL A   1      44.661  28.337  28.854  1.00  0.00     0.029 A 
ATOM     53  C   UNL A   1      43.907  29.255  29.686  1.00  0.00     0.049 A 
ATOM     54  H   UNL A   1      42.013  30.012  29.026  1.00  0.00     0.167 HD
ATOM     55  C   UNL A   1      42.617  22.920  28.339  1.00  0.00     0.034 A 
ATOM     56  C   UNL A   1      44.142  29.486  31.021  1.00  0.00     0.034 A 
ATOM     57  C   UNL A   1      43.800  23.518  28.980  1.00  0.00     0.049 A 
ATOM     58  C   UNL A   1      44.914  28.449  31.739  1.00  0.00     0.074 A 
ATOM     59  C   UNL A   1      44.879  24.201  28.442  1.00  0.00     0.029 A 
ATOM     60  N   UNL A   1      43.797  23.796  30.340  1.00  0.00    -0.354 N 
ATOM     61  N   UNL A   1      45.249  27.319  31.210  1.00  0.00    -0.248 NA
ATOM     62  C   UNL A   1      45.149  28.524  33.179  1.00  0.00     0.031 C 
ATOM     63  C   UNL A   1      45.511  24.915  29.490  1.00  0.00     0.029 A 
ATOM     64  C   UNL A   1      44.832  24.660  30.670  1.00  0.00     0.049 A 
ATOM     65  H   UNL A   1      43.148  23.431  30.984  1.00  0.00     0.167 HD
ATOM     66  C   UNL A   1      45.291  26.429  32.239  1.00  0.00     0.074 A 
ATOM     67  C   UNL A   1      45.441  27.243  33.433  1.00  0.00     0.031 C 
ATOM     68  C   UNL A   1      44.997  25.114  32.047  1.00  0.00     0.034 A 
BRANCH  55  69
ATOM     69  C   UNL A   1      42.727  21.765  27.349  1.00  0.00     0.023 A 
ATOM     70  C   UNL A   1      41.812  20.705  27.533  1.00  0.00     0.012 A 
ATOM     71  C   UNL A   1      43.645  21.606  26.281  1.00  0.00     0.148 A 
ATOM     72  C   UNL A   1      41.843  19.533  26.774  1.00  0.00     0.002 A 
ATOM     73  C   UNL A   1      43.700  20.420  25.538  1.00  0.00     0.091 A 
ATOM     74  F   UNL A   1      44.437  22.614  25.915  1.00  0.00    -0.205 F 
ATOM     75  C   UNL A   1      42.801  19.381  25.787  1.00  0.00     0.022 A 
BRANCH  73  76
ATOM     76  S   UNL A   1      44.916  20.130  24.237  1.00  0.00     0.127 S 
ATOM     77  O   UNL A   1      46.179  20.390  24.932  1.00  0.00    -0.237 OA
ATOM     78  O   UNL A   1      44.687  18.725  23.906  1.00  0.00    -0.237 OA
ATOM     79  O   UNL A   1      44.617  21.078  23.171  1.00  0.00    -0.744 OA
ENDBRANCH  73  76
ENDBRANCH  55  69
BRANCH  56  80
ATOM     80  C   UNL A   1      43.147  30.257  31.833  1.00  0.00     0.023 A 
ATOM     81  C   UNL A   1      42.681  31.333  31.111  1.00  0.00     0.012 A 
ATOM     82  C   UNL A   1      42.245  29.489  32.594  1.00  0.00     0.148 A 
ATOM     83  C   UNL A   1      41.450  31.128  30.541  1.00  0.00     0.002 A 
ATOM     84  C   UNL A   1      40.943  29.418  32.163  1.00  0.00     0.091 A 
ATOM     85  F   UNL A   1      42.696  28.797  33.648  1.00  0.00    -0.205 F 
ATOM     86  C   UNL A   1      40.611  30.094  30.991  1.00  0.00     0.022 A 
BRANCH  84  87
ATOM     87  S   UNL A   1      39.706  28.548  33.102  1.00  0.00     0.127 S 
ATOM     88  O   UNL A   1      40.520  27.800  34.056  1.00  0.00    -0.237 OA
ATOM     89  O   UNL A   1      38.935  29.626  33.722  1.00  0.00    -0.237 OA
ATOM     90  O   UNL A   1      38.983  27.762  32.116  1.00  0.00    -0.744 OA
ENDBRANCH  84  87
ENDBRANCH  56  80
BRANCH  68  91
ATOM     91  C   UNL A   1      44.894  24.165  33.198  1.00  0.00     0.023 A 
ATOM     92  C   UNL A   1      43.668  23.652  33.665  1.00  0.00     0.012 A 
ATOM     93  C   UNL A   1      46.067  23.762  33.860  1.00  0.00     0.148 A 
ATOM     94  C   UNL A   1      43.587  22.970  34.877  1.00  0.00     0.002 A 
ATOM     95  C   UNL A   1      45.994  22.955  34.980  1.00  0.00     0.091 A 
ATOM     96  F   UNL A   1      47.258  24.207  33.438  1.00  0.00    -0.205 F 
ATOM     97  C   UNL A   1      44.757  22.623  35.539  1.00  0.00     0.022 A 
BRANCH  95  98
ATOM     98  S   UNL A   1      47.473  22.239  35.685  1.00  0.00     0.127 S 
ATOM     99  O   UNL A   1      47.763  21.164  34.738  1.00  0.00    -0.237 OA
ATOM    100  O   UNL A   1      48.408  23.363  35.642  1.00  0.00    -0.237 OA
ATOM    101  O   UNL A   1      47.101  21.823  37.031  1.00  0.00    -0.744 OA
ENDBRANCH  95  98
ENDBRANCH  68  91
ENDBRANCH  42  43
ENDBRANCH  34  37
ENDBRANCH  32  33
ENDBRANCH  31  32
ENDBRANCH   1  31
TORSDOF 18
ENDMDL
MODEL 3
REMARK VINA RESULT:     -14.0      1.592      2.740
REMARK SMILES Cc1ccccc1NC(=S)NN1C(=O)CS[C@H]1c1ccccc1C(=O)NCCCNC(=O)c1ccc(-c2c3nc(c(-c4cccc(S(=O)(=O)[O-])c4F)c4ccc([nH]4)c(-c4cccc(S(=O)(=O)[O-])c4F)c4nc(c(-c5cccc(S(=O)(=O)[O-])c5F)c5ccc2[nH]5)C=C4)C=C3)cc1
REMARK SMILES IDX 27 1 26 2 24 3 25 4 23 6 18 7 19 8 20 9 22 10 21 11 17 12
REMARK SMILES IDX 12 13 13 14 14 15 15 16 16 17 11 18 9 20 10 21 8 22 7 24
REMARK SMILES IDX 1 25 2 26 3 27 4 28 6 29 5 30 28 31 29 32 30 33 31 34 32 36
REMARK SMILES IDX 33 37 34 38 95 39 35 40 94 41 36 42 37 43 38 44 88 45 39 46
REMARK SMILES IDX 93 47 87 48 89 49 40 50 92 51 86 52 85 53 41 55 73 56 53 57
REMARK SMILES IDX 72 58 54 59 57 60 71 61 90 62 55 63 56 64 70 66 91 67 58 68
REMARK SMILES IDX 42 69 43 70 51 71 44 72 46 73 52 74 45 75 47 76 48 77 49 78
REMARK SMILES IDX 50 79 74 80 75 81 83 82 76 83 78 84 84 85 77 86 79 87 80 88
REMARK SMILES IDX 81 89 82 90 59 91 60 92 68 93 61 94 63 95 69 96 62 97 64 98
REMARK SMILES IDX 65 99 66 100 67 101
REMARK H PARENT 26 5 11 19 8 23 30 35 89 54 57 65
REMARK Flexibility Score: inf
ROOT
ATOM      1  C   UNL A   1      32.883  29.504  26.402  1.00  0.00     0.118 C 
ENDROOT
BRANCH   1   2
ATOM      2  N   UNL A   1      32.322  27.807  27.148  1.00  0.00    -0.352 N 
ATOM      3  C   UNL A   1      31.888  26.459  26.339  1.00  0.00     0.251 C 
ATOM      4  O   UNL A   1      31.323  25.570  26.982  1.00  0.00    -0.269 OA
ATOM      5  H   UNL A   1      32.295  27.751  28.130  1.00  0.00     0.163 HD
BRANCH   3   6
ATOM      6  C   UNL A   1      32.167  26.153  24.618  1.00  0.00     0.046 A 
ATOM      7  C   UNL A   1      33.038  25.057  24.013  1.00  0.00    -0.001 A 
ATOM      8  C   UNL A   1      33.025  24.771  22.647  1.00  0.00     0.007 A 
ATOM      9  C   UNL A   1      32.218  25.535  21.812  1.00  0.00     0.000 A 
ATOM     10  C   UNL A   1      31.414  26.903  23.708  1.00  0.00     0.014 A 
ATOM     11  C   UNL A   1      31.449  26.593  22.327  1.00  0.00     0.001 A 
BRANCH   7  12
ATOM     12  C   UNL A   1      34.121  24.439  24.894  1.00  0.00     0.197 C 
ATOM     13  N   UNL A   1      33.155  23.658  25.663  1.00  0.00    -0.236 N 
ATOM     14  C   UNL A   1      33.462  22.772  27.336  1.00  0.00     0.252 C 
ATOM     15  O   UNL A   1      32.733  22.703  28.302  1.00  0.00    -0.272 OA
ATOM     16  C   UNL A   1      35.245  21.728  26.677  1.00  0.00     0.174 C 
ATOM     17  S   UNL A   1      35.581  22.837  24.561  1.00  0.00    -0.120 SA
BRANCH  13  18
ATOM     18  N   UNL A   1      32.683  22.589  24.104  1.00  0.00    -0.270 N 
ATOM     19  H   UNL A   1      32.586  23.157  23.306  1.00  0.00     0.191 HD
BRANCH  18  20
ATOM     20  C   UNL A   1      32.427  21.157  23.768  1.00  0.00     0.189 C 
ATOM     21  S   UNL A   1      32.044  20.841  22.154  1.00  0.00    -0.039 S 
BRANCH  20  22
ATOM     22  N   UNL A   1      32.250  20.099  24.679  1.00  0.00    -0.331 N 
ATOM     23  H   UNL A   1      31.411  20.169  25.192  1.00  0.00     0.169 HD
BRANCH  22  24
ATOM     24  C   UNL A   1      33.052  18.896  25.038  1.00  0.00     0.043 A 
ATOM     25  C   UNL A   1      35.611  19.009  24.595  1.00  0.00     0.046 C 
ATOM     26  C   UNL A   1      34.191  18.502  24.278  1.00  0.00    -0.028 A 
ATOM     27  C   UNL A   1      34.290  17.202  23.734  1.00  0.00     0.005 A 
ATOM     28  C   UNL A   1      33.516  16.200  24.270  1.00  0.00     0.000 A 
ATOM     29  C   UNL A   1      32.454  17.860  25.740  1.00  0.00     0.026 A 
ATOM     30  C   UNL A   1      32.683  16.517  25.347  1.00  0.00     0.002 A 
ENDBRANCH  22  24
ENDBRANCH  20  22
ENDBRANCH  18  20
ENDBRANCH  13  18
ENDBRANCH   7  12
ENDBRANCH   3   6
ENDBRANCH   1   2
BRANCH   1  31
ATOM     31  C   UNL A   1      31.744  31.262  27.221  1.00  0.00     0.042 C 
BRANCH  31  32
ATOM     32  C   UNL A   1      32.516  32.957  26.852  1.00  0.00     0.118 C 
BRANCH  32  33
ATOM     33  N   UNL A   1      33.859  33.189  27.476  1.00  0.00    -0.352 N 
ATOM     34  C   UNL A   1      34.263  33.367  28.783  1.00  0.00     0.251 C 
ATOM     35  H   UNL A   1      34.597  33.221  26.825  1.00  0.00     0.163 HD
ATOM     36  O   UNL A   1      33.852  34.213  29.552  1.00  0.00    -0.269 OA
BRANCH  34  37
ATOM     37  C   UNL A   1      35.347  32.360  29.052  1.00  0.00     0.039 A 
ATOM     38  C   UNL A   1      35.278  31.316  29.961  1.00  0.00     0.014 A 
ATOM     39  C   UNL A   1      36.594  32.775  28.560  1.00  0.00     0.014 A 
ATOM     40  C   UNL A   1      36.486  30.810  30.464  1.00  0.00     0.010 A 
ATOM     41  C   UNL A   1      37.746  32.445  29.223  1.00  0.00     0.010 A 
ATOM     42  C   UNL A   1      37.696  31.469  30.205  1.00  0.00    -0.014 A 
BRANCH  42  43
ATOM     43  C   UNL A   1      39.012  30.928  30.505  1.00  0.00     0.031 A 
ATOM     44  C   UNL A   1      39.265  29.632  29.850  1.00  0.00     0.074 A 
ATOM     45  C   UNL A   1      39.976  31.639  31.132  1.00  0.00     0.049 A 
ATOM     46  N   UNL A   1      39.938  28.670  30.373  1.00  0.00    -0.248 NA
ATOM     47  C   UNL A   1      38.580  29.260  28.600  1.00  0.00     0.031 C 
ATOM     48  C   UNL A   1      41.420  31.523  30.972  1.00  0.00     0.029 A 
ATOM     49  N   UNL A   1      39.844  32.616  32.125  1.00  0.00    -0.354 N 
ATOM     50  C   UNL A   1      40.071  27.744  29.359  1.00  0.00     0.074 A 
ATOM     51  C   UNL A   1      38.980  27.997  28.462  1.00  0.00     0.031 C 
ATOM     52  C   UNL A   1      42.029  32.192  31.969  1.00  0.00     0.029 A 
ATOM     53  C   UNL A   1      41.007  32.579  32.922  1.00  0.00     0.049 A 
ATOM     54  H   UNL A   1      39.077  33.220  32.245  1.00  0.00     0.167 HD
ATOM     55  C   UNL A   1      41.283  27.155  29.168  1.00  0.00     0.034 A 
ATOM     56  C   UNL A   1      41.040  32.305  34.270  1.00  0.00     0.034 A 
ATOM     57  C   UNL A   1      42.230  27.635  30.187  1.00  0.00     0.049 A 
ATOM     58  C   UNL A   1      41.936  31.209  34.694  1.00  0.00     0.074 A 
ATOM     59  C   UNL A   1      43.186  28.638  30.140  1.00  0.00     0.029 A 
ATOM     60  N   UNL A   1      42.019  27.357  31.530  1.00  0.00    -0.354 N 
ATOM     61  N   UNL A   1      42.565  30.444  33.863  1.00  0.00    -0.248 NA
ATOM     62  C   UNL A   1      41.992  30.752  36.081  1.00  0.00     0.031 C 
ATOM     63  C   UNL A   1      43.530  28.977  31.471  1.00  0.00     0.029 A 
ATOM     64  C   UNL A   1      42.799  28.177  32.334  1.00  0.00     0.049 A 
ATOM     65  H   UNL A   1      41.399  26.670  31.868  1.00  0.00     0.167 HD
ATOM     66  C   UNL A   1      42.687  29.242  34.491  1.00  0.00     0.074 A 
ATOM     67  C   UNL A   1      42.526  29.539  35.904  1.00  0.00     0.031 C 
ATOM     68  C   UNL A   1      42.710  28.077  33.787  1.00  0.00     0.034 A 
BRANCH  55  69
ATOM     69  C   UNL A   1      41.749  26.511  27.866  1.00  0.00     0.023 A 
ATOM     70  C   UNL A   1      41.856  27.375  26.753  1.00  0.00     0.012 A 
ATOM     71  C   UNL A   1      42.064  25.151  27.620  1.00  0.00     0.148 A 
ATOM     72  C   UNL A   1      42.175  26.925  25.470  1.00  0.00     0.002 A 
ATOM     73  C   UNL A   1      42.354  24.691  26.330  1.00  0.00     0.091 A 
ATOM     74  F   UNL A   1      42.157  24.287  28.631  1.00  0.00    -0.205 F 
ATOM     75  C   UNL A   1      42.406  25.578  25.253  1.00  0.00     0.022 A 
BRANCH  73  76
ATOM     76  S   UNL A   1      42.662  22.955  25.950  1.00  0.00     0.127 S 
ATOM     77  O   UNL A   1      41.359  22.343  26.224  1.00  0.00    -0.237 OA
ATOM     78  O   UNL A   1      43.021  23.006  24.534  1.00  0.00    -0.237 OA
ATOM     79  O   UNL A   1      43.725  22.517  26.847  1.00  0.00    -0.744 OA
ENDBRANCH  73  76
ENDBRANCH  55  69
BRANCH  56  80
ATOM     80  C   UNL A   1      39.818  32.528  35.108  1.00  0.00     0.023 A 
ATOM     81  C   UNL A   1      40.077  33.473  36.078  1.00  0.00     0.012 A 
ATOM     82  C   UNL A   1      38.594  32.563  34.415  1.00  0.00     0.148 A 
ATOM     83  C   UNL A   1      39.603  34.723  35.774  1.00  0.00     0.002 A 
ATOM     84  C   UNL A   1      37.980  33.782  34.260  1.00  0.00     0.091 A 
ATOM     85  F   UNL A   1      38.116  31.438  33.867  1.00  0.00    -0.205 F 
ATOM     86  C   UNL A   1      38.624  34.902  34.780  1.00  0.00     0.022 A 
BRANCH  84  87
ATOM     87  S   UNL A   1      36.387  33.920  33.479  1.00  0.00     0.127 S 
ATOM     88  O   UNL A   1      36.742  33.912  32.063  1.00  0.00    -0.237 OA
ATOM     89  O   UNL A   1      35.695  32.704  33.907  1.00  0.00    -0.237 OA
ATOM     90  O   UNL A   1      35.831  35.160  33.997  1.00  0.00    -0.744 OA
ENDBRANCH  84  87
ENDBRANCH  56  80
BRANCH  68  91
ATOM     91  C   UNL A   1      42.692  26.752  34.477  1.00  0.00     0.023 A 
ATOM     92  C   UNL A   1      41.535  26.208  35.070  1.00  0.00     0.012 A 
ATOM     93  C   UNL A   1      43.880  26.003  34.555  1.00  0.00     0.148 A 
ATOM     94  C   UNL A   1      41.608  25.097  35.907  1.00  0.00     0.002 A 
ATOM     95  C   UNL A   1      43.912  24.816  35.261  1.00  0.00     0.091 A 
ATOM     96  F   UNL A   1      45.000  26.470  33.986  1.00  0.00    -0.205 F 
ATOM     97  C   UNL A   1      42.804  24.400  36.005  1.00  0.00     0.022 A 
BRANCH  95  98
ATOM     98  S   UNL A   1      45.335  23.737  35.166  1.00  0.00     0.127 S 
ATOM     99  O   UNL A   1      44.824  22.515  35.782  1.00  0.00    -0.237 OA
ATOM    100  O   UNL A   1      45.557  23.651  33.723  1.00  0.00    -0.237 OA
ATOM    101  O   UNL A   1      46.395  24.425  35.892  1.00  0.00    -0.744 OA
ENDBRANCH  95  98
ENDBRANCH  68  91
ENDBRANCH  42  43
ENDBRANCH  34  37
ENDBRANCH  32  33
ENDBRANCH  31  32
ENDBRANCH   1  31
TORSDOF 18
ENDMDL
