MODEL 1
REMARK VINA RESULT:     -11.6      0.000      0.000
REMARK SMILES O=C(/C=C/c1ccc(O)c(O)c1)NCCCNC(=O)c1ccc(-c2c3nc(c(-c4cccc(S(=O)(=O)[O-])c4F)c4ccc([nH]4)c(-c4cccc(S(=O)(=O)[O-])c4F)c4nc(c(-c5cccc(S(=O)(=O)[O-])c5F)c5ccc2[nH]5)C=C4)C=C3)cc1
REMARK SMILES IDX 15 1 14 2 13 3 1 4 2 5 3 7 4 8 5 9 6 10 12 11 7 12 10 13
REMARK SMILES IDX 8 14 11 15 9 17 16 19 17 20 18 21 19 23 20 24 21 25 82 26
REMARK SMILES IDX 22 27 81 28 23 29 24 30 25 31 75 32 26 33 80 34 74 35 76 36
REMARK SMILES IDX 27 37 79 38 73 39 72 40 28 42 60 43 40 44 59 45 41 46 44 47
REMARK SMILES IDX 58 48 77 49 42 50 43 51 57 53 78 54 45 55 29 56 30 57 38 58
REMARK SMILES IDX 31 59 33 60 39 61 32 62 34 63 35 64 36 65 37 66 61 67 62 68
REMARK SMILES IDX 70 69 63 70 65 71 71 72 64 73 66 74 67 75 68 76 69 77 46 78
REMARK SMILES IDX 47 79 55 80 48 81 50 82 56 83 49 84 51 85 52 86 53 87 54 88
REMARK H PARENT 13 6 11 16 9 18 17 22 76 41 44 52
REMARK Flexibility Score: inf
ROOT
ATOM      1  C   UNL A   1      34.251  28.004  26.569  1.00  0.00     0.042 C 
ENDROOT
BRANCH   1   2
ATOM      2  C   UNL A   1      33.582  27.397  25.341  1.00  0.00     0.118 C 
BRANCH   2   3
ATOM      3  N   UNL A   1      32.831  28.373  24.573  1.00  0.00    -0.352 N 
ATOM      4  O   UNL A   1      30.792  27.328  24.745  1.00  0.00    -0.270 OA
ATOM      5  C   UNL A   1      31.492  28.242  24.319  1.00  0.00     0.244 C 
ATOM      6  H   UNL A   1      33.303  29.160  24.220  1.00  0.00     0.163 HD
BRANCH   5   7
ATOM      7  C   UNL A   1      30.856  29.318  23.510  1.00  0.00     0.072 C 
ATOM      8  C   UNL A   1      29.544  29.471  23.270  1.00  0.00     0.014 C 
BRANCH   8   9
ATOM      9  C   UNL A   1      28.980  30.574  22.476  1.00  0.00    -0.022 A 
ATOM     10  C   UNL A   1      28.426  30.379  21.198  1.00  0.00     0.012 A 
ATOM     11  C   UNL A   1      28.928  31.850  23.051  1.00  0.00     0.058 A 
ATOM     12  C   UNL A   1      27.852  31.446  20.494  1.00  0.00     0.051 A 
ATOM     13  C   UNL A   1      28.355  32.902  22.348  1.00  0.00     0.157 A 
ATOM     14  C   UNL A   1      27.821  32.705  21.079  1.00  0.00     0.157 A 
BRANCH  13  15
ATOM     15  O   UNL A   1      28.315  34.139  22.923  1.00  0.00    -0.504 OA
ATOM     16  H   UNL A   1      28.990  34.400  23.518  1.00  0.00     0.293 HD
ENDBRANCH  13  15
BRANCH  14  17
ATOM     17  O   UNL A   1      27.265  33.782  20.446  1.00  0.00    -0.504 OA
ATOM     18  H   UNL A   1      27.646  34.631  20.543  1.00  0.00     0.293 HD
ENDBRANCH  14  17
ENDBRANCH   8   9
ENDBRANCH   5   7
ENDBRANCH   2   3
ENDBRANCH   1   2
BRANCH   1  19
ATOM     19  C   UNL A   1      33.315  28.758  27.511  1.00  0.00     0.118 C 
BRANCH  19  20
ATOM     20  N   UNL A   1      33.561  30.194  27.549  1.00  0.00    -0.352 N 
ATOM     21  C   UNL A   1      34.671  30.895  27.959  1.00  0.00     0.251 C 
ATOM     22  H   UNL A   1      32.814  30.751  27.232  1.00  0.00     0.163 HD
ATOM     23  O   UNL A   1      34.616  32.122  28.019  1.00  0.00    -0.269 OA
BRANCH  21  24
ATOM     24  C   UNL A   1      35.914  30.195  28.355  1.00  0.00     0.039 A 
ATOM     25  C   UNL A   1      36.986  30.175  27.457  1.00  0.00     0.014 A 
ATOM     26  C   UNL A   1      36.032  29.556  29.591  1.00  0.00     0.014 A 
ATOM     27  C   UNL A   1      38.200  29.591  27.832  1.00  0.00     0.010 A 
ATOM     28  C   UNL A   1      37.263  29.035  29.990  1.00  0.00     0.010 A 
ATOM     29  C   UNL A   1      38.365  29.059  29.121  1.00  0.00    -0.014 A 
BRANCH  29  30
ATOM     30  C   UNL A   1      39.692  28.583  29.595  1.00  0.00     0.031 A 
ATOM     31  C   UNL A   1      40.440  29.324  30.669  1.00  0.00     0.074 A 
ATOM     32  C   UNL A   1      40.272  27.530  28.983  1.00  0.00     0.049 A 
ATOM     33  N   UNL A   1      41.638  29.097  31.147  1.00  0.00    -0.248 NA
ATOM     34  C   UNL A   1      39.765  30.483  31.273  1.00  0.00     0.031 C 
ATOM     35  C   UNL A   1      39.684  26.764  27.881  1.00  0.00     0.029 A 
ATOM     36  N   UNL A   1      41.498  26.941  29.175  1.00  0.00    -0.354 N 
ATOM     37  C   UNL A   1      41.875  30.100  32.079  1.00  0.00     0.074 A 
ATOM     38  C   UNL A   1      40.705  30.952  32.083  1.00  0.00     0.031 C 
ATOM     39  C   UNL A   1      40.548  25.813  27.495  1.00  0.00     0.029 A 
ATOM     40  C   UNL A   1      41.766  25.923  28.289  1.00  0.00     0.049 A 
ATOM     41  H   UNL A   1      42.126  27.221  29.881  1.00  0.00     0.167 HD
ATOM     42  C   UNL A   1      42.956  30.283  32.874  1.00  0.00     0.034 A 
ATOM     43  C   UNL A   1      42.874  25.174  28.116  1.00  0.00     0.034 A 
ATOM     44  C   UNL A   1      44.108  29.420  32.887  1.00  0.00     0.049 A 
ATOM     45  C   UNL A   1      44.059  25.397  29.017  1.00  0.00     0.074 A 
ATOM     46  C   UNL A   1      45.214  29.477  33.718  1.00  0.00     0.029 A 
ATOM     47  N   UNL A   1      44.317  28.358  32.020  1.00  0.00    -0.354 N 
ATOM     48  N   UNL A   1      44.198  26.251  30.002  1.00  0.00    -0.248 NA
ATOM     49  C   UNL A   1      45.229  24.532  28.801  1.00  0.00     0.031 C 
ATOM     50  C   UNL A   1      46.108  28.473  33.328  1.00  0.00     0.029 A 
ATOM     51  C   UNL A   1      45.543  27.767  32.280  1.00  0.00     0.049 A 
ATOM     52  H   UNL A   1      43.687  28.069  31.321  1.00  0.00     0.167 HD
ATOM     53  C   UNL A   1      45.456  26.006  30.542  1.00  0.00     0.074 A 
ATOM     54  C   UNL A   1      46.026  24.905  29.792  1.00  0.00     0.031 C 
ATOM     55  C   UNL A   1      46.087  26.645  31.557  1.00  0.00     0.034 A 
BRANCH  42  56
ATOM     56  C   UNL A   1      42.934  31.447  33.832  1.00  0.00     0.023 A 
ATOM     57  C   UNL A   1      43.469  32.690  33.434  1.00  0.00     0.012 A 
ATOM     58  C   UNL A   1      42.324  31.332  35.098  1.00  0.00     0.148 A 
ATOM     59  C   UNL A   1      43.430  33.788  34.292  1.00  0.00     0.002 A 
ATOM     60  C   UNL A   1      42.247  32.444  35.928  1.00  0.00     0.091 A 
ATOM     61  F   UNL A   1      41.835  30.140  35.466  1.00  0.00    -0.205 F 
ATOM     62  C   UNL A   1      42.811  33.669  35.533  1.00  0.00     0.022 A 
BRANCH  60  63
ATOM     63  S   UNL A   1      41.400  32.417  37.512  1.00  0.00     0.127 S 
ATOM     64  O   UNL A   1      42.235  31.492  38.277  1.00  0.00    -0.237 OA
ATOM     65  O   UNL A   1      41.494  33.814  37.934  1.00  0.00    -0.237 OA
ATOM     66  O   UNL A   1      40.047  31.953  37.237  1.00  0.00    -0.744 OA
ENDBRANCH  60  63
ENDBRANCH  42  56
BRANCH  43  67
ATOM     67  C   UNL A   1      42.902  24.115  27.068  1.00  0.00     0.023 A 
ATOM     68  C   UNL A   1      43.594  24.348  25.865  1.00  0.00     0.012 A 
ATOM     69  C   UNL A   1      42.264  22.874  27.264  1.00  0.00     0.148 A 
ATOM     70  C   UNL A   1      43.622  23.379  24.861  1.00  0.00     0.002 A 
ATOM     71  C   UNL A   1      42.345  21.892  26.285  1.00  0.00     0.091 A 
ATOM     72  F   UNL A   1      41.601  22.676  28.412  1.00  0.00    -0.205 F 
ATOM     73  C   UNL A   1      43.007  22.149  25.075  1.00  0.00     0.022 A 
BRANCH  71  74
ATOM     74  S   UNL A   1      41.697  20.234  26.525  1.00  0.00     0.127 S 
ATOM     75  O   UNL A   1      40.258  20.482  26.584  1.00  0.00    -0.237 OA
ATOM     76  O   UNL A   1      42.157  19.554  25.315  1.00  0.00    -0.237 OA
ATOM     77  O   UNL A   1      42.305  19.748  27.756  1.00  0.00    -0.744 OA
ENDBRANCH  71  74
ENDBRANCH  43  67
BRANCH  55  78
ATOM     78  C   UNL A   1      47.461  26.158  31.944  1.00  0.00     0.023 A 
ATOM     79  C   UNL A   1      48.598  26.665  31.284  1.00  0.00     0.012 A 
ATOM     80  C   UNL A   1      47.629  25.247  33.007  1.00  0.00     0.148 A 
ATOM     81  C   UNL A   1      49.877  26.246  31.649  1.00  0.00     0.002 A 
ATOM     82  C   UNL A   1      48.909  24.875  33.399  1.00  0.00     0.091 A 
ATOM     83  F   UNL A   1      46.535  24.763  33.612  1.00  0.00    -0.205 F 
ATOM     84  C   UNL A   1      50.033  25.362  32.713  1.00  0.00     0.022 A 
BRANCH  82  85
ATOM     85  S   UNL A   1      49.215  23.814  34.818  1.00  0.00     0.127 S 
ATOM     86  O   UNL A   1      50.675  23.773  34.850  1.00  0.00    -0.237 OA
ATOM     87  O   UNL A   1      48.602  24.574  35.908  1.00  0.00    -0.237 OA
ATOM     88  O   UNL A   1      48.562  22.546  34.522  1.00  0.00    -0.744 OA
ENDBRANCH  82  85
ENDBRANCH  55  78
ENDBRANCH  29  30
ENDBRANCH  21  24
ENDBRANCH  19  20
ENDBRANCH   1  19
TORSDOF 16
ENDMDL
MODEL 2
REMARK VINA RESULT:     -11.6      2.724      4.796
REMARK SMILES O=C(/C=C/c1ccc(O)c(O)c1)NCCCNC(=O)c1ccc(-c2c3nc(c(-c4cccc(S(=O)(=O)[O-])c4F)c4ccc([nH]4)c(-c4cccc(S(=O)(=O)[O-])c4F)c4nc(c(-c5cccc(S(=O)(=O)[O-])c5F)c5ccc2[nH]5)C=C4)C=C3)cc1
REMARK SMILES IDX 15 1 14 2 13 3 1 4 2 5 3 7 4 8 5 9 6 10 12 11 7 12 10 13
REMARK SMILES IDX 8 14 11 15 9 17 16 19 17 20 18 21 19 23 20 24 21 25 82 26
REMARK SMILES IDX 22 27 81 28 23 29 24 30 25 31 75 32 26 33 80 34 74 35 76 36
REMARK SMILES IDX 27 37 79 38 73 39 72 40 28 42 60 43 40 44 59 45 41 46 44 47
REMARK SMILES IDX 58 48 77 49 42 50 43 51 57 53 78 54 45 55 29 56 30 57 38 58
REMARK SMILES IDX 31 59 33 60 39 61 32 62 34 63 35 64 36 65 37 66 61 67 62 68
REMARK SMILES IDX 70 69 63 70 65 71 71 72 64 73 66 74 67 75 68 76 69 77 46 78
REMARK SMILES IDX 47 79 55 80 48 81 50 82 56 83 49 84 51 85 52 86 53 87 54 88
REMARK H PARENT 13 6 11 16 9 18 17 22 76 41 44 52
REMARK Flexibility Score: inf
ROOT
ATOM      1  C   UNL A   1      31.798  28.609  27.062  1.00  0.00     0.042 C 
ENDROOT
BRANCH   1   2
ATOM      2  C   UNL A   1      31.520  27.834  25.779  1.00  0.00     0.118 C 
BRANCH   2   3
ATOM      3  N   UNL A   1      32.374  26.670  25.632  1.00  0.00    -0.352 N 
ATOM      4  O   UNL A   1      31.070  25.232  26.861  1.00  0.00    -0.270 OA
ATOM      5  C   UNL A   1      32.085  25.463  26.210  1.00  0.00     0.244 C 
ATOM      6  H   UNL A   1      33.194  26.752  25.095  1.00  0.00     0.163 HD
BRANCH   5   7
ATOM      7  C   UNL A   1      33.058  24.361  25.979  1.00  0.00     0.072 C 
ATOM      8  C   UNL A   1      34.392  24.476  25.879  1.00  0.00     0.014 C 
BRANCH   8   9
ATOM      9  C   UNL A   1      35.300  23.338  25.670  1.00  0.00    -0.022 A 
ATOM     10  C   UNL A   1      34.843  22.070  25.266  1.00  0.00     0.012 A 
ATOM     11  C   UNL A   1      36.678  23.550  25.808  1.00  0.00     0.058 A 
ATOM     12  C   UNL A   1      35.744  21.025  25.027  1.00  0.00     0.051 A 
ATOM     13  C   UNL A   1      37.565  22.509  25.566  1.00  0.00     0.157 A 
ATOM     14  C   UNL A   1      37.105  21.254  25.180  1.00  0.00     0.157 A 
BRANCH  13  15
ATOM     15  O   UNL A   1      38.903  22.733  25.708  1.00  0.00    -0.504 OA
ATOM     16  H   UNL A   1      39.335  22.500  26.507  1.00  0.00     0.293 HD
ENDBRANCH  13  15
BRANCH  14  17
ATOM     17  O   UNL A   1      38.033  20.277  24.952  1.00  0.00    -0.504 OA
ATOM     18  H   UNL A   1      38.913  20.387  25.250  1.00  0.00     0.293 HD
ENDBRANCH  14  17
ENDBRANCH   8   9
ENDBRANCH   5   7
ENDBRANCH   2   3
ENDBRANCH   1   2
BRANCH   1  19
ATOM     19  C   UNL A   1      33.264  28.968  27.298  1.00  0.00     0.118 C 
BRANCH  19  20
ATOM     20  N   UNL A   1      33.495  30.398  27.458  1.00  0.00    -0.352 N 
ATOM     21  C   UNL A   1      34.575  31.071  27.976  1.00  0.00     0.251 C 
ATOM     22  H   UNL A   1      32.760  30.973  27.146  1.00  0.00     0.163 HD
ATOM     23  O   UNL A   1      34.507  32.289  28.128  1.00  0.00    -0.269 OA
BRANCH  21  24
ATOM     24  C   UNL A   1      35.803  30.350  28.382  1.00  0.00     0.039 A 
ATOM     25  C   UNL A   1      36.889  30.330  27.501  1.00  0.00     0.014 A 
ATOM     26  C   UNL A   1      35.894  29.691  29.610  1.00  0.00     0.014 A 
ATOM     27  C   UNL A   1      38.089  29.725  27.886  1.00  0.00     0.010 A 
ATOM     28  C   UNL A   1      37.112  29.149  30.020  1.00  0.00     0.010 A 
ATOM     29  C   UNL A   1      38.227  29.172  29.169  1.00  0.00    -0.014 A 
BRANCH  29  30
ATOM     30  C   UNL A   1      39.541  28.672  29.657  1.00  0.00     0.031 A 
ATOM     31  C   UNL A   1      40.293  29.401  30.736  1.00  0.00     0.074 A 
ATOM     32  C   UNL A   1      40.107  27.607  29.052  1.00  0.00     0.049 A 
ATOM     33  N   UNL A   1      41.481  29.153  31.226  1.00  0.00    -0.248 NA
ATOM     34  C   UNL A   1      39.634  30.575  31.331  1.00  0.00     0.031 C 
ATOM     35  C   UNL A   1      39.515  26.850  27.947  1.00  0.00     0.029 A 
ATOM     36  N   UNL A   1      41.319  26.995  29.258  1.00  0.00    -0.354 N 
ATOM     37  C   UNL A   1      41.728  30.154  32.158  1.00  0.00     0.074 A 
ATOM     38  C   UNL A   1      40.575  31.027  32.149  1.00  0.00     0.031 C 
ATOM     39  C   UNL A   1      40.364  25.881  27.571  1.00  0.00     0.029 A 
ATOM     40  C   UNL A   1      41.577  25.970  28.376  1.00  0.00     0.049 A 
ATOM     41  H   UNL A   1      41.946  27.265  29.968  1.00  0.00     0.167 HD
ATOM     42  C   UNL A   1      42.806  30.319  32.963  1.00  0.00     0.034 A 
ATOM     43  C   UNL A   1      42.672  25.201  28.216  1.00  0.00     0.034 A 
ATOM     44  C   UNL A   1      43.941  29.434  32.989  1.00  0.00     0.049 A 
ATOM     45  C   UNL A   1      43.852  25.403  29.127  1.00  0.00     0.074 A 
ATOM     46  C   UNL A   1      45.040  29.472  33.830  1.00  0.00     0.029 A 
ATOM     47  N   UNL A   1      44.138  28.366  32.126  1.00  0.00    -0.354 N 
ATOM     48  N   UNL A   1      43.998  26.256  30.111  1.00  0.00    -0.248 NA
ATOM     49  C   UNL A   1      45.008  24.516  28.924  1.00  0.00     0.031 C 
ATOM     50  C   UNL A   1      45.918  28.450  33.451  1.00  0.00     0.029 A 
ATOM     51  C   UNL A   1      45.350  27.753  32.399  1.00  0.00     0.049 A 
ATOM     52  H   UNL A   1      43.509  28.087  31.422  1.00  0.00     0.167 HD
ATOM     53  C   UNL A   1      45.246  25.990  30.664  1.00  0.00     0.074 A 
ATOM     54  C   UNL A   1      45.803  24.877  29.922  1.00  0.00     0.031 C 
ATOM     55  C   UNL A   1      45.880  26.619  31.684  1.00  0.00     0.034 A 
BRANCH  42  56
ATOM     56  C   UNL A   1      42.796  31.485  33.918  1.00  0.00     0.023 A 
ATOM     57  C   UNL A   1      43.343  32.721  33.516  1.00  0.00     0.012 A 
ATOM     58  C   UNL A   1      42.187  31.379  35.185  1.00  0.00     0.148 A 
ATOM     59  C   UNL A   1      43.316  33.822  34.371  1.00  0.00     0.002 A 
ATOM     60  C   UNL A   1      42.122  32.494  36.013  1.00  0.00     0.091 A 
ATOM     61  F   UNL A   1      41.686  30.193  35.556  1.00  0.00    -0.205 F 
ATOM     62  C   UNL A   1      42.698  33.712  35.613  1.00  0.00     0.022 A 
BRANCH  60  63
ATOM     63  S   UNL A   1      41.277  32.479  37.597  1.00  0.00     0.127 S 
ATOM     64  O   UNL A   1      42.132  31.587  38.380  1.00  0.00    -0.237 OA
ATOM     65  O   UNL A   1      41.341  33.886  37.992  1.00  0.00    -0.237 OA
ATOM     66  O   UNL A   1      39.934  31.981  37.333  1.00  0.00    -0.744 OA
ENDBRANCH  60  63
ENDBRANCH  42  56
BRANCH  43  67
ATOM     67  C   UNL A   1      42.690  24.138  27.170  1.00  0.00     0.023 A 
ATOM     68  C   UNL A   1      43.342  24.381  25.947  1.00  0.00     0.012 A 
ATOM     69  C   UNL A   1      42.082  22.886  27.389  1.00  0.00     0.148 A 
ATOM     70  C   UNL A   1      43.360  23.409  24.945  1.00  0.00     0.002 A 
ATOM     71  C   UNL A   1      42.153  21.902  26.410  1.00  0.00     0.091 A 
ATOM     72  F   UNL A   1      41.457  22.679  28.556  1.00  0.00    -0.205 F 
ATOM     73  C   UNL A   1      42.775  22.168  25.181  1.00  0.00     0.022 A 
BRANCH  71  74
ATOM     74  S   UNL A   1      41.545  20.233  26.674  1.00  0.00     0.127 S 
ATOM     75  O   UNL A   1      41.894  19.586  25.412  1.00  0.00    -0.237 OA
ATOM     76  O   UNL A   1      42.337  19.804  27.827  1.00  0.00    -0.237 OA
ATOM     77  O   UNL A   1      40.120  20.371  26.942  1.00  0.00    -0.744 OA
ENDBRANCH  71  74
ENDBRANCH  43  67
BRANCH  55  78
ATOM     78  C   UNL A   1      47.241  26.107  32.085  1.00  0.00     0.023 A 
ATOM     79  C   UNL A   1      47.367  25.232  33.182  1.00  0.00     0.012 A 
ATOM     80  C   UNL A   1      48.385  26.443  31.334  1.00  0.00     0.148 A 
ATOM     81  C   UNL A   1      48.615  24.729  33.548  1.00  0.00     0.002 A 
ATOM     82  C   UNL A   1      49.617  25.896  31.673  1.00  0.00     0.091 A 
ATOM     83  F   UNL A   1      48.248  27.290  30.304  1.00  0.00    -0.205 F 
ATOM     84  C   UNL A   1      49.736  25.050  32.788  1.00  0.00     0.022 A 
BRANCH  82  85
ATOM     85  S   UNL A   1      51.100  26.176  30.698  1.00  0.00     0.127 S 
ATOM     86  O   UNL A   1      51.245  27.627  30.786  1.00  0.00    -0.237 OA
ATOM     87  O   UNL A   1      52.106  25.417  31.443  1.00  0.00    -0.237 OA
ATOM     88  O   UNL A   1      50.813  25.657  29.368  1.00  0.00    -0.744 OA
ENDBRANCH  82  85
ENDBRANCH  55  78
ENDBRANCH  29  30
ENDBRANCH  21  24
ENDBRANCH  19  20
ENDBRANCH   1  19
TORSDOF 16
ENDMDL
MODEL 3
REMARK VINA RESULT:     -11.5      5.427      8.276
REMARK SMILES O=C(/C=C/c1ccc(O)c(O)c1)NCCCNC(=O)c1ccc(-c2c3nc(c(-c4cccc(S(=O)(=O)[O-])c4F)c4ccc([nH]4)c(-c4cccc(S(=O)(=O)[O-])c4F)c4nc(c(-c5cccc(S(=O)(=O)[O-])c5F)c5ccc2[nH]5)C=C4)C=C3)cc1
REMARK SMILES IDX 15 1 14 2 13 3 1 4 2 5 3 7 4 8 5 9 6 10 12 11 7 12 10 13
REMARK SMILES IDX 8 14 11 15 9 17 16 19 17 20 18 21 19 23 20 24 21 25 82 26
REMARK SMILES IDX 22 27 81 28 23 29 24 30 25 31 75 32 26 33 80 34 74 35 76 36
REMARK SMILES IDX 27 37 79 38 73 39 72 40 28 42 60 43 40 44 59 45 41 46 44 47
REMARK SMILES IDX 58 48 77 49 42 50 43 51 57 53 78 54 45 55 29 56 30 57 38 58
REMARK SMILES IDX 31 59 33 60 39 61 32 62 34 63 35 64 36 65 37 66 61 67 62 68
REMARK SMILES IDX 70 69 63 70 65 71 71 72 64 73 66 74 67 75 68 76 69 77 46 78
REMARK SMILES IDX 47 79 55 80 48 81 50 82 56 83 49 84 51 85 52 86 53 87 54 88
REMARK H PARENT 13 6 11 16 9 18 17 22 76 41 44 52
REMARK Flexibility Score: inf
ROOT
ATOM      1  C   UNL A   1      36.493  20.600  24.990  1.00  0.00     0.042 C 
ENDROOT
BRANCH   1   2
ATOM      2  C   UNL A   1      35.504  21.345  25.879  1.00  0.00     0.118 C 
BRANCH   2   3
ATOM      3  N   UNL A   1      34.914  22.495  25.219  1.00  0.00    -0.352 N 
ATOM      4  O   UNL A   1      36.418  24.046  26.001  1.00  0.00    -0.270 OA
ATOM      5  C   UNL A   1      35.412  23.763  25.356  1.00  0.00     0.244 C 
ATOM      6  H   UNL A   1      34.123  22.358  24.650  1.00  0.00     0.163 HD
BRANCH   5   7
ATOM      7  C   UNL A   1      34.698  24.845  24.626  1.00  0.00     0.072 C 
ATOM      8  C   UNL A   1      34.019  25.868  25.170  1.00  0.00     0.014 C 
BRANCH   8   9
ATOM      9  C   UNL A   1      33.351  26.918  24.386  1.00  0.00    -0.022 A 
ATOM     10  C   UNL A   1      33.547  28.288  24.636  1.00  0.00     0.012 A 
ATOM     11  C   UNL A   1      32.549  26.533  23.304  1.00  0.00     0.058 A 
ATOM     12  C   UNL A   1      32.934  29.259  23.834  1.00  0.00     0.051 A 
ATOM     13  C   UNL A   1      31.946  27.503  22.513  1.00  0.00     0.157 A 
ATOM     14  C   UNL A   1      32.134  28.856  22.773  1.00  0.00     0.157 A 
BRANCH  13  15
ATOM     15  O   UNL A   1      31.166  27.109  21.464  1.00  0.00    -0.504 OA
ATOM     16  H   UNL A   1      30.236  27.225  21.503  1.00  0.00     0.293 HD
ENDBRANCH  13  15
BRANCH  14  17
ATOM     17  O   UNL A   1      31.517  29.756  21.950  1.00  0.00    -0.504 OA
ATOM     18  H   UNL A   1      30.698  29.542  21.550  1.00  0.00     0.293 HD
ENDBRANCH  14  17
ENDBRANCH   8   9
ENDBRANCH   5   7
ENDBRANCH   2   3
ENDBRANCH   1   2
BRANCH   1  19
ATOM     19  C   UNL A   1      37.928  21.121  25.038  1.00  0.00     0.118 C 
BRANCH  19  20
ATOM     20  N   UNL A   1      38.873  20.170  25.611  1.00  0.00    -0.352 N 
ATOM     21  C   UNL A   1      39.998  20.384  26.371  1.00  0.00     0.251 C 
ATOM     22  H   UNL A   1      38.673  19.225  25.424  1.00  0.00     0.163 HD
ATOM     23  O   UNL A   1      40.723  19.431  26.650  1.00  0.00    -0.269 OA
BRANCH  21  24
ATOM     24  C   UNL A   1      40.364  21.744  26.830  1.00  0.00     0.039 A 
ATOM     25  C   UNL A   1      41.255  21.872  27.899  1.00  0.00     0.014 A 
ATOM     26  C   UNL A   1      39.836  22.887  26.226  1.00  0.00     0.014 A 
ATOM     27  C   UNL A   1      41.681  23.140  28.305  1.00  0.00     0.010 A 
ATOM     28  C   UNL A   1      40.314  24.147  26.585  1.00  0.00     0.010 A 
ATOM     29  C   UNL A   1      41.253  24.287  27.619  1.00  0.00    -0.014 A 
BRANCH  29  30
ATOM     30  C   UNL A   1      41.819  25.628  27.928  1.00  0.00     0.031 A 
ATOM     31  C   UNL A   1      40.990  26.678  28.615  1.00  0.00     0.074 A 
ATOM     32  C   UNL A   1      43.060  25.933  27.497  1.00  0.00     0.049 A 
ATOM     33  N   UNL A   1      41.295  27.921  28.889  1.00  0.00    -0.248 NA
ATOM     34  C   UNL A   1      39.633  26.289  29.029  1.00  0.00     0.031 C 
ATOM     35  C   UNL A   1      43.945  25.029  26.759  1.00  0.00     0.029 A 
ATOM     36  N   UNL A   1      43.782  27.099  27.587  1.00  0.00    -0.354 N 
ATOM     37  C   UNL A   1      40.163  28.473  29.476  1.00  0.00     0.074 A 
ATOM     38  C   UNL A   1      39.155  27.435  29.496  1.00  0.00     0.031 C 
ATOM     39  C   UNL A   1      45.085  25.673  26.461  1.00  0.00     0.029 A 
ATOM     40  C   UNL A   1      45.000  27.045  26.948  1.00  0.00     0.049 A 
ATOM     41  H   UNL A   1      43.458  27.898  28.063  1.00  0.00     0.167 HD
ATOM     42  C   UNL A   1      39.985  29.721  29.973  1.00  0.00     0.034 A 
ATOM     43  C   UNL A   1      45.936  27.995  26.755  1.00  0.00     0.034 A 
ATOM     44  C   UNL A   1      40.998  30.744  29.975  1.00  0.00     0.049 A 
ATOM     45  C   UNL A   1      45.714  29.372  27.321  1.00  0.00     0.074 A 
ATOM     46  C   UNL A   1      40.938  32.010  30.533  1.00  0.00     0.029 A 
ATOM     47  N   UNL A   1      42.244  30.632  29.378  1.00  0.00    -0.354 N 
ATOM     48  N   UNL A   1      44.698  29.825  28.014  1.00  0.00    -0.248 NA
ATOM     49  C   UNL A   1      46.781  30.360  27.103  1.00  0.00     0.031 C 
ATOM     50  C   UNL A   1      42.133  32.675  30.238  1.00  0.00     0.029 A 
ATOM     51  C   UNL A   1      42.953  31.812  29.532  1.00  0.00     0.049 A 
ATOM     52  H   UNL A   1      42.575  29.830  28.911  1.00  0.00     0.167 HD
ATOM     53  C   UNL A   1      45.016  31.139  28.341  1.00  0.00     0.074 A 
ATOM     54  C   UNL A   1      46.332  31.398  27.794  1.00  0.00     0.031 C 
ATOM     55  C   UNL A   1      44.279  32.051  29.021  1.00  0.00     0.034 A 
BRANCH  42  56
ATOM     56  C   UNL A   1      38.650  30.045  30.594  1.00  0.00     0.023 A 
ATOM     57  C   UNL A   1      38.376  29.632  31.914  1.00  0.00     0.012 A 
ATOM     58  C   UNL A   1      37.696  30.816  29.900  1.00  0.00     0.148 A 
ATOM     59  C   UNL A   1      37.161  29.949  32.520  1.00  0.00     0.002 A 
ATOM     60  C   UNL A   1      36.507  31.167  30.528  1.00  0.00     0.091 A 
ATOM     61  F   UNL A   1      37.967  31.187  28.640  1.00  0.00    -0.205 F 
ATOM     62  C   UNL A   1      36.232  30.724  31.832  1.00  0.00     0.022 A 
BRANCH  60  63
ATOM     63  S   UNL A   1      35.280  32.230  29.759  1.00  0.00     0.127 S 
ATOM     64  O   UNL A   1      34.351  32.457  30.866  1.00  0.00    -0.237 OA
ATOM     65  O   UNL A   1      36.077  33.398  29.384  1.00  0.00    -0.237 OA
ATOM     66  O   UNL A   1      34.739  31.475  28.637  1.00  0.00    -0.744 OA
ENDBRANCH  60  63
ENDBRANCH  42  56
BRANCH  43  67
ATOM     67  C   UNL A   1      47.191  27.668  26.020  1.00  0.00     0.023 A 
ATOM     68  C   UNL A   1      48.298  27.164  26.729  1.00  0.00     0.012 A 
ATOM     69  C   UNL A   1      47.287  27.835  24.625  1.00  0.00     0.148 A 
ATOM     70  C   UNL A   1      49.490  26.865  26.067  1.00  0.00     0.002 A 
ATOM     71  C   UNL A   1      48.457  27.481  23.964  1.00  0.00     0.091 A 
ATOM     72  F   UNL A   1      46.226  28.327  23.970  1.00  0.00    -0.205 F 
ATOM     73  C   UNL A   1      49.566  27.014  24.686  1.00  0.00     0.022 A 
BRANCH  71  74
ATOM     74  S   UNL A   1      48.602  27.514  22.175  1.00  0.00     0.127 S 
ATOM     75  O   UNL A   1      49.835  28.277  21.989  1.00  0.00    -0.237 OA
ATOM     76  O   UNL A   1      48.704  26.090  21.856  1.00  0.00    -0.237 OA
ATOM     77  O   UNL A   1      47.385  28.152  21.692  1.00  0.00    -0.744 OA
ENDBRANCH  71  74
ENDBRANCH  43  67
BRANCH  55  78
ATOM     78  C   UNL A   1      44.883  33.415  29.240  1.00  0.00     0.023 A 
ATOM     79  C   UNL A   1      45.622  33.677  30.411  1.00  0.00     0.012 A 
ATOM     80  C   UNL A   1      44.773  34.418  28.255  1.00  0.00     0.148 A 
ATOM     81  C   UNL A   1      46.209  34.925  30.616  1.00  0.00     0.002 A 
ATOM     82  C   UNL A   1      45.405  35.641  28.443  1.00  0.00     0.091 A 
ATOM     83  F   UNL A   1      44.052  34.156  27.155  1.00  0.00    -0.205 F 
ATOM     84  C   UNL A   1      46.112  35.901  29.628  1.00  0.00     0.022 A 
BRANCH  82  85
ATOM     85  S   UNL A   1      45.415  36.926  27.187  1.00  0.00     0.127 S 
ATOM     86  O   UNL A   1      46.156  37.993  27.858  1.00  0.00    -0.237 OA
ATOM     87  O   UNL A   1      46.138  36.280  26.090  1.00  0.00    -0.237 OA
ATOM     88  O   UNL A   1      44.018  37.223  26.901  1.00  0.00    -0.744 OA
ENDBRANCH  82  85
ENDBRANCH  55  78
ENDBRANCH  29  30
ENDBRANCH  21  24
ENDBRANCH  19  20
ENDBRANCH   1  19
TORSDOF 16
ENDMDL
