MODEL 1
REMARK VINA RESULT:     -11.4      0.000      0.000
REMARK SMILES CC1(C)[C@H]2CC[C@]1(C)[C@](O)(CC(=O)NCCCNC(=O)c1ccc(-c3c4nc(c(-c5cccc(S(=O)(=O)[O-])c5F)c5ccc([nH]5)c(-c5cccc(S(=O)(=O)[O-])c5F)c5nc(c(-c6cccc(S(=O)(=O)[O-])c6F)c6ccc3[nH]6)C=C5)C=C4)cc1)C2
REMARK SMILES IDX 16 1 15 2 14 3 12 4 13 5 11 7 9 8 1 9 2 10 3 11 4 12 7 13
REMARK SMILES IDX 5 14 84 15 6 16 8 17 10 18 17 20 18 21 19 22 20 24 21 25
REMARK SMILES IDX 22 26 83 27 23 28 82 29 24 30 25 31 26 32 76 33 27 34 81 35
REMARK SMILES IDX 75 36 77 37 28 38 80 39 74 40 73 41 29 43 61 44 41 45 60 46
REMARK SMILES IDX 42 47 45 48 59 49 78 50 43 51 44 52 58 54 79 55 46 56 30 57
REMARK SMILES IDX 31 58 39 59 32 60 34 61 40 62 33 63 35 64 36 65 37 66 38 67
REMARK SMILES IDX 62 68 63 69 71 70 64 71 66 72 72 73 65 74 67 75 68 76 69 77
REMARK SMILES IDX 70 78 47 79 48 80 56 81 49 82 51 83 57 84 50 85 52 86 53 87
REMARK SMILES IDX 54 88 55 89
REMARK H PARENT 14 6 10 19 18 23 77 42 45 53
REMARK Flexibility Score: inf
ROOT
ATOM      1  C   UNL A   1      31.626  28.144  25.584  1.00  0.00     0.042 C 
ENDROOT
BRANCH   1   2
ATOM      2  C   UNL A   1      31.996  27.064  26.610  1.00  0.00     0.117 C 
BRANCH   2   3
ATOM      3  N   UNL A   1      30.985  26.026  26.751  1.00  0.00    -0.356 N 
ATOM      4  C   UNL A   1      31.042  24.670  26.802  1.00  0.00     0.222 C 
ATOM      5  O   UNL A   1      29.963  24.073  26.878  1.00  0.00    -0.275 OA
ATOM      6  H   UNL A   1      30.070  26.381  26.824  1.00  0.00     0.163 HD
BRANCH   4   7
ATOM      7  C   UNL A   1      32.333  23.872  26.749  1.00  0.00     0.135 C 
BRANCH   7   8
ATOM      8  C   UNL A   1      32.784  23.523  25.302  1.00  0.00     0.080 C 
ATOM      9  C   UNL A   1      36.178  22.955  23.392  1.00  0.00     0.012 C 
ATOM     10  C   UNL A   1      34.665  22.918  23.762  1.00  0.00    -0.024 C 
ATOM     11  C   UNL A   1      33.892  23.011  22.438  1.00  0.00     0.012 C 
ATOM     12  C   UNL A   1      34.282  21.704  24.647  1.00  0.00    -0.002 C 
ATOM     13  C   UNL A   1      34.257  23.924  24.901  1.00  0.00     0.002 C 
ATOM     14  C   UNL A   1      35.140  21.897  25.912  1.00  0.00     0.005 C 
ATOM     15  C   UNL A   1      32.817  21.985  25.063  1.00  0.00     0.040 C 
ATOM     16  C   UNL A   1      35.207  23.427  26.037  1.00  0.00     0.010 C 
ATOM     17  C   UNL A   1      34.401  25.384  24.487  1.00  0.00     0.015 C 
BRANCH   8  18
ATOM     18  O   UNL A   1      31.817  24.043  24.383  1.00  0.00    -0.389 OA
ATOM     19  H   UNL A   1      30.931  23.756  24.652  1.00  0.00     0.211 HD
ENDBRANCH   8  18
ENDBRANCH   7   8
ENDBRANCH   4   7
ENDBRANCH   2   3
ENDBRANCH   1   2
BRANCH   1  20
ATOM     20  C   UNL A   1      32.742  29.146  25.268  1.00  0.00     0.118 C 
BRANCH  20  21
ATOM     21  N   UNL A   1      32.389  30.473  25.748  1.00  0.00    -0.352 N 
ATOM     22  C   UNL A   1      32.884  31.192  26.810  1.00  0.00     0.251 C 
ATOM     23  H   UNL A   1      31.686  30.928  25.231  1.00  0.00     0.163 HD
ATOM     24  O   UNL A   1      32.205  32.118  27.251  1.00  0.00    -0.269 OA
BRANCH  22  25
ATOM     25  C   UNL A   1      34.209  30.904  27.421  1.00  0.00     0.039 A 
ATOM     26  C   UNL A   1      34.453  29.614  27.908  1.00  0.00     0.014 A 
ATOM     27  C   UNL A   1      35.154  31.908  27.651  1.00  0.00     0.014 A 
ATOM     28  C   UNL A   1      35.633  29.328  28.608  1.00  0.00     0.010 A 
ATOM     29  C   UNL A   1      36.356  31.610  28.305  1.00  0.00     0.010 A 
ATOM     30  C   UNL A   1      36.602  30.323  28.813  1.00  0.00    -0.014 A 
BRANCH  30  31
ATOM     31  C   UNL A   1      37.855  30.042  29.572  1.00  0.00     0.031 A 
ATOM     32  C   UNL A   1      38.892  29.095  29.019  1.00  0.00     0.074 A 
ATOM     33  C   UNL A   1      38.042  30.586  30.792  1.00  0.00     0.049 A 
ATOM     34  N   UNL A   1      40.003  28.672  29.569  1.00  0.00    -0.248 NA
ATOM     35  C   UNL A   1      38.638  28.535  27.683  1.00  0.00     0.031 C 
ATOM     36  C   UNL A   1      37.102  31.479  31.470  1.00  0.00     0.029 A 
ATOM     37  N   UNL A   1      39.072  30.440  31.691  1.00  0.00    -0.354 N 
ATOM     38  C   UNL A   1      40.557  27.768  28.669  1.00  0.00     0.074 A 
ATOM     39  C   UNL A   1      39.650  27.690  27.544  1.00  0.00     0.031 C 
ATOM     40  C   UNL A   1      37.592  31.794  32.680  1.00  0.00     0.029 A 
ATOM     41  C   UNL A   1      38.864  31.104  32.879  1.00  0.00     0.049 A 
ATOM     42  H   UNL A   1      39.881  29.912  31.503  1.00  0.00     0.167 HD
ATOM     43  C   UNL A   1      41.725  27.084  28.755  1.00  0.00     0.034 A 
ATOM     44  C   UNL A   1      39.601  31.141  34.007  1.00  0.00     0.034 A 
ATOM     45  C   UNL A   1      42.659  27.203  29.843  1.00  0.00     0.049 A 
ATOM     46  C   UNL A   1      40.903  30.388  34.069  1.00  0.00     0.074 A 
ATOM     47  C   UNL A   1      43.914  26.629  29.965  1.00  0.00     0.029 A 
ATOM     48  N   UNL A   1      42.443  27.936  30.998  1.00  0.00    -0.354 N 
ATOM     49  N   UNL A   1      41.483  29.665  33.142  1.00  0.00    -0.248 NA
ATOM     50  C   UNL A   1      41.667  30.478  35.324  1.00  0.00     0.031 C 
ATOM     51  C   UNL A   1      44.448  27.002  31.204  1.00  0.00     0.029 A 
ATOM     52  C   UNL A   1      43.531  27.817  31.847  1.00  0.00     0.049 A 
ATOM     53  H   UNL A   1      41.634  28.465  31.188  1.00  0.00     0.167 HD
ATOM     54  C   UNL A   1      42.686  29.233  33.692  1.00  0.00     0.074 A 
ATOM     55  C   UNL A   1      42.766  29.800  35.022  1.00  0.00     0.031 C 
ATOM     56  C   UNL A   1      43.627  28.422  33.150  1.00  0.00     0.034 A 
BRANCH  43  57
ATOM     57  C   UNL A   1      42.096  26.182  27.606  1.00  0.00     0.023 A 
ATOM     58  C   UNL A   1      42.886  26.690  26.555  1.00  0.00     0.012 A 
ATOM     59  C   UNL A   1      41.728  24.822  27.597  1.00  0.00     0.148 A 
ATOM     60  C   UNL A   1      43.276  25.869  25.497  1.00  0.00     0.002 A 
ATOM     61  C   UNL A   1      42.153  24.000  26.559  1.00  0.00     0.091 A 
ATOM     62  F   UNL A   1      40.962  24.360  28.596  1.00  0.00    -0.205 F 
ATOM     63  C   UNL A   1      42.918  24.523  25.505  1.00  0.00     0.022 A 
BRANCH  61  64
ATOM     64  S   UNL A   1      41.806  22.237  26.515  1.00  0.00     0.127 S 
ATOM     65  O   UNL A   1      42.608  21.808  25.370  1.00  0.00    -0.237 OA
ATOM     66  O   UNL A   1      42.311  21.789  27.814  1.00  0.00    -0.237 OA
ATOM     67  O   UNL A   1      40.364  22.117  26.352  1.00  0.00    -0.744 OA
ENDBRANCH  61  64
ENDBRANCH  43  57
BRANCH  44  68
ATOM     68  C   UNL A   1      39.144  31.966  35.162  1.00  0.00     0.023 A 
ATOM     69  C   UNL A   1      38.221  31.422  36.077  1.00  0.00     0.012 A 
ATOM     70  C   UNL A   1      39.638  33.267  35.377  1.00  0.00     0.148 A 
ATOM     71  C   UNL A   1      37.782  32.166  37.172  1.00  0.00     0.002 A 
ATOM     72  C   UNL A   1      39.239  33.982  36.501  1.00  0.00     0.091 A 
ATOM     73  F   UNL A   1      40.500  33.776  34.485  1.00  0.00    -0.205 F 
ATOM     74  C   UNL A   1      38.299  33.440  37.391  1.00  0.00     0.022 A 
BRANCH  72  75
ATOM     75  S   UNL A   1      39.958  35.571  36.934  1.00  0.00     0.127 S 
ATOM     76  O   UNL A   1      39.278  35.876  38.188  1.00  0.00    -0.237 OA
ATOM     77  O   UNL A   1      41.377  35.238  37.065  1.00  0.00    -0.237 OA
ATOM     78  O   UNL A   1      39.654  36.452  35.813  1.00  0.00    -0.744 OA
ENDBRANCH  72  75
ENDBRANCH  44  68
BRANCH  56  79
ATOM     79  C   UNL A   1      44.837  28.096  33.987  1.00  0.00     0.023 A 
ATOM     80  C   UNL A   1      45.951  28.958  33.959  1.00  0.00     0.012 A 
ATOM     81  C   UNL A   1      44.845  26.987  34.857  1.00  0.00     0.148 A 
ATOM     82  C   UNL A   1      47.064  28.709  34.762  1.00  0.00     0.002 A 
ATOM     83  C   UNL A   1      45.939  26.769  35.686  1.00  0.00     0.091 A 
ATOM     84  F   UNL A   1      43.784  26.167  34.857  1.00  0.00    -0.205 F 
ATOM     85  C   UNL A   1      47.053  27.623  35.633  1.00  0.00     0.022 A 
BRANCH  83  86
ATOM     86  S   UNL A   1      45.980  25.447  36.903  1.00  0.00     0.127 S 
ATOM     87  O   UNL A   1      47.275  25.672  37.544  1.00  0.00    -0.237 OA
ATOM     88  O   UNL A   1      44.823  25.760  37.742  1.00  0.00    -0.237 OA
ATOM     89  O   UNL A   1      45.863  24.205  36.150  1.00  0.00    -0.744 OA
ENDBRANCH  83  86
ENDBRANCH  56  79
ENDBRANCH  30  31
ENDBRANCH  22  25
ENDBRANCH  20  21
ENDBRANCH   1  20
TORSDOF 15
ENDMDL
MODEL 2
REMARK VINA RESULT:     -11.3      1.083      1.610
REMARK SMILES CC1(C)[C@H]2CC[C@]1(C)[C@](O)(CC(=O)NCCCNC(=O)c1ccc(-c3c4nc(c(-c5cccc(S(=O)(=O)[O-])c5F)c5ccc([nH]5)c(-c5cccc(S(=O)(=O)[O-])c5F)c5nc(c(-c6cccc(S(=O)(=O)[O-])c6F)c6ccc3[nH]6)C=C5)C=C4)cc1)C2
REMARK SMILES IDX 16 1 15 2 14 3 12 4 13 5 11 7 9 8 1 9 2 10 3 11 4 12 7 13
REMARK SMILES IDX 5 14 84 15 6 16 8 17 10 18 17 20 18 21 19 22 20 24 21 25
REMARK SMILES IDX 22 26 83 27 23 28 82 29 24 30 25 31 26 32 76 33 27 34 81 35
REMARK SMILES IDX 75 36 77 37 28 38 80 39 74 40 73 41 29 43 61 44 41 45 60 46
REMARK SMILES IDX 42 47 45 48 59 49 78 50 43 51 44 52 58 54 79 55 46 56 30 57
REMARK SMILES IDX 31 58 39 59 32 60 34 61 40 62 33 63 35 64 36 65 37 66 38 67
REMARK SMILES IDX 62 68 63 69 71 70 64 71 66 72 72 73 65 74 67 75 68 76 69 77
REMARK SMILES IDX 70 78 47 79 48 80 56 81 49 82 51 83 57 84 50 85 52 86 53 87
REMARK SMILES IDX 54 88 55 89
REMARK H PARENT 14 6 10 19 18 23 77 42 45 53
REMARK Flexibility Score: inf
ROOT
ATOM      1  C   UNL A   1      32.960  28.838  24.227  1.00  0.00     0.042 C 
ENDROOT
BRANCH   1   2
ATOM      2  C   UNL A   1      31.962  27.985  23.432  1.00  0.00     0.117 C 
BRANCH   2   3
ATOM      3  N   UNL A   1      32.539  27.369  22.246  1.00  0.00    -0.356 N 
ATOM      4  C   UNL A   1      32.678  26.081  21.839  1.00  0.00     0.222 C 
ATOM      5  O   UNL A   1      33.276  25.899  20.772  1.00  0.00    -0.275 OA
ATOM      6  H   UNL A   1      32.904  28.023  21.607  1.00  0.00     0.163 HD
BRANCH   4   7
ATOM      7  C   UNL A   1      32.167  24.884  22.620  1.00  0.00     0.135 C 
BRANCH   7   8
ATOM      8  C   UNL A   1      33.289  24.108  23.366  1.00  0.00     0.080 C 
ATOM      9  C   UNL A   1      33.969  22.810  27.018  1.00  0.00     0.012 C 
ATOM     10  C   UNL A   1      34.036  22.973  25.471  1.00  0.00    -0.024 C 
ATOM     11  C   UNL A   1      35.499  22.730  25.072  1.00  0.00     0.012 C 
ATOM     12  C   UNL A   1      33.009  22.090  24.718  1.00  0.00    -0.002 C 
ATOM     13  C   UNL A   1      33.356  24.287  24.932  1.00  0.00     0.002 C 
ATOM     14  C   UNL A   1      31.650  22.585  25.252  1.00  0.00     0.005 C 
ATOM     15  C   UNL A   1      33.102  22.567  23.247  1.00  0.00     0.040 C 
ATOM     16  C   UNL A   1      31.913  24.079  25.492  1.00  0.00     0.010 C 
ATOM     17  C   UNL A   1      34.078  25.555  25.372  1.00  0.00     0.015 C 
BRANCH   8  18
ATOM     18  O   UNL A   1      34.542  24.401  22.738  1.00  0.00    -0.389 OA
ATOM     19  H   UNL A   1      34.836  25.287  23.000  1.00  0.00     0.211 HD
ENDBRANCH   8  18
ENDBRANCH   7   8
ENDBRANCH   4   7
ENDBRANCH   2   3
ENDBRANCH   1   2
BRANCH   1  20
ATOM     20  C   UNL A   1      32.609  29.037  25.705  1.00  0.00     0.118 C 
BRANCH  20  21
ATOM     21  N   UNL A   1      32.378  30.444  25.991  1.00  0.00    -0.352 N 
ATOM     22  C   UNL A   1      32.968  31.268  26.919  1.00  0.00     0.251 C 
ATOM     23  H   UNL A   1      31.693  30.874  25.431  1.00  0.00     0.163 HD
ATOM     24  O   UNL A   1      32.380  32.302  27.235  1.00  0.00    -0.269 OA
BRANCH  22  25
ATOM     25  C   UNL A   1      34.290  30.967  27.530  1.00  0.00     0.039 A 
ATOM     26  C   UNL A   1      34.531  29.667  27.993  1.00  0.00     0.014 A 
ATOM     27  C   UNL A   1      35.236  31.964  27.782  1.00  0.00     0.014 A 
ATOM     28  C   UNL A   1      35.707  29.366  28.692  1.00  0.00     0.010 A 
ATOM     29  C   UNL A   1      36.435  31.652  28.435  1.00  0.00     0.010 A 
ATOM     30  C   UNL A   1      36.677  30.355  28.919  1.00  0.00    -0.014 A 
BRANCH  30  31
ATOM     31  C   UNL A   1      37.927  30.057  29.677  1.00  0.00     0.031 A 
ATOM     32  C   UNL A   1      38.956  29.106  29.119  1.00  0.00     0.074 A 
ATOM     33  C   UNL A   1      38.117  30.590  30.902  1.00  0.00     0.049 A 
ATOM     34  N   UNL A   1      40.062  28.669  29.666  1.00  0.00    -0.248 NA
ATOM     35  C   UNL A   1      38.699  28.559  27.777  1.00  0.00     0.031 C 
ATOM     36  C   UNL A   1      37.183  31.485  31.587  1.00  0.00     0.029 A 
ATOM     37  N   UNL A   1      39.144  30.428  31.801  1.00  0.00    -0.354 N 
ATOM     38  C   UNL A   1      40.610  27.768  28.760  1.00  0.00     0.074 A 
ATOM     39  C   UNL A   1      39.704  27.706  27.633  1.00  0.00     0.031 C 
ATOM     40  C   UNL A   1      37.674  31.786  32.800  1.00  0.00     0.029 A 
ATOM     41  C   UNL A   1      38.940  31.084  32.994  1.00  0.00     0.049 A 
ATOM     42  H   UNL A   1      39.949  29.894  31.610  1.00  0.00     0.167 HD
ATOM     43  C   UNL A   1      41.772  27.074  28.842  1.00  0.00     0.034 A 
ATOM     44  C   UNL A   1      39.676  31.105  34.124  1.00  0.00     0.034 A 
ATOM     45  C   UNL A   1      42.706  27.176  29.932  1.00  0.00     0.049 A 
ATOM     46  C   UNL A   1      40.972  30.341  34.182  1.00  0.00     0.074 A 
ATOM     47  C   UNL A   1      43.955  26.590  30.051  1.00  0.00     0.029 A 
ATOM     48  N   UNL A   1      42.495  27.901  31.092  1.00  0.00    -0.354 N 
ATOM     49  N   UNL A   1      41.546  29.620  33.249  1.00  0.00    -0.248 NA
ATOM     50  C   UNL A   1      41.735  30.414  35.437  1.00  0.00     0.031 C 
ATOM     51  C   UNL A   1      44.491  26.948  31.294  1.00  0.00     0.029 A 
ATOM     52  C   UNL A   1      43.580  27.766  31.941  1.00  0.00     0.049 A 
ATOM     53  H   UNL A   1      41.690  28.435  31.286  1.00  0.00     0.167 HD
ATOM     54  C   UNL A   1      42.745  29.174  33.797  1.00  0.00     0.074 A 
ATOM     55  C   UNL A   1      42.828  29.730  35.132  1.00  0.00     0.031 C 
ATOM     56  C   UNL A   1      43.680  28.359  33.250  1.00  0.00     0.034 A 
BRANCH  43  57
ATOM     57  C   UNL A   1      42.138  26.177  27.686  1.00  0.00     0.023 A 
ATOM     58  C   UNL A   1      42.907  26.696  26.625  1.00  0.00     0.012 A 
ATOM     59  C   UNL A   1      41.783  24.814  27.680  1.00  0.00     0.148 A 
ATOM     60  C   UNL A   1      43.292  25.881  25.560  1.00  0.00     0.002 A 
ATOM     61  C   UNL A   1      42.203  23.998  26.634  1.00  0.00     0.091 A 
ATOM     62  F   UNL A   1      41.036  24.342  28.688  1.00  0.00    -0.205 F 
ATOM     63  C   UNL A   1      42.948  24.531  25.570  1.00  0.00     0.022 A 
BRANCH  61  64
ATOM     64  S   UNL A   1      41.875  22.232  26.591  1.00  0.00     0.127 S 
ATOM     65  O   UNL A   1      42.579  21.830  25.374  1.00  0.00    -0.237 OA
ATOM     66  O   UNL A   1      42.496  21.771  27.834  1.00  0.00    -0.237 OA
ATOM     67  O   UNL A   1      40.426  22.095  26.552  1.00  0.00    -0.744 OA
ENDBRANCH  61  64
ENDBRANCH  43  57
BRANCH  44  68
ATOM     68  C   UNL A   1      39.225  31.925  35.285  1.00  0.00     0.023 A 
ATOM     69  C   UNL A   1      38.344  31.359  36.228  1.00  0.00     0.012 A 
ATOM     70  C   UNL A   1      39.683  33.243  35.477  1.00  0.00     0.148 A 
ATOM     71  C   UNL A   1      37.911  32.099  37.329  1.00  0.00     0.002 A 
ATOM     72  C   UNL A   1      39.292  33.953  36.607  1.00  0.00     0.091 A 
ATOM     73  F   UNL A   1      40.504  33.771  34.559  1.00  0.00    -0.205 F 
ATOM     74  C   UNL A   1      38.394  33.389  37.525  1.00  0.00     0.022 A 
BRANCH  72  75
ATOM     75  S   UNL A   1      39.972  35.567  37.008  1.00  0.00     0.127 S 
ATOM     76  O   UNL A   1      39.280  35.883  38.253  1.00  0.00    -0.237 OA
ATOM     77  O   UNL A   1      41.397  35.270  37.152  1.00  0.00    -0.237 OA
ATOM     78  O   UNL A   1      39.653  36.418  35.868  1.00  0.00    -0.744 OA
ENDBRANCH  72  75
ENDBRANCH  44  68
BRANCH  56  79
ATOM     79  C   UNL A   1      44.886  28.016  34.086  1.00  0.00     0.023 A 
ATOM     80  C   UNL A   1      46.008  28.870  34.066  1.00  0.00     0.012 A 
ATOM     81  C   UNL A   1      44.883  26.901  34.946  1.00  0.00     0.148 A 
ATOM     82  C   UNL A   1      47.117  28.604  34.868  1.00  0.00     0.002 A 
ATOM     83  C   UNL A   1      45.975  26.666  35.775  1.00  0.00     0.091 A 
ATOM     84  F   UNL A   1      43.815  26.090  34.939  1.00  0.00    -0.205 F 
ATOM     85  C   UNL A   1      47.096  27.511  35.730  1.00  0.00     0.022 A 
BRANCH  83  86
ATOM     86  S   UNL A   1      46.003  25.334  36.982  1.00  0.00     0.127 S 
ATOM     87  O   UNL A   1      47.253  25.602  37.692  1.00  0.00    -0.237 OA
ATOM     88  O   UNL A   1      44.792  25.594  37.761  1.00  0.00    -0.237 OA
ATOM     89  O   UNL A   1      45.974  24.097  36.213  1.00  0.00    -0.744 OA
ENDBRANCH  83  86
ENDBRANCH  56  79
ENDBRANCH  30  31
ENDBRANCH  22  25
ENDBRANCH  20  21
ENDBRANCH   1  20
TORSDOF 15
ENDMDL
MODEL 3
REMARK VINA RESULT:     -11.3      1.404      1.885
REMARK SMILES CC1(C)[C@H]2CC[C@]1(C)[C@](O)(CC(=O)NCCCNC(=O)c1ccc(-c3c4nc(c(-c5cccc(S(=O)(=O)[O-])c5F)c5ccc([nH]5)c(-c5cccc(S(=O)(=O)[O-])c5F)c5nc(c(-c6cccc(S(=O)(=O)[O-])c6F)c6ccc3[nH]6)C=C5)C=C4)cc1)C2
REMARK SMILES IDX 16 1 15 2 14 3 12 4 13 5 11 7 9 8 1 9 2 10 3 11 4 12 7 13
REMARK SMILES IDX 5 14 84 15 6 16 8 17 10 18 17 20 18 21 19 22 20 24 21 25
REMARK SMILES IDX 22 26 83 27 23 28 82 29 24 30 25 31 26 32 76 33 27 34 81 35
REMARK SMILES IDX 75 36 77 37 28 38 80 39 74 40 73 41 29 43 61 44 41 45 60 46
REMARK SMILES IDX 42 47 45 48 59 49 78 50 43 51 44 52 58 54 79 55 46 56 30 57
REMARK SMILES IDX 31 58 39 59 32 60 34 61 40 62 33 63 35 64 36 65 37 66 38 67
REMARK SMILES IDX 62 68 63 69 71 70 64 71 66 72 72 73 65 74 67 75 68 76 69 77
REMARK SMILES IDX 70 78 47 79 48 80 56 81 49 82 51 83 57 84 50 85 52 86 53 87
REMARK SMILES IDX 54 88 55 89
REMARK H PARENT 14 6 10 19 18 23 77 42 45 53
REMARK Flexibility Score: inf
ROOT
ATOM      1  C   UNL A   1      31.951  28.239  26.635  1.00  0.00     0.042 C 
ENDROOT
BRANCH   1   2
ATOM      2  C   UNL A   1      31.185  27.209  25.792  1.00  0.00     0.117 C 
BRANCH   2   3
ATOM      3  N   UNL A   1      30.797  26.021  26.537  1.00  0.00    -0.356 N 
ATOM      4  C   UNL A   1      30.966  24.690  26.325  1.00  0.00     0.222 C 
ATOM      5  O   UNL A   1      30.456  23.927  27.153  1.00  0.00    -0.275 OA
ATOM      6  H   UNL A   1      30.312  26.225  27.369  1.00  0.00     0.163 HD
BRANCH   4   7
ATOM      7  C   UNL A   1      31.714  24.109  25.138  1.00  0.00     0.135 C 
BRANCH   7   8
ATOM      8  C   UNL A   1      33.258  24.112  25.319  1.00  0.00     0.080 C 
ATOM      9  C   UNL A   1      36.308  21.909  24.163  1.00  0.00     0.012 C 
ATOM     10  C   UNL A   1      35.465  23.113  24.678  1.00  0.00    -0.024 C 
ATOM     11  C   UNL A   1      36.335  23.841  25.714  1.00  0.00     0.012 C 
ATOM     12  C   UNL A   1      34.931  24.017  23.537  1.00  0.00    -0.002 C 
ATOM     13  C   UNL A   1      34.000  22.734  25.113  1.00  0.00     0.002 C 
ATOM     14  C   UNL A   1      34.052  23.064  22.705  1.00  0.00     0.005 C 
ATOM     15  C   UNL A   1      33.963  24.996  24.249  1.00  0.00     0.040 C 
ATOM     16  C   UNL A   1      33.485  22.117  23.774  1.00  0.00     0.010 C 
ATOM     17  C   UNL A   1      33.958  21.828  26.338  1.00  0.00     0.015 C 
BRANCH   8  18
ATOM     18  O   UNL A   1      33.569  24.705  26.585  1.00  0.00    -0.389 OA
ATOM     19  H   UNL A   1      34.194  24.138  27.062  1.00  0.00     0.211 HD
ENDBRANCH   8  18
ENDBRANCH   7   8
ENDBRANCH   4   7
ENDBRANCH   2   3
ENDBRANCH   1   2
BRANCH   1  20
ATOM     20  C   UNL A   1      32.886  29.157  25.842  1.00  0.00     0.118 C 
BRANCH  20  21
ATOM     21  N   UNL A   1      32.653  30.550  26.191  1.00  0.00    -0.352 N 
ATOM     22  C   UNL A   1      33.272  31.344  27.126  1.00  0.00     0.251 C 
ATOM     23  H   UNL A   1      31.941  30.993  25.676  1.00  0.00     0.163 HD
ATOM     24  O   UNL A   1      32.686  32.358  27.505  1.00  0.00    -0.269 OA
BRANCH  22  25
ATOM     25  C   UNL A   1      34.620  31.035  27.671  1.00  0.00     0.039 A 
ATOM     26  C   UNL A   1      34.851  29.756  28.195  1.00  0.00     0.014 A 
ATOM     27  C   UNL A   1      35.609  32.013  27.806  1.00  0.00     0.014 A 
ATOM     28  C   UNL A   1      36.060  29.457  28.837  1.00  0.00     0.010 A 
ATOM     29  C   UNL A   1      36.837  31.699  28.401  1.00  0.00     0.010 A 
ATOM     30  C   UNL A   1      37.071  30.425  28.945  1.00  0.00    -0.014 A 
BRANCH  30  31
ATOM     31  C   UNL A   1      38.357  30.131  29.642  1.00  0.00     0.031 A 
ATOM     32  C   UNL A   1      39.354  29.171  29.040  1.00  0.00     0.074 A 
ATOM     33  C   UNL A   1      38.610  30.673  30.850  1.00  0.00     0.049 A 
ATOM     34  N   UNL A   1      40.486  28.737  29.534  1.00  0.00    -0.248 NA
ATOM     35  C   UNL A   1      39.028  28.614  27.718  1.00  0.00     0.031 C 
ATOM     36  C   UNL A   1      37.715  31.576  31.574  1.00  0.00     0.029 A 
ATOM     37  N   UNL A   1      39.681  30.516  31.698  1.00  0.00    -0.354 N 
ATOM     38  C   UNL A   1      40.985  27.826  28.609  1.00  0.00     0.074 A 
ATOM     39  C   UNL A   1      40.023  27.757  27.530  1.00  0.00     0.031 C 
ATOM     40  C   UNL A   1      38.267  31.886  32.758  1.00  0.00     0.029 A 
ATOM     41  C   UNL A   1      39.539  31.182  32.894  1.00  0.00     0.049 A 
ATOM     42  H   UNL A   1      40.474  29.979  31.471  1.00  0.00     0.167 HD
ATOM     43  C   UNL A   1      42.148  27.129  28.638  1.00  0.00     0.034 A 
ATOM     44  C   UNL A   1      40.332  31.211  33.984  1.00  0.00     0.034 A 
ATOM     45  C   UNL A   1      43.136  27.238  29.678  1.00  0.00     0.049 A 
ATOM     46  C   UNL A   1      41.627  30.444  33.983  1.00  0.00     0.074 A 
ATOM     47  C   UNL A   1      44.389  26.650  29.739  1.00  0.00     0.029 A 
ATOM     48  N   UNL A   1      42.986  27.974  30.841  1.00  0.00    -0.354 N 
ATOM     49  N   UNL A   1      42.152  29.714  33.029  1.00  0.00    -0.248 NA
ATOM     50  C   UNL A   1      42.453  30.526  35.198  1.00  0.00     0.031 C 
ATOM     51  C   UNL A   1      44.987  27.017  30.949  1.00  0.00     0.029 A 
ATOM     52  C   UNL A   1      44.113  27.843  31.635  1.00  0.00     0.049 A 
ATOM     53  H   UNL A   1      42.193  28.512  31.071  1.00  0.00     0.167 HD
ATOM     54  C   UNL A   1      43.376  29.269  33.519  1.00  0.00     0.074 A 
ATOM     55  C   UNL A   1      43.528  29.836  34.843  1.00  0.00     0.031 C 
ATOM     56  C   UNL A   1      44.280  28.447  32.932  1.00  0.00     0.034 A 
BRANCH  43  57
ATOM     57  C   UNL A   1      42.452  26.222  27.472  1.00  0.00     0.023 A 
ATOM     58  C   UNL A   1      43.192  26.722  26.382  1.00  0.00     0.012 A 
ATOM     59  C   UNL A   1      42.070  24.866  27.484  1.00  0.00     0.148 A 
ATOM     60  C   UNL A   1      43.520  25.896  25.307  1.00  0.00     0.002 A 
ATOM     61  C   UNL A   1      42.435  24.038  26.427  1.00  0.00     0.091 A 
ATOM     62  F   UNL A   1      41.352  24.412  28.522  1.00  0.00    -0.205 F 
ATOM     63  C   UNL A   1      43.150  24.554  25.334  1.00  0.00     0.022 A 
BRANCH  61  64
ATOM     64  S   UNL A   1      42.069  22.279  26.403  1.00  0.00     0.127 S 
ATOM     65  O   UNL A   1      40.612  22.282  26.278  1.00  0.00    -0.237 OA
ATOM     66  O   UNL A   1      42.783  21.831  25.207  1.00  0.00    -0.237 OA
ATOM     67  O   UNL A   1      42.591  21.746  27.654  1.00  0.00    -0.744 OA
ENDBRANCH  61  64
ENDBRANCH  43  57
BRANCH  44  68
ATOM     68  C   UNL A   1      39.942  32.042  35.160  1.00  0.00     0.023 A 
ATOM     69  C   UNL A   1      40.422  33.363  35.260  1.00  0.00     0.012 A 
ATOM     70  C   UNL A   1      39.081  31.547  36.158  1.00  0.00     0.148 A 
ATOM     71  C   UNL A   1      40.068  34.168  36.344  1.00  0.00     0.002 A 
ATOM     72  C   UNL A   1      38.687  32.373  37.205  1.00  0.00     0.091 A 
ATOM     73  F   UNL A   1      38.652  30.281  36.056  1.00  0.00    -0.205 F 
ATOM     74  C   UNL A   1      39.192  33.678  37.308  1.00  0.00     0.022 A 
BRANCH  72  75
ATOM     75  S   UNL A   1      37.457  31.870  38.414  1.00  0.00     0.127 S 
ATOM     76  O   UNL A   1      38.169  32.080  39.671  1.00  0.00    -0.237 OA
ATOM     77  O   UNL A   1      36.371  32.814  38.154  1.00  0.00    -0.237 OA
ATOM     78  O   UNL A   1      37.135  30.486  38.088  1.00  0.00    -0.744 OA
ENDBRANCH  72  75
ENDBRANCH  44  68
BRANCH  56  79
ATOM     79  C   UNL A   1      45.526  28.108  33.709  1.00  0.00     0.023 A 
ATOM     80  C   UNL A   1      46.640  28.968  33.640  1.00  0.00     0.012 A 
ATOM     81  C   UNL A   1      45.571  26.988  34.563  1.00  0.00     0.148 A 
ATOM     82  C   UNL A   1      47.787  28.706  34.388  1.00  0.00     0.002 A 
ATOM     83  C   UNL A   1      46.701  26.757  35.338  1.00  0.00     0.091 A 
ATOM     84  F   UNL A   1      44.508  26.171  34.602  1.00  0.00    -0.205 F 
ATOM     85  C   UNL A   1      47.814  27.609  35.245  1.00  0.00     0.022 A 
BRANCH  83  86
ATOM     86  S   UNL A   1      46.795  25.419  36.536  1.00  0.00     0.127 S 
ATOM     87  O   UNL A   1      48.082  25.683  37.177  1.00  0.00    -0.237 OA
ATOM     88  O   UNL A   1      45.628  25.676  37.381  1.00  0.00    -0.237 OA
ATOM     89  O   UNL A   1      46.722  24.186  35.765  1.00  0.00    -0.744 OA
ENDBRANCH  83  86
ENDBRANCH  56  79
ENDBRANCH  30  31
ENDBRANCH  22  25
ENDBRANCH  20  21
ENDBRANCH   1  20
TORSDOF 15
ENDMDL
