MODEL 1
REMARK VINA RESULT:     -11.7      0.000      0.000
REMARK SMILES C[C@@H](SCCC(=O)NCCCNC(=O)c1ccc(-c2c3nc(c(-c4cccc(S(=O)(=O)[O-])c4F)c4ccc([nH]4)c(-c4cccc(S(=O)(=O)[O-])c4F)c4nc(c(-c5cccc(S(=O)(=O)[O-])c5F)c5ccc2[nH]5)C=C4)C=C3)cc1)C(=O)Nc1ccc(C(N)=O)cc1
REMARK SMILES IDX 6 1 7 2 8 3 5 5 4 6 3 7 2 8 1 9 78 10 79 11 80 12 81 14
REMARK SMILES IDX 82 15 89 16 83 17 88 18 84 19 85 20 86 21 87 22 9 25 10 26
REMARK SMILES IDX 11 27 12 28 13 29 14 31 15 32 16 33 77 34 17 35 76 36 18 37
REMARK SMILES IDX 19 38 20 39 70 40 21 41 75 42 69 43 71 44 22 45 74 46 68 47
REMARK SMILES IDX 67 48 23 50 55 51 35 52 54 53 36 54 39 55 53 56 72 57 37 58
REMARK SMILES IDX 38 59 52 61 73 62 40 63 24 64 25 65 33 66 26 67 28 68 34 69
REMARK SMILES IDX 27 70 29 71 30 72 31 73 32 74 56 75 57 76 65 77 58 78 60 79
REMARK SMILES IDX 66 80 59 81 61 82 62 83 63 84 64 85 41 86 42 87 50 88 43 89
REMARK SMILES IDX 45 90 51 91 44 92 46 93 47 94 48 95 49 96
REMARK H PARENT 8 4 80 13 86 23 86 24 12 30 71 49 39 60
REMARK Flexibility Score: inf
ROOT
ATOM      1  C   UNL A   1      34.180  23.837  23.378  1.00  0.00     0.220 C 
ATOM      2  O   UNL A   1      34.406  24.399  22.306  1.00  0.00    -0.275 OA
ATOM      3  N   UNL A   1      35.251  23.474  24.135  1.00  0.00    -0.356 N 
ATOM      4  H   UNL A   1      36.121  23.643  23.706  1.00  0.00     0.163 HD
ENDROOT
BRANCH   1   5
ATOM      5  C   UNL A   1      32.762  23.578  23.833  1.00  0.00     0.111 C 
BRANCH   5   6
ATOM      6  C   UNL A   1      32.397  22.093  23.779  1.00  0.00     0.080 C 
BRANCH   6   7
ATOM      7  S   UNL A   1      31.753  21.403  25.355  1.00  0.00    -0.148 SA
BRANCH   7   8
ATOM      8  C   UNL A   1      31.822  22.869  26.450  1.00  0.00     0.133 C 
ATOM      9  C   UNL A   1      32.781  22.748  27.623  1.00  0.00     0.030 C 
BRANCH   8  10
ATOM     10  C   UNL A   1      30.408  23.428  26.738  1.00  0.00     0.237 C 
ATOM     11  O   UNL A   1      29.730  23.005  27.683  1.00  0.00    -0.273 OA
ATOM     12  N   UNL A   1      29.826  24.408  25.983  1.00  0.00    -0.325 N 
ATOM     13  H   UNL A   1      28.919  24.285  25.621  1.00  0.00     0.169 HD
BRANCH  12  14
ATOM     14  C   UNL A   1      30.530  25.586  25.730  1.00  0.00     0.041 A 
ATOM     15  C   UNL A   1      30.249  26.269  24.547  1.00  0.00     0.027 A 
ATOM     16  C   UNL A   1      31.401  26.105  26.678  1.00  0.00     0.027 A 
ATOM     17  C   UNL A   1      30.744  27.553  24.372  1.00  0.00     0.016 A 
ATOM     18  C   UNL A   1      31.872  27.402  26.522  1.00  0.00     0.016 A 
ATOM     19  C   UNL A   1      31.526  28.132  25.379  1.00  0.00     0.039 A 
BRANCH  19  20
ATOM     20  C   UNL A   1      31.944  29.548  25.297  1.00  0.00     0.248 C 
ATOM     21  N   UNL A   1      33.283  29.790  25.405  1.00  0.00    -0.366 N 
ATOM     22  O   UNL A   1      31.127  30.444  25.141  1.00  0.00    -0.270 OA
ATOM     23  H   UNL A   1      33.910  29.042  25.528  1.00  0.00     0.159 HD
ATOM     24  H   UNL A   1      33.621  30.713  25.359  1.00  0.00     0.159 HD
ENDBRANCH  19  20
ENDBRANCH  12  14
ENDBRANCH   8  10
ENDBRANCH   7   8
ENDBRANCH   6   7
ENDBRANCH   5   6
ENDBRANCH   1   5
BRANCH   3  25
ATOM     25  C   UNL A   1      35.345  22.886  25.459  1.00  0.00     0.117 C 
BRANCH  25  26
ATOM     26  C   UNL A   1      35.960  21.480  25.510  1.00  0.00     0.042 C 
BRANCH  26  27
ATOM     27  C   UNL A   1      37.092  21.178  24.500  1.00  0.00     0.118 C 
BRANCH  27  28
ATOM     28  N   UNL A   1      38.079  20.280  25.076  1.00  0.00    -0.352 N 
ATOM     29  C   UNL A   1      39.245  20.431  25.777  1.00  0.00     0.251 C 
ATOM     30  H   UNL A   1      37.853  19.334  24.926  1.00  0.00     0.163 HD
ATOM     31  O   UNL A   1      39.967  19.427  25.808  1.00  0.00    -0.269 OA
BRANCH  29  32
ATOM     32  C   UNL A   1      39.701  21.632  26.544  1.00  0.00     0.039 A 
ATOM     33  C   UNL A   1      39.202  22.869  26.095  1.00  0.00     0.014 A 
ATOM     34  C   UNL A   1      40.732  21.656  27.488  1.00  0.00     0.014 A 
ATOM     35  C   UNL A   1      39.753  24.089  26.519  1.00  0.00     0.010 A 
ATOM     36  C   UNL A   1      41.255  22.893  27.953  1.00  0.00     0.010 A 
ATOM     37  C   UNL A   1      40.803  24.129  27.446  1.00  0.00    -0.014 A 
BRANCH  37  38
ATOM     38  C   UNL A   1      41.421  25.457  27.808  1.00  0.00     0.031 A 
ATOM     39  C   UNL A   1      42.828  25.825  27.380  1.00  0.00     0.074 A 
ATOM     40  C   UNL A   1      40.709  26.388  28.484  1.00  0.00     0.049 A 
ATOM     41  N   UNL A   1      43.481  26.952  27.550  1.00  0.00    -0.248 NA
ATOM     42  C   UNL A   1      43.604  24.795  26.673  1.00  0.00     0.031 C 
ATOM     43  C   UNL A   1      39.349  26.206  28.989  1.00  0.00     0.029 A 
ATOM     44  N   UNL A   1      41.033  27.673  28.867  1.00  0.00    -0.354 N 
ATOM     45  C   UNL A   1      44.747  26.760  27.000  1.00  0.00     0.074 A 
ATOM     46  C   UNL A   1      44.775  25.396  26.511  1.00  0.00     0.031 C 
ATOM     47  C   UNL A   1      38.956  27.330  29.610  1.00  0.00     0.029 A 
ATOM     48  C   UNL A   1      40.041  28.309  29.580  1.00  0.00     0.049 A 
ATOM     49  H   UNL A   1      41.895  28.097  28.650  1.00  0.00     0.167 HD
ATOM     50  C   UNL A   1      45.785  27.629  26.887  1.00  0.00     0.034 A 
ATOM     51  C   UNL A   1      39.997  29.529  30.157  1.00  0.00     0.034 A 
ATOM     52  C   UNL A   1      45.772  29.001  27.336  1.00  0.00     0.049 A 
ATOM     53  C   UNL A   1      41.159  30.479  30.016  1.00  0.00     0.074 A 
ATOM     54  C   UNL A   1      46.764  29.959  27.198  1.00  0.00     0.029 A 
ATOM     55  N   UNL A   1      44.732  29.609  28.017  1.00  0.00    -0.354 N 
ATOM     56  N   UNL A   1      42.290  30.313  29.377  1.00  0.00    -0.248 NA
ATOM     57  C   UNL A   1      41.021  31.805  30.644  1.00  0.00     0.031 C 
ATOM     58  C   UNL A   1      46.340  31.133  27.829  1.00  0.00     0.029 A 
ATOM     59  C   UNL A   1      45.063  30.922  28.320  1.00  0.00     0.049 A 
ATOM     60  H   UNL A   1      43.881  29.174  28.253  1.00  0.00     0.167 HD
ATOM     61  C   UNL A   1      42.977  31.519  29.491  1.00  0.00     0.074 A 
ATOM     62  C   UNL A   1      42.126  32.417  30.242  1.00  0.00     0.031 C 
ATOM     63  C   UNL A   1      44.207  31.845  29.022  1.00  0.00     0.034 A 
BRANCH  50  64
ATOM     64  C   UNL A   1      47.046  27.137  26.213  1.00  0.00     0.023 A 
ATOM     65  C   UNL A   1      47.262  27.416  24.848  1.00  0.00     0.012 A 
ATOM     66  C   UNL A   1      48.050  26.473  26.947  1.00  0.00     0.148 A 
ATOM     67  C   UNL A   1      48.437  27.006  24.215  1.00  0.00     0.002 A 
ATOM     68  C   UNL A   1      49.238  26.110  26.321  1.00  0.00     0.091 A 
ATOM     69  F   UNL A   1      47.827  26.211  28.243  1.00  0.00    -0.205 F 
ATOM     70  C   UNL A   1      49.427  26.362  24.953  1.00  0.00     0.022 A 
BRANCH  68  71
ATOM     71  S   UNL A   1      50.610  25.354  27.202  1.00  0.00     0.127 S 
ATOM     72  O   UNL A   1      51.474  24.937  26.099  1.00  0.00    -0.237 OA
ATOM     73  O   UNL A   1      51.125  26.475  27.989  1.00  0.00    -0.237 OA
ATOM     74  O   UNL A   1      50.035  24.272  27.990  1.00  0.00    -0.744 OA
ENDBRANCH  68  71
ENDBRANCH  50  64
BRANCH  51  75
ATOM     75  C   UNL A   1      38.776  29.950  30.908  1.00  0.00     0.023 A 
ATOM     76  C   UNL A   1      38.595  29.535  32.243  1.00  0.00     0.012 A 
ATOM     77  C   UNL A   1      37.797  30.764  30.305  1.00  0.00     0.148 A 
ATOM     78  C   UNL A   1      37.445  29.890  32.948  1.00  0.00     0.002 A 
ATOM     79  C   UNL A   1      36.686  31.171  31.034  1.00  0.00     0.091 A 
ATOM     80  F   UNL A   1      37.974  31.134  29.030  1.00  0.00    -0.205 F 
ATOM     81  C   UNL A   1      36.496  30.717  32.349  1.00  0.00     0.022 A 
BRANCH  79  82
ATOM     82  S   UNL A   1      35.495  32.353  30.391  1.00  0.00     0.127 S 
ATOM     83  O   UNL A   1      35.049  31.696  29.166  1.00  0.00    -0.237 OA
ATOM     84  O   UNL A   1      34.502  32.397  31.465  1.00  0.00    -0.237 OA
ATOM     85  O   UNL A   1      36.223  33.604  30.210  1.00  0.00    -0.744 OA
ENDBRANCH  79  82
ENDBRANCH  51  75
BRANCH  63  86
ATOM     86  C   UNL A   1      44.709  33.252  29.253  1.00  0.00     0.023 A 
ATOM     87  C   UNL A   1      45.477  33.554  30.397  1.00  0.00     0.012 A 
ATOM     88  C   UNL A   1      44.464  34.267  28.306  1.00  0.00     0.148 A 
ATOM     89  C   UNL A   1      45.954  34.848  30.613  1.00  0.00     0.002 A 
ATOM     90  C   UNL A   1      44.986  35.542  28.502  1.00  0.00     0.091 A 
ATOM     91  F   UNL A   1      43.718  33.972  27.232  1.00  0.00    -0.205 F 
ATOM     92  C   UNL A   1      45.718  35.839  29.663  1.00  0.00     0.022 A 
BRANCH  90  93
ATOM     93  S   UNL A   1      44.813  36.855  27.288  1.00  0.00     0.127 S 
ATOM     94  O   UNL A   1      43.527  36.527  26.674  1.00  0.00    -0.237 OA
ATOM     95  O   UNL A   1      44.798  38.054  28.127  1.00  0.00    -0.237 OA
ATOM     96  O   UNL A   1      45.971  36.746  26.410  1.00  0.00    -0.744 OA
ENDBRANCH  90  93
ENDBRANCH  63  86
ENDBRANCH  37  38
ENDBRANCH  29  32
ENDBRANCH  27  28
ENDBRANCH  26  27
ENDBRANCH  25  26
ENDBRANCH   3  25
TORSDOF 19
ENDMDL
MODEL 2
REMARK VINA RESULT:     -11.7      4.984     10.432
REMARK SMILES C[C@@H](SCCC(=O)NCCCNC(=O)c1ccc(-c2c3nc(c(-c4cccc(S(=O)(=O)[O-])c4F)c4ccc([nH]4)c(-c4cccc(S(=O)(=O)[O-])c4F)c4nc(c(-c5cccc(S(=O)(=O)[O-])c5F)c5ccc2[nH]5)C=C4)C=C3)cc1)C(=O)Nc1ccc(C(N)=O)cc1
REMARK SMILES IDX 6 1 7 2 8 3 5 5 4 6 3 7 2 8 1 9 78 10 79 11 80 12 81 14
REMARK SMILES IDX 82 15 89 16 83 17 88 18 84 19 85 20 86 21 87 22 9 25 10 26
REMARK SMILES IDX 11 27 12 28 13 29 14 31 15 32 16 33 77 34 17 35 76 36 18 37
REMARK SMILES IDX 19 38 20 39 70 40 21 41 75 42 69 43 71 44 22 45 74 46 68 47
REMARK SMILES IDX 67 48 23 50 55 51 35 52 54 53 36 54 39 55 53 56 72 57 37 58
REMARK SMILES IDX 38 59 52 61 73 62 40 63 24 64 25 65 33 66 26 67 28 68 34 69
REMARK SMILES IDX 27 70 29 71 30 72 31 73 32 74 56 75 57 76 65 77 58 78 60 79
REMARK SMILES IDX 66 80 59 81 61 82 62 83 63 84 64 85 41 86 42 87 50 88 43 89
REMARK SMILES IDX 45 90 51 91 44 92 46 93 47 94 48 95 49 96
REMARK H PARENT 8 4 80 13 86 23 86 24 12 30 71 49 39 60
REMARK Flexibility Score: inf
ROOT
ATOM      1  C   UNL A   1      29.770  28.396  23.106  1.00  0.00     0.220 C 
ATOM      2  O   UNL A   1      29.017  28.669  22.170  1.00  0.00    -0.275 OA
ATOM      3  N   UNL A   1      30.684  29.336  23.470  1.00  0.00    -0.356 N 
ATOM      4  H   UNL A   1      30.694  30.132  22.891  1.00  0.00     0.163 HD
ENDROOT
BRANCH   1   5
ATOM      5  C   UNL A   1      29.665  27.071  23.824  1.00  0.00     0.111 C 
BRANCH   5   6
ATOM      6  C   UNL A   1      30.813  26.124  23.467  1.00  0.00     0.080 C 
BRANCH   6   7
ATOM      7  S   UNL A   1      30.663  24.435  24.173  1.00  0.00    -0.148 SA
BRANCH   7   8
ATOM      8  C   UNL A   1      32.123  24.370  25.276  1.00  0.00     0.133 C 
ATOM      9  C   UNL A   1      32.017  25.220  26.530  1.00  0.00     0.030 C 
BRANCH   8  10
ATOM     10  C   UNL A   1      33.443  24.443  24.471  1.00  0.00     0.237 C 
ATOM     11  O   UNL A   1      34.327  25.259  24.761  1.00  0.00    -0.273 OA
ATOM     12  N   UNL A   1      33.716  23.626  23.409  1.00  0.00    -0.325 N 
ATOM     13  H   UNL A   1      34.013  24.007  22.552  1.00  0.00     0.169 HD
BRANCH  12  14
ATOM     14  C   UNL A   1      33.569  22.246  23.553  1.00  0.00     0.041 A 
ATOM     15  C   UNL A   1      34.385  21.599  24.482  1.00  0.00     0.027 A 
ATOM     16  C   UNL A   1      32.571  21.567  22.867  1.00  0.00     0.027 A 
ATOM     17  C   UNL A   1      34.109  20.283  24.826  1.00  0.00     0.016 A 
ATOM     18  C   UNL A   1      32.271  20.261  23.232  1.00  0.00     0.016 A 
ATOM     19  C   UNL A   1      33.026  19.628  24.226  1.00  0.00     0.039 A 
BRANCH  19  20
ATOM     20  C   UNL A   1      32.609  18.282  24.675  1.00  0.00     0.248 C 
ATOM     21  N   UNL A   1      32.657  17.291  23.739  1.00  0.00    -0.366 N 
ATOM     22  O   UNL A   1      32.243  18.081  25.824  1.00  0.00    -0.270 OA
ATOM     23  H   UNL A   1      32.958  17.492  22.824  1.00  0.00     0.159 HD
ATOM     24  H   UNL A   1      32.389  16.374  23.979  1.00  0.00     0.159 HD
ENDBRANCH  19  20
ENDBRANCH  12  14
ENDBRANCH   8  10
ENDBRANCH   7   8
ENDBRANCH   6   7
ENDBRANCH   5   6
ENDBRANCH   1   5
BRANCH   3  25
ATOM     25  C   UNL A   1      31.645  29.381  24.558  1.00  0.00     0.117 C 
BRANCH  25  26
ATOM     26  C   UNL A   1      31.339  30.401  25.662  1.00  0.00     0.042 C 
BRANCH  26  27
ATOM     27  C   UNL A   1      32.373  30.521  26.807  1.00  0.00     0.118 C 
BRANCH  27  28
ATOM     28  N   UNL A   1      32.669  31.914  27.099  1.00  0.00    -0.352 N 
ATOM     29  C   UNL A   1      33.678  32.584  27.735  1.00  0.00     0.251 C 
ATOM     30  H   UNL A   1      31.974  32.521  26.757  1.00  0.00     0.163 HD
ATOM     31  O   UNL A   1      33.405  33.744  28.064  1.00  0.00    -0.269 OA
BRANCH  29  32
ATOM     32  C   UNL A   1      35.065  32.096  28.014  1.00  0.00     0.039 A 
ATOM     33  C   UNL A   1      35.174  30.743  28.383  1.00  0.00     0.014 A 
ATOM     34  C   UNL A   1      36.199  32.900  28.166  1.00  0.00     0.014 A 
ATOM     35  C   UNL A   1      36.349  30.220  28.946  1.00  0.00     0.010 A 
ATOM     36  C   UNL A   1      37.403  32.356  28.691  1.00  0.00     0.010 A 
ATOM     37  C   UNL A   1      37.486  31.018  29.128  1.00  0.00    -0.014 A 
BRANCH  37  38
ATOM     38  C   UNL A   1      38.696  30.437  29.815  1.00  0.00     0.031 A 
ATOM     39  C   UNL A   1      39.075  30.828  31.230  1.00  0.00     0.074 A 
ATOM     40  C   UNL A   1      39.454  29.499  29.202  1.00  0.00     0.049 A 
ATOM     41  N   UNL A   1      40.044  30.369  31.988  1.00  0.00    -0.248 NA
ATOM     42  C   UNL A   1      38.264  31.870  31.876  1.00  0.00     0.031 C 
ATOM     43  C   UNL A   1      39.252  29.011  27.838  1.00  0.00     0.029 A 
ATOM     44  N   UNL A   1      40.552  28.791  29.644  1.00  0.00    -0.354 N 
ATOM     45  C   UNL A   1      39.979  31.082  33.184  1.00  0.00     0.074 A 
ATOM     46  C   UNL A   1      38.884  32.020  33.039  1.00  0.00     0.031 C 
ATOM     47  C   UNL A   1      40.186  28.089  27.556  1.00  0.00     0.029 A 
ATOM     48  C   UNL A   1      41.080  27.934  28.703  1.00  0.00     0.049 A 
ATOM     49  H   UNL A   1      40.926  28.889  30.550  1.00  0.00     0.167 HD
ATOM     50  C   UNL A   1      40.733  30.962  34.308  1.00  0.00     0.034 A 
ATOM     51  C   UNL A   1      42.158  27.122  28.738  1.00  0.00     0.034 A 
ATOM     52  C   UNL A   1      41.806  30.014  34.491  1.00  0.00     0.049 A 
ATOM     53  C   UNL A   1      42.979  27.002  29.997  1.00  0.00     0.074 A 
ATOM     54  C   UNL A   1      42.572  29.793  35.625  1.00  0.00     0.029 A 
ATOM     55  N   UNL A   1      42.277  29.143  33.524  1.00  0.00    -0.354 N 
ATOM     56  N   UNL A   1      42.810  27.593  31.154  1.00  0.00    -0.248 NA
ATOM     57  C   UNL A   1      44.119  26.069  29.968  1.00  0.00     0.031 C 
ATOM     58  C   UNL A   1      43.530  28.816  35.331  1.00  0.00     0.029 A 
ATOM     59  C   UNL A   1      43.331  28.395  34.028  1.00  0.00     0.049 A 
ATOM     60  H   UNL A   1      41.917  29.065  32.611  1.00  0.00     0.167 HD
ATOM     61  C   UNL A   1      43.792  27.077  31.996  1.00  0.00     0.074 A 
ATOM     62  C   UNL A   1      44.539  26.107  31.225  1.00  0.00     0.031 C 
ATOM     63  C   UNL A   1      44.052  27.389  33.290  1.00  0.00     0.034 A 
BRANCH  50  64
ATOM     64  C   UNL A   1      40.410  31.870  35.474  1.00  0.00     0.023 A 
ATOM     65  C   UNL A   1      41.192  33.020  35.700  1.00  0.00     0.012 A 
ATOM     66  C   UNL A   1      39.286  31.630  36.291  1.00  0.00     0.148 A 
ATOM     67  C   UNL A   1      40.888  33.894  36.745  1.00  0.00     0.002 A 
ATOM     68  C   UNL A   1      38.961  32.530  37.300  1.00  0.00     0.091 A 
ATOM     69  F   UNL A   1      38.555  30.529  36.066  1.00  0.00    -0.205 F 
ATOM     70  C   UNL A   1      39.769  33.653  37.538  1.00  0.00     0.022 A 
BRANCH  68  71
ATOM     71  S   UNL A   1      37.492  32.357  38.322  1.00  0.00     0.127 S 
ATOM     72  O   UNL A   1      37.904  33.040  39.547  1.00  0.00    -0.237 OA
ATOM     73  O   UNL A   1      36.485  33.072  37.536  1.00  0.00    -0.237 OA
ATOM     74  O   UNL A   1      37.258  30.925  38.452  1.00  0.00    -0.744 OA
ENDBRANCH  68  71
ENDBRANCH  50  64
BRANCH  51  75
ATOM     75  C   UNL A   1      42.516  26.313  27.534  1.00  0.00     0.023 A 
ATOM     76  C   UNL A   1      43.287  26.890  26.505  1.00  0.00     0.012 A 
ATOM     77  C   UNL A   1      42.099  24.973  27.409  1.00  0.00     0.148 A 
ATOM     78  C   UNL A   1      43.602  26.160  25.358  1.00  0.00     0.002 A 
ATOM     79  C   UNL A   1      42.473  24.230  26.295  1.00  0.00     0.091 A 
ATOM     80  F   UNL A   1      41.350  24.446  28.387  1.00  0.00    -0.205 F 
ATOM     81  C   UNL A   1      43.205  24.828  25.258  1.00  0.00     0.022 A 
BRANCH  79  82
ATOM     82  S   UNL A   1      42.133  22.471  26.156  1.00  0.00     0.127 S 
ATOM     83  O   UNL A   1      40.675  22.450  26.084  1.00  0.00    -0.237 OA
ATOM     84  O   UNL A   1      42.818  22.128  24.909  1.00  0.00    -0.237 OA
ATOM     85  O   UNL A   1      42.718  21.850  27.339  1.00  0.00    -0.744 OA
ENDBRANCH  79  82
ENDBRANCH  51  75
BRANCH  63  86
ATOM     86  C   UNL A   1      45.164  26.645  33.993  1.00  0.00     0.023 A 
ATOM     87  C   UNL A   1      46.499  27.085  33.878  1.00  0.00     0.012 A 
ATOM     88  C   UNL A   1      44.878  25.536  34.816  1.00  0.00     0.148 A 
ATOM     89  C   UNL A   1      47.531  26.410  34.532  1.00  0.00     0.002 A 
ATOM     90  C   UNL A   1      45.905  24.900  35.507  1.00  0.00     0.091 A 
ATOM     91  F   UNL A   1      43.608  25.116  34.904  1.00  0.00    -0.205 F 
ATOM     92  C   UNL A   1      47.234  25.325  35.354  1.00  0.00     0.022 A 
BRANCH  90  93
ATOM     93  S   UNL A   1      45.605  23.555  36.660  1.00  0.00     0.127 S 
ATOM     94  O   UNL A   1      44.959  22.563  35.802  1.00  0.00    -0.237 OA
ATOM     95  O   UNL A   1      46.960  23.202  37.085  1.00  0.00    -0.237 OA
ATOM     96  O   UNL A   1      44.767  24.110  37.716  1.00  0.00    -0.744 OA
ENDBRANCH  90  93
ENDBRANCH  63  86
ENDBRANCH  37  38
ENDBRANCH  29  32
ENDBRANCH  27  28
ENDBRANCH  26  27
ENDBRANCH  25  26
ENDBRANCH   3  25
TORSDOF 19
ENDMDL
MODEL 3
REMARK VINA RESULT:     -11.7      4.769      9.869
REMARK SMILES C[C@@H](SCCC(=O)NCCCNC(=O)c1ccc(-c2c3nc(c(-c4cccc(S(=O)(=O)[O-])c4F)c4ccc([nH]4)c(-c4cccc(S(=O)(=O)[O-])c4F)c4nc(c(-c5cccc(S(=O)(=O)[O-])c5F)c5ccc2[nH]5)C=C4)C=C3)cc1)C(=O)Nc1ccc(C(N)=O)cc1
REMARK SMILES IDX 6 1 7 2 8 3 5 5 4 6 3 7 2 8 1 9 78 10 79 11 80 12 81 14
REMARK SMILES IDX 82 15 89 16 83 17 88 18 84 19 85 20 86 21 87 22 9 25 10 26
REMARK SMILES IDX 11 27 12 28 13 29 14 31 15 32 16 33 77 34 17 35 76 36 18 37
REMARK SMILES IDX 19 38 20 39 70 40 21 41 75 42 69 43 71 44 22 45 74 46 68 47
REMARK SMILES IDX 67 48 23 50 55 51 35 52 54 53 36 54 39 55 53 56 72 57 37 58
REMARK SMILES IDX 38 59 52 61 73 62 40 63 24 64 25 65 33 66 26 67 28 68 34 69
REMARK SMILES IDX 27 70 29 71 30 72 31 73 32 74 56 75 57 76 65 77 58 78 60 79
REMARK SMILES IDX 66 80 59 81 61 82 62 83 63 84 64 85 41 86 42 87 50 88 43 89
REMARK SMILES IDX 45 90 51 91 44 92 46 93 47 94 48 95 49 96
REMARK H PARENT 8 4 80 13 86 23 86 24 12 30 71 49 39 60
REMARK Flexibility Score: inf
ROOT
ATOM      1  C   UNL A   1      33.891  26.121  24.958  1.00  0.00     0.220 C 
ATOM      2  O   UNL A   1      34.313  26.227  23.806  1.00  0.00    -0.275 OA
ATOM      3  N   UNL A   1      33.139  27.144  25.448  1.00  0.00    -0.356 N 
ATOM      4  H   UNL A   1      33.063  27.914  24.839  1.00  0.00     0.163 HD
ENDROOT
BRANCH   1   5
ATOM      5  C   UNL A   1      34.191  24.891  25.783  1.00  0.00     0.111 C 
BRANCH   5   6
ATOM      6  C   UNL A   1      35.457  24.171  25.313  1.00  0.00     0.080 C 
BRANCH   6   7
ATOM      7  S   UNL A   1      35.330  22.339  25.275  1.00  0.00    -0.148 SA
BRANCH   7   8
ATOM      8  C   UNL A   1      33.707  22.069  26.077  1.00  0.00     0.133 C 
ATOM      9  C   UNL A   1      33.775  21.591  27.518  1.00  0.00     0.030 C 
BRANCH   8  10
ATOM     10  C   UNL A   1      32.721  21.344  25.130  1.00  0.00     0.237 C 
ATOM     11  O   UNL A   1      32.332  20.193  25.366  1.00  0.00    -0.273 OA
ATOM     12  N   UNL A   1      32.223  21.916  23.992  1.00  0.00    -0.325 N 
ATOM     13  H   UNL A   1      32.274  21.440  23.132  1.00  0.00     0.169 HD
BRANCH  12  14
ATOM     14  C   UNL A   1      31.641  23.182  24.061  1.00  0.00     0.041 A 
ATOM     15  C   UNL A   1      31.741  24.005  22.939  1.00  0.00     0.027 A 
ATOM     16  C   UNL A   1      30.902  23.560  25.174  1.00  0.00     0.027 A 
ATOM     17  C   UNL A   1      30.979  25.163  22.878  1.00  0.00     0.016 A 
ATOM     18  C   UNL A   1      30.113  24.701  25.104  1.00  0.00     0.016 A 
ATOM     19  C   UNL A   1      30.136  25.489  23.948  1.00  0.00     0.039 A 
BRANCH  19  20
ATOM     20  C   UNL A   1      29.199  26.630  23.857  1.00  0.00     0.248 C 
ATOM     21  N   UNL A   1      27.909  26.383  24.225  1.00  0.00    -0.366 N 
ATOM     22  O   UNL A   1      29.572  27.729  23.470  1.00  0.00    -0.270 OA
ATOM     23  H   UNL A   1      27.648  25.485  24.532  1.00  0.00     0.159 HD
ATOM     24  H   UNL A   1      27.239  27.103  24.184  1.00  0.00     0.159 HD
ENDBRANCH  19  20
ENDBRANCH  12  14
ENDBRANCH   8  10
ENDBRANCH   7   8
ENDBRANCH   6   7
ENDBRANCH   5   6
ENDBRANCH   1   5
BRANCH   3  25
ATOM     25  C   UNL A   1      32.428  27.307  26.703  1.00  0.00     0.117 C 
BRANCH  25  26
ATOM     26  C   UNL A   1      31.798  28.689  26.926  1.00  0.00     0.042 C 
BRANCH  26  27
ATOM     27  C   UNL A   1      31.980  29.728  25.794  1.00  0.00     0.118 C 
BRANCH  27  28
ATOM     28  N   UNL A   1      32.018  31.079  26.328  1.00  0.00    -0.352 N 
ATOM     29  C   UNL A   1      32.839  31.770  27.178  1.00  0.00     0.251 C 
ATOM     30  H   UNL A   1      31.273  31.630  25.999  1.00  0.00     0.163 HD
ATOM     31  O   UNL A   1      32.352  32.808  27.642  1.00  0.00    -0.269 OA
BRANCH  29  32
ATOM     32  C   UNL A   1      34.252  31.445  27.549  1.00  0.00     0.039 A 
ATOM     33  C   UNL A   1      34.492  30.114  27.936  1.00  0.00     0.014 A 
ATOM     34  C   UNL A   1      35.274  32.374  27.765  1.00  0.00     0.014 A 
ATOM     35  C   UNL A   1      35.680  29.730  28.577  1.00  0.00     0.010 A 
ATOM     36  C   UNL A   1      36.497  31.973  28.370  1.00  0.00     0.010 A 
ATOM     37  C   UNL A   1      36.704  30.654  28.823  1.00  0.00    -0.014 A 
BRANCH  37  38
ATOM     38  C   UNL A   1      37.927  30.217  29.590  1.00  0.00     0.031 A 
ATOM     39  C   UNL A   1      38.180  30.673  31.014  1.00  0.00     0.074 A 
ATOM     40  C   UNL A   1      38.813  29.352  29.044  1.00  0.00     0.049 A 
ATOM     41  N   UNL A   1      39.147  30.334  31.836  1.00  0.00    -0.248 NA
ATOM     42  C   UNL A   1      37.230  31.637  31.588  1.00  0.00     0.031 C 
ATOM     43  C   UNL A   1      38.741  28.820  27.685  1.00  0.00     0.029 A 
ATOM     44  N   UNL A   1      39.951  28.773  29.565  1.00  0.00    -0.354 N 
ATOM     45  C   UNL A   1      38.939  31.059  33.008  1.00  0.00     0.074 A 
ATOM     46  C   UNL A   1      37.763  31.874  32.779  1.00  0.00     0.031 C 
ATOM     47  C   UNL A   1      39.781  27.995  27.478  1.00  0.00     0.029 A 
ATOM     48  C   UNL A   1      40.618  27.958  28.677  1.00  0.00     0.049 A 
ATOM     49  H   UNL A   1      40.259  28.927  30.487  1.00  0.00     0.167 HD
ATOM     50  C   UNL A   1      39.636  31.041  34.175  1.00  0.00     0.034 A 
ATOM     51  C   UNL A   1      41.771  27.264  28.792  1.00  0.00     0.034 A 
ATOM     52  C   UNL A   1      40.789  30.215  34.441  1.00  0.00     0.049 A 
ATOM     53  C   UNL A   1      42.526  27.256  30.097  1.00  0.00     0.074 A 
ATOM     54  C   UNL A   1      41.507  30.098  35.620  1.00  0.00     0.029 A 
ATOM     55  N   UNL A   1      41.403  29.380  33.524  1.00  0.00    -0.354 N 
ATOM     56  N   UNL A   1      42.230  27.849  31.227  1.00  0.00    -0.248 NA
ATOM     57  C   UNL A   1      43.756  26.448  30.154  1.00  0.00     0.031 C 
ATOM     58  C   UNL A   1      42.577  29.222  35.405  1.00  0.00     0.029 A 
ATOM     59  C   UNL A   1      42.498  28.757  34.104  1.00  0.00     0.049 A 
ATOM     60  H   UNL A   1      41.106  29.246  32.595  1.00  0.00     0.167 HD
ATOM     61  C   UNL A   1      43.210  27.455  32.135  1.00  0.00     0.074 A 
ATOM     62  C   UNL A   1      44.096  26.554  31.431  1.00  0.00     0.031 C 
ATOM     63  C   UNL A   1      43.361  27.818  33.433  1.00  0.00     0.034 A 
BRANCH  50  64
ATOM     64  C   UNL A   1      39.153  31.933  35.297  1.00  0.00     0.023 A 
ATOM     65  C   UNL A   1      38.227  31.434  36.236  1.00  0.00     0.012 A 
ATOM     66  C   UNL A   1      39.676  33.231  35.468  1.00  0.00     0.148 A 
ATOM     67  C   UNL A   1      37.799  32.226  37.302  1.00  0.00     0.002 A 
ATOM     68  C   UNL A   1      39.281  33.997  36.560  1.00  0.00     0.091 A 
ATOM     69  F   UNL A   1      40.552  33.692  34.564  1.00  0.00    -0.205 F 
ATOM     70  C   UNL A   1      38.331  33.502  37.469  1.00  0.00     0.022 A 
BRANCH  68  71
ATOM     71  S   UNL A   1      39.971  35.618  36.913  1.00  0.00     0.127 S 
ATOM     72  O   UNL A   1      39.280  35.970  38.152  1.00  0.00    -0.237 OA
ATOM     73  O   UNL A   1      41.394  35.318  37.074  1.00  0.00    -0.237 OA
ATOM     74  O   UNL A   1      39.652  36.450  35.761  1.00  0.00    -0.744 OA
ENDBRANCH  68  71
ENDBRANCH  50  64
BRANCH  51  75
ATOM     75  C   UNL A   1      42.279  26.474  27.630  1.00  0.00     0.023 A 
ATOM     76  C   UNL A   1      43.128  27.084  26.684  1.00  0.00     0.012 A 
ATOM     77  C   UNL A   1      41.929  25.119  27.464  1.00  0.00     0.148 A 
ATOM     78  C   UNL A   1      43.585  26.371  25.575  1.00  0.00     0.002 A 
ATOM     79  C   UNL A   1      42.442  24.395  26.394  1.00  0.00     0.091 A 
ATOM     80  F   UNL A   1      41.106  24.560  28.361  1.00  0.00    -0.205 F 
ATOM     81  C   UNL A   1      43.252  25.025  25.436  1.00  0.00     0.022 A 
BRANCH  79  82
ATOM     82  S   UNL A   1      42.186  22.625  26.221  1.00  0.00     0.127 S 
ATOM     83  O   UNL A   1      42.816  22.110  27.433  1.00  0.00    -0.237 OA
ATOM     84  O   UNL A   1      40.727  22.531  26.196  1.00  0.00    -0.237 OA
ATOM     85  O   UNL A   1      42.824  22.244  24.965  1.00  0.00    -0.744 OA
ENDBRANCH  79  82
ENDBRANCH  51  75
BRANCH  63  86
ATOM     86  C   UNL A   1      44.502  27.209  34.215  1.00  0.00     0.023 A 
ATOM     87  C   UNL A   1      45.754  27.855  34.267  1.00  0.00     0.012 A 
ATOM     88  C   UNL A   1      44.316  26.018  34.947  1.00  0.00     0.148 A 
ATOM     89  C   UNL A   1      46.810  27.305  34.996  1.00  0.00     0.002 A 
ATOM     90  C   UNL A   1      45.357  25.503  35.713  1.00  0.00     0.091 A 
ATOM     91  F   UNL A   1      43.126  25.403  34.876  1.00  0.00    -0.205 F 
ATOM     92  C   UNL A   1      46.610  26.136  35.726  1.00  0.00     0.022 A 
BRANCH  90  93
ATOM     93  S   UNL A   1      45.163  24.055  36.760  1.00  0.00     0.127 S 
ATOM     94  O   UNL A   1      46.528  23.847  37.239  1.00  0.00    -0.237 OA
ATOM     95  O   UNL A   1      44.226  24.531  37.778  1.00  0.00    -0.237 OA
ATOM     96  O   UNL A   1      44.635  23.004  35.898  1.00  0.00    -0.744 OA
ENDBRANCH  90  93
ENDBRANCH  63  86
ENDBRANCH  37  38
ENDBRANCH  29  32
ENDBRANCH  27  28
ENDBRANCH  26  27
ENDBRANCH  25  26
ENDBRANCH   3  25
TORSDOF 19
ENDMDL
