MODEL 1
REMARK VINA RESULT:     -13.9      0.000      0.000
REMARK SMILES O=C(NCCCNC(=O)c1cccc(S(=O)(=O)NC[C@@H]2COc3ccccc3O2)c1)c1ccc(-c2c3nc(c(-c4cccc(S(=O)(=O)[O-])c4F)c4ccc([nH]4)c(-c4cccc(S(=O)(=O)[O-])c4F)c4nc(c(-c5cccc(S(=O)(=O)[O-])c5F)c5ccc2[nH]5)C=C4)C=C3)cc1
REMARK SMILES IDX 5 1 4 2 3 3 1 4 2 5 31 7 32 8 93 9 33 10 92 11 34 12 35 13
REMARK SMILES IDX 36 14 86 15 37 16 91 17 85 18 87 19 38 20 90 21 84 22 83 23
REMARK SMILES IDX 39 25 71 26 51 27 70 28 52 29 55 30 69 31 88 32 53 33 54 34
REMARK SMILES IDX 68 36 89 37 56 38 40 39 41 40 49 41 42 42 44 43 50 44 43 45
REMARK SMILES IDX 45 46 46 47 47 48 48 49 72 50 73 51 81 52 74 53 76 54 82 55
REMARK SMILES IDX 75 56 77 57 78 58 79 59 80 60 57 61 58 62 66 63 59 64 61 65
REMARK SMILES IDX 67 66 60 67 62 68 63 69 64 70 65 71 6 72 7 73 8 74 9 76
REMARK SMILES IDX 10 77 11 78 30 79 12 80 14 81 13 82 15 83 16 84 17 85 18 86
REMARK SMILES IDX 19 88 20 89 21 90 29 91 22 92 28 93 23 94 27 95 24 96 26 97
REMARK SMILES IDX 25 98
REMARK H PARENT 3 6 87 24 55 35 7 75 18 87
REMARK Flexibility Score: inf
ROOT
ATOM      1  C   UNL A   1      35.672  21.865  24.516  1.00  0.00     0.042 C 
ENDROOT
BRANCH   1   2
ATOM      2  C   UNL A   1      37.161  21.787  24.211  1.00  0.00     0.118 C 
BRANCH   2   3
ATOM      3  N   UNL A   1      37.816  20.681  24.894  1.00  0.00    -0.352 N 
ATOM      4  O   UNL A   1      39.445  19.572  25.970  1.00  0.00    -0.269 OA
ATOM      5  C   UNL A   1      38.953  20.656  25.669  1.00  0.00     0.251 C 
ATOM      6  H   UNL A   1      37.375  19.808  24.785  1.00  0.00     0.163 HD
BRANCH   5   7
ATOM      7  C   UNL A   1      39.594  21.915  26.113  1.00  0.00     0.039 A 
ATOM      8  C   UNL A   1      38.842  23.069  26.330  1.00  0.00     0.014 A 
ATOM      9  C   UNL A   1      40.972  21.935  26.355  1.00  0.00     0.014 A 
ATOM     10  C   UNL A   1      39.477  24.273  26.609  1.00  0.00     0.010 A 
ATOM     11  C   UNL A   1      41.597  23.124  26.745  1.00  0.00     0.010 A 
ATOM     12  C   UNL A   1      40.861  24.314  26.839  1.00  0.00    -0.014 A 
BRANCH  12  13
ATOM     13  C   UNL A   1      41.487  25.599  27.248  1.00  0.00     0.031 A 
ATOM     14  C   UNL A   1      42.871  25.977  26.797  1.00  0.00     0.074 A 
ATOM     15  C   UNL A   1      40.774  26.444  28.020  1.00  0.00     0.049 A 
ATOM     16  N   UNL A   1      43.534  27.083  27.026  1.00  0.00    -0.248 NA
ATOM     17  C   UNL A   1      43.615  24.992  25.995  1.00  0.00     0.031 C 
ATOM     18  C   UNL A   1      39.440  26.166  28.560  1.00  0.00     0.029 A 
ATOM     19  N   UNL A   1      41.057  27.705  28.477  1.00  0.00    -0.354 N 
ATOM     20  C   UNL A   1      44.778  26.917  26.428  1.00  0.00     0.074 A 
ATOM     21  C   UNL A   1      44.785  25.596  25.836  1.00  0.00     0.031 C 
ATOM     22  C   UNL A   1      39.006  27.236  29.239  1.00  0.00     0.029 A 
ATOM     23  C   UNL A   1      40.047  28.257  29.229  1.00  0.00     0.049 A 
ATOM     24  H   UNL A   1      41.903  28.171  28.284  1.00  0.00     0.167 HD
ATOM     25  C   UNL A   1      45.809  27.792  26.359  1.00  0.00     0.034 A 
ATOM     26  C   UNL A   1      39.965  29.449  29.851  1.00  0.00     0.034 A 
ATOM     27  C   UNL A   1      45.783  29.119  26.917  1.00  0.00     0.049 A 
ATOM     28  C   UNL A   1      41.111  30.410  29.727  1.00  0.00     0.074 A 
ATOM     29  C   UNL A   1      46.763  30.095  26.862  1.00  0.00     0.029 A 
ATOM     30  N   UNL A   1      44.723  29.659  27.629  1.00  0.00    -0.354 N 
ATOM     31  N   UNL A   1      42.229  30.276  29.055  1.00  0.00    -0.248 NA
ATOM     32  C   UNL A   1      40.975  31.696  30.423  1.00  0.00     0.031 C 
ATOM     33  C   UNL A   1      46.298  31.223  27.548  1.00  0.00     0.029 A 
ATOM     34  C   UNL A   1      45.024  30.954  28.020  1.00  0.00     0.049 A 
ATOM     35  H   UNL A   1      43.881  29.191  27.828  1.00  0.00     0.167 HD
ATOM     36  C   UNL A   1      42.923  31.466  29.233  1.00  0.00     0.074 A 
ATOM     37  C   UNL A   1      42.083  32.322  30.046  1.00  0.00     0.031 C 
ATOM     38  C   UNL A   1      44.155  31.810  28.785  1.00  0.00     0.034 A 
BRANCH  25  39
ATOM     39  C   UNL A   1      47.042  27.368  25.603  1.00  0.00     0.023 A 
ATOM     40  C   UNL A   1      47.985  26.532  26.234  1.00  0.00     0.012 A 
ATOM     41  C   UNL A   1      47.233  27.728  24.254  1.00  0.00     0.148 A 
ATOM     42  C   UNL A   1      49.110  26.081  25.546  1.00  0.00     0.002 A 
ATOM     43  C   UNL A   1      48.339  27.245  23.562  1.00  0.00     0.091 A 
ATOM     44  F   UNL A   1      46.337  28.542  23.676  1.00  0.00    -0.205 F 
ATOM     45  C   UNL A   1      49.281  26.428  24.208  1.00  0.00     0.022 A 
BRANCH  43  46
ATOM     46  S   UNL A   1      48.610  27.579  21.817  1.00  0.00     0.127 S 
ATOM     47  O   UNL A   1      49.044  26.270  21.331  1.00  0.00    -0.237 OA
ATOM     48  O   UNL A   1      47.278  27.983  21.367  1.00  0.00    -0.237 OA
ATOM     49  O   UNL A   1      49.612  28.634  21.765  1.00  0.00    -0.744 OA
ENDBRANCH  43  46
ENDBRANCH  25  39
BRANCH  26  50
ATOM     50  C   UNL A   1      38.728  29.808  30.597  1.00  0.00     0.023 A 
ATOM     51  C   UNL A   1      38.564  29.363  31.923  1.00  0.00     0.012 A 
ATOM     52  C   UNL A   1      37.740  30.630  30.024  1.00  0.00     0.148 A 
ATOM     53  C   UNL A   1      37.428  29.713  32.655  1.00  0.00     0.002 A 
ATOM     54  C   UNL A   1      36.642  31.026  30.778  1.00  0.00     0.091 A 
ATOM     55  F   UNL A   1      37.899  31.027  28.752  1.00  0.00    -0.205 F 
ATOM     56  C   UNL A   1      36.475  30.556  32.088  1.00  0.00     0.022 A 
BRANCH  54  57
ATOM     57  S   UNL A   1      35.462  32.231  30.162  1.00  0.00     0.127 S 
ATOM     58  O   UNL A   1      34.957  31.572  28.961  1.00  0.00    -0.237 OA
ATOM     59  O   UNL A   1      34.503  32.322  31.265  1.00  0.00    -0.237 OA
ATOM     60  O   UNL A   1      36.237  33.447  29.951  1.00  0.00    -0.744 OA
ENDBRANCH  54  57
ENDBRANCH  26  50
BRANCH  38  61
ATOM     61  C   UNL A   1      44.664  33.177  29.155  1.00  0.00     0.023 A 
ATOM     62  C   UNL A   1      45.335  33.358  30.380  1.00  0.00     0.012 A 
ATOM     63  C   UNL A   1      44.529  34.263  28.270  1.00  0.00     0.148 A 
ATOM     64  C   UNL A   1      45.836  34.609  30.734  1.00  0.00     0.002 A 
ATOM     65  C   UNL A   1      45.069  35.499  28.612  1.00  0.00     0.091 A 
ATOM     66  F   UNL A   1      43.866  34.077  27.120  1.00  0.00    -0.205 F 
ATOM     67  C   UNL A   1      45.714  35.675  29.847  1.00  0.00     0.022 A 
BRANCH  65  68
ATOM     68  S   UNL A   1      45.027  36.902  27.491  1.00  0.00     0.127 S 
ATOM     69  O   UNL A   1      45.805  36.401  26.359  1.00  0.00    -0.237 OA
ATOM     70  O   UNL A   1      43.596  37.052  27.229  1.00  0.00    -0.237 OA
ATOM     71  O   UNL A   1      45.622  38.010  28.224  1.00  0.00    -0.744 OA
ENDBRANCH  65  68
ENDBRANCH  38  61
ENDBRANCH  12  13
ENDBRANCH   5   7
ENDBRANCH   2   3
ENDBRANCH   1   2
BRANCH   1  72
ATOM     72  C   UNL A   1      35.260  21.070  25.745  1.00  0.00     0.118 C 
BRANCH  72  73
ATOM     73  N   UNL A   1      34.431  19.923  25.393  1.00  0.00    -0.352 N 
ATOM     74  C   UNL A   1      33.096  19.826  25.103  1.00  0.00     0.251 C 
ATOM     75  H   UNL A   1      34.917  19.067  25.358  1.00  0.00     0.163 HD
ATOM     76  O   UNL A   1      32.556  18.723  25.129  1.00  0.00    -0.269 OA
BRANCH  74  77
ATOM     77  C   UNL A   1      32.305  21.000  24.665  1.00  0.00     0.041 A 
ATOM     78  C   UNL A   1      32.284  21.362  23.316  1.00  0.00     0.014 A 
ATOM     79  C   UNL A   1      31.748  21.861  25.605  1.00  0.00     0.035 A 
ATOM     80  C   UNL A   1      31.686  22.565  22.921  1.00  0.00     0.002 A 
ATOM     81  C   UNL A   1      31.199  23.080  25.223  1.00  0.00     0.083 A 
ATOM     82  C   UNL A   1      31.148  23.434  23.876  1.00  0.00     0.022 A 
BRANCH  81  83
ATOM     83  S   UNL A   1      30.610  24.202  26.468  1.00  0.00     0.240 S 
ATOM     84  O   UNL A   1      29.587  23.530  27.232  1.00  0.00    -0.207 OA
ATOM     85  O   UNL A   1      31.779  24.791  27.079  1.00  0.00    -0.207 OA
BRANCH  83  86
ATOM     86  N   UNL A   1      29.893  25.447  25.570  1.00  0.00    -0.207 NA
ATOM     87  H   UNL A   1      29.006  25.658  26.028  1.00  0.00     0.141 HD
BRANCH  86  88
ATOM     88  C   UNL A   1      30.582  26.751  25.364  1.00  0.00     0.147 C 
BRANCH  88  89
ATOM     89  C   UNL A   1      30.863  27.164  23.902  1.00  0.00     0.226 C 
ATOM     90  C   UNL A   1      31.787  28.377  23.741  1.00  0.00     0.276 C 
ATOM     91  O   UNL A   1      29.606  27.408  23.236  1.00  0.00    -0.482 OA
ATOM     92  O   UNL A   1      31.222  29.553  24.318  1.00  0.00    -0.486 OA
ATOM     93  C   UNL A   1      29.191  28.713  23.291  1.00  0.00     0.161 A 
ATOM     94  C   UNL A   1      29.963  29.750  23.820  1.00  0.00     0.161 A 
ATOM     95  C   UNL A   1      27.932  28.989  22.765  1.00  0.00     0.050 A 
ATOM     96  C   UNL A   1      29.470  31.052  23.858  1.00  0.00     0.050 A 
ATOM     97  C   UNL A   1      27.445  30.298  22.779  1.00  0.00     0.004 A 
ATOM     98  C   UNL A   1      28.211  31.327  23.329  1.00  0.00     0.004 A 
ENDBRANCH  88  89
ENDBRANCH  86  88
ENDBRANCH  83  86
ENDBRANCH  81  83
ENDBRANCH  74  77
ENDBRANCH  72  73
ENDBRANCH   1  72
TORSDOF 17
ENDMDL
MODEL 2
REMARK VINA RESULT:     -13.9      5.159     10.480
REMARK SMILES O=C(NCCCNC(=O)c1cccc(S(=O)(=O)NC[C@@H]2COc3ccccc3O2)c1)c1ccc(-c2c3nc(c(-c4cccc(S(=O)(=O)[O-])c4F)c4ccc([nH]4)c(-c4cccc(S(=O)(=O)[O-])c4F)c4nc(c(-c5cccc(S(=O)(=O)[O-])c5F)c5ccc2[nH]5)C=C4)C=C3)cc1
REMARK SMILES IDX 5 1 4 2 3 3 1 4 2 5 31 7 32 8 93 9 33 10 92 11 34 12 35 13
REMARK SMILES IDX 36 14 86 15 37 16 91 17 85 18 87 19 38 20 90 21 84 22 83 23
REMARK SMILES IDX 39 25 71 26 51 27 70 28 52 29 55 30 69 31 88 32 53 33 54 34
REMARK SMILES IDX 68 36 89 37 56 38 40 39 41 40 49 41 42 42 44 43 50 44 43 45
REMARK SMILES IDX 45 46 46 47 47 48 48 49 72 50 73 51 81 52 74 53 76 54 82 55
REMARK SMILES IDX 75 56 77 57 78 58 79 59 80 60 57 61 58 62 66 63 59 64 61 65
REMARK SMILES IDX 67 66 60 67 62 68 63 69 64 70 65 71 6 72 7 73 8 74 9 76
REMARK SMILES IDX 10 77 11 78 30 79 12 80 14 81 13 82 15 83 16 84 17 85 18 86
REMARK SMILES IDX 19 88 20 89 21 90 29 91 22 92 28 93 23 94 27 95 24 96 26 97
REMARK SMILES IDX 25 98
REMARK H PARENT 3 6 87 24 55 35 7 75 18 87
REMARK Flexibility Score: inf
ROOT
ATOM      1  C   UNL A   1      33.151  29.285  24.082  1.00  0.00     0.042 C 
ENDROOT
BRANCH   1   2
ATOM      2  C   UNL A   1      32.696  29.406  25.529  1.00  0.00     0.118 C 
BRANCH   2   3
ATOM      3  N   UNL A   1      32.331  30.769  25.890  1.00  0.00    -0.352 N 
ATOM      4  O   UNL A   1      32.215  32.630  27.140  1.00  0.00    -0.269 OA
ATOM      5  C   UNL A   1      32.820  31.594  26.876  1.00  0.00     0.251 C 
ATOM      6  H   UNL A   1      31.618  31.165  25.338  1.00  0.00     0.163 HD
BRANCH   5   7
ATOM      7  C   UNL A   1      34.040  31.230  27.632  1.00  0.00     0.039 A 
ATOM      8  C   UNL A   1      34.975  32.198  27.998  1.00  0.00     0.014 A 
ATOM      9  C   UNL A   1      34.237  29.900  28.018  1.00  0.00     0.014 A 
ATOM     10  C   UNL A   1      36.178  31.819  28.581  1.00  0.00     0.010 A 
ATOM     11  C   UNL A   1      35.399  29.535  28.706  1.00  0.00     0.010 A 
ATOM     12  C   UNL A   1      36.399  30.485  28.961  1.00  0.00    -0.014 A 
BRANCH  12  13
ATOM     13  C   UNL A   1      37.649  30.139  29.687  1.00  0.00     0.031 A 
ATOM     14  C   UNL A   1      37.908  30.631  31.085  1.00  0.00     0.074 A 
ATOM     15  C   UNL A   1      38.550  29.345  29.073  1.00  0.00     0.049 A 
ATOM     16  N   UNL A   1      38.924  30.373  31.869  1.00  0.00    -0.248 NA
ATOM     17  C   UNL A   1      36.908  31.531  31.682  1.00  0.00     0.031 C 
ATOM     18  C   UNL A   1      38.432  28.846  27.700  1.00  0.00     0.029 A 
ATOM     19  N   UNL A   1      39.731  28.809  29.518  1.00  0.00    -0.354 N 
ATOM     20  C   UNL A   1      38.706  31.101  33.033  1.00  0.00     0.074 A 
ATOM     21  C   UNL A   1      37.465  31.823  32.850  1.00  0.00     0.031 C 
ATOM     22  C   UNL A   1      39.473  28.048  27.428  1.00  0.00     0.029 A 
ATOM     23  C   UNL A   1      40.360  28.017  28.585  1.00  0.00     0.049 A 
ATOM     24  H   UNL A   1      40.093  28.973  30.418  1.00  0.00     0.167 HD
ATOM     25  C   UNL A   1      39.459  31.145  34.159  1.00  0.00     0.034 A 
ATOM     26  C   UNL A   1      41.525  27.345  28.647  1.00  0.00     0.034 A 
ATOM     27  C   UNL A   1      40.672  30.395  34.351  1.00  0.00     0.049 A 
ATOM     28  C   UNL A   1      42.318  27.387  29.921  1.00  0.00     0.074 A 
ATOM     29  C   UNL A   1      41.482  30.341  35.473  1.00  0.00     0.029 A 
ATOM     30  N   UNL A   1      41.251  29.566  33.402  1.00  0.00    -0.354 N 
ATOM     31  N   UNL A   1      42.031  27.986  31.050  1.00  0.00    -0.248 NA
ATOM     32  C   UNL A   1      43.582  26.639  29.939  1.00  0.00     0.031 C 
ATOM     33  C   UNL A   1      42.555  29.485  35.198  1.00  0.00     0.029 A 
ATOM     34  C   UNL A   1      42.407  28.996  33.911  1.00  0.00     0.049 A 
ATOM     35  H   UNL A   1      40.893  29.407  32.499  1.00  0.00     0.167 HD
ATOM     36  C   UNL A   1      43.068  27.674  31.920  1.00  0.00     0.074 A 
ATOM     37  C   UNL A   1      43.972  26.804  31.196  1.00  0.00     0.031 C 
ATOM     38  C   UNL A   1      43.268  28.092  33.194  1.00  0.00     0.034 A 
BRANCH  25  39
ATOM     39  C   UNL A   1      38.962  31.991  35.303  1.00  0.00     0.023 A 
ATOM     40  C   UNL A   1      39.047  33.395  35.209  1.00  0.00     0.012 A 
ATOM     41  C   UNL A   1      38.348  31.410  36.430  1.00  0.00     0.148 A 
ATOM     42  C   UNL A   1      38.550  34.207  36.228  1.00  0.00     0.002 A 
ATOM     43  C   UNL A   1      37.823  32.228  37.426  1.00  0.00     0.091 A 
ATOM     44  F   UNL A   1      38.296  30.073  36.513  1.00  0.00    -0.205 F 
ATOM     45  C   UNL A   1      37.929  33.624  37.330  1.00  0.00     0.022 A 
BRANCH  43  46
ATOM     46  S   UNL A   1      36.943  31.574  38.850  1.00  0.00     0.127 S 
ATOM     47  O   UNL A   1      37.917  31.785  39.920  1.00  0.00    -0.237 OA
ATOM     48  O   UNL A   1      35.769  32.445  38.917  1.00  0.00    -0.237 OA
ATOM     49  O   UNL A   1      36.647  30.185  38.532  1.00  0.00    -0.744 OA
ENDBRANCH  43  46
ENDBRANCH  25  39
BRANCH  26  50
ATOM     50  C   UNL A   1      41.973  26.537  27.479  1.00  0.00     0.023 A 
ATOM     51  C   UNL A   1      42.759  27.140  26.479  1.00  0.00     0.012 A 
ATOM     52  C   UNL A   1      41.673  25.165  27.380  1.00  0.00     0.148 A 
ATOM     53  C   UNL A   1      43.219  26.397  25.392  1.00  0.00     0.002 A 
ATOM     54  C   UNL A   1      42.185  24.417  26.327  1.00  0.00     0.091 A 
ATOM     55  F   UNL A   1      40.903  24.611  28.329  1.00  0.00    -0.205 F 
ATOM     56  C   UNL A   1      42.945  25.032  25.322  1.00  0.00     0.022 A 
BRANCH  54  57
ATOM     57  S   UNL A   1      41.999  22.632  26.264  1.00  0.00     0.127 S 
ATOM     58  O   UNL A   1      40.547  22.480  26.258  1.00  0.00    -0.237 OA
ATOM     59  O   UNL A   1      42.660  22.293  25.002  1.00  0.00    -0.237 OA
ATOM     60  O   UNL A   1      42.693  22.136  27.445  1.00  0.00    -0.744 OA
ENDBRANCH  54  57
ENDBRANCH  26  50
BRANCH  38  61
ATOM     61  C   UNL A   1      44.507  27.601  33.892  1.00  0.00     0.023 A 
ATOM     62  C   UNL A   1      45.689  28.363  33.821  1.00  0.00     0.012 A 
ATOM     63  C   UNL A   1      44.486  26.421  34.659  1.00  0.00     0.148 A 
ATOM     64  C   UNL A   1      46.844  27.941  34.479  1.00  0.00     0.002 A 
ATOM     65  C   UNL A   1      45.630  26.028  35.346  1.00  0.00     0.091 A 
ATOM     66  F   UNL A   1      43.359  25.696  34.694  1.00  0.00    -0.205 F 
ATOM     67  C   UNL A   1      46.811  26.782  35.250  1.00  0.00     0.022 A 
BRANCH  65  68
ATOM     68  S   UNL A   1      45.649  24.594  36.428  1.00  0.00     0.127 S 
ATOM     69  O   UNL A   1      47.055  24.198  36.374  1.00  0.00    -0.237 OA
ATOM     70  O   UNL A   1      45.223  25.161  37.708  1.00  0.00    -0.237 OA
ATOM     71  O   UNL A   1      44.705  23.649  35.847  1.00  0.00    -0.744 OA
ENDBRANCH  65  68
ENDBRANCH  38  61
ENDBRANCH  12  13
ENDBRANCH   5   7
ENDBRANCH   2   3
ENDBRANCH   1   2
BRANCH   1  72
ATOM     72  C   UNL A   1      34.163  28.172  23.855  1.00  0.00     0.118 C 
BRANCH  72  73
ATOM     73  N   UNL A   1      33.974  27.528  22.560  1.00  0.00    -0.352 N 
ATOM     74  C   UNL A   1      33.051  26.610  22.132  1.00  0.00     0.251 C 
ATOM     75  H   UNL A   1      34.623  27.800  21.872  1.00  0.00     0.163 HD
ATOM     76  O   UNL A   1      33.263  25.987  21.094  1.00  0.00    -0.269 OA
BRANCH  74  77
ATOM     77  C   UNL A   1      31.759  26.417  22.831  1.00  0.00     0.041 A 
ATOM     78  C   UNL A   1      30.664  27.223  22.508  1.00  0.00     0.014 A 
ATOM     79  C   UNL A   1      31.681  25.582  23.941  1.00  0.00     0.035 A 
ATOM     80  C   UNL A   1      29.498  27.166  23.282  1.00  0.00     0.002 A 
ATOM     81  C   UNL A   1      30.544  25.560  24.742  1.00  0.00     0.083 A 
ATOM     82  C   UNL A   1      29.437  26.339  24.409  1.00  0.00     0.022 A 
BRANCH  81  83
ATOM     83  S   UNL A   1      30.533  24.572  26.217  1.00  0.00     0.240 S 
ATOM     84  O   UNL A   1      31.782  24.781  26.909  1.00  0.00    -0.207 OA
ATOM     85  O   UNL A   1      29.249  24.783  26.846  1.00  0.00    -0.207 OA
BRANCH  83  86
ATOM     86  N   UNL A   1      30.494  22.984  25.629  1.00  0.00    -0.207 NA
ATOM     87  H   UNL A   1      30.219  23.047  24.649  1.00  0.00     0.141 HD
BRANCH  86  88
ATOM     88  C   UNL A   1      31.699  22.109  25.673  1.00  0.00     0.147 C 
BRANCH  88  89
ATOM     89  C   UNL A   1      32.153  21.485  24.336  1.00  0.00     0.226 C 
ATOM     90  C   UNL A   1      32.803  20.101  24.458  1.00  0.00     0.276 C 
ATOM     91  O   UNL A   1      33.057  22.399  23.678  1.00  0.00    -0.482 OA
ATOM     92  O   UNL A   1      34.001  20.145  25.231  1.00  0.00    -0.486 OA
ATOM     93  C   UNL A   1      34.378  22.184  23.972  1.00  0.00     0.161 A 
ATOM     94  C   UNL A   1      34.838  21.102  24.729  1.00  0.00     0.161 A 
ATOM     95  C   UNL A   1      35.289  23.102  23.457  1.00  0.00     0.050 A 
ATOM     96  C   UNL A   1      36.195  20.956  25.002  1.00  0.00     0.050 A 
ATOM     97  C   UNL A   1      36.653  22.944  23.709  1.00  0.00     0.004 A 
ATOM     98  C   UNL A   1      37.105  21.875  24.484  1.00  0.00     0.004 A 
ENDBRANCH  88  89
ENDBRANCH  86  88
ENDBRANCH  83  86
ENDBRANCH  81  83
ENDBRANCH  74  77
ENDBRANCH  72  73
ENDBRANCH   1  72
TORSDOF 17
ENDMDL
MODEL 3
REMARK VINA RESULT:     -13.8      5.232     10.382
REMARK SMILES O=C(NCCCNC(=O)c1cccc(S(=O)(=O)NC[C@@H]2COc3ccccc3O2)c1)c1ccc(-c2c3nc(c(-c4cccc(S(=O)(=O)[O-])c4F)c4ccc([nH]4)c(-c4cccc(S(=O)(=O)[O-])c4F)c4nc(c(-c5cccc(S(=O)(=O)[O-])c5F)c5ccc2[nH]5)C=C4)C=C3)cc1
REMARK SMILES IDX 5 1 4 2 3 3 1 4 2 5 31 7 32 8 93 9 33 10 92 11 34 12 35 13
REMARK SMILES IDX 36 14 86 15 37 16 91 17 85 18 87 19 38 20 90 21 84 22 83 23
REMARK SMILES IDX 39 25 71 26 51 27 70 28 52 29 55 30 69 31 88 32 53 33 54 34
REMARK SMILES IDX 68 36 89 37 56 38 40 39 41 40 49 41 42 42 44 43 50 44 43 45
REMARK SMILES IDX 45 46 46 47 47 48 48 49 72 50 73 51 81 52 74 53 76 54 82 55
REMARK SMILES IDX 75 56 77 57 78 58 79 59 80 60 57 61 58 62 66 63 59 64 61 65
REMARK SMILES IDX 67 66 60 67 62 68 63 69 64 70 65 71 6 72 7 73 8 74 9 76
REMARK SMILES IDX 10 77 11 78 30 79 12 80 14 81 13 82 15 83 16 84 17 85 18 86
REMARK SMILES IDX 19 88 20 89 21 90 29 91 22 92 28 93 23 94 27 95 24 96 26 97
REMARK SMILES IDX 25 98
REMARK H PARENT 3 6 87 24 55 35 7 75 18 87
REMARK Flexibility Score: inf
ROOT
ATOM      1  C   UNL A   1      32.504  29.285  24.755  1.00  0.00     0.042 C 
ENDROOT
BRANCH   1   2
ATOM      2  C   UNL A   1      33.454  29.727  25.859  1.00  0.00     0.118 C 
BRANCH   2   3
ATOM      3  N   UNL A   1      33.144  31.056  26.367  1.00  0.00    -0.352 N 
ATOM      4  O   UNL A   1      33.165  32.800  27.781  1.00  0.00    -0.269 OA
ATOM      5  C   UNL A   1      33.727  31.784  27.378  1.00  0.00     0.251 C 
ATOM      6  H   UNL A   1      32.396  31.507  25.914  1.00  0.00     0.163 HD
BRANCH   5   7
ATOM      7  C   UNL A   1      34.999  31.342  27.995  1.00  0.00     0.039 A 
ATOM      8  C   UNL A   1      35.149  30.044  28.482  1.00  0.00     0.014 A 
ATOM      9  C   UNL A   1      36.079  32.230  28.053  1.00  0.00     0.014 A 
ATOM     10  C   UNL A   1      36.296  29.690  29.183  1.00  0.00     0.010 A 
ATOM     11  C   UNL A   1      37.276  31.836  28.660  1.00  0.00     0.010 A 
ATOM     12  C   UNL A   1      37.383  30.575  29.264  1.00  0.00    -0.014 A 
BRANCH  12  13
ATOM     13  C   UNL A   1      38.636  30.119  29.921  1.00  0.00     0.031 A 
ATOM     14  C   UNL A   1      39.015  30.585  31.301  1.00  0.00     0.074 A 
ATOM     15  C   UNL A   1      39.427  29.248  29.262  1.00  0.00     0.049 A 
ATOM     16  N   UNL A   1      40.046  30.237  32.028  1.00  0.00    -0.248 NA
ATOM     17  C   UNL A   1      38.134  31.570  31.948  1.00  0.00     0.031 C 
ATOM     18  C   UNL A   1      39.190  28.762  27.900  1.00  0.00     0.029 A 
ATOM     19  N   UNL A   1      40.579  28.608  29.643  1.00  0.00    -0.354 N 
ATOM     20  C   UNL A   1      39.959  30.981  33.200  1.00  0.00     0.074 A 
ATOM     21  C   UNL A   1      38.778  31.811  33.082  1.00  0.00     0.031 C 
ATOM     22  C   UNL A   1      40.139  27.874  27.575  1.00  0.00     0.029 A 
ATOM     23  C   UNL A   1      41.083  27.765  28.681  1.00  0.00     0.049 A 
ATOM     24  H   UNL A   1      41.004  28.740  30.521  1.00  0.00     0.167 HD
ATOM     25  C   UNL A   1      40.773  30.957  34.282  1.00  0.00     0.034 A 
ATOM     26  C   UNL A   1      42.185  26.992  28.681  1.00  0.00     0.034 A 
ATOM     27  C   UNL A   1      41.924  30.102  34.410  1.00  0.00     0.049 A 
ATOM     28  C   UNL A   1      43.049  26.962  29.908  1.00  0.00     0.074 A 
ATOM     29  C   UNL A   1      42.787  29.976  35.485  1.00  0.00     0.029 A 
ATOM     30  N   UNL A   1      42.374  29.226  33.434  1.00  0.00    -0.354 N 
ATOM     31  N   UNL A   1      42.878  27.584  31.050  1.00  0.00    -0.248 NA
ATOM     32  C   UNL A   1      44.240  26.105  29.860  1.00  0.00     0.031 C 
ATOM     33  C   UNL A   1      43.763  29.029  35.156  1.00  0.00     0.029 A 
ATOM     34  C   UNL A   1      43.502  28.556  33.880  1.00  0.00     0.049 A 
ATOM     35  H   UNL A   1      41.954  29.099  32.553  1.00  0.00     0.167 HD
ATOM     36  C   UNL A   1      43.931  27.181  31.862  1.00  0.00     0.074 A 
ATOM     37  C   UNL A   1      44.712  26.234  31.093  1.00  0.00     0.031 C 
ATOM     38  C   UNL A   1      44.237  27.578  33.121  1.00  0.00     0.034 A 
BRANCH  25  39
ATOM     39  C   UNL A   1      40.418  31.844  35.448  1.00  0.00     0.023 A 
ATOM     40  C   UNL A   1      41.151  33.029  35.660  1.00  0.00     0.012 A 
ATOM     41  C   UNL A   1      39.323  31.550  36.283  1.00  0.00     0.148 A 
ATOM     42  C   UNL A   1      40.815  33.896  36.699  1.00  0.00     0.002 A 
ATOM     43  C   UNL A   1      38.972  32.438  37.295  1.00  0.00     0.091 A 
ATOM     44  F   UNL A   1      38.651  30.407  36.080  1.00  0.00    -0.205 F 
ATOM     45  C   UNL A   1      39.720  33.606  37.509  1.00  0.00     0.022 A 
BRANCH  43  46
ATOM     46  S   UNL A   1      37.535  32.187  38.346  1.00  0.00     0.127 S 
ATOM     47  O   UNL A   1      38.012  32.709  39.626  1.00  0.00    -0.237 OA
ATOM     48  O   UNL A   1      36.521  33.014  37.692  1.00  0.00    -0.237 OA
ATOM     49  O   UNL A   1      37.262  30.757  38.313  1.00  0.00    -0.744 OA
ENDBRANCH  43  46
ENDBRANCH  25  39
BRANCH  26  50
ATOM     50  C   UNL A   1      42.494  26.147  27.494  1.00  0.00     0.023 A 
ATOM     51  C   UNL A   1      43.286  26.674  26.455  1.00  0.00     0.012 A 
ATOM     52  C   UNL A   1      42.057  24.812  27.412  1.00  0.00     0.148 A 
ATOM     53  C   UNL A   1      43.617  25.893  25.347  1.00  0.00     0.002 A 
ATOM     54  C   UNL A   1      42.441  24.020  26.336  1.00  0.00     0.091 A 
ATOM     55  F   UNL A   1      41.285  24.332  28.398  1.00  0.00    -0.205 F 
ATOM     56  C   UNL A   1      43.207  24.562  25.294  1.00  0.00     0.022 A 
BRANCH  54  57
ATOM     57  S   UNL A   1      42.079  22.262  26.285  1.00  0.00     0.127 S 
ATOM     58  O   UNL A   1      42.807  21.840  25.091  1.00  0.00    -0.237 OA
ATOM     59  O   UNL A   1      42.643  21.790  27.550  1.00  0.00    -0.237 OA
ATOM     60  O   UNL A   1      40.626  22.176  26.216  1.00  0.00    -0.744 OA
ENDBRANCH  54  57
ENDBRANCH  26  50
BRANCH  38  61
ATOM     61  C   UNL A   1      45.465  26.979  33.752  1.00  0.00     0.023 A 
ATOM     62  C   UNL A   1      46.701  27.643  33.629  1.00  0.00     0.012 A 
ATOM     63  C   UNL A   1      45.385  25.794  34.507  1.00  0.00     0.148 A 
ATOM     64  C   UNL A   1      47.847  27.120  34.224  1.00  0.00     0.002 A 
ATOM     65  C   UNL A   1      46.525  25.301  35.133  1.00  0.00     0.091 A 
ATOM     66  F   UNL A   1      44.205  25.164  34.592  1.00  0.00    -0.205 F 
ATOM     67  C   UNL A   1      47.757  25.957  34.985  1.00  0.00     0.022 A 
BRANCH  65  68
ATOM     68  S   UNL A   1      46.479  23.856  36.199  1.00  0.00     0.127 S 
ATOM     69  O   UNL A   1      47.882  23.727  36.587  1.00  0.00    -0.237 OA
ATOM     70  O   UNL A   1      45.586  24.287  37.275  1.00  0.00    -0.237 OA
ATOM     71  O   UNL A   1      45.950  22.776  35.378  1.00  0.00    -0.744 OA
ENDBRANCH  65  68
ENDBRANCH  38  61
ENDBRANCH  12  13
ENDBRANCH   5   7
ENDBRANCH   2   3
ENDBRANCH   1   2
BRANCH   1  72
ATOM     72  C   UNL A   1      31.092  29.828  24.914  1.00  0.00     0.118 C 
BRANCH  72  73
ATOM     73  N   UNL A   1      30.452  30.051  23.623  1.00  0.00    -0.352 N 
ATOM     74  C   UNL A   1      30.221  29.207  22.568  1.00  0.00     0.251 C 
ATOM     75  H   UNL A   1      30.127  30.970  23.485  1.00  0.00     0.163 HD
ATOM     76  O   UNL A   1      29.936  29.682  21.472  1.00  0.00    -0.269 OA
BRANCH  74  77
ATOM     77  C   UNL A   1      30.211  27.735  22.735  1.00  0.00     0.041 A 
ATOM     78  C   UNL A   1      29.215  27.127  23.504  1.00  0.00     0.014 A 
ATOM     79  C   UNL A   1      31.292  26.973  22.302  1.00  0.00     0.035 A 
ATOM     80  C   UNL A   1      29.299  25.763  23.810  1.00  0.00     0.002 A 
ATOM     81  C   UNL A   1      31.404  25.630  22.646  1.00  0.00     0.083 A 
ATOM     82  C   UNL A   1      30.400  25.010  23.389  1.00  0.00     0.022 A 
BRANCH  81  83
ATOM     83  S   UNL A   1      32.859  24.727  22.176  1.00  0.00     0.240 S 
ATOM     84  O   UNL A   1      32.574  23.318  22.297  1.00  0.00    -0.207 OA
ATOM     85  O   UNL A   1      33.337  25.323  20.950  1.00  0.00    -0.207 OA
BRANCH  83  86
ATOM     86  N   UNL A   1      33.992  25.158  23.360  1.00  0.00    -0.207 NA
ATOM     87  H   UNL A   1      33.458  25.391  24.198  1.00  0.00     0.141 HD
BRANCH  86  88
ATOM     88  C   UNL A   1      35.063  24.216  23.790  1.00  0.00     0.147 C 
BRANCH  88  89
ATOM     89  C   UNL A   1      35.101  23.847  25.289  1.00  0.00     0.226 C 
ATOM     90  C   UNL A   1      35.025  22.344  25.586  1.00  0.00     0.276 C 
ATOM     91  O   UNL A   1      34.031  24.540  25.968  1.00  0.00    -0.482 OA
ATOM     92  O   UNL A   1      33.797  21.778  25.133  1.00  0.00    -0.486 OA
ATOM     93  C   UNL A   1      32.867  23.822  26.050  1.00  0.00     0.161 A 
ATOM     94  C   UNL A   1      32.746  22.492  25.639  1.00  0.00     0.161 A 
ATOM     95  C   UNL A   1      31.767  24.479  26.593  1.00  0.00     0.050 A 
ATOM     96  C   UNL A   1      31.526  21.829  25.737  1.00  0.00     0.050 A 
ATOM     97  C   UNL A   1      30.547  23.810  26.714  1.00  0.00     0.004 A 
ATOM     98  C   UNL A   1      30.425  22.488  26.283  1.00  0.00     0.004 A 
ENDBRANCH  88  89
ENDBRANCH  86  88
ENDBRANCH  83  86
ENDBRANCH  81  83
ENDBRANCH  74  77
ENDBRANCH  72  73
ENDBRANCH   1  72
TORSDOF 17
ENDMDL
