MODEL 1
REMARK VINA RESULT:     -11.6      0.000      0.000
REMARK SMILES CC(C)(O)CCOc1ccc(C(=O)NCCCNC(=O)c2ccc(-c3c4nc(c(-c5cccc(S(=O)(=O)[O-])c5F)c5ccc([nH]5)c(-c5cccc(S(=O)(=O)[O-])c5F)c5nc(c(-c6cccc(S(=O)(=O)[O-])c6F)c6ccc3[nH]6)C=C5)C=C4)cc2)cc1
REMARK SMILES IDX 15 1 14 2 12 3 13 4 11 6 8 7 9 8 85 9 10 10 84 11 7 12 6 13
REMARK SMILES IDX 5 14 2 15 1 16 3 17 4 18 16 20 17 21 18 22 19 23 20 25 21 26
REMARK SMILES IDX 22 27 83 28 23 29 82 30 24 31 25 32 26 33 76 34 27 35 81 36
REMARK SMILES IDX 75 37 77 38 28 39 80 40 74 41 73 42 29 44 61 45 41 46 60 47
REMARK SMILES IDX 42 48 45 49 59 50 78 51 43 52 44 53 58 55 79 56 46 57 30 58
REMARK SMILES IDX 31 59 39 60 32 61 34 62 40 63 33 64 35 65 36 66 37 67 38 68
REMARK SMILES IDX 62 69 63 70 71 71 64 72 66 73 72 74 65 75 67 76 68 77 69 78
REMARK SMILES IDX 70 79 47 80 48 81 56 82 49 83 51 84 57 85 50 86 52 87 53 88
REMARK SMILES IDX 54 89 55 90
REMARK H PARENT 14 5 4 19 18 24 77 43 45 54
REMARK Flexibility Score: inf
ROOT
ATOM      1  C   UNL A   1      31.230  28.550  23.418  1.00  0.00     0.118 C 
ENDROOT
BRANCH   1   2
ATOM      2  N   UNL A   1      32.436  28.710  22.616  1.00  0.00    -0.352 N 
ATOM      3  C   UNL A   1      33.425  27.813  22.280  1.00  0.00     0.251 C 
ATOM      4  O   UNL A   1      34.404  28.202  21.646  1.00  0.00    -0.269 OA
ATOM      5  H   UNL A   1      32.567  29.617  22.253  1.00  0.00     0.163 HD
BRANCH   3   6
ATOM      6  C   UNL A   1      33.362  26.397  22.713  1.00  0.00     0.040 A 
ATOM      7  C   UNL A   1      32.870  23.858  23.770  1.00  0.00     0.119 A 
ATOM      8  C   UNL A   1      33.599  24.795  24.509  1.00  0.00     0.047 A 
ATOM      9  C   UNL A   1      32.603  24.121  22.429  1.00  0.00     0.047 A 
ATOM     10  C   UNL A   1      33.849  26.064  23.981  1.00  0.00     0.017 A 
ATOM     11  C   UNL A   1      32.831  25.396  21.903  1.00  0.00     0.017 A 
BRANCH   7  12
ATOM     12  O   UNL A   1      32.397  22.797  24.488  1.00  0.00    -0.493 OA
BRANCH  12  13
ATOM     13  C   UNL A   1      32.473  21.482  23.925  1.00  0.00     0.232 C 
BRANCH  13  14
ATOM     14  C   UNL A   1      33.450  20.494  24.603  1.00  0.00     0.076 C 
BRANCH  14  15
ATOM     15  C   UNL A   1      33.134  18.980  24.547  1.00  0.00     0.062 C 
ATOM     16  C   UNL A   1      34.400  18.120  24.624  1.00  0.00     0.042 C 
ATOM     17  C   UNL A   1      32.404  18.615  23.245  1.00  0.00     0.042 C 
BRANCH  15  18
ATOM     18  O   UNL A   1      32.226  18.644  25.598  1.00  0.00    -0.390 OA
ATOM     19  H   UNL A   1      32.675  18.077  26.243  1.00  0.00     0.211 HD
ENDBRANCH  15  18
ENDBRANCH  14  15
ENDBRANCH  13  14
ENDBRANCH  12  13
ENDBRANCH   7  12
ENDBRANCH   3   6
ENDBRANCH   1   2
BRANCH   1  20
ATOM     20  C   UNL A   1      31.461  28.708  24.918  1.00  0.00     0.042 C 
BRANCH  20  21
ATOM     21  C   UNL A   1      32.694  29.521  25.308  1.00  0.00     0.118 C 
BRANCH  21  22
ATOM     22  N   UNL A   1      32.367  30.832  25.856  1.00  0.00    -0.352 N 
ATOM     23  C   UNL A   1      32.945  31.537  26.886  1.00  0.00     0.251 C 
ATOM     24  H   UNL A   1      31.611  31.285  25.419  1.00  0.00     0.163 HD
ATOM     25  O   UNL A   1      32.401  32.571  27.278  1.00  0.00    -0.269 OA
BRANCH  23  26
ATOM     26  C   UNL A   1      34.189  31.070  27.540  1.00  0.00     0.039 A 
ATOM     27  C   UNL A   1      35.178  32.008  27.860  1.00  0.00     0.014 A 
ATOM     28  C   UNL A   1      34.408  29.718  27.813  1.00  0.00     0.014 A 
ATOM     29  C   UNL A   1      36.347  31.600  28.513  1.00  0.00     0.010 A 
ATOM     30  C   UNL A   1      35.532  29.326  28.539  1.00  0.00     0.010 A 
ATOM     31  C   UNL A   1      36.516  30.259  28.893  1.00  0.00    -0.014 A 
BRANCH  31  32
ATOM     32  C   UNL A   1      37.704  29.816  29.672  1.00  0.00     0.031 A 
ATOM     33  C   UNL A   1      37.936  30.323  31.071  1.00  0.00     0.074 A 
ATOM     34  C   UNL A   1      38.626  29.028  29.085  1.00  0.00     0.049 A 
ATOM     35  N   UNL A   1      38.935  30.084  31.881  1.00  0.00    -0.248 NA
ATOM     36  C   UNL A   1      36.928  31.243  31.619  1.00  0.00     0.031 C 
ATOM     37  C   UNL A   1      38.557  28.524  27.712  1.00  0.00     0.029 A 
ATOM     38  N   UNL A   1      39.815  28.531  29.560  1.00  0.00    -0.354 N 
ATOM     39  C   UNL A   1      38.700  30.855  33.013  1.00  0.00     0.074 A 
ATOM     40  C   UNL A   1      37.481  31.597  32.770  1.00  0.00     0.031 C 
ATOM     41  C   UNL A   1      39.641  27.773  27.463  1.00  0.00     0.029 A 
ATOM     42  C   UNL A   1      40.502  27.773  28.640  1.00  0.00     0.049 A 
ATOM     43  H   UNL A   1      40.143  28.699  30.472  1.00  0.00     0.167 HD
ATOM     44  C   UNL A   1      39.417  30.925  34.162  1.00  0.00     0.034 A 
ATOM     45  C   UNL A   1      41.692  27.149  28.732  1.00  0.00     0.034 A 
ATOM     46  C   UNL A   1      40.612  30.163  34.410  1.00  0.00     0.049 A 
ATOM     47  C   UNL A   1      42.462  27.225  30.022  1.00  0.00     0.074 A 
ATOM     48  C   UNL A   1      41.357  30.085  35.574  1.00  0.00     0.029 A 
ATOM     49  N   UNL A   1      41.251  29.364  33.474  1.00  0.00    -0.354 N 
ATOM     50  N   UNL A   1      42.142  27.829  31.141  1.00  0.00    -0.248 NA
ATOM     51  C   UNL A   1      43.745  26.507  30.073  1.00  0.00     0.031 C 
ATOM     52  C   UNL A   1      42.470  29.273  35.326  1.00  0.00     0.029 A 
ATOM     53  C   UNL A   1      42.394  28.809  34.023  1.00  0.00     0.049 A 
ATOM     54  H   UNL A   1      40.937  29.213  32.553  1.00  0.00     0.167 HD
ATOM     55  C   UNL A   1      43.160  27.532  32.040  1.00  0.00     0.074 A 
ATOM     56  C   UNL A   1      44.100  26.681  31.338  1.00  0.00     0.031 C 
ATOM     57  C   UNL A   1      43.305  27.931  33.328  1.00  0.00     0.034 A 
BRANCH  44  58
ATOM     58  C   UNL A   1      38.907  31.843  35.245  1.00  0.00     0.023 A 
ATOM     59  C   UNL A   1      39.025  33.241  35.097  1.00  0.00     0.012 A 
ATOM     60  C   UNL A   1      38.292  31.325  36.402  1.00  0.00     0.148 A 
ATOM     61  C   UNL A   1      38.595  34.104  36.105  1.00  0.00     0.002 A 
ATOM     62  C   UNL A   1      37.818  32.194  37.379  1.00  0.00     0.091 A 
ATOM     63  F   UNL A   1      38.202  29.995  36.541  1.00  0.00    -0.205 F 
ATOM     64  C   UNL A   1      37.985  33.581  37.240  1.00  0.00     0.022 A 
BRANCH  62  65
ATOM     65  S   UNL A   1      36.941  31.620  38.838  1.00  0.00     0.127 S 
ATOM     66  O   UNL A   1      37.917  31.886  39.893  1.00  0.00    -0.237 OA
ATOM     67  O   UNL A   1      35.768  32.495  38.858  1.00  0.00    -0.237 OA
ATOM     68  O   UNL A   1      36.642  30.215  38.597  1.00  0.00    -0.744 OA
ENDBRANCH  62  65
ENDBRANCH  44  58
BRANCH  45  69
ATOM     69  C   UNL A   1      42.186  26.324  27.593  1.00  0.00     0.023 A 
ATOM     70  C   UNL A   1      43.067  26.905  26.659  1.00  0.00     0.012 A 
ATOM     71  C   UNL A   1      41.834  24.968  27.454  1.00  0.00     0.148 A 
ATOM     72  C   UNL A   1      43.569  26.156  25.594  1.00  0.00     0.002 A 
ATOM     73  C   UNL A   1      42.380  24.214  26.422  1.00  0.00     0.091 A 
ATOM     74  F   UNL A   1      40.993  24.437  28.353  1.00  0.00    -0.205 F 
ATOM     75  C   UNL A   1      43.234  24.810  25.482  1.00  0.00     0.022 A 
BRANCH  73  76
ATOM     76  S   UNL A   1      42.111  22.444  26.266  1.00  0.00     0.127 S 
ATOM     77  O   UNL A   1      40.659  22.372  26.129  1.00  0.00    -0.237 OA
ATOM     78  O   UNL A   1      42.863  22.136  25.048  1.00  0.00    -0.237 OA
ATOM     79  O   UNL A   1      42.658  21.851  27.479  1.00  0.00    -0.744 OA
ENDBRANCH  73  76
ENDBRANCH  45  69
BRANCH  57  80
ATOM     80  C   UNL A   1      44.505  27.426  34.087  1.00  0.00     0.023 A 
ATOM     81  C   UNL A   1      45.706  28.163  34.085  1.00  0.00     0.012 A 
ATOM     82  C   UNL A   1      44.419  26.250  34.861  1.00  0.00     0.148 A 
ATOM     83  C   UNL A   1      46.812  27.720  34.810  1.00  0.00     0.002 A 
ATOM     84  C   UNL A   1      45.506  25.846  35.624  1.00  0.00     0.091 A 
ATOM     85  F   UNL A   1      43.274  25.553  34.836  1.00  0.00    -0.205 F 
ATOM     86  C   UNL A   1      46.708  26.571  35.589  1.00  0.00     0.022 A 
BRANCH  84  87
ATOM     87  S   UNL A   1      45.433  24.435  36.735  1.00  0.00     0.127 S 
ATOM     88  O   UNL A   1      46.783  24.428  37.296  1.00  0.00    -0.237 OA
ATOM     89  O   UNL A   1      44.384  24.835  37.674  1.00  0.00    -0.237 OA
ATOM     90  O   UNL A   1      45.096  23.286  35.905  1.00  0.00    -0.744 OA
ENDBRANCH  84  87
ENDBRANCH  57  80
ENDBRANCH  31  32
ENDBRANCH  23  26
ENDBRANCH  21  22
ENDBRANCH  20  21
ENDBRANCH   1  20
TORSDOF 18
ENDMDL
MODEL 2
REMARK VINA RESULT:     -11.5      3.223      5.125
REMARK SMILES CC(C)(O)CCOc1ccc(C(=O)NCCCNC(=O)c2ccc(-c3c4nc(c(-c5cccc(S(=O)(=O)[O-])c5F)c5ccc([nH]5)c(-c5cccc(S(=O)(=O)[O-])c5F)c5nc(c(-c6cccc(S(=O)(=O)[O-])c6F)c6ccc3[nH]6)C=C5)C=C4)cc2)cc1
REMARK SMILES IDX 15 1 14 2 12 3 13 4 11 6 8 7 9 8 85 9 10 10 84 11 7 12 6 13
REMARK SMILES IDX 5 14 2 15 1 16 3 17 4 18 16 20 17 21 18 22 19 23 20 25 21 26
REMARK SMILES IDX 22 27 83 28 23 29 82 30 24 31 25 32 26 33 76 34 27 35 81 36
REMARK SMILES IDX 75 37 77 38 28 39 80 40 74 41 73 42 29 44 61 45 41 46 60 47
REMARK SMILES IDX 42 48 45 49 59 50 78 51 43 52 44 53 58 55 79 56 46 57 30 58
REMARK SMILES IDX 31 59 39 60 32 61 34 62 40 63 33 64 35 65 36 66 37 67 38 68
REMARK SMILES IDX 62 69 63 70 71 71 64 72 66 73 72 74 65 75 67 76 68 77 69 78
REMARK SMILES IDX 70 79 47 80 48 81 56 82 49 83 51 84 57 85 50 86 52 87 53 88
REMARK SMILES IDX 54 89 55 90
REMARK H PARENT 14 5 4 19 18 24 77 43 45 54
REMARK Flexibility Score: inf
ROOT
ATOM      1  C   UNL A   1      32.190  27.252  26.715  1.00  0.00     0.118 C 
ENDROOT
BRANCH   1   2
ATOM      2  N   UNL A   1      31.844  25.865  26.429  1.00  0.00    -0.352 N 
ATOM      3  C   UNL A   1      31.078  25.311  25.428  1.00  0.00     0.251 C 
ATOM      4  O   UNL A   1      30.859  24.102  25.434  1.00  0.00    -0.269 OA
ATOM      5  H   UNL A   1      32.223  25.212  27.062  1.00  0.00     0.163 HD
BRANCH   3   6
ATOM      6  C   UNL A   1      30.464  26.151  24.372  1.00  0.00     0.040 A 
ATOM      7  C   UNL A   1      29.285  28.060  22.708  1.00  0.00     0.119 A 
ATOM      8  C   UNL A   1      28.487  27.260  23.532  1.00  0.00     0.047 A 
ATOM      9  C   UNL A   1      30.629  27.735  22.555  1.00  0.00     0.047 A 
ATOM     10  C   UNL A   1      29.074  26.303  24.362  1.00  0.00     0.017 A 
ATOM     11  C   UNL A   1      31.227  26.794  23.399  1.00  0.00     0.017 A 
BRANCH   7  12
ATOM     12  O   UNL A   1      28.666  29.168  22.202  1.00  0.00    -0.493 OA
BRANCH  12  13
ATOM     13  C   UNL A   1      27.611  29.783  22.949  1.00  0.00     0.232 C 
BRANCH  13  14
ATOM     14  C   UNL A   1      27.808  31.269  23.332  1.00  0.00     0.076 C 
BRANCH  14  15
ATOM     15  C   UNL A   1      28.646  32.173  22.396  1.00  0.00     0.062 C 
ATOM     16  C   UNL A   1      28.983  33.521  23.043  1.00  0.00     0.042 C 
ATOM     17  C   UNL A   1      27.895  32.461  21.087  1.00  0.00     0.042 C 
BRANCH  15  18
ATOM     18  O   UNL A   1      29.835  31.483  22.008  1.00  0.00    -0.390 OA
ATOM     19  H   UNL A   1      30.213  31.908  21.223  1.00  0.00     0.211 HD
ENDBRANCH  15  18
ENDBRANCH  14  15
ENDBRANCH  13  14
ENDBRANCH  12  13
ENDBRANCH   7  12
ENDBRANCH   3   6
ENDBRANCH   1   2
BRANCH   1  20
ATOM     20  C   UNL A   1      33.687  27.542  26.638  1.00  0.00     0.042 C 
BRANCH  20  21
ATOM     21  C   UNL A   1      34.081  28.714  25.743  1.00  0.00     0.118 C 
BRANCH  21  22
ATOM     22  N   UNL A   1      33.740  30.012  26.313  1.00  0.00    -0.352 N 
ATOM     23  C   UNL A   1      34.329  30.721  27.334  1.00  0.00     0.251 C 
ATOM     24  H   UNL A   1      32.963  30.452  25.900  1.00  0.00     0.163 HD
ATOM     25  O   UNL A   1      33.772  31.739  27.750  1.00  0.00    -0.269 OA
BRANCH  23  26
ATOM     26  C   UNL A   1      35.601  30.277  27.950  1.00  0.00     0.039 A 
ATOM     27  C   UNL A   1      35.564  29.653  29.203  1.00  0.00     0.014 A 
ATOM     28  C   UNL A   1      36.830  30.495  27.325  1.00  0.00     0.014 A 
ATOM     29  C   UNL A   1      36.746  29.190  29.790  1.00  0.00     0.010 A 
ATOM     30  C   UNL A   1      37.996  29.958  27.870  1.00  0.00     0.010 A 
ATOM     31  C   UNL A   1      37.969  29.304  29.110  1.00  0.00    -0.014 A 
BRANCH  31  32
ATOM     32  C   UNL A   1      39.226  28.735  29.669  1.00  0.00     0.031 A 
ATOM     33  C   UNL A   1      39.861  29.336  30.894  1.00  0.00     0.074 A 
ATOM     34  C   UNL A   1      39.848  27.734  29.016  1.00  0.00     0.049 A 
ATOM     35  N   UNL A   1      40.975  29.004  31.494  1.00  0.00    -0.248 NA
ATOM     36  C   UNL A   1      39.167  30.478  31.510  1.00  0.00     0.031 C 
ATOM     37  C   UNL A   1      39.376  27.109  27.779  1.00  0.00     0.029 A 
ATOM     38  N   UNL A   1      41.024  27.080  29.288  1.00  0.00    -0.354 N 
ATOM     39  C   UNL A   1      41.140  29.920  32.527  1.00  0.00     0.074 A 
ATOM     40  C   UNL A   1      40.027  30.843  32.449  1.00  0.00     0.031 C 
ATOM     41  C   UNL A   1      40.239  26.150  27.411  1.00  0.00     0.029 A 
ATOM     42  C   UNL A   1      41.347  26.116  28.361  1.00  0.00     0.049 A 
ATOM     43  H   UNL A   1      41.583  27.280  30.073  1.00  0.00     0.167 HD
ATOM     44  C   UNL A   1      42.112  29.978  33.470  1.00  0.00     0.034 A 
ATOM     45  C   UNL A   1      42.413  25.297  28.281  1.00  0.00     0.034 A 
ATOM     46  C   UNL A   1      43.199  29.040  33.560  1.00  0.00     0.049 A 
ATOM     47  C   UNL A   1      43.472  25.367  29.348  1.00  0.00     0.074 A 
ATOM     48  C   UNL A   1      44.180  28.950  34.533  1.00  0.00     0.029 A 
ATOM     49  N   UNL A   1      43.465  28.044  32.633  1.00  0.00    -0.354 N 
ATOM     50  N   UNL A   1      43.525  26.133  30.410  1.00  0.00    -0.248 NA
ATOM     51  C   UNL A   1      44.602  24.435  29.223  1.00  0.00     0.031 C 
ATOM     52  C   UNL A   1      45.062  27.926  34.170  1.00  0.00     0.029 A 
ATOM     53  C   UNL A   1      44.607  27.349  32.995  1.00  0.00     0.049 A 
ATOM     54  H   UNL A   1      42.920  27.856  31.834  1.00  0.00     0.167 HD
ATOM     55  C   UNL A   1      44.670  25.751  31.100  1.00  0.00     0.074 A 
ATOM     56  C   UNL A   1      45.273  24.673  30.342  1.00  0.00     0.031 C 
ATOM     57  C   UNL A   1      45.178  26.251  32.254  1.00  0.00     0.034 A 
BRANCH  44  58
ATOM     58  C   UNL A   1      42.023  31.083  34.493  1.00  0.00     0.023 A 
ATOM     59  C   UNL A   1      41.359  30.858  35.717  1.00  0.00     0.012 A 
ATOM     60  C   UNL A   1      42.613  32.340  34.253  1.00  0.00     0.148 A 
ATOM     61  C   UNL A   1      41.232  31.880  36.658  1.00  0.00     0.002 A 
ATOM     62  C   UNL A   1      42.527  33.337  35.219  1.00  0.00     0.091 A 
ATOM     63  F   UNL A   1      43.224  32.549  33.078  1.00  0.00    -0.205 F 
ATOM     64  C   UNL A   1      41.823  33.115  36.413  1.00  0.00     0.022 A 
BRANCH  62  65
ATOM     65  S   UNL A   1      43.330  34.934  35.030  1.00  0.00     0.127 S 
ATOM     66  O   UNL A   1      42.648  35.469  33.853  1.00  0.00    -0.237 OA
ATOM     67  O   UNL A   1      42.990  35.600  36.288  1.00  0.00    -0.237 OA
ATOM     68  O   UNL A   1      44.748  34.650  34.861  1.00  0.00    -0.744 OA
ENDBRANCH  62  65
ENDBRANCH  44  58
BRANCH  45  69
ATOM     69  C   UNL A   1      42.487  24.280  27.195  1.00  0.00     0.023 A 
ATOM     70  C   UNL A   1      43.200  24.586  26.019  1.00  0.00     0.012 A 
ATOM     71  C   UNL A   1      41.905  23.006  27.332  1.00  0.00     0.148 A 
ATOM     72  C   UNL A   1      43.312  23.650  24.990  1.00  0.00     0.002 A 
ATOM     73  C   UNL A   1      42.065  22.059  26.327  1.00  0.00     0.091 A 
ATOM     74  F   UNL A   1      41.229  22.737  28.459  1.00  0.00    -0.205 F 
ATOM     75  C   UNL A   1      42.754  22.385  25.149  1.00  0.00     0.022 A 
BRANCH  73  76
ATOM     76  S   UNL A   1      41.494  20.364  26.491  1.00  0.00     0.127 S 
ATOM     77  O   UNL A   1      42.015  19.753  25.270  1.00  0.00    -0.237 OA
ATOM     78  O   UNL A   1      42.161  19.944  27.724  1.00  0.00    -0.237 OA
ATOM     79  O   UNL A   1      40.044  20.440  26.585  1.00  0.00    -0.744 OA
ENDBRANCH  73  76
ENDBRANCH  45  69
BRANCH  57  80
ATOM     80  C   UNL A   1      46.432  25.617  32.800  1.00  0.00     0.023 A 
ATOM     81  C   UNL A   1      47.697  26.063  32.367  1.00  0.00     0.012 A 
ATOM     82  C   UNL A   1      46.356  24.622  33.795  1.00  0.00     0.148 A 
ATOM     83  C   UNL A   1      48.863  25.505  32.889  1.00  0.00     0.002 A 
ATOM     84  C   UNL A   1      47.521  24.110  34.351  1.00  0.00     0.091 A 
ATOM     85  F   UNL A   1      45.144  24.197  34.181  1.00  0.00    -0.205 F 
ATOM     86  C   UNL A   1      48.775  24.539  33.889  1.00  0.00     0.022 A 
BRANCH  84  87
ATOM     87  S   UNL A   1      47.507  22.937  35.712  1.00  0.00     0.127 S 
ATOM     88  O   UNL A   1      46.921  21.756  35.081  1.00  0.00    -0.237 OA
ATOM     89  O   UNL A   1      48.930  22.817  36.032  1.00  0.00    -0.237 OA
ATOM     90  O   UNL A   1      46.700  23.548  36.760  1.00  0.00    -0.744 OA
ENDBRANCH  84  87
ENDBRANCH  57  80
ENDBRANCH  31  32
ENDBRANCH  23  26
ENDBRANCH  21  22
ENDBRANCH  20  21
ENDBRANCH   1  20
TORSDOF 18
ENDMDL
MODEL 3
REMARK VINA RESULT:     -11.4      2.746      3.439
REMARK SMILES CC(C)(O)CCOc1ccc(C(=O)NCCCNC(=O)c2ccc(-c3c4nc(c(-c5cccc(S(=O)(=O)[O-])c5F)c5ccc([nH]5)c(-c5cccc(S(=O)(=O)[O-])c5F)c5nc(c(-c6cccc(S(=O)(=O)[O-])c6F)c6ccc3[nH]6)C=C5)C=C4)cc2)cc1
REMARK SMILES IDX 15 1 14 2 12 3 13 4 11 6 8 7 9 8 85 9 10 10 84 11 7 12 6 13
REMARK SMILES IDX 5 14 2 15 1 16 3 17 4 18 16 20 17 21 18 22 19 23 20 25 21 26
REMARK SMILES IDX 22 27 83 28 23 29 82 30 24 31 25 32 26 33 76 34 27 35 81 36
REMARK SMILES IDX 75 37 77 38 28 39 80 40 74 41 73 42 29 44 61 45 41 46 60 47
REMARK SMILES IDX 42 48 45 49 59 50 78 51 43 52 44 53 58 55 79 56 46 57 30 58
REMARK SMILES IDX 31 59 39 60 32 61 34 62 40 63 33 64 35 65 36 66 37 67 38 68
REMARK SMILES IDX 62 69 63 70 71 71 64 72 66 73 72 74 65 75 67 76 68 77 69 78
REMARK SMILES IDX 70 79 47 80 48 81 56 82 49 83 51 84 57 85 50 86 52 87 53 88
REMARK SMILES IDX 54 89 55 90
REMARK H PARENT 14 5 4 19 18 24 77 43 45 54
REMARK Flexibility Score: inf
ROOT
ATOM      1  C   UNL A   1      31.650  27.847  26.931  1.00  0.00     0.118 C 
ENDROOT
BRANCH   1   2
ATOM      2  N   UNL A   1      31.387  27.517  25.536  1.00  0.00    -0.352 N 
ATOM      3  C   UNL A   1      31.925  26.548  24.719  1.00  0.00     0.251 C 
ATOM      4  O   UNL A   1      31.599  26.507  23.535  1.00  0.00    -0.269 OA
ATOM      5  H   UNL A   1      30.708  28.084  25.103  1.00  0.00     0.163 HD
BRANCH   3   6
ATOM      6  C   UNL A   1      32.933  25.586  25.224  1.00  0.00     0.040 A 
ATOM      7  C   UNL A   1      34.647  23.477  25.873  1.00  0.00     0.119 A 
ATOM      8  C   UNL A   1      33.388  23.567  26.474  1.00  0.00     0.047 A 
ATOM      9  C   UNL A   1      35.120  24.563  25.141  1.00  0.00     0.047 A 
ATOM     10  C   UNL A   1      32.531  24.622  26.154  1.00  0.00     0.017 A 
ATOM     11  C   UNL A   1      34.260  25.610  24.799  1.00  0.00     0.017 A 
BRANCH   7  12
ATOM     12  O   UNL A   1      35.259  22.261  25.988  1.00  0.00    -0.493 OA
BRANCH  12  13
ATOM     13  C   UNL A   1      34.460  21.095  26.216  1.00  0.00     0.232 C 
BRANCH  13  14
ATOM     14  C   UNL A   1      34.184  20.193  24.991  1.00  0.00     0.076 C 
BRANCH  14  15
ATOM     15  C   UNL A   1      32.776  20.220  24.350  1.00  0.00     0.062 C 
ATOM     16  C   UNL A   1      32.524  19.004  23.453  1.00  0.00     0.042 C 
ATOM     17  C   UNL A   1      32.583  21.479  23.490  1.00  0.00     0.042 C 
BRANCH  15  18
ATOM     18  O   UNL A   1      31.787  20.308  25.378  1.00  0.00    -0.390 OA
ATOM     19  H   UNL A   1      31.934  21.111  25.900  1.00  0.00     0.211 HD
ENDBRANCH  15  18
ENDBRANCH  14  15
ENDBRANCH  13  14
ENDBRANCH  12  13
ENDBRANCH   7  12
ENDBRANCH   3   6
ENDBRANCH   1   2
BRANCH   1  20
ATOM     20  C   UNL A   1      33.100  28.236  27.209  1.00  0.00     0.042 C 
BRANCH  20  21
ATOM     21  C   UNL A   1      33.718  29.213  26.213  1.00  0.00     0.118 C 
BRANCH  21  22
ATOM     22  N   UNL A   1      33.779  30.582  26.713  1.00  0.00    -0.352 N 
ATOM     23  C   UNL A   1      34.644  31.166  27.607  1.00  0.00     0.251 C 
ATOM     24  H   UNL A   1      33.090  31.184  26.351  1.00  0.00     0.163 HD
ATOM     25  O   UNL A   1      34.411  32.312  28.000  1.00  0.00    -0.269 OA
BRANCH  23  26
ATOM     26  C   UNL A   1      35.832  30.445  28.119  1.00  0.00     0.039 A 
ATOM     27  C   UNL A   1      37.008  30.451  27.358  1.00  0.00     0.014 A 
ATOM     28  C   UNL A   1      35.795  29.736  29.322  1.00  0.00     0.014 A 
ATOM     29  C   UNL A   1      38.156  29.810  27.836  1.00  0.00     0.010 A 
ATOM     30  C   UNL A   1      36.961  29.172  29.836  1.00  0.00     0.010 A 
ATOM     31  C   UNL A   1      38.153  29.197  29.099  1.00  0.00    -0.014 A 
BRANCH  31  32
ATOM     32  C   UNL A   1      39.386  28.592  29.672  1.00  0.00     0.031 A 
ATOM     33  C   UNL A   1      40.009  29.158  30.921  1.00  0.00     0.074 A 
ATOM     34  C   UNL A   1      39.999  27.588  29.015  1.00  0.00     0.049 A 
ATOM     35  N   UNL A   1      41.103  28.793  31.537  1.00  0.00    -0.248 NA
ATOM     36  C   UNL A   1      39.327  30.305  31.541  1.00  0.00     0.031 C 
ATOM     37  C   UNL A   1      39.539  26.994  27.758  1.00  0.00     0.029 A 
ATOM     38  N   UNL A   1      41.156  26.904  29.299  1.00  0.00    -0.354 N 
ATOM     39  C   UNL A   1      41.266  29.688  32.587  1.00  0.00     0.074 A 
ATOM     40  C   UNL A   1      40.175  30.636  32.503  1.00  0.00     0.031 C 
ATOM     41  C   UNL A   1      40.390  26.023  27.392  1.00  0.00     0.029 A 
ATOM     42  C   UNL A   1      41.476  25.949  28.363  1.00  0.00     0.049 A 
ATOM     43  H   UNL A   1      41.703  27.080  30.099  1.00  0.00     0.167 HD
ATOM     44  C   UNL A   1      42.220  29.709  33.551  1.00  0.00     0.034 A 
ATOM     45  C   UNL A   1      42.527  25.109  28.290  1.00  0.00     0.034 A 
ATOM     46  C   UNL A   1      43.285  28.747  33.647  1.00  0.00     0.049 A 
ATOM     47  C   UNL A   1      43.565  25.138  29.379  1.00  0.00     0.074 A 
ATOM     48  C   UNL A   1      44.244  28.619  34.637  1.00  0.00     0.029 A 
ATOM     49  N   UNL A   1      43.548  27.760  32.708  1.00  0.00    -0.354 N 
ATOM     50  N   UNL A   1      43.613  25.886  30.455  1.00  0.00    -0.248 NA
ATOM     51  C   UNL A   1      44.677  24.184  29.261  1.00  0.00     0.031 C 
ATOM     52  C   UNL A   1      45.111  27.583  34.274  1.00  0.00     0.029 A 
ATOM     53  C   UNL A   1      44.668  27.035  33.081  1.00  0.00     0.049 A 
ATOM     54  H   UNL A   1      43.016  27.598  31.896  1.00  0.00     0.167 HD
ATOM     55  C   UNL A   1      44.735  25.467  31.161  1.00  0.00     0.074 A 
ATOM     56  C   UNL A   1      45.330  24.390  30.397  1.00  0.00     0.031 C 
ATOM     57  C   UNL A   1      45.230  25.937  32.333  1.00  0.00     0.034 A 
BRANCH  44  58
ATOM     58  C   UNL A   1      42.134  30.799  34.590  1.00  0.00     0.023 A 
ATOM     59  C   UNL A   1      41.434  30.571  35.794  1.00  0.00     0.012 A 
ATOM     60  C   UNL A   1      42.762  32.044  34.387  1.00  0.00     0.148 A 
ATOM     61  C   UNL A   1      41.310  31.580  36.749  1.00  0.00     0.002 A 
ATOM     62  C   UNL A   1      42.678  33.026  35.368  1.00  0.00     0.091 A 
ATOM     63  F   UNL A   1      43.408  32.256  33.232  1.00  0.00    -0.205 F 
ATOM     64  C   UNL A   1      41.939  32.802  36.540  1.00  0.00     0.022 A 
BRANCH  62  65
ATOM     65  S   UNL A   1      43.526  34.604  35.227  1.00  0.00     0.127 S 
ATOM     66  O   UNL A   1      43.174  35.242  36.495  1.00  0.00    -0.237 OA
ATOM     67  O   UNL A   1      44.927  34.194  35.120  1.00  0.00    -0.237 OA
ATOM     68  O   UNL A   1      42.990  35.240  34.032  1.00  0.00    -0.744 OA
ENDBRANCH  62  65
ENDBRANCH  44  58
BRANCH  45  69
ATOM     69  C   UNL A   1      42.601  24.109  27.188  1.00  0.00     0.023 A 
ATOM     70  C   UNL A   1      43.327  24.427  26.023  1.00  0.00     0.012 A 
ATOM     71  C   UNL A   1      42.007  22.838  27.301  1.00  0.00     0.148 A 
ATOM     72  C   UNL A   1      43.439  23.507  24.980  1.00  0.00     0.002 A 
ATOM     73  C   UNL A   1      42.167  21.906  26.282  1.00  0.00     0.091 A 
ATOM     74  F   UNL A   1      41.319  22.557  28.417  1.00  0.00    -0.205 F 
ATOM     75  C   UNL A   1      42.869  22.245  25.115  1.00  0.00     0.022 A 
BRANCH  73  76
ATOM     76  S   UNL A   1      41.581  20.213  26.414  1.00  0.00     0.127 S 
ATOM     77  O   UNL A   1      40.142  20.378  26.220  1.00  0.00    -0.237 OA
ATOM     78  O   UNL A   1      42.283  19.568  25.303  1.00  0.00    -0.237 OA
ATOM     79  O   UNL A   1      41.988  19.753  27.734  1.00  0.00    -0.744 OA
ENDBRANCH  73  76
ENDBRANCH  45  69
BRANCH  57  80
ATOM     80  C   UNL A   1      46.459  25.267  32.892  1.00  0.00     0.023 A 
ATOM     81  C   UNL A   1      47.741  25.753  32.566  1.00  0.00     0.012 A 
ATOM     82  C   UNL A   1      46.339  24.194  33.799  1.00  0.00     0.148 A 
ATOM     83  C   UNL A   1      48.883  25.160  33.104  1.00  0.00     0.002 A 
ATOM     84  C   UNL A   1      47.478  23.645  34.373  1.00  0.00     0.091 A 
ATOM     85  F   UNL A   1      45.112  23.734  34.083  1.00  0.00    -0.205 F 
ATOM     86  C   UNL A   1      48.751  24.117  34.016  1.00  0.00     0.022 A 
BRANCH  84  87
ATOM     87  S   UNL A   1      47.402  22.366  35.633  1.00  0.00     0.127 S 
ATOM     88  O   UNL A   1      46.218  22.766  36.392  1.00  0.00    -0.237 OA
ATOM     89  O   UNL A   1      47.232  21.153  34.832  1.00  0.00    -0.237 OA
ATOM     90  O   UNL A   1      48.663  22.441  36.359  1.00  0.00    -0.744 OA
ENDBRANCH  84  87
ENDBRANCH  57  80
ENDBRANCH  31  32
ENDBRANCH  23  26
ENDBRANCH  21  22
ENDBRANCH  20  21
ENDBRANCH   1  20
TORSDOF 18
ENDMDL
