MODEL 1
REMARK VINA RESULT:     -13.6      0.000      0.000
REMARK SMILES O=C(NCCCNC(=O)[C@H]1Cc2c([nH]c3ccccc23)[C@H](c2c[nH]c3ccccc23)[NH2+]1)c1ccc(-c2c3nc(c(-c4cccc(S(=O)(=O)[O-])c4F)c4ccc([nH]4)c(-c4cccc(S(=O)(=O)[O-])c4F)c4nc(c(-c5cccc(S(=O)(=O)[O-])c5F)c5ccc2[nH]5)C=C4)C=C3)cc1
REMARK SMILES IDX 4 1 3 2 1 3 2 4 32 6 33 7 94 8 34 9 93 10 35 11 36 12 37 13
REMARK SMILES IDX 87 14 38 15 92 16 86 17 88 18 39 19 91 20 85 21 84 22 40 24
REMARK SMILES IDX 72 25 52 26 71 27 53 28 56 29 70 30 89 31 54 32 55 33 69 35
REMARK SMILES IDX 90 36 57 37 41 38 42 39 50 40 43 41 45 42 51 43 44 44 46 45
REMARK SMILES IDX 47 46 48 47 49 48 73 49 74 50 82 51 75 52 77 53 83 54 76 55
REMARK SMILES IDX 78 56 79 57 80 58 81 59 58 60 59 61 67 62 60 63 62 64 68 65
REMARK SMILES IDX 61 66 63 67 64 68 65 69 66 70 5 71 6 72 7 73 8 74 9 76 10 77
REMARK SMILES IDX 11 78 31 79 12 80 21 81 13 84 20 85 14 86 15 87 19 88 16 90
REMARK SMILES IDX 18 91 17 92 22 93 23 94 30 95 24 96 25 97 29 98 26 100
REMARK SMILES IDX 28 101 27 102
REMARK H PARENT 3 5 88 23 56 34 7 75 31 82 31 83 14 89 24 99
REMARK Flexibility Score: inf
ROOT
ATOM      1  C   UNL A   1      32.829  32.872  27.220  1.00  0.00     0.118 C 
ENDROOT
BRANCH   1   2
ATOM      2  N   UNL A   1      32.604  34.210  27.755  1.00  0.00    -0.352 N 
ATOM      3  O   UNL A   1      32.525  35.788  29.346  1.00  0.00    -0.269 OA
ATOM      4  C   UNL A   1      33.087  34.795  28.899  1.00  0.00     0.251 C 
ATOM      5  H   UNL A   1      32.015  34.783  27.212  1.00  0.00     0.163 HD
BRANCH   4   6
ATOM      6  C   UNL A   1      34.274  34.231  29.576  1.00  0.00     0.039 A 
ATOM      7  C   UNL A   1      34.128  33.394  30.686  1.00  0.00     0.014 A 
ATOM      8  C   UNL A   1      35.543  34.490  29.055  1.00  0.00     0.014 A 
ATOM      9  C   UNL A   1      35.250  32.920  31.352  1.00  0.00     0.010 A 
ATOM     10  C   UNL A   1      36.667  33.937  29.671  1.00  0.00     0.010 A 
ATOM     11  C   UNL A   1      36.529  33.166  30.836  1.00  0.00    -0.014 A 
BRANCH  11  12
ATOM     12  C   UNL A   1      37.714  32.545  31.474  1.00  0.00     0.031 A 
ATOM     13  C   UNL A   1      38.438  31.415  30.807  1.00  0.00     0.074 A 
ATOM     14  C   UNL A   1      38.095  32.982  32.690  1.00  0.00     0.049 A 
ATOM     15  N   UNL A   1      39.431  30.694  31.258  1.00  0.00    -0.248 NA
ATOM     16  C   UNL A   1      37.979  31.031  29.463  1.00  0.00     0.031 C 
ATOM     17  C   UNL A   1      37.439  34.054  33.442  1.00  0.00     0.029 A 
ATOM     18  N   UNL A   1      39.101  32.561  33.521  1.00  0.00    -0.354 N 
ATOM     19  C   UNL A   1      39.683  29.740  30.281  1.00  0.00     0.074 A 
ATOM     20  C   UNL A   1      38.737  29.973  29.211  1.00  0.00     0.031 C 
ATOM     21  C   UNL A   1      38.050  34.200  34.625  1.00  0.00     0.029 A 
ATOM     22  C   UNL A   1      39.101  33.196  34.740  1.00  0.00     0.049 A 
ATOM     23  H   UNL A   1      39.759  31.873  33.269  1.00  0.00     0.167 HD
ATOM     24  C   UNL A   1      40.624  28.766  30.277  1.00  0.00     0.034 A 
ATOM     25  C   UNL A   1      39.834  32.969  35.846  1.00  0.00     0.034 A 
ATOM     26  C   UNL A   1      41.574  28.567  31.339  1.00  0.00     0.049 A 
ATOM     27  C   UNL A   1      40.878  31.894  35.813  1.00  0.00     0.074 A 
ATOM     28  C   UNL A   1      42.614  27.656  31.403  1.00  0.00     0.029 A 
ATOM     29  N   UNL A   1      41.592  29.280  32.528  1.00  0.00    -0.354 N 
ATOM     30  N   UNL A   1      41.185  31.078  34.834  1.00  0.00    -0.248 NA
ATOM     31  C   UNL A   1      41.699  31.723  37.019  1.00  0.00     0.031 C 
ATOM     32  C   UNL A   1      43.242  27.800  32.645  1.00  0.00     0.029 A 
ATOM     33  C   UNL A   1      42.616  28.823  33.340  1.00  0.00     0.049 A 
ATOM     34  H   UNL A   1      40.968  30.005  32.762  1.00  0.00     0.167 HD
ATOM     35  C   UNL A   1      42.256  30.320  35.290  1.00  0.00     0.074 A 
ATOM     36  C   UNL A   1      42.549  30.780  36.632  1.00  0.00     0.031 C 
ATOM     37  C   UNL A   1      42.927  29.330  34.654  1.00  0.00     0.034 A 
BRANCH  24  38
ATOM     38  C   UNL A   1      40.678  27.851  29.080  1.00  0.00     0.023 A 
ATOM     39  C   UNL A   1      39.803  26.749  29.000  1.00  0.00     0.012 A 
ATOM     40  C   UNL A   1      41.570  28.101  28.019  1.00  0.00     0.148 A 
ATOM     41  C   UNL A   1      39.846  25.884  27.906  1.00  0.00     0.002 A 
ATOM     42  C   UNL A   1      41.577  27.261  26.911  1.00  0.00     0.091 A 
ATOM     43  F   UNL A   1      42.412  29.140  28.120  1.00  0.00    -0.205 F 
ATOM     44  C   UNL A   1      40.726  26.146  26.859  1.00  0.00     0.022 A 
BRANCH  42  45
ATOM     45  S   UNL A   1      42.622  27.565  25.482  1.00  0.00     0.127 S 
ATOM     46  O   UNL A   1      42.289  26.429  24.626  1.00  0.00    -0.237 OA
ATOM     47  O   UNL A   1      42.127  28.855  25.001  1.00  0.00    -0.237 OA
ATOM     48  O   UNL A   1      43.987  27.596  25.989  1.00  0.00    -0.744 OA
ENDBRANCH  42  45
ENDBRANCH  24  38
BRANCH  25  49
ATOM     49  C   UNL A   1      39.603  33.813  37.051  1.00  0.00     0.023 A 
ATOM     50  C   UNL A   1      39.958  35.174  37.023  1.00  0.00     0.012 A 
ATOM     51  C   UNL A   1      38.942  33.295  38.183  1.00  0.00     0.148 A 
ATOM     52  C   UNL A   1      39.666  36.003  38.107  1.00  0.00     0.002 A 
ATOM     53  C   UNL A   1      38.605  34.137  39.233  1.00  0.00     0.091 A 
ATOM     54  F   UNL A   1      38.617  31.993  38.186  1.00  0.00    -0.205 F 
ATOM     55  C   UNL A   1      38.979  35.490  39.204  1.00  0.00     0.022 A 
BRANCH  53  56
ATOM     56  S   UNL A   1      37.595  33.601  40.619  1.00  0.00     0.127 S 
ATOM     57  O   UNL A   1      36.414  33.074  39.942  1.00  0.00    -0.237 OA
ATOM     58  O   UNL A   1      38.453  32.591  41.241  1.00  0.00    -0.237 OA
ATOM     59  O   UNL A   1      37.377  34.789  41.433  1.00  0.00    -0.744 OA
ENDBRANCH  53  56
ENDBRANCH  25  49
BRANCH  37  60
ATOM     60  C   UNL A   1      44.087  28.697  35.374  1.00  0.00     0.023 A 
ATOM     61  C   UNL A   1      45.386  29.213  35.207  1.00  0.00     0.012 A 
ATOM     62  C   UNL A   1      43.864  27.662  36.305  1.00  0.00     0.148 A 
ATOM     63  C   UNL A   1      46.450  28.698  35.946  1.00  0.00     0.002 A 
ATOM     64  C   UNL A   1      44.919  27.187  37.071  1.00  0.00     0.091 A 
ATOM     65  F   UNL A   1      42.621  27.174  36.430  1.00  0.00    -0.205 F 
ATOM     66  C   UNL A   1      46.215  27.697  36.886  1.00  0.00     0.022 A 
BRANCH  64  67
ATOM     67  S   UNL A   1      44.694  25.973  38.376  1.00  0.00     0.127 S 
ATOM     68  O   UNL A   1      44.157  24.834  37.634  1.00  0.00    -0.237 OA
ATOM     69  O   UNL A   1      46.060  25.793  38.868  1.00  0.00    -0.237 OA
ATOM     70  O   UNL A   1      43.779  26.578  39.335  1.00  0.00    -0.744 OA
ENDBRANCH  64  67
ENDBRANCH  37  60
ENDBRANCH  11  12
ENDBRANCH   4   6
ENDBRANCH   1   2
BRANCH   1  71
ATOM     71  C   UNL A   1      31.540  32.270  26.678  1.00  0.00     0.042 C 
BRANCH  71  72
ATOM     72  C   UNL A   1      31.647  30.760  26.505  1.00  0.00     0.118 C 
BRANCH  72  73
ATOM     73  N   UNL A   1      32.907  30.248  27.010  1.00  0.00    -0.351 N 
ATOM     74  C   UNL A   1      33.475  29.008  27.027  1.00  0.00     0.278 C 
ATOM     75  H   UNL A   1      33.468  30.940  27.429  1.00  0.00     0.163 HD
ATOM     76  O   UNL A   1      34.561  28.937  27.620  1.00  0.00    -0.268 OA
BRANCH  74  77
ATOM     77  C   UNL A   1      32.912  27.801  26.244  1.00  0.00     0.277 C 
ATOM     78  C   UNL A   1      34.030  26.720  26.125  1.00  0.00     0.114 C 
ATOM     79  N   UNL A   1      31.660  27.255  26.827  1.00  0.00    -0.324 N 
ATOM     80  C   UNL A   1      33.469  25.472  25.536  1.00  0.00    -0.006 A 
ATOM     81  C   UNL A   1      31.054  26.172  26.039  1.00  0.00     0.264 C 
ATOM     82  H   UNL A   1      30.983  28.015  26.901  1.00  0.00     0.347 HD
ATOM     83  H   UNL A   1      31.906  26.857  27.733  1.00  0.00     0.347 HD
ATOM     84  C   UNL A   1      32.108  25.254  25.518  1.00  0.00     0.083 A 
ATOM     85  C   UNL A   1      34.102  24.334  24.969  1.00  0.00     0.003 A 
ATOM     86  N   UNL A   1      31.892  23.999  25.020  1.00  0.00    -0.353 N 
ATOM     87  C   UNL A   1      33.090  23.418  24.669  1.00  0.00     0.046 A 
ATOM     88  C   UNL A   1      35.437  23.978  24.700  1.00  0.00     0.010 A 
ATOM     89  H   UNL A   1      31.009  23.573  24.926  1.00  0.00     0.166 HD
ATOM     90  C   UNL A   1      33.351  22.156  24.123  1.00  0.00     0.026 A 
ATOM     91  C   UNL A   1      35.713  22.726  24.138  1.00  0.00     0.001 A 
ATOM     92  C   UNL A   1      34.684  21.829  23.859  1.00  0.00     0.002 A 
BRANCH  81  93
ATOM     93  C   UNL A   1      30.043  26.629  24.988  1.00  0.00     0.041 A 
ATOM     94  C   UNL A   1      28.839  25.953  24.812  1.00  0.00     0.093 A 
ATOM     95  C   UNL A   1      29.984  27.749  24.058  1.00  0.00     0.009 A 
ATOM     96  N   UNL A   1      28.083  26.592  23.877  1.00  0.00    -0.361 N 
ATOM     97  C   UNL A   1      28.729  27.715  23.434  1.00  0.00     0.046 A 
ATOM     98  C   UNL A   1      30.821  28.824  23.674  1.00  0.00     0.011 A 
ATOM     99  H   UNL A   1      27.199  26.290  23.564  1.00  0.00     0.166 HD
ATOM    100  C   UNL A   1      28.277  28.692  22.533  1.00  0.00     0.026 A 
ATOM    101  C   UNL A   1      30.383  29.828  22.800  1.00  0.00     0.001 A 
ATOM    102  C   UNL A   1      29.117  29.765  22.243  1.00  0.00     0.002 A 
ENDBRANCH  81  93
ENDBRANCH  74  77
ENDBRANCH  72  73
ENDBRANCH  71  72
ENDBRANCH   1  71
TORSDOF 14
ENDMDL
MODEL 2
REMARK VINA RESULT:     -13.5      6.159     11.542
REMARK SMILES O=C(NCCCNC(=O)[C@H]1Cc2c([nH]c3ccccc23)[C@H](c2c[nH]c3ccccc23)[NH2+]1)c1ccc(-c2c3nc(c(-c4cccc(S(=O)(=O)[O-])c4F)c4ccc([nH]4)c(-c4cccc(S(=O)(=O)[O-])c4F)c4nc(c(-c5cccc(S(=O)(=O)[O-])c5F)c5ccc2[nH]5)C=C4)C=C3)cc1
REMARK SMILES IDX 4 1 3 2 1 3 2 4 32 6 33 7 94 8 34 9 93 10 35 11 36 12 37 13
REMARK SMILES IDX 87 14 38 15 92 16 86 17 88 18 39 19 91 20 85 21 84 22 40 24
REMARK SMILES IDX 72 25 52 26 71 27 53 28 56 29 70 30 89 31 54 32 55 33 69 35
REMARK SMILES IDX 90 36 57 37 41 38 42 39 50 40 43 41 45 42 51 43 44 44 46 45
REMARK SMILES IDX 47 46 48 47 49 48 73 49 74 50 82 51 75 52 77 53 83 54 76 55
REMARK SMILES IDX 78 56 79 57 80 58 81 59 58 60 59 61 67 62 60 63 62 64 68 65
REMARK SMILES IDX 61 66 63 67 64 68 65 69 66 70 5 71 6 72 7 73 8 74 9 76 10 77
REMARK SMILES IDX 11 78 31 79 12 80 21 81 13 84 20 85 14 86 15 87 19 88 16 90
REMARK SMILES IDX 18 91 17 92 22 93 23 94 30 95 24 96 25 97 29 98 26 100
REMARK SMILES IDX 28 101 27 102
REMARK H PARENT 3 5 88 23 56 34 7 75 31 82 31 83 14 89 24 99
REMARK Flexibility Score: inf
ROOT
ATOM      1  C   UNL A   1      39.162  19.918  26.150  1.00  0.00     0.118 C 
ENDROOT
BRANCH   1   2
ATOM      2  N   UNL A   1      40.396  19.145  26.093  1.00  0.00    -0.352 N 
ATOM      3  O   UNL A   1      42.563  18.783  25.638  1.00  0.00    -0.269 OA
ATOM      4  C   UNL A   1      41.700  19.569  26.013  1.00  0.00     0.251 C 
ATOM      5  H   UNL A   1      40.278  18.167  26.117  1.00  0.00     0.163 HD
BRANCH   4   6
ATOM      6  C   UNL A   1      42.052  20.957  26.379  1.00  0.00     0.039 A 
ATOM      7  C   UNL A   1      42.375  21.283  27.699  1.00  0.00     0.014 A 
ATOM      8  C   UNL A   1      42.126  21.928  25.378  1.00  0.00     0.014 A 
ATOM      9  C   UNL A   1      42.645  22.601  28.043  1.00  0.00     0.010 A 
ATOM     10  C   UNL A   1      42.488  23.235  25.710  1.00  0.00     0.010 A 
ATOM     11  C   UNL A   1      42.729  23.584  27.049  1.00  0.00    -0.014 A 
BRANCH  11  12
ATOM     12  C   UNL A   1      43.149  24.960  27.404  1.00  0.00     0.031 A 
ATOM     13  C   UNL A   1      42.194  25.905  28.069  1.00  0.00     0.074 A 
ATOM     14  C   UNL A   1      44.390  25.363  27.067  1.00  0.00     0.049 A 
ATOM     15  N   UNL A   1      42.359  27.167  28.365  1.00  0.00    -0.248 NA
ATOM     16  C   UNL A   1      40.874  25.368  28.437  1.00  0.00     0.031 C 
ATOM     17  C   UNL A   1      45.387  24.533  26.387  1.00  0.00     0.029 A 
ATOM     18  N   UNL A   1      45.014  26.574  27.220  1.00  0.00    -0.354 N 
ATOM     19  C   UNL A   1      41.152  27.592  28.906  1.00  0.00     0.074 A 
ATOM     20  C   UNL A   1      40.262  26.451  28.896  1.00  0.00     0.031 C 
ATOM     21  C   UNL A   1      46.492  25.260  26.172  1.00  0.00     0.029 A 
ATOM     22  C   UNL A   1      46.260  26.619  26.644  1.00  0.00     0.049 A 
ATOM     23  H   UNL A   1      44.609  27.335  27.696  1.00  0.00     0.167 HD
ATOM     24  C   UNL A   1      40.823  28.819  29.374  1.00  0.00     0.034 A 
ATOM     25  C   UNL A   1      47.110  27.650  26.472  1.00  0.00     0.034 A 
ATOM     26  C   UNL A   1      41.731  29.935  29.401  1.00  0.00     0.049 A 
ATOM     27  C   UNL A   1      46.729  28.997  27.011  1.00  0.00     0.074 A 
ATOM     28  C   UNL A   1      41.523  31.201  29.918  1.00  0.00     0.029 A 
ATOM     29  N   UNL A   1      43.015  29.923  28.875  1.00  0.00    -0.354 N 
ATOM     30  N   UNL A   1      45.629  29.353  27.628  1.00  0.00    -0.248 NA
ATOM     31  C   UNL A   1      47.712  30.078  26.860  1.00  0.00     0.031 C 
ATOM     32  C   UNL A   1      42.671  31.963  29.680  1.00  0.00     0.029 A 
ATOM     33  C   UNL A   1      43.607  31.163  29.044  1.00  0.00     0.049 A 
ATOM     34  H   UNL A   1      43.442  29.147  28.446  1.00  0.00     0.167 HD
ATOM     35  C   UNL A   1      45.798  30.687  27.972  1.00  0.00     0.074 A 
ATOM     36  C   UNL A   1      47.111  31.075  27.499  1.00  0.00     0.031 C 
ATOM     37  C   UNL A   1      44.938  31.515  28.614  1.00  0.00     0.034 A 
BRANCH  24  38
ATOM     38  C   UNL A   1      39.426  29.013  29.907  1.00  0.00     0.023 A 
ATOM     39  C   UNL A   1      39.100  28.561  31.202  1.00  0.00     0.012 A 
ATOM     40  C   UNL A   1      38.445  29.672  29.140  1.00  0.00     0.148 A 
ATOM     41  C   UNL A   1      37.810  28.721  31.707  1.00  0.00     0.002 A 
ATOM     42  C   UNL A   1      37.174  29.867  29.667  1.00  0.00     0.091 A 
ATOM     43  F   UNL A   1      38.763  30.075  27.901  1.00  0.00    -0.205 F 
ATOM     44  C   UNL A   1      36.851  29.381  30.944  1.00  0.00     0.022 A 
BRANCH  42  45
ATOM     45  S   UNL A   1      35.898  30.774  28.786  1.00  0.00     0.127 S 
ATOM     46  O   UNL A   1      35.198  29.697  28.090  1.00  0.00    -0.237 OA
ATOM     47  O   UNL A   1      35.140  31.387  29.877  1.00  0.00    -0.237 OA
ATOM     48  O   UNL A   1      36.603  31.724  27.937  1.00  0.00    -0.744 OA
ENDBRANCH  42  45
ENDBRANCH  24  38
BRANCH  25  49
ATOM     49  C   UNL A   1      48.408  27.411  25.783  1.00  0.00     0.023 A 
ATOM     50  C   UNL A   1      49.504  26.923  26.518  1.00  0.00     0.012 A 
ATOM     51  C   UNL A   1      48.526  27.567  24.388  1.00  0.00     0.148 A 
ATOM     52  C   UNL A   1      50.700  26.605  25.875  1.00  0.00     0.002 A 
ATOM     53  C   UNL A   1      49.700  27.195  23.747  1.00  0.00     0.091 A 
ATOM     54  F   UNL A   1      47.468  28.037  23.710  1.00  0.00    -0.205 F 
ATOM     55  C   UNL A   1      50.795  26.727  24.491  1.00  0.00     0.022 A 
BRANCH  53  56
ATOM     56  S   UNL A   1      49.865  27.180  21.958  1.00  0.00     0.127 S 
ATOM     57  O   UNL A   1      49.660  28.587  21.627  1.00  0.00    -0.237 OA
ATOM     58  O   UNL A   1      51.237  26.700  21.788  1.00  0.00    -0.237 OA
ATOM     59  O   UNL A   1      48.842  26.263  21.474  1.00  0.00    -0.744 OA
ENDBRANCH  53  56
ENDBRANCH  25  49
BRANCH  37  60
ATOM     60  C   UNL A   1      45.399  32.920  28.896  1.00  0.00     0.023 A 
ATOM     61  C   UNL A   1      46.170  33.190  30.042  1.00  0.00     0.012 A 
ATOM     62  C   UNL A   1      45.159  33.945  27.960  1.00  0.00     0.148 A 
ATOM     63  C   UNL A   1      46.685  34.468  30.260  1.00  0.00     0.002 A 
ATOM     64  C   UNL A   1      45.714  35.202  28.160  1.00  0.00     0.091 A 
ATOM     65  F   UNL A   1      44.404  33.667  26.888  1.00  0.00    -0.205 F 
ATOM     66  C   UNL A   1      46.470  35.468  29.314  1.00  0.00     0.022 A 
BRANCH  64  67
ATOM     67  S   UNL A   1      45.577  36.521  26.948  1.00  0.00     0.127 S 
ATOM     68  O   UNL A   1      46.352  37.587  27.579  1.00  0.00    -0.237 OA
ATOM     69  O   UNL A   1      46.206  35.923  25.770  1.00  0.00    -0.237 OA
ATOM     70  O   UNL A   1      44.152  36.790  26.804  1.00  0.00    -0.744 OA
ENDBRANCH  64  67
ENDBRANCH  37  60
ENDBRANCH  11  12
ENDBRANCH   4   6
ENDBRANCH   1   2
BRANCH   1  71
ATOM     71  C   UNL A   1      38.263  19.611  24.960  1.00  0.00     0.042 C 
BRANCH  71  72
ATOM     72  C   UNL A   1      37.339  20.776  24.630  1.00  0.00     0.118 C 
BRANCH  72  73
ATOM     73  N   UNL A   1      37.755  21.998  25.293  1.00  0.00    -0.351 N 
ATOM     74  C   UNL A   1      37.196  23.237  25.411  1.00  0.00     0.278 C 
ATOM     75  H   UNL A   1      38.621  21.916  25.753  1.00  0.00     0.163 HD
ATOM     76  O   UNL A   1      37.890  24.069  26.011  1.00  0.00    -0.268 OA
BRANCH  74  77
ATOM     77  C   UNL A   1      35.749  23.565  24.980  1.00  0.00     0.277 C 
ATOM     78  C   UNL A   1      35.361  24.959  25.560  1.00  0.00     0.114 C 
ATOM     79  N   UNL A   1      35.543  23.488  23.511  1.00  0.00    -0.324 N 
ATOM     80  C   UNL A   1      34.042  25.387  25.015  1.00  0.00    -0.006 A 
ATOM     81  C   UNL A   1      34.150  23.697  23.089  1.00  0.00     0.264 C 
ATOM     82  H   UNL A   1      35.839  22.565  23.193  1.00  0.00     0.347 HD
ATOM     83  H   UNL A   1      36.091  24.242  23.097  1.00  0.00     0.347 HD
ATOM     84  C   UNL A   1      33.523  24.793  23.885  1.00  0.00     0.083 A 
ATOM     85  C   UNL A   1      33.138  26.399  25.430  1.00  0.00     0.003 A 
ATOM     86  N   UNL A   1      32.368  25.448  23.559  1.00  0.00    -0.353 N 
ATOM     87  C   UNL A   1      32.104  26.428  24.491  1.00  0.00     0.046 A 
ATOM     88  C   UNL A   1      33.103  27.313  26.501  1.00  0.00     0.010 A 
ATOM     89  H   UNL A   1      31.807  25.248  22.775  1.00  0.00     0.166 HD
ATOM     90  C   UNL A   1      31.041  27.335  24.562  1.00  0.00     0.026 A 
ATOM     91  C   UNL A   1      32.037  28.217  26.596  1.00  0.00     0.001 A 
ATOM     92  C   UNL A   1      31.025  28.228  25.638  1.00  0.00     0.002 A 
BRANCH  81  93
ATOM     93  C   UNL A   1      33.307  22.425  22.999  1.00  0.00     0.041 A 
ATOM     94  C   UNL A   1      32.421  22.227  21.943  1.00  0.00     0.093 A 
ATOM     95  C   UNL A   1      33.226  21.204  23.791  1.00  0.00     0.009 A 
ATOM     96  N   UNL A   1      31.848  20.996  22.046  1.00  0.00    -0.361 N 
ATOM     97  C   UNL A   1      32.353  20.329  23.131  1.00  0.00     0.046 A 
ATOM     98  C   UNL A   1      33.805  20.698  24.979  1.00  0.00     0.011 A 
ATOM     99  H   UNL A   1      31.170  20.636  21.429  1.00  0.00     0.166 HD
ATOM    100  C   UNL A   1      32.093  19.016  23.555  1.00  0.00     0.026 A 
ATOM    101  C   UNL A   1      33.585  19.382  25.408  1.00  0.00     0.001 A 
ATOM    102  C   UNL A   1      32.742  18.547  24.694  1.00  0.00     0.002 A 
ENDBRANCH  81  93
ENDBRANCH  74  77
ENDBRANCH  72  73
ENDBRANCH  71  72
ENDBRANCH   1  71
TORSDOF 14
ENDMDL
MODEL 3
REMARK VINA RESULT:     -13.3      3.603      9.096
REMARK SMILES O=C(NCCCNC(=O)[C@H]1Cc2c([nH]c3ccccc23)[C@H](c2c[nH]c3ccccc23)[NH2+]1)c1ccc(-c2c3nc(c(-c4cccc(S(=O)(=O)[O-])c4F)c4ccc([nH]4)c(-c4cccc(S(=O)(=O)[O-])c4F)c4nc(c(-c5cccc(S(=O)(=O)[O-])c5F)c5ccc2[nH]5)C=C4)C=C3)cc1
REMARK SMILES IDX 4 1 3 2 1 3 2 4 32 6 33 7 94 8 34 9 93 10 35 11 36 12 37 13
REMARK SMILES IDX 87 14 38 15 92 16 86 17 88 18 39 19 91 20 85 21 84 22 40 24
REMARK SMILES IDX 72 25 52 26 71 27 53 28 56 29 70 30 89 31 54 32 55 33 69 35
REMARK SMILES IDX 90 36 57 37 41 38 42 39 50 40 43 41 45 42 51 43 44 44 46 45
REMARK SMILES IDX 47 46 48 47 49 48 73 49 74 50 82 51 75 52 77 53 83 54 76 55
REMARK SMILES IDX 78 56 79 57 80 58 81 59 58 60 59 61 67 62 60 63 62 64 68 65
REMARK SMILES IDX 61 66 63 67 64 68 65 69 66 70 5 71 6 72 7 73 8 74 9 76 10 77
REMARK SMILES IDX 11 78 31 79 12 80 21 81 13 84 20 85 14 86 15 87 19 88 16 90
REMARK SMILES IDX 18 91 17 92 22 93 23 94 30 95 24 96 25 97 29 98 26 100
REMARK SMILES IDX 28 101 27 102
REMARK H PARENT 3 5 88 23 56 34 7 75 31 82 31 83 14 89 24 99
REMARK Flexibility Score: inf
ROOT
ATOM      1  C   UNL A   1      34.106  28.595  26.209  1.00  0.00     0.118 C 
ENDROOT
BRANCH   1   2
ATOM      2  N   UNL A   1      33.953  29.997  26.579  1.00  0.00    -0.352 N 
ATOM      3  O   UNL A   1      34.095  31.781  27.931  1.00  0.00    -0.269 OA
ATOM      4  C   UNL A   1      34.593  30.727  27.549  1.00  0.00     0.251 C 
ATOM      5  H   UNL A   1      33.288  30.497  26.052  1.00  0.00     0.163 HD
BRANCH   4   6
ATOM      6  C   UNL A   1      35.868  30.246  28.120  1.00  0.00     0.039 A 
ATOM      7  C   UNL A   1      35.893  29.600  29.359  1.00  0.00     0.014 A 
ATOM      8  C   UNL A   1      37.043  30.385  27.377  1.00  0.00     0.014 A 
ATOM      9  C   UNL A   1      37.104  29.206  29.914  1.00  0.00     0.010 A 
ATOM     10  C   UNL A   1      38.247  29.906  27.897  1.00  0.00     0.010 A 
ATOM     11  C   UNL A   1      38.288  29.333  29.178  1.00  0.00    -0.014 A 
BRANCH  11  12
ATOM     12  C   UNL A   1      39.556  28.789  29.719  1.00  0.00     0.031 A 
ATOM     13  C   UNL A   1      40.274  29.488  30.835  1.00  0.00     0.074 A 
ATOM     14  C   UNL A   1      40.079  27.685  29.152  1.00  0.00     0.049 A 
ATOM     15  N   UNL A   1      41.435  29.209  31.366  1.00  0.00    -0.248 NA
ATOM     16  C   UNL A   1      39.611  30.663  31.421  1.00  0.00     0.031 C 
ATOM     17  C   UNL A   1      39.478  26.947  28.038  1.00  0.00     0.029 A 
ATOM     18  N   UNL A   1      41.243  27.009  29.409  1.00  0.00    -0.354 N 
ATOM     19  C   UNL A   1      41.668  30.200  32.312  1.00  0.00     0.074 A 
ATOM     20  C   UNL A   1      40.526  31.089  32.280  1.00  0.00     0.031 C 
ATOM     21  C   UNL A   1      40.280  25.929  27.701  1.00  0.00     0.029 A 
ATOM     22  C   UNL A   1      41.478  25.978  28.531  1.00  0.00     0.049 A 
ATOM     23  H   UNL A   1      41.851  27.240  30.148  1.00  0.00     0.167 HD
ATOM     24  C   UNL A   1      42.733  30.346  33.135  1.00  0.00     0.034 A 
ATOM     25  C   UNL A   1      42.554  25.183  28.379  1.00  0.00     0.034 A 
ATOM     26  C   UNL A   1      43.847  29.437  33.171  1.00  0.00     0.049 A 
ATOM     27  C   UNL A   1      43.716  25.355  29.311  1.00  0.00     0.074 A 
ATOM     28  C   UNL A   1      44.944  29.452  34.015  1.00  0.00     0.029 A 
ATOM     29  N   UNL A   1      44.015  28.357  32.317  1.00  0.00    -0.354 N 
ATOM     30  N   UNL A   1      43.868  26.224  30.281  1.00  0.00    -0.248 NA
ATOM     31  C   UNL A   1      44.843  24.426  29.152  1.00  0.00     0.031 C 
ATOM     32  C   UNL A   1      45.788  28.398  33.651  1.00  0.00     0.029 A 
ATOM     33  C   UNL A   1      45.202  27.705  32.603  1.00  0.00     0.049 A 
ATOM     34  H   UNL A   1      43.382  28.092  31.610  1.00  0.00     0.167 HD
ATOM     35  C   UNL A   1      45.088  25.926  30.873  1.00  0.00     0.074 A 
ATOM     36  C   UNL A   1      45.632  24.791  30.155  1.00  0.00     0.031 C 
ATOM     37  C   UNL A   1      45.702  26.542  31.912  1.00  0.00     0.034 A 
BRANCH  24  38
ATOM     38  C   UNL A   1      42.736  31.527  34.072  1.00  0.00     0.023 A 
ATOM     39  C   UNL A   1      43.316  32.745  33.664  1.00  0.00     0.012 A 
ATOM     40  C   UNL A   1      42.134  31.442  35.343  1.00  0.00     0.148 A 
ATOM     41  C   UNL A   1      43.338  33.845  34.521  1.00  0.00     0.002 A 
ATOM     42  C   UNL A   1      42.121  32.556  36.176  1.00  0.00     0.091 A 
ATOM     43  F   UNL A   1      41.608  30.270  35.727  1.00  0.00    -0.205 F 
ATOM     44  C   UNL A   1      42.733  33.753  35.772  1.00  0.00     0.022 A 
BRANCH  42  45
ATOM     45  S   UNL A   1      41.298  32.551  37.772  1.00  0.00     0.127 S 
ATOM     46  O   UNL A   1      42.130  31.619  38.530  1.00  0.00    -0.237 OA
ATOM     47  O   UNL A   1      41.416  33.949  38.189  1.00  0.00    -0.237 OA
ATOM     48  O   UNL A   1      39.934  32.115  37.513  1.00  0.00    -0.744 OA
ENDBRANCH  42  45
ENDBRANCH  24  38
BRANCH  25  49
ATOM     49  C   UNL A   1      42.540  24.143  27.314  1.00  0.00     0.023 A 
ATOM     50  C   UNL A   1      43.109  24.427  26.059  1.00  0.00     0.012 A 
ATOM     51  C   UNL A   1      42.060  22.844  27.576  1.00  0.00     0.148 A 
ATOM     52  C   UNL A   1      43.190  23.438  25.078  1.00  0.00     0.002 A 
ATOM     53  C   UNL A   1      42.195  21.850  26.616  1.00  0.00     0.091 A 
ATOM     54  F   UNL A   1      41.520  22.598  28.779  1.00  0.00    -0.205 F 
ATOM     55  C   UNL A   1      42.746  22.148  25.361  1.00  0.00     0.022 A 
BRANCH  53  56
ATOM     56  S   UNL A   1      41.788  20.130  26.939  1.00  0.00     0.127 S 
ATOM     57  O   UNL A   1      41.638  19.600  25.588  1.00  0.00    -0.237 OA
ATOM     58  O   UNL A   1      42.979  19.670  27.654  1.00  0.00    -0.237 OA
ATOM     59  O   UNL A   1      40.574  20.155  27.744  1.00  0.00    -0.744 OA
ENDBRANCH  53  56
ENDBRANCH  25  49
BRANCH  37  60
ATOM     60  C   UNL A   1      47.017  25.980  32.381  1.00  0.00     0.023 A 
ATOM     61  C   UNL A   1      48.225  26.511  31.891  1.00  0.00     0.012 A 
ATOM     62  C   UNL A   1      47.047  25.003  33.396  1.00  0.00     0.148 A 
ATOM     63  C   UNL A   1      49.447  26.066  32.395  1.00  0.00     0.002 A 
ATOM     64  C   UNL A   1      48.265  24.599  33.926  1.00  0.00     0.091 A 
ATOM     65  F   UNL A   1      45.883  24.498  33.831  1.00  0.00    -0.205 F 
ATOM     66  C   UNL A   1      49.466  25.122  33.419  1.00  0.00     0.022 A 
BRANCH  64  67
ATOM     67  S   UNL A   1      48.385  23.466  35.316  1.00  0.00     0.127 S 
ATOM     68  O   UNL A   1      47.616  24.171  36.341  1.00  0.00    -0.237 OA
ATOM     69  O   UNL A   1      47.741  22.263  34.789  1.00  0.00    -0.237 OA
ATOM     70  O   UNL A   1      49.807  23.321  35.595  1.00  0.00    -0.744 OA
ENDBRANCH  64  67
ENDBRANCH  37  60
ENDBRANCH  11  12
ENDBRANCH   4   6
ENDBRANCH   1   2
BRANCH   1  71
ATOM     71  C   UNL A   1      33.017  27.736  26.834  1.00  0.00     0.042 C 
BRANCH  71  72
ATOM     72  C   UNL A   1      32.464  26.714  25.849  1.00  0.00     0.118 C 
BRANCH  72  73
ATOM     73  N   UNL A   1      31.487  25.840  26.472  1.00  0.00    -0.351 N 
ATOM     74  C   UNL A   1      31.349  24.485  26.538  1.00  0.00     0.278 C 
ATOM     75  H   UNL A   1      30.774  26.328  26.945  1.00  0.00     0.163 HD
ATOM     76  O   UNL A   1      30.327  24.089  27.115  1.00  0.00    -0.268 OA
BRANCH  74  77
ATOM     77  C   UNL A   1      32.441  23.493  26.078  1.00  0.00     0.277 C 
ATOM     78  C   UNL A   1      33.837  24.086  26.442  1.00  0.00     0.114 C 
ATOM     79  N   UNL A   1      32.254  22.122  26.619  1.00  0.00    -0.324 N 
ATOM     80  C   UNL A   1      34.902  23.078  26.179  1.00  0.00    -0.006 A 
ATOM     81  C   UNL A   1      33.224  21.140  26.113  1.00  0.00     0.264 C 
ATOM     82  H   UNL A   1      31.317  21.805  26.370  1.00  0.00     0.347 HD
ATOM     83  H   UNL A   1      32.394  22.181  27.628  1.00  0.00     0.347 HD
ATOM     84  C   UNL A   1      34.586  21.744  26.039  1.00  0.00     0.083 A 
ATOM     85  C   UNL A   1      36.311  23.208  26.069  1.00  0.00     0.003 A 
ATOM     86  N   UNL A   1      35.756  21.048  25.911  1.00  0.00    -0.353 N 
ATOM     87  C   UNL A   1      36.825  21.917  25.918  1.00  0.00     0.046 A 
ATOM     88  C   UNL A   1      37.209  24.292  26.105  1.00  0.00     0.010 A 
ATOM     89  H   UNL A   1      35.825  20.069  25.827  1.00  0.00     0.166 HD
ATOM     90  C   UNL A   1      38.195  21.656  25.813  1.00  0.00     0.026 A 
ATOM     91  C   UNL A   1      38.583  24.048  25.984  1.00  0.00     0.001 A 
ATOM     92  C   UNL A   1      39.066  22.749  25.845  1.00  0.00     0.002 A 
BRANCH  81  93
ATOM     93  C   UNL A   1      32.792  20.405  24.844  1.00  0.00     0.041 A 
ATOM     94  C   UNL A   1      32.042  21.048  23.864  1.00  0.00     0.093 A 
ATOM     95  C   UNL A   1      33.041  19.071  24.311  1.00  0.00     0.009 A 
ATOM     96  N   UNL A   1      31.849  20.212  22.807  1.00  0.00    -0.361 N 
ATOM     97  C   UNL A   1      32.485  19.020  23.026  1.00  0.00     0.046 A 
ATOM     98  C   UNL A   1      33.698  17.891  24.734  1.00  0.00     0.011 A 
ATOM     99  H   UNL A   1      31.328  20.433  22.001  1.00  0.00     0.166 HD
ATOM    100  C   UNL A   1      32.604  17.915  22.167  1.00  0.00     0.026 A 
ATOM    101  C   UNL A   1      33.855  16.787  23.886  1.00  0.00     0.001 A 
ATOM    102  C   UNL A   1      33.320  16.805  22.610  1.00  0.00     0.002 A 
ENDBRANCH  81  93
ENDBRANCH  74  77
ENDBRANCH  72  73
ENDBRANCH  71  72
ENDBRANCH   1  71
TORSDOF 14
ENDMDL
