MODEL 1
REMARK VINA RESULT:     -12.0      0.000      0.000
REMARK SMILES CC(=O)c1cc2c(cc1NC(=O)/C=C/C(=O)NCCCNC(=O)c1ccc(-c3c4nc(c(-c5cccc(S(=O)(=O)[O-])c5F)c5ccc([nH]5)c(-c5cccc(S(=O)(=O)[O-])c5F)c5nc(c(-c6cccc(S(=O)(=O)[O-])c6F)c6ccc3[nH]6)C=C5)C=C4)cc1)OCO2
REMARK SMILES IDX 19 1 18 2 17 3 15 4 16 5 14 7 13 8 11 9 10 10 12 12 9 13
REMARK SMILES IDX 4 14 5 15 6 16 8 17 7 18 89 19 87 20 88 21 2 22 1 23 3 24
REMARK SMILES IDX 20 25 21 26 22 27 23 29 24 30 25 31 86 32 26 33 85 34 27 35
REMARK SMILES IDX 28 36 29 37 79 38 30 39 84 40 78 41 80 42 31 43 83 44 77 45
REMARK SMILES IDX 76 46 32 48 64 49 44 50 63 51 45 52 48 53 62 54 81 55 46 56
REMARK SMILES IDX 47 57 61 59 82 60 49 61 33 62 34 63 42 64 35 65 37 66 43 67
REMARK SMILES IDX 36 68 38 69 39 70 40 71 41 72 65 73 66 74 74 75 67 76 69 77
REMARK SMILES IDX 75 78 68 79 70 80 71 81 72 82 73 83 50 84 51 85 59 86 52 87
REMARK SMILES IDX 54 88 60 89 53 90 55 91 56 92 57 93 58 94
REMARK H PARENT 17 6 10 11 21 28 80 47 48 58
REMARK Flexibility Score: inf
ROOT
ATOM      1  C   UNL A   1      32.996  28.240  27.257  1.00  0.00     0.042 C 
ENDROOT
BRANCH   1   2
ATOM      2  C   UNL A   1      31.490  28.245  27.033  1.00  0.00     0.118 C 
BRANCH   2   3
ATOM      3  N   UNL A   1      31.142  27.887  25.670  1.00  0.00    -0.352 N 
ATOM      4  C   UNL A   1      30.590  26.742  25.202  1.00  0.00     0.244 C 
ATOM      5  O   UNL A   1      30.174  26.675  24.047  1.00  0.00    -0.270 OA
ATOM      6  H   UNL A   1      31.333  28.574  24.990  1.00  0.00     0.163 HD
BRANCH   4   7
ATOM      7  C   UNL A   1      30.466  25.573  26.086  1.00  0.00     0.077 C 
ATOM      8  C   UNL A   1      31.372  24.586  26.036  1.00  0.00     0.077 C 
BRANCH   8   9
ATOM      9  C   UNL A   1      31.108  23.325  26.740  1.00  0.00     0.248 C 
ATOM     10  N   UNL A   1      32.052  22.335  26.755  1.00  0.00    -0.322 N 
ATOM     11  H   UNL A   1      31.765  21.521  27.229  1.00  0.00     0.170 HD
ATOM     12  O   UNL A   1      30.021  23.170  27.291  1.00  0.00    -0.270 OA
BRANCH  10  13
ATOM     13  C   UNL A   1      33.363  22.251  26.222  1.00  0.00     0.056 A 
ATOM     14  C   UNL A   1      33.557  21.585  24.984  1.00  0.00     0.045 A 
ATOM     15  C   UNL A   1      34.757  21.697  24.263  1.00  0.00     0.064 A 
ATOM     16  C   UNL A   1      35.766  22.437  24.834  1.00  0.00     0.166 A 
ATOM     17  C   UNL A   1      34.481  22.830  26.829  1.00  0.00     0.077 A 
ATOM     18  C   UNL A   1      35.643  22.949  26.100  1.00  0.00     0.167 A 
ATOM     19  O   UNL A   1      36.969  22.733  24.274  1.00  0.00    -0.454 OA
ATOM     20  O   UNL A   1      36.766  23.594  26.510  1.00  0.00    -0.454 OA
ATOM     21  C   UNL A   1      37.525  23.605  25.288  1.00  0.00     0.468 C 
BRANCH  14  22
ATOM     22  C   UNL A   1      32.497  20.704  24.445  1.00  0.00     0.162 C 
ATOM     23  C   UNL A   1      32.137  20.895  22.995  1.00  0.00     0.093 C 
ATOM     24  O   UNL A   1      32.029  19.810  25.141  1.00  0.00    -0.294 OA
ENDBRANCH  14  22
ENDBRANCH  10  13
ENDBRANCH   8   9
ENDBRANCH   4   7
ENDBRANCH   2   3
ENDBRANCH   1   2
BRANCH   1  25
ATOM     25  C   UNL A   1      33.773  29.016  26.201  1.00  0.00     0.118 C 
BRANCH  25  26
ATOM     26  N   UNL A   1      33.890  30.430  26.536  1.00  0.00    -0.352 N 
ATOM     27  C   UNL A   1      34.712  31.052  27.435  1.00  0.00     0.251 C 
ATOM     28  H   UNL A   1      33.283  31.028  26.042  1.00  0.00     0.163 HD
ATOM     29  O   UNL A   1      34.462  32.207  27.785  1.00  0.00    -0.269 OA
BRANCH  27  30
ATOM     30  C   UNL A   1      35.901  30.357  27.966  1.00  0.00     0.039 A 
ATOM     31  C   UNL A   1      35.830  29.742  29.219  1.00  0.00     0.014 A 
ATOM     32  C   UNL A   1      37.107  30.373  27.260  1.00  0.00     0.014 A 
ATOM     33  C   UNL A   1      36.965  29.132  29.754  1.00  0.00     0.010 A 
ATOM     34  C   UNL A   1      38.210  29.687  27.752  1.00  0.00     0.010 A 
ATOM     35  C   UNL A   1      38.162  29.098  29.022  1.00  0.00    -0.014 A 
BRANCH  35  36
ATOM     36  C   UNL A   1      39.397  28.509  29.593  1.00  0.00     0.031 A 
ATOM     37  C   UNL A   1      40.003  29.105  30.837  1.00  0.00     0.074 A 
ATOM     38  C   UNL A   1      40.013  27.498  28.953  1.00  0.00     0.049 A 
ATOM     39  N   UNL A   1      41.096  28.765  31.467  1.00  0.00    -0.248 NA
ATOM     40  C   UNL A   1      39.309  30.262  31.430  1.00  0.00     0.031 C 
ATOM     41  C   UNL A   1      39.573  26.904  27.689  1.00  0.00     0.029 A 
ATOM     42  N   UNL A   1      41.156  26.809  29.265  1.00  0.00    -0.354 N 
ATOM     43  C   UNL A   1      41.248  29.691  32.493  1.00  0.00     0.074 A 
ATOM     44  C   UNL A   1      40.157  30.633  32.376  1.00  0.00     0.031 C 
ATOM     45  C   UNL A   1      40.433  25.935  27.338  1.00  0.00     0.029 A 
ATOM     46  C   UNL A   1      41.492  25.851  28.339  1.00  0.00     0.049 A 
ATOM     47  H   UNL A   1      41.686  26.983  30.077  1.00  0.00     0.167 HD
ATOM     48  C   UNL A   1      42.187  29.734  33.468  1.00  0.00     0.034 A 
ATOM     49  C   UNL A   1      42.532  24.997  28.307  1.00  0.00     0.034 A 
ATOM     50  C   UNL A   1      43.227  28.754  33.614  1.00  0.00     0.049 A 
ATOM     51  C   UNL A   1      43.504  24.995  29.456  1.00  0.00     0.074 A 
ATOM     52  C   UNL A   1      44.168  28.638  34.620  1.00  0.00     0.029 A 
ATOM     53  N   UNL A   1      43.459  27.715  32.725  1.00  0.00    -0.354 N 
ATOM     54  N   UNL A   1      43.535  25.774  30.510  1.00  0.00    -0.248 NA
ATOM     55  C   UNL A   1      44.550  23.964  29.439  1.00  0.00     0.031 C 
ATOM     56  C   UNL A   1      44.980  27.535  34.332  1.00  0.00     0.029 A 
ATOM     57  C   UNL A   1      44.527  26.950  33.160  1.00  0.00     0.049 A 
ATOM     58  H   UNL A   1      42.941  27.546  31.905  1.00  0.00     0.167 HD
ATOM     59  C   UNL A   1      44.576  25.304  31.302  1.00  0.00     0.074 A 
ATOM     60  C   UNL A   1      45.139  24.160  30.611  1.00  0.00     0.031 C 
ATOM     61  C   UNL A   1      45.034  25.781  32.486  1.00  0.00     0.034 A 
BRANCH  48  62
ATOM     62  C   UNL A   1      42.090  30.848  34.480  1.00  0.00     0.023 A 
ATOM     63  C   UNL A   1      41.367  30.643  35.674  1.00  0.00     0.012 A 
ATOM     64  C   UNL A   1      42.732  32.083  34.268  1.00  0.00     0.148 A 
ATOM     65  C   UNL A   1      41.242  31.665  36.617  1.00  0.00     0.002 A 
ATOM     66  C   UNL A   1      42.645  33.079  35.235  1.00  0.00     0.091 A 
ATOM     67  F   UNL A   1      43.396  32.271  33.119  1.00  0.00    -0.205 F 
ATOM     68  C   UNL A   1      41.889  32.877  36.401  1.00  0.00     0.022 A 
BRANCH  66  69
ATOM     69  S   UNL A   1      43.512  34.646  35.084  1.00  0.00     0.127 S 
ATOM     70  O   UNL A   1      44.882  34.260  35.419  1.00  0.00    -0.237 OA
ATOM     71  O   UNL A   1      43.301  34.982  33.675  1.00  0.00    -0.237 OA
ATOM     72  O   UNL A   1      42.865  35.550  36.024  1.00  0.00    -0.744 OA
ENDBRANCH  66  69
ENDBRANCH  48  62
BRANCH  49  73
ATOM     73  C   UNL A   1      42.640  24.010  27.198  1.00  0.00     0.023 A 
ATOM     74  C   UNL A   1      43.360  24.353  26.036  1.00  0.00     0.012 A 
ATOM     75  C   UNL A   1      42.088  22.719  27.308  1.00  0.00     0.148 A 
ATOM     76  C   UNL A   1      43.504  23.439  24.992  1.00  0.00     0.002 A 
ATOM     77  C   UNL A   1      42.281  21.795  26.286  1.00  0.00     0.091 A 
ATOM     78  F   UNL A   1      41.404  22.415  28.419  1.00  0.00    -0.205 F 
ATOM     79  C   UNL A   1      42.973  22.159  25.121  1.00  0.00     0.022 A 
BRANCH  77  80
ATOM     80  S   UNL A   1      41.749  20.084  26.423  1.00  0.00     0.127 S 
ATOM     81  O   UNL A   1      42.270  19.716  27.739  1.00  0.00    -0.237 OA
ATOM     82  O   UNL A   1      40.293  20.217  26.355  1.00  0.00    -0.237 OA
ATOM     83  O   UNL A   1      42.344  19.394  25.291  1.00  0.00    -0.744 OA
ENDBRANCH  77  80
ENDBRANCH  49  73
BRANCH  61  84
ATOM     84  C   UNL A   1      46.173  25.044  33.140  1.00  0.00     0.023 A 
ATOM     85  C   UNL A   1      47.495  25.500  32.972  1.00  0.00     0.012 A 
ATOM     86  C   UNL A   1      45.922  23.940  33.978  1.00  0.00     0.148 A 
ATOM     87  C   UNL A   1      48.554  24.845  33.599  1.00  0.00     0.002 A 
ATOM     88  C   UNL A   1      46.977  23.323  34.638  1.00  0.00     0.091 A 
ATOM     89  F   UNL A   1      44.659  23.507  34.108  1.00  0.00    -0.205 F 
ATOM     90  C   UNL A   1      48.294  23.764  34.441  1.00  0.00     0.022 A 
BRANCH  88  91
ATOM     91  S   UNL A   1      46.715  21.992  35.816  1.00  0.00     0.127 S 
ATOM     92  O   UNL A   1      46.202  20.928  34.957  1.00  0.00    -0.237 OA
ATOM     93  O   UNL A   1      48.065  21.761  36.334  1.00  0.00    -0.237 OA
ATOM     94  O   UNL A   1      45.778  22.516  36.802  1.00  0.00    -0.744 OA
ENDBRANCH  88  91
ENDBRANCH  61  84
ENDBRANCH  35  36
ENDBRANCH  27  30
ENDBRANCH  25  26
ENDBRANCH   1  25
TORSDOF 16
ENDMDL
MODEL 2
REMARK VINA RESULT:     -11.8      2.970      8.188
REMARK SMILES CC(=O)c1cc2c(cc1NC(=O)/C=C/C(=O)NCCCNC(=O)c1ccc(-c3c4nc(c(-c5cccc(S(=O)(=O)[O-])c5F)c5ccc([nH]5)c(-c5cccc(S(=O)(=O)[O-])c5F)c5nc(c(-c6cccc(S(=O)(=O)[O-])c6F)c6ccc3[nH]6)C=C5)C=C4)cc1)OCO2
REMARK SMILES IDX 19 1 18 2 17 3 15 4 16 5 14 7 13 8 11 9 10 10 12 12 9 13
REMARK SMILES IDX 4 14 5 15 6 16 8 17 7 18 89 19 87 20 88 21 2 22 1 23 3 24
REMARK SMILES IDX 20 25 21 26 22 27 23 29 24 30 25 31 86 32 26 33 85 34 27 35
REMARK SMILES IDX 28 36 29 37 79 38 30 39 84 40 78 41 80 42 31 43 83 44 77 45
REMARK SMILES IDX 76 46 32 48 64 49 44 50 63 51 45 52 48 53 62 54 81 55 46 56
REMARK SMILES IDX 47 57 61 59 82 60 49 61 33 62 34 63 42 64 35 65 37 66 43 67
REMARK SMILES IDX 36 68 38 69 39 70 40 71 41 72 65 73 66 74 74 75 67 76 69 77
REMARK SMILES IDX 75 78 68 79 70 80 71 81 72 82 73 83 50 84 51 85 59 86 52 87
REMARK SMILES IDX 54 88 60 89 53 90 55 91 56 92 57 93 58 94
REMARK H PARENT 17 6 10 11 21 28 80 47 48 58
REMARK Flexibility Score: inf
ROOT
ATOM      1  C   UNL A   1      33.515  28.900  23.315  1.00  0.00     0.042 C 
ENDROOT
BRANCH   1   2
ATOM      2  C   UNL A   1      32.330  28.100  22.792  1.00  0.00     0.118 C 
BRANCH   2   3
ATOM      3  N   UNL A   1      32.741  27.061  21.866  1.00  0.00    -0.352 N 
ATOM      4  C   UNL A   1      33.167  25.802  22.129  1.00  0.00     0.244 C 
ATOM      5  O   UNL A   1      33.288  24.980  21.223  1.00  0.00    -0.270 OA
ATOM      6  H   UNL A   1      32.704  27.305  20.913  1.00  0.00     0.163 HD
BRANCH   4   7
ATOM      7  C   UNL A   1      33.470  25.404  23.512  1.00  0.00     0.077 C 
ATOM      8  C   UNL A   1      32.563  24.738  24.241  1.00  0.00     0.077 C 
BRANCH   8   9
ATOM      9  C   UNL A   1      32.780  24.561  25.682  1.00  0.00     0.248 C 
ATOM     10  N   UNL A   1      33.166  23.345  26.175  1.00  0.00    -0.322 N 
ATOM     11  H   UNL A   1      33.256  23.325  27.155  1.00  0.00     0.170 HD
ATOM     12  O   UNL A   1      32.586  25.514  26.432  1.00  0.00    -0.270 OA
BRANCH  10  13
ATOM     13  C   UNL A   1      33.463  22.106  25.552  1.00  0.00     0.056 A 
ATOM     14  C   UNL A   1      34.817  21.791  25.266  1.00  0.00     0.045 A 
ATOM     15  C   UNL A   1      35.215  20.492  24.912  1.00  0.00     0.064 A 
ATOM     16  C   UNL A   1      34.229  19.542  24.796  1.00  0.00     0.166 A 
ATOM     17  C   UNL A   1      32.494  21.148  25.241  1.00  0.00     0.077 A 
ATOM     18  C   UNL A   1      32.904  19.874  24.914  1.00  0.00     0.167 A 
ATOM     19  O   UNL A   1      34.405  18.218  24.541  1.00  0.00    -0.454 OA
ATOM     20  O   UNL A   1      32.081  18.813  24.707  1.00  0.00    -0.454 OA
ATOM     21  C   UNL A   1      33.041  17.743  24.651  1.00  0.00     0.468 C 
BRANCH  14  22
ATOM     22  C   UNL A   1      35.844  22.857  25.287  1.00  0.00     0.162 C 
ATOM     23  C   UNL A   1      36.473  23.209  23.965  1.00  0.00     0.093 C 
ATOM     24  O   UNL A   1      36.074  23.468  26.324  1.00  0.00    -0.294 OA
ENDBRANCH  14  22
ENDBRANCH  10  13
ENDBRANCH   8   9
ENDBRANCH   4   7
ENDBRANCH   2   3
ENDBRANCH   1   2
BRANCH   1  25
ATOM     25  C   UNL A   1      33.564  28.998  24.835  1.00  0.00     0.118 C 
BRANCH  25  26
ATOM     26  N   UNL A   1      32.824  30.151  25.332  1.00  0.00    -0.352 N 
ATOM     27  C   UNL A   1      32.938  30.818  26.521  1.00  0.00     0.251 C 
ATOM     28  H   UNL A   1      32.137  30.502  24.720  1.00  0.00     0.163 HD
ATOM     29  O   UNL A   1      32.035  31.579  26.876  1.00  0.00    -0.269 OA
BRANCH  27  30
ATOM     30  C   UNL A   1      34.139  30.649  27.361  1.00  0.00     0.039 A 
ATOM     31  C   UNL A   1      34.972  31.748  27.591  1.00  0.00     0.014 A 
ATOM     32  C   UNL A   1      34.483  29.391  27.863  1.00  0.00     0.014 A 
ATOM     33  C   UNL A   1      36.141  31.585  28.335  1.00  0.00     0.010 A 
ATOM     34  C   UNL A   1      35.597  29.249  28.680  1.00  0.00     0.010 A 
ATOM     35  C   UNL A   1      36.459  30.335  28.888  1.00  0.00    -0.014 A 
BRANCH  35  36
ATOM     36  C   UNL A   1      37.723  30.121  29.632  1.00  0.00     0.031 A 
ATOM     37  C   UNL A   1      38.802  29.252  29.039  1.00  0.00     0.074 A 
ATOM     38  C   UNL A   1      37.869  30.639  30.866  1.00  0.00     0.049 A 
ATOM     39  N   UNL A   1      39.956  28.908  29.546  1.00  0.00    -0.248 NA
ATOM     40  C   UNL A   1      38.529  28.657  27.719  1.00  0.00     0.031 C 
ATOM     41  C   UNL A   1      36.854  31.416  31.582  1.00  0.00     0.029 A 
ATOM     42  N   UNL A   1      38.917  30.568  31.746  1.00  0.00    -0.354 N 
ATOM     43  C   UNL A   1      40.523  28.024  28.635  1.00  0.00     0.074 A 
ATOM     44  C   UNL A   1      39.567  27.849  27.565  1.00  0.00     0.031 C 
ATOM     45  C   UNL A   1      37.333  31.754  32.789  1.00  0.00     0.029 A 
ATOM     46  C   UNL A   1      38.678  31.206  32.939  1.00  0.00     0.049 A 
ATOM     47  H   UNL A   1      39.761  30.104  31.542  1.00  0.00     0.167 HD
ATOM     48  C   UNL A   1      41.743  27.437  28.666  1.00  0.00     0.034 A 
ATOM     49  C   UNL A   1      39.460  31.339  34.027  1.00  0.00     0.034 A 
ATOM     50  C   UNL A   1      42.712  27.670  29.701  1.00  0.00     0.049 A 
ATOM     51  C   UNL A   1      40.851  30.766  33.995  1.00  0.00     0.074 A 
ATOM     52  C   UNL A   1      44.015  27.214  29.783  1.00  0.00     0.029 A 
ATOM     53  N   UNL A   1      42.482  28.431  30.837  1.00  0.00    -0.354 N 
ATOM     54  N   UNL A   1      41.434  30.070  33.050  1.00  0.00    -0.248 NA
ATOM     55  C   UNL A   1      41.709  31.043  35.154  1.00  0.00     0.031 C 
ATOM     56  C   UNL A   1      44.568  27.689  30.976  1.00  0.00     0.029 A 
ATOM     57  C   UNL A   1      43.617  28.462  31.625  1.00  0.00     0.049 A 
ATOM     58  H   UNL A   1      41.634  28.884  31.051  1.00  0.00     0.167 HD
ATOM     59  C   UNL A   1      42.738  29.859  33.479  1.00  0.00     0.074 A 
ATOM     60  C   UNL A   1      42.863  30.518  34.765  1.00  0.00     0.031 C 
ATOM     61  C   UNL A   1      43.739  29.172  32.873  1.00  0.00     0.034 A 
BRANCH  48  62
ATOM     62  C   UNL A   1      42.112  26.535  27.515  1.00  0.00     0.023 A 
ATOM     63  C   UNL A   1      42.775  27.073  26.392  1.00  0.00     0.012 A 
ATOM     64  C   UNL A   1      41.831  25.155  27.553  1.00  0.00     0.148 A 
ATOM     65  C   UNL A   1      43.106  26.264  25.304  1.00  0.00     0.002 A 
ATOM     66  C   UNL A   1      42.209  24.347  26.486  1.00  0.00     0.091 A 
ATOM     67  F   UNL A   1      41.181  24.662  28.616  1.00  0.00    -0.205 F 
ATOM     68  C   UNL A   1      42.832  24.901  25.356  1.00  0.00     0.022 A 
BRANCH  66  69
ATOM     69  S   UNL A   1      41.973  22.565  26.496  1.00  0.00     0.127 S 
ATOM     70  O   UNL A   1      40.515  22.460  26.454  1.00  0.00    -0.237 OA
ATOM     71  O   UNL A   1      42.648  22.157  25.263  1.00  0.00    -0.237 OA
ATOM     72  O   UNL A   1      42.603  22.087  27.717  1.00  0.00    -0.744 OA
ENDBRANCH  66  69
ENDBRANCH  48  62
BRANCH  49  73
ATOM     73  C   UNL A   1      38.974  32.133  35.190  1.00  0.00     0.023 A 
ATOM     74  C   UNL A   1      38.972  33.540  35.114  1.00  0.00     0.012 A 
ATOM     75  C   UNL A   1      38.462  31.507  36.342  1.00  0.00     0.148 A 
ATOM     76  C   UNL A   1      38.496  34.310  36.174  1.00  0.00     0.002 A 
ATOM     77  C   UNL A   1      37.940  32.279  37.375  1.00  0.00     0.091 A 
ATOM     78  F   UNL A   1      38.477  30.168  36.396  1.00  0.00    -0.205 F 
ATOM     79  C   UNL A   1      37.971  33.680  37.300  1.00  0.00     0.022 A 
BRANCH  77  80
ATOM     80  S   UNL A   1      37.123  31.554  38.801  1.00  0.00     0.127 S 
ATOM     81  O   UNL A   1      38.136  31.722  39.842  1.00  0.00    -0.237 OA
ATOM     82  O   UNL A   1      35.948  32.416  38.944  1.00  0.00    -0.237 OA
ATOM     83  O   UNL A   1      36.820  30.182  38.429  1.00  0.00    -0.744 OA
ENDBRANCH  77  80
ENDBRANCH  49  73
BRANCH  61  84
ATOM     84  C   UNL A   1      45.075  29.133  33.566  1.00  0.00     0.023 A 
ATOM     85  C   UNL A   1      46.030  30.136  33.309  1.00  0.00     0.012 A 
ATOM     86  C   UNL A   1      45.355  28.139  34.524  1.00  0.00     0.148 A 
ATOM     87  C   UNL A   1      47.258  30.129  33.967  1.00  0.00     0.002 A 
ATOM     88  C   UNL A   1      46.562  28.168  35.213  1.00  0.00     0.091 A 
ATOM     89  F   UNL A   1      44.443  27.180  34.740  1.00  0.00    -0.205 F 
ATOM     90  C   UNL A   1      47.520  29.153  34.927  1.00  0.00     0.022 A 
BRANCH  88  91
ATOM     91  S   UNL A   1      46.931  27.007  36.534  1.00  0.00     0.127 S 
ATOM     92  O   UNL A   1      46.962  25.736  35.815  1.00  0.00    -0.237 OA
ATOM     93  O   UNL A   1      48.236  27.474  37.006  1.00  0.00    -0.237 OA
ATOM     94  O   UNL A   1      45.855  27.158  37.505  1.00  0.00    -0.744 OA
ENDBRANCH  88  91
ENDBRANCH  61  84
ENDBRANCH  35  36
ENDBRANCH  27  30
ENDBRANCH  25  26
ENDBRANCH   1  25
TORSDOF 16
ENDMDL
MODEL 3
REMARK VINA RESULT:     -11.7      1.594      2.585
REMARK SMILES CC(=O)c1cc2c(cc1NC(=O)/C=C/C(=O)NCCCNC(=O)c1ccc(-c3c4nc(c(-c5cccc(S(=O)(=O)[O-])c5F)c5ccc([nH]5)c(-c5cccc(S(=O)(=O)[O-])c5F)c5nc(c(-c6cccc(S(=O)(=O)[O-])c6F)c6ccc3[nH]6)C=C5)C=C4)cc1)OCO2
REMARK SMILES IDX 19 1 18 2 17 3 15 4 16 5 14 7 13 8 11 9 10 10 12 12 9 13
REMARK SMILES IDX 4 14 5 15 6 16 8 17 7 18 89 19 87 20 88 21 2 22 1 23 3 24
REMARK SMILES IDX 20 25 21 26 22 27 23 29 24 30 25 31 86 32 26 33 85 34 27 35
REMARK SMILES IDX 28 36 29 37 79 38 30 39 84 40 78 41 80 42 31 43 83 44 77 45
REMARK SMILES IDX 76 46 32 48 64 49 44 50 63 51 45 52 48 53 62 54 81 55 46 56
REMARK SMILES IDX 47 57 61 59 82 60 49 61 33 62 34 63 42 64 35 65 37 66 43 67
REMARK SMILES IDX 36 68 38 69 39 70 40 71 41 72 65 73 66 74 74 75 67 76 69 77
REMARK SMILES IDX 75 78 68 79 70 80 71 81 72 82 73 83 50 84 51 85 59 86 52 87
REMARK SMILES IDX 54 88 60 89 53 90 55 91 56 92 57 93 58 94
REMARK H PARENT 17 6 10 11 21 28 80 47 48 58
REMARK Flexibility Score: inf
ROOT
ATOM      1  C   UNL A   1      32.849  28.137  27.064  1.00  0.00     0.042 C 
ENDROOT
BRANCH   1   2
ATOM      2  C   UNL A   1      31.653  27.852  26.165  1.00  0.00     0.118 C 
BRANCH   2   3
ATOM      3  N   UNL A   1      30.794  26.819  26.715  1.00  0.00    -0.352 N 
ATOM      4  C   UNL A   1      30.365  25.671  26.139  1.00  0.00     0.244 C 
ATOM      5  O   UNL A   1      29.804  24.806  26.810  1.00  0.00    -0.270 OA
ATOM      6  H   UNL A   1      30.481  26.975  27.635  1.00  0.00     0.163 HD
BRANCH   4   7
ATOM      7  C   UNL A   1      30.587  25.441  24.703  1.00  0.00     0.077 C 
ATOM      8  C   UNL A   1      31.392  24.451  24.291  1.00  0.00     0.077 C 
BRANCH   8   9
ATOM      9  C   UNL A   1      31.794  24.385  22.880  1.00  0.00     0.248 C 
ATOM     10  N   UNL A   1      32.470  23.293  22.408  1.00  0.00    -0.322 N 
ATOM     11  H   UNL A   1      32.718  23.361  21.458  1.00  0.00     0.170 HD
ATOM     12  O   UNL A   1      31.535  25.334  22.145  1.00  0.00    -0.270 OA
BRANCH  10  13
ATOM     13  C   UNL A   1      32.883  22.082  23.019  1.00  0.00     0.056 A 
ATOM     14  C   UNL A   1      34.038  22.090  23.843  1.00  0.00     0.045 A 
ATOM     15  C   UNL A   1      34.349  21.016  24.692  1.00  0.00     0.064 A 
ATOM     16  C   UNL A   1      33.516  19.923  24.654  1.00  0.00     0.166 A 
ATOM     17  C   UNL A   1      32.185  20.878  22.891  1.00  0.00     0.077 A 
ATOM     18  C   UNL A   1      32.492  19.842  23.746  1.00  0.00     0.167 A 
ATOM     19  O   UNL A   1      33.592  18.819  25.444  1.00  0.00    -0.454 OA
ATOM     20  O   UNL A   1      31.822  18.662  23.823  1.00  0.00    -0.454 OA
ATOM     21  C   UNL A   1      32.410  18.103  25.011  1.00  0.00     0.468 C 
BRANCH  14  22
ATOM     22  C   UNL A   1      34.980  23.230  23.783  1.00  0.00     0.162 C 
ATOM     23  C   UNL A   1      35.147  24.031  25.047  1.00  0.00     0.093 C 
ATOM     24  O   UNL A   1      35.648  23.422  22.773  1.00  0.00    -0.294 OA
ENDBRANCH  14  22
ENDBRANCH  10  13
ENDBRANCH   8   9
ENDBRANCH   4   7
ENDBRANCH   2   3
ENDBRANCH   1   2
BRANCH   1  25
ATOM     25  C   UNL A   1      33.905  29.025  26.414  1.00  0.00     0.118 C 
BRANCH  25  26
ATOM     26  N   UNL A   1      33.747  30.424  26.787  1.00  0.00    -0.352 N 
ATOM     27  C   UNL A   1      34.413  31.160  27.730  1.00  0.00     0.251 C 
ATOM     28  H   UNL A   1      33.056  30.915  26.286  1.00  0.00     0.163 HD
ATOM     29  O   UNL A   1      33.943  32.238  28.097  1.00  0.00    -0.269 OA
BRANCH  27  30
ATOM     30  C   UNL A   1      35.693  30.679  28.285  1.00  0.00     0.039 A 
ATOM     31  C   UNL A   1      36.891  31.103  27.705  1.00  0.00     0.014 A 
ATOM     32  C   UNL A   1      35.709  29.754  29.332  1.00  0.00     0.014 A 
ATOM     33  C   UNL A   1      38.104  30.610  28.186  1.00  0.00     0.010 A 
ATOM     34  C   UNL A   1      36.919  29.334  29.870  1.00  0.00     0.010 A 
ATOM     35  C   UNL A   1      38.126  29.724  29.274  1.00  0.00    -0.014 A 
BRANCH  35  36
ATOM     36  C   UNL A   1      39.397  29.139  29.765  1.00  0.00     0.031 A 
ATOM     37  C   UNL A   1      40.107  29.770  30.935  1.00  0.00     0.074 A 
ATOM     38  C   UNL A   1      39.949  28.099  29.115  1.00  0.00     0.049 A 
ATOM     39  N   UNL A   1      41.244  29.438  31.487  1.00  0.00    -0.248 NA
ATOM     40  C   UNL A   1      39.475  30.957  31.539  1.00  0.00     0.031 C 
ATOM     41  C   UNL A   1      39.402  27.466  27.912  1.00  0.00     0.029 A 
ATOM     42  N   UNL A   1      41.106  27.405  29.359  1.00  0.00    -0.354 N 
ATOM     43  C   UNL A   1      41.487  30.397  32.464  1.00  0.00     0.074 A 
ATOM     44  C   UNL A   1      40.400  31.349  32.400  1.00  0.00     0.031 C 
ATOM     45  C   UNL A   1      40.222  26.475  27.528  1.00  0.00     0.029 A 
ATOM     46  C   UNL A   1      41.356  26.411  28.444  1.00  0.00     0.049 A 
ATOM     47  H   UNL A   1      41.702  27.601  30.119  1.00  0.00     0.167 HD
ATOM     48  C   UNL A   1      42.501  30.462  33.358  1.00  0.00     0.034 A 
ATOM     49  C   UNL A   1      42.382  25.543  28.360  1.00  0.00     0.034 A 
ATOM     50  C   UNL A   1      43.539  29.474  33.456  1.00  0.00     0.049 A 
ATOM     51  C   UNL A   1      43.443  25.569  29.427  1.00  0.00     0.074 A 
ATOM     52  C   UNL A   1      44.557  29.380  34.388  1.00  0.00     0.029 A 
ATOM     53  N   UNL A   1      43.689  28.401  32.590  1.00  0.00    -0.354 N 
ATOM     54  N   UNL A   1      43.567  26.383  30.447  1.00  0.00    -0.248 NA
ATOM     55  C   UNL A   1      44.473  24.524  29.363  1.00  0.00     0.031 C 
ATOM     56  C   UNL A   1      45.331  28.257  34.075  1.00  0.00     0.029 A 
ATOM     57  C   UNL A   1      44.780  27.638  32.965  1.00  0.00     0.049 A 
ATOM     58  H   UNL A   1      43.104  28.211  31.820  1.00  0.00     0.167 HD
ATOM     59  C   UNL A   1      44.663  25.928  31.169  1.00  0.00     0.074 A 
ATOM     60  C   UNL A   1      45.157  24.753  30.477  1.00  0.00     0.031 C 
ATOM     61  C   UNL A   1      45.219  26.440  32.295  1.00  0.00     0.034 A 
BRANCH  48  62
ATOM     62  C   UNL A   1      42.497  31.611  34.335  1.00  0.00     0.023 A 
ATOM     63  C   UNL A   1      43.200  32.794  34.022  1.00  0.00     0.012 A 
ATOM     64  C   UNL A   1      41.781  31.535  35.545  1.00  0.00     0.148 A 
ATOM     65  C   UNL A   1      43.232  33.863  34.919  1.00  0.00     0.002 A 
ATOM     66  C   UNL A   1      41.777  32.624  36.411  1.00  0.00     0.091 A 
ATOM     67  F   UNL A   1      41.138  30.397  35.839  1.00  0.00    -0.205 F 
ATOM     68  C   UNL A   1      42.512  33.781  36.107  1.00  0.00     0.022 A 
BRANCH  66  69
ATOM     69  S   UNL A   1      40.813  32.645  37.928  1.00  0.00     0.127 S 
ATOM     70  O   UNL A   1      40.676  34.080  38.171  1.00  0.00    -0.237 OA
ATOM     71  O   UNL A   1      39.577  31.975  37.518  1.00  0.00    -0.237 OA
ATOM     72  O   UNL A   1      41.600  31.913  38.909  1.00  0.00    -0.744 OA
ENDBRANCH  66  69
ENDBRANCH  48  62
BRANCH  49  73
ATOM     73  C   UNL A   1      42.391  24.517  27.281  1.00  0.00     0.023 A 
ATOM     74  C   UNL A   1      43.254  24.679  26.180  1.00  0.00     0.012 A 
ATOM     75  C   UNL A   1      41.596  23.357  27.366  1.00  0.00     0.148 A 
ATOM     76  C   UNL A   1      43.306  23.720  25.168  1.00  0.00     0.002 A 
ATOM     77  C   UNL A   1      41.692  22.380  26.381  1.00  0.00     0.091 A 
ATOM     78  F   UNL A   1      40.779  23.225  28.420  1.00  0.00    -0.205 F 
ATOM     79  C   UNL A   1      42.534  22.568  25.273  1.00  0.00     0.022 A 
BRANCH  77  80
ATOM     80  S   UNL A   1      40.836  20.805  26.502  1.00  0.00     0.127 S 
ATOM     81  O   UNL A   1      41.658  19.953  25.643  1.00  0.00    -0.237 OA
ATOM     82  O   UNL A   1      40.941  20.515  27.933  1.00  0.00    -0.237 OA
ATOM     83  O   UNL A   1      39.482  21.053  26.036  1.00  0.00    -0.744 OA
ENDBRANCH  77  80
ENDBRANCH  49  73
BRANCH  61  84
ATOM     84  C   UNL A   1      46.399  25.710  32.882  1.00  0.00     0.023 A 
ATOM     85  C   UNL A   1      47.709  26.124  32.570  1.00  0.00     0.012 A 
ATOM     86  C   UNL A   1      46.205  24.658  33.798  1.00  0.00     0.148 A 
ATOM     87  C   UNL A   1      48.808  25.478  33.132  1.00  0.00     0.002 A 
ATOM     88  C   UNL A   1      47.305  24.052  34.393  1.00  0.00     0.091 A 
ATOM     89  F   UNL A   1      44.952  24.264  34.067  1.00  0.00    -0.205 F 
ATOM     90  C   UNL A   1      48.607  24.451  34.052  1.00  0.00     0.022 A 
BRANCH  88  91
ATOM     91  S   UNL A   1      47.127  22.793  35.662  1.00  0.00     0.127 S 
ATOM     92  O   UNL A   1      46.467  21.717  34.925  1.00  0.00    -0.237 OA
ATOM     93  O   UNL A   1      48.518  22.518  36.028  1.00  0.00    -0.237 OA
ATOM     94  O   UNL A   1      46.339  23.408  36.722  1.00  0.00    -0.744 OA
ENDBRANCH  88  91
ENDBRANCH  61  84
ENDBRANCH  35  36
ENDBRANCH  27  30
ENDBRANCH  25  26
ENDBRANCH   1  25
TORSDOF 16
ENDMDL
