MODEL 1
REMARK VINA RESULT:     -10.9      0.000      0.000
REMARK SMILES [NH3+][C@H](/C=C\c1ccccc1)C(=O)NCCCNC(=O)c1ccc(-c2c3nc(c(-c4cccc(S(=O)(=O)[O-])c4F)c4ccc([nH]4)c(-c4cccc(S(=O)(=O)[O-])c4F)c4nc(c(-c5cccc(S(=O)(=O)[O-])c5F)c5ccc2[nH]5)C=C4)C=C3)cc1
REMARK SMILES IDX 15 1 14 2 13 3 11 4 12 5 2 7 1 8 3 12 4 13 5 14 6 15 10 16
REMARK SMILES IDX 7 17 9 18 8 19 16 20 17 21 18 22 19 24 20 25 21 26 82 27
REMARK SMILES IDX 22 28 81 29 23 30 24 31 25 32 75 33 26 34 80 35 74 36 76 37
REMARK SMILES IDX 27 38 79 39 73 40 72 41 28 43 60 44 40 45 59 46 41 47 44 48
REMARK SMILES IDX 58 49 77 50 42 51 43 52 57 54 78 55 45 56 29 57 30 58 38 59
REMARK SMILES IDX 31 60 33 61 39 62 32 63 34 64 35 65 36 66 37 67 61 68 62 69
REMARK SMILES IDX 70 70 63 71 65 72 71 73 64 74 66 75 67 76 68 77 69 78 46 79
REMARK SMILES IDX 47 80 55 81 48 82 50 83 56 84 49 85 51 86 52 87 53 88 54 89
REMARK H PARENT 13 6 1 9 1 10 1 11 17 23 76 42 44 53
REMARK Flexibility Score: inf
ROOT
ATOM      1  C   UNL A   1      34.962  34.644  28.492  1.00  0.00     0.042 C 
ENDROOT
BRANCH   1   2
ATOM      2  C   UNL A   1      33.863  34.716  29.546  1.00  0.00     0.118 C 
BRANCH   2   3
ATOM      3  N   UNL A   1      33.625  36.077  29.989  1.00  0.00    -0.351 N 
ATOM      4  C   UNL A   1      33.128  36.566  31.163  1.00  0.00     0.282 C 
ATOM      5  O   UNL A   1      32.919  37.783  31.218  1.00  0.00    -0.268 OA
ATOM      6  H   UNL A   1      33.864  36.767  29.329  1.00  0.00     0.163 HD
BRANCH   4   7
ATOM      7  C   UNL A   1      32.839  35.645  32.379  1.00  0.00     0.294 C 
BRANCH   7   8
ATOM      8  N   UNL A   1      31.401  35.647  32.698  1.00  0.00    -0.344 N 
ATOM      9  H   UNL A   1      31.091  36.605  32.862  1.00  0.00     0.345 HD
ATOM     10  H   UNL A   1      31.239  35.089  33.537  1.00  0.00     0.345 HD
ATOM     11  H   UNL A   1      30.878  35.249  31.919  1.00  0.00     0.345 HD
ENDBRANCH   7   8
BRANCH   7  12
ATOM     12  C   UNL A   1      33.720  35.941  33.567  1.00  0.00     0.047 C 
ATOM     13  C   UNL A   1      34.902  35.376  33.874  1.00  0.00     0.010 C 
BRANCH  13  14
ATOM     14  C   UNL A   1      35.562  34.328  33.092  1.00  0.00    -0.026 A 
ATOM     15  C   UNL A   1      35.101  33.011  33.178  1.00  0.00     0.008 A 
ATOM     16  C   UNL A   1      36.640  34.622  32.247  1.00  0.00     0.008 A 
ATOM     17  C   UNL A   1      35.680  32.011  32.393  1.00  0.00     0.001 A 
ATOM     18  C   UNL A   1      37.208  33.626  31.453  1.00  0.00     0.001 A 
ATOM     19  C   UNL A   1      36.723  32.321  31.521  1.00  0.00     0.000 A 
ENDBRANCH  13  14
ENDBRANCH   7  12
ENDBRANCH   4   7
ENDBRANCH   2   3
ENDBRANCH   1   2
BRANCH   1  20
ATOM     20  C   UNL A   1      35.523  33.244  28.268  1.00  0.00     0.118 C 
BRANCH  20  21
ATOM     21  N   UNL A   1      34.492  32.268  27.938  1.00  0.00    -0.352 N 
ATOM     22  C   UNL A   1      34.583  30.904  27.804  1.00  0.00     0.251 C 
ATOM     23  H   UNL A   1      33.595  32.643  27.788  1.00  0.00     0.163 HD
ATOM     24  O   UNL A   1      33.638  30.272  27.337  1.00  0.00    -0.269 OA
BRANCH  22  25
ATOM     25  C   UNL A   1      35.823  30.202  28.197  1.00  0.00     0.039 A 
ATOM     26  C   UNL A   1      36.914  30.209  27.321  1.00  0.00     0.014 A 
ATOM     27  C   UNL A   1      35.916  29.550  29.428  1.00  0.00     0.014 A 
ATOM     28  C   UNL A   1      38.123  29.636  27.719  1.00  0.00     0.010 A 
ATOM     29  C   UNL A   1      37.144  29.055  29.856  1.00  0.00     0.010 A 
ATOM     30  C   UNL A   1      38.261  29.095  29.008  1.00  0.00    -0.014 A 
BRANCH  30  31
ATOM     31  C   UNL A   1      39.569  28.599  29.507  1.00  0.00     0.031 A 
ATOM     32  C   UNL A   1      40.291  29.331  30.606  1.00  0.00     0.074 A 
ATOM     33  C   UNL A   1      40.160  27.555  28.892  1.00  0.00     0.049 A 
ATOM     34  N   UNL A   1      41.477  29.103  31.107  1.00  0.00    -0.248 NA
ATOM     35  C   UNL A   1      39.600  30.487  31.202  1.00  0.00     0.031 C 
ATOM     36  C   UNL A   1      39.600  26.812  27.760  1.00  0.00     0.029 A 
ATOM     37  N   UNL A   1      41.377  26.956  29.110  1.00  0.00    -0.354 N 
ATOM     38  C   UNL A   1      41.693  30.106  32.045  1.00  0.00     0.074 A 
ATOM     39  C   UNL A   1      40.527  30.962  32.022  1.00  0.00     0.031 C 
ATOM     40  C   UNL A   1      40.470  25.862  27.382  1.00  0.00     0.029 A 
ATOM     41  C   UNL A   1      41.661  25.946  28.220  1.00  0.00     0.049 A 
ATOM     42  H   UNL A   1      41.988  27.225  29.833  1.00  0.00     0.167 HD
ATOM     43  C   UNL A   1      42.751  30.281  32.870  1.00  0.00     0.034 A 
ATOM     44  C   UNL A   1      42.763  25.182  28.084  1.00  0.00     0.034 A 
ATOM     45  C   UNL A   1      43.887  29.402  32.922  1.00  0.00     0.049 A 
ATOM     46  C   UNL A   1      43.910  25.377  29.038  1.00  0.00     0.074 A 
ATOM     47  C   UNL A   1      44.963  29.438  33.793  1.00  0.00     0.029 A 
ATOM     48  N   UNL A   1      44.102  28.334  32.065  1.00  0.00    -0.354 N 
ATOM     49  N   UNL A   1      44.022  26.225  30.031  1.00  0.00    -0.248 NA
ATOM     50  C   UNL A   1      45.070  24.489  28.874  1.00  0.00     0.031 C 
ATOM     51  C   UNL A   1      45.840  28.405  33.445  1.00  0.00     0.029 A 
ATOM     52  C   UNL A   1      45.299  27.712  32.375  1.00  0.00     0.049 A 
ATOM     53  H   UNL A   1      43.493  28.060  31.342  1.00  0.00     0.167 HD
ATOM     54  C   UNL A   1      45.248  25.954  30.628  1.00  0.00     0.074 A 
ATOM     55  C   UNL A   1      45.831  24.845  29.901  1.00  0.00     0.031 C 
ATOM     56  C   UNL A   1      45.846  26.578  31.673  1.00  0.00     0.034 A 
BRANCH  43  57
ATOM     57  C   UNL A   1      42.705  31.443  33.829  1.00  0.00     0.023 A 
ATOM     58  C   UNL A   1      43.233  32.689  33.434  1.00  0.00     0.012 A 
ATOM     59  C   UNL A   1      42.092  31.321  35.092  1.00  0.00     0.148 A 
ATOM     60  C   UNL A   1      43.183  33.787  34.292  1.00  0.00     0.002 A 
ATOM     61  C   UNL A   1      42.007  32.432  35.924  1.00  0.00     0.091 A 
ATOM     62  F   UNL A   1      41.615  30.123  35.459  1.00  0.00    -0.205 F 
ATOM     63  C   UNL A   1      42.561  33.661  35.531  1.00  0.00     0.022 A 
BRANCH  61  64
ATOM     64  S   UNL A   1      41.158  32.393  37.506  1.00  0.00     0.127 S 
ATOM     65  O   UNL A   1      39.901  31.737  37.151  1.00  0.00    -0.237 OA
ATOM     66  O   UNL A   1      42.062  31.580  38.321  1.00  0.00    -0.237 OA
ATOM     67  O   UNL A   1      41.040  33.781  37.933  1.00  0.00    -0.744 OA
ENDBRANCH  61  64
ENDBRANCH  43  57
BRANCH  44  68
ATOM     68  C   UNL A   1      42.809  24.121  27.039  1.00  0.00     0.023 A 
ATOM     69  C   UNL A   1      43.524  24.355  25.848  1.00  0.00     0.012 A 
ATOM     70  C   UNL A   1      42.179  22.875  27.228  1.00  0.00     0.148 A 
ATOM     71  C   UNL A   1      43.586  23.381  24.852  1.00  0.00     0.002 A 
ATOM     72  C   UNL A   1      42.293  21.888  26.255  1.00  0.00     0.091 A 
ATOM     73  F   UNL A   1      41.494  22.675  28.361  1.00  0.00    -0.205 F 
ATOM     74  C   UNL A   1      42.980  22.145  25.059  1.00  0.00     0.022 A 
BRANCH  72  75
ATOM     75  S   UNL A   1      41.662  20.223  26.496  1.00  0.00     0.127 S 
ATOM     76  O   UNL A   1      40.219  20.438  26.438  1.00  0.00    -0.237 OA
ATOM     77  O   UNL A   1      42.227  19.515  25.346  1.00  0.00    -0.237 OA
ATOM     78  O   UNL A   1      42.188  19.787  27.783  1.00  0.00    -0.744 OA
ENDBRANCH  72  75
ENDBRANCH  44  68
BRANCH  56  79
ATOM     79  C   UNL A   1      47.193  26.068  32.114  1.00  0.00     0.023 A 
ATOM     80  C   UNL A   1      48.360  26.556  31.494  1.00  0.00     0.012 A 
ATOM     81  C   UNL A   1      47.305  25.166  33.190  1.00  0.00     0.148 A 
ATOM     82  C   UNL A   1      49.619  26.132  31.919  1.00  0.00     0.002 A 
ATOM     83  C   UNL A   1      48.564  24.784  33.638  1.00  0.00     0.091 A 
ATOM     84  F   UNL A   1      46.183  24.699  33.754  1.00  0.00    -0.205 F 
ATOM     85  C   UNL A   1      49.721  25.257  32.998  1.00  0.00     0.022 A 
BRANCH  83  86
ATOM     86  S   UNL A   1      48.796  23.736  35.079  1.00  0.00     0.127 S 
ATOM     87  O   UNL A   1      48.478  22.414  34.541  1.00  0.00    -0.237 OA
ATOM     88  O   UNL A   1      50.211  23.944  35.390  1.00  0.00    -0.237 OA
ATOM     89  O   UNL A   1      47.876  24.236  36.091  1.00  0.00    -0.744 OA
ENDBRANCH  83  86
ENDBRANCH  56  79
ENDBRANCH  30  31
ENDBRANCH  22  25
ENDBRANCH  20  21
ENDBRANCH   1  20
TORSDOF 16
ENDMDL
MODEL 2
REMARK VINA RESULT:     -10.5      3.615      5.929
REMARK SMILES [NH3+][C@H](/C=C\c1ccccc1)C(=O)NCCCNC(=O)c1ccc(-c2c3nc(c(-c4cccc(S(=O)(=O)[O-])c4F)c4ccc([nH]4)c(-c4cccc(S(=O)(=O)[O-])c4F)c4nc(c(-c5cccc(S(=O)(=O)[O-])c5F)c5ccc2[nH]5)C=C4)C=C3)cc1
REMARK SMILES IDX 15 1 14 2 13 3 11 4 12 5 2 7 1 8 3 12 4 13 5 14 6 15 10 16
REMARK SMILES IDX 7 17 9 18 8 19 16 20 17 21 18 22 19 24 20 25 21 26 82 27
REMARK SMILES IDX 22 28 81 29 23 30 24 31 25 32 75 33 26 34 80 35 74 36 76 37
REMARK SMILES IDX 27 38 79 39 73 40 72 41 28 43 60 44 40 45 59 46 41 47 44 48
REMARK SMILES IDX 58 49 77 50 42 51 43 52 57 54 78 55 45 56 29 57 30 58 38 59
REMARK SMILES IDX 31 60 33 61 39 62 32 63 34 64 35 65 36 66 37 67 61 68 62 69
REMARK SMILES IDX 70 70 63 71 65 72 71 73 64 74 66 75 67 76 68 77 69 78 46 79
REMARK SMILES IDX 47 80 55 81 48 82 50 83 56 84 49 85 51 86 52 87 53 88 54 89
REMARK H PARENT 13 6 1 9 1 10 1 11 17 23 76 42 44 53
REMARK Flexibility Score: inf
ROOT
ATOM      1  C   UNL A   1      31.073  31.987  26.411  1.00  0.00     0.042 C 
ENDROOT
BRANCH   1   2
ATOM      2  C   UNL A   1      30.946  30.860  25.393  1.00  0.00     0.118 C 
BRANCH   2   3
ATOM      3  N   UNL A   1      32.167  30.083  25.288  1.00  0.00    -0.351 N 
ATOM      4  C   UNL A   1      32.396  28.745  25.429  1.00  0.00     0.282 C 
ATOM      5  O   UNL A   1      33.575  28.374  25.404  1.00  0.00    -0.268 OA
ATOM      6  H   UNL A   1      32.970  30.613  25.077  1.00  0.00     0.163 HD
BRANCH   4   7
ATOM      7  C   UNL A   1      31.237  27.728  25.610  1.00  0.00     0.294 C 
BRANCH   7   8
ATOM      8  N   UNL A   1      31.308  27.095  26.938  1.00  0.00    -0.344 N 
ATOM      9  H   UNL A   1      30.514  27.399  27.502  1.00  0.00     0.345 HD
ATOM     10  H   UNL A   1      32.177  27.367  27.397  1.00  0.00     0.345 HD
ATOM     11  H   UNL A   1      31.282  26.081  26.833  1.00  0.00     0.345 HD
ENDBRANCH   7   8
BRANCH   7  12
ATOM     12  C   UNL A   1      31.137  26.739  24.476  1.00  0.00     0.047 C 
ATOM     13  C   UNL A   1      30.426  26.861  23.339  1.00  0.00     0.010 C 
BRANCH  13  14
ATOM     14  C   UNL A   1      29.584  28.008  22.993  1.00  0.00    -0.026 A 
ATOM     15  C   UNL A   1      30.145  29.096  22.317  1.00  0.00     0.008 A 
ATOM     16  C   UNL A   1      28.221  28.033  23.314  1.00  0.00     0.008 A 
ATOM     17  C   UNL A   1      29.344  30.171  21.926  1.00  0.00     0.001 A 
ATOM     18  C   UNL A   1      27.418  29.099  22.911  1.00  0.00     0.001 A 
ATOM     19  C   UNL A   1      27.979  30.166  22.211  1.00  0.00     0.000 A 
ENDBRANCH  13  14
ENDBRANCH   7  12
ENDBRANCH   4   7
ENDBRANCH   2   3
ENDBRANCH   1   2
BRANCH   1  20
ATOM     20  C   UNL A   1      32.501  32.258  26.870  1.00  0.00     0.118 C 
BRANCH  20  21
ATOM     21  N   UNL A   1      32.698  33.627  27.330  1.00  0.00    -0.352 N 
ATOM     22  C   UNL A   1      33.630  34.137  28.199  1.00  0.00     0.251 C 
ATOM     23  H   UNL A   1      32.065  34.285  26.961  1.00  0.00     0.163 HD
ATOM     24  O   UNL A   1      33.518  35.291  28.606  1.00  0.00    -0.269 OA
BRANCH  22  25
ATOM     25  C   UNL A   1      34.752  33.294  28.662  1.00  0.00     0.039 A 
ATOM     26  C   UNL A   1      36.063  33.735  28.458  1.00  0.00     0.014 A 
ATOM     27  C   UNL A   1      34.513  32.078  29.306  1.00  0.00     0.014 A 
ATOM     28  C   UNL A   1      37.129  32.997  28.977  1.00  0.00     0.010 A 
ATOM     29  C   UNL A   1      35.569  31.389  29.894  1.00  0.00     0.010 A 
ATOM     30  C   UNL A   1      36.888  31.843  29.739  1.00  0.00    -0.014 A 
BRANCH  30  31
ATOM     31  C   UNL A   1      37.991  31.113  30.415  1.00  0.00     0.031 A 
ATOM     32  C   UNL A   1      38.365  31.444  31.834  1.00  0.00     0.074 A 
ATOM     33  C   UNL A   1      38.729  30.231  29.712  1.00  0.00     0.049 A 
ATOM     34  N   UNL A   1      39.352  30.982  32.555  1.00  0.00    -0.248 NA
ATOM     35  C   UNL A   1      37.538  32.447  32.525  1.00  0.00     0.031 C 
ATOM     36  C   UNL A   1      38.519  29.884  28.304  1.00  0.00     0.029 A 
ATOM     37  N   UNL A   1      39.826  29.488  30.075  1.00  0.00    -0.354 N 
ATOM     38  C   UNL A   1      39.291  31.662  33.766  1.00  0.00     0.074 A 
ATOM     39  C   UNL A   1      38.188  32.593  33.670  1.00  0.00     0.031 C 
ATOM     40  C   UNL A   1      39.456  29.000  27.923  1.00  0.00     0.029 A 
ATOM     41  C   UNL A   1      40.352  28.742  29.045  1.00  0.00     0.049 A 
ATOM     42  H   UNL A   1      40.201  29.490  30.985  1.00  0.00     0.167 HD
ATOM     43  C   UNL A   1      40.064  31.507  34.866  1.00  0.00     0.034 A 
ATOM     44  C   UNL A   1      41.441  27.950  29.004  1.00  0.00     0.034 A 
ATOM     45  C   UNL A   1      41.131  30.549  34.973  1.00  0.00     0.049 A 
ATOM     46  C   UNL A   1      42.262  27.769  30.252  1.00  0.00     0.074 A 
ATOM     47  C   UNL A   1      41.906  30.246  36.079  1.00  0.00     0.029 A 
ATOM     48  N   UNL A   1      41.580  29.745  33.937  1.00  0.00    -0.354 N 
ATOM     49  N   UNL A   1      42.084  28.296  31.440  1.00  0.00    -0.248 NA
ATOM     50  C   UNL A   1      43.414  26.860  30.165  1.00  0.00     0.031 C 
ATOM     51  C   UNL A   1      42.841  29.274  35.704  1.00  0.00     0.029 A 
ATOM     52  C   UNL A   1      42.631  28.956  34.372  1.00  0.00     0.049 A 
ATOM     53  H   UNL A   1      41.206  29.737  33.027  1.00  0.00     0.167 HD
ATOM     54  C   UNL A   1      43.081  27.761  32.247  1.00  0.00     0.074 A 
ATOM     55  C   UNL A   1      43.845  26.849  31.420  1.00  0.00     0.031 C 
ATOM     56  C   UNL A   1      43.352  28.016  33.551  1.00  0.00     0.034 A 
BRANCH  43  57
ATOM     57  C   UNL A   1      39.748  32.357  36.069  1.00  0.00     0.023 A 
ATOM     58  C   UNL A   1      40.429  33.578  36.254  1.00  0.00     0.012 A 
ATOM     59  C   UNL A   1      38.741  31.983  36.981  1.00  0.00     0.148 A 
ATOM     60  C   UNL A   1      40.140  34.396  37.345  1.00  0.00     0.002 A 
ATOM     61  C   UNL A   1      38.428  32.825  38.042  1.00  0.00     0.091 A 
ATOM     62  F   UNL A   1      38.119  30.809  36.801  1.00  0.00    -0.205 F 
ATOM     63  C   UNL A   1      39.133  34.025  38.232  1.00  0.00     0.022 A 
BRANCH  61  64
ATOM     64  S   UNL A   1      37.096  32.475  39.195  1.00  0.00     0.127 S 
ATOM     65  O   UNL A   1      37.383  31.090  39.567  1.00  0.00    -0.237 OA
ATOM     66  O   UNL A   1      37.341  33.454  40.256  1.00  0.00    -0.237 OA
ATOM     67  O   UNL A   1      35.860  32.681  38.454  1.00  0.00    -0.744 OA
ENDBRANCH  61  64
ENDBRANCH  43  57
BRANCH  44  68
ATOM     68  C   UNL A   1      41.784  27.219  27.751  1.00  0.00     0.023 A 
ATOM     69  C   UNL A   1      42.301  27.935  26.654  1.00  0.00     0.012 A 
ATOM     70  C   UNL A   1      41.631  25.822  27.649  1.00  0.00     0.148 A 
ATOM     71  C   UNL A   1      42.631  27.279  25.468  1.00  0.00     0.002 A 
ATOM     72  C   UNL A   1      42.016  25.167  26.485  1.00  0.00     0.091 A 
ATOM     73  F   UNL A   1      41.127  25.160  28.699  1.00  0.00    -0.205 F 
ATOM     74  C   UNL A   1      42.499  25.895  25.387  1.00  0.00     0.022 A 
BRANCH  72  75
ATOM     75  S   UNL A   1      42.010  23.376  26.341  1.00  0.00     0.127 S 
ATOM     76  O   UNL A   1      40.580  23.078  26.371  1.00  0.00    -0.237 OA
ATOM     77  O   UNL A   1      42.655  23.174  25.044  1.00  0.00    -0.237 OA
ATOM     78  O   UNL A   1      42.784  22.890  27.476  1.00  0.00    -0.744 OA
ENDBRANCH  72  75
ENDBRANCH  44  68
BRANCH  56  79
ATOM     79  C   UNL A   1      44.510  27.285  34.180  1.00  0.00     0.023 A 
ATOM     80  C   UNL A   1      45.811  27.812  34.067  1.00  0.00     0.012 A 
ATOM     81  C   UNL A   1      44.297  26.121  34.944  1.00  0.00     0.148 A 
ATOM     82  C   UNL A   1      46.889  27.176  34.681  1.00  0.00     0.002 A 
ATOM     83  C   UNL A   1      45.369  25.519  35.593  1.00  0.00     0.091 A 
ATOM     84  F   UNL A   1      43.054  25.625  35.024  1.00  0.00    -0.205 F 
ATOM     85  C   UNL A   1      46.667  26.038  35.453  1.00  0.00     0.022 A 
BRANCH  83  86
ATOM     86  S   UNL A   1      45.165  24.107  36.684  1.00  0.00     0.127 S 
ATOM     87  O   UNL A   1      44.257  24.641  37.697  1.00  0.00    -0.237 OA
ATOM     88  O   UNL A   1      44.567  23.110  35.794  1.00  0.00    -0.237 OA
ATOM     89  O   UNL A   1      46.500  23.769  37.157  1.00  0.00    -0.744 OA
ENDBRANCH  83  86
ENDBRANCH  56  79
ENDBRANCH  30  31
ENDBRANCH  22  25
ENDBRANCH  20  21
ENDBRANCH   1  20
TORSDOF 16
ENDMDL
MODEL 3
REMARK VINA RESULT:     -10.4      4.150     10.210
REMARK SMILES [NH3+][C@H](/C=C\c1ccccc1)C(=O)NCCCNC(=O)c1ccc(-c2c3nc(c(-c4cccc(S(=O)(=O)[O-])c4F)c4ccc([nH]4)c(-c4cccc(S(=O)(=O)[O-])c4F)c4nc(c(-c5cccc(S(=O)(=O)[O-])c5F)c5ccc2[nH]5)C=C4)C=C3)cc1
REMARK SMILES IDX 15 1 14 2 13 3 11 4 12 5 2 7 1 8 3 12 4 13 5 14 6 15 10 16
REMARK SMILES IDX 7 17 9 18 8 19 16 20 17 21 18 22 19 24 20 25 21 26 82 27
REMARK SMILES IDX 22 28 81 29 23 30 24 31 25 32 75 33 26 34 80 35 74 36 76 37
REMARK SMILES IDX 27 38 79 39 73 40 72 41 28 43 60 44 40 45 59 46 41 47 44 48
REMARK SMILES IDX 58 49 77 50 42 51 43 52 57 54 78 55 45 56 29 57 30 58 38 59
REMARK SMILES IDX 31 60 33 61 39 62 32 63 34 64 35 65 36 66 37 67 61 68 62 69
REMARK SMILES IDX 70 70 63 71 65 72 71 73 64 74 66 75 67 76 68 77 69 78 46 79
REMARK SMILES IDX 47 80 55 81 48 82 50 83 56 84 49 85 51 86 52 87 53 88 54 89
REMARK H PARENT 13 6 1 9 1 10 1 11 17 23 76 42 44 53
REMARK Flexibility Score: inf
ROOT
ATOM      1  C   UNL A   1      31.597  31.689  26.917  1.00  0.00     0.042 C 
ENDROOT
BRANCH   1   2
ATOM      2  C   UNL A   1      31.862  30.630  25.854  1.00  0.00     0.118 C 
BRANCH   2   3
ATOM      3  N   UNL A   1      32.647  29.526  26.372  1.00  0.00    -0.351 N 
ATOM      4  C   UNL A   1      32.420  28.179  26.364  1.00  0.00     0.282 C 
ATOM      5  O   UNL A   1      33.215  27.474  26.995  1.00  0.00    -0.268 OA
ATOM      6  H   UNL A   1      33.490  29.793  26.804  1.00  0.00     0.163 HD
BRANCH   4   7
ATOM      7  C   UNL A   1      31.224  27.554  25.597  1.00  0.00     0.294 C 
BRANCH   7   8
ATOM      8  N   UNL A   1      30.685  26.398  26.335  1.00  0.00    -0.344 N 
ATOM      9  H   UNL A   1      30.017  26.724  27.033  1.00  0.00     0.345 HD
ATOM     10  H   UNL A   1      31.449  25.905  26.798  1.00  0.00     0.345 HD
ATOM     11  H   UNL A   1      30.217  25.767  25.685  1.00  0.00     0.345 HD
ENDBRANCH   7   8
BRANCH   7  12
ATOM     12  C   UNL A   1      31.541  27.250  24.154  1.00  0.00     0.047 C 
ATOM     13  C   UNL A   1      30.892  27.691  23.060  1.00  0.00     0.010 C 
BRANCH  13  14
ATOM     14  C   UNL A   1      29.714  28.561  23.074  1.00  0.00    -0.026 A 
ATOM     15  C   UNL A   1      28.443  27.996  23.220  1.00  0.00     0.008 A 
ATOM     16  C   UNL A   1      29.836  29.951  22.958  1.00  0.00     0.008 A 
ATOM     17  C   UNL A   1      27.314  28.815  23.297  1.00  0.00     0.001 A 
ATOM     18  C   UNL A   1      28.710  30.769  23.049  1.00  0.00     0.001 A 
ATOM     19  C   UNL A   1      27.449  30.202  23.225  1.00  0.00     0.000 A 
ENDBRANCH  13  14
ENDBRANCH   7  12
ENDBRANCH   4   7
ENDBRANCH   2   3
ENDBRANCH   1   2
BRANCH   1  20
ATOM     20  C   UNL A   1      32.831  32.481  27.334  1.00  0.00     0.118 C 
BRANCH  20  21
ATOM     21  N   UNL A   1      32.543  33.887  27.587  1.00  0.00    -0.352 N 
ATOM     22  C   UNL A   1      33.088  34.744  28.512  1.00  0.00     0.251 C 
ATOM     23  H   UNL A   1      31.852  34.282  27.007  1.00  0.00     0.163 HD
ATOM     24  O   UNL A   1      32.579  35.847  28.695  1.00  0.00    -0.269 OA
BRANCH  22  25
ATOM     25  C   UNL A   1      34.266  34.329  29.302  1.00  0.00     0.039 A 
ATOM     26  C   UNL A   1      34.071  33.748  30.558  1.00  0.00     0.014 A 
ATOM     27  C   UNL A   1      35.558  34.502  28.802  1.00  0.00     0.014 A 
ATOM     28  C   UNL A   1      35.168  33.262  31.272  1.00  0.00     0.010 A 
ATOM     29  C   UNL A   1      36.640  33.943  29.475  1.00  0.00     0.010 A 
ATOM     30  C   UNL A   1      36.456  33.313  30.716  1.00  0.00    -0.014 A 
BRANCH  30  31
ATOM     31  C   UNL A   1      37.621  32.687  31.391  1.00  0.00     0.031 A 
ATOM     32  C   UNL A   1      38.336  31.527  30.753  1.00  0.00     0.074 A 
ATOM     33  C   UNL A   1      37.963  33.090  32.632  1.00  0.00     0.049 A 
ATOM     34  N   UNL A   1      39.309  30.796  31.231  1.00  0.00    -0.248 NA
ATOM     35  C   UNL A   1      37.880  31.117  29.415  1.00  0.00     0.031 C 
ATOM     36  C   UNL A   1      37.294  34.149  33.392  1.00  0.00     0.029 A 
ATOM     37  N   UNL A   1      38.937  32.636  33.486  1.00  0.00    -0.354 N 
ATOM     38  C   UNL A   1      39.556  29.819  30.274  1.00  0.00     0.074 A 
ATOM     39  C   UNL A   1      38.609  30.031  29.202  1.00  0.00     0.031 C 
ATOM     40  C   UNL A   1      37.875  34.261  34.597  1.00  0.00     0.029 A 
ATOM     41  C   UNL A   1      38.933  33.263  34.710  1.00  0.00     0.049 A 
ATOM     42  H   UNL A   1      39.577  31.927  33.246  1.00  0.00     0.167 HD
ATOM     43  C   UNL A   1      40.502  28.851  30.274  1.00  0.00     0.034 A 
ATOM     44  C   UNL A   1      39.687  33.050  35.807  1.00  0.00     0.034 A 
ATOM     45  C   UNL A   1      41.471  28.672  31.321  1.00  0.00     0.049 A 
ATOM     46  C   UNL A   1      40.755  31.991  35.767  1.00  0.00     0.074 A 
ATOM     47  C   UNL A   1      42.533  27.785  31.367  1.00  0.00     0.029 A 
ATOM     48  N   UNL A   1      41.494  29.384  32.510  1.00  0.00    -0.354 N 
ATOM     49  N   UNL A   1      41.082  31.187  34.784  1.00  0.00    -0.248 NA
ATOM     50  C   UNL A   1      41.578  31.829  36.974  1.00  0.00     0.031 C 
ATOM     51  C   UNL A   1      43.183  27.946  32.595  1.00  0.00     0.029 A 
ATOM     52  C   UNL A   1      42.541  28.948  33.304  1.00  0.00     0.049 A 
ATOM     53  H   UNL A   1      40.858  30.095  32.754  1.00  0.00     0.167 HD
ATOM     54  C   UNL A   1      42.166  30.447  35.242  1.00  0.00     0.074 A 
ATOM     55  C   UNL A   1      42.456  30.915  36.581  1.00  0.00     0.031 C 
ATOM     56  C   UNL A   1      42.849  29.456  34.616  1.00  0.00     0.034 A 
BRANCH  43  57
ATOM     57  C   UNL A   1      40.573  27.941  29.075  1.00  0.00     0.023 A 
ATOM     58  C   UNL A   1      39.659  26.874  28.960  1.00  0.00     0.012 A 
ATOM     59  C   UNL A   1      41.498  28.173  28.039  1.00  0.00     0.148 A 
ATOM     60  C   UNL A   1      39.686  26.031  27.850  1.00  0.00     0.002 A 
ATOM     61  C   UNL A   1      41.490  27.354  26.915  1.00  0.00     0.091 A 
ATOM     62  F   UNL A   1      42.374  29.178  28.176  1.00  0.00    -0.205 F 
ATOM     63  C   UNL A   1      40.594  26.277  26.824  1.00  0.00     0.022 A 
BRANCH  61  64
ATOM     64  S   UNL A   1      42.567  27.635  25.505  1.00  0.00     0.127 S 
ATOM     65  O   UNL A   1      42.314  26.442  24.698  1.00  0.00    -0.237 OA
ATOM     66  O   UNL A   1      42.025  28.874  24.946  1.00  0.00    -0.237 OA
ATOM     67  O   UNL A   1      43.914  27.752  26.045  1.00  0.00    -0.744 OA
ENDBRANCH  61  64
ENDBRANCH  43  57
BRANCH  44  68
ATOM     68  C   UNL A   1      39.499  33.901  37.016  1.00  0.00     0.023 A 
ATOM     69  C   UNL A   1      39.931  35.241  36.992  1.00  0.00     0.012 A 
ATOM     70  C   UNL A   1      38.869  33.403  38.174  1.00  0.00     0.148 A 
ATOM     71  C   UNL A   1      39.768  36.062  38.108  1.00  0.00     0.002 A 
ATOM     72  C   UNL A   1      38.658  34.243  39.262  1.00  0.00     0.091 A 
ATOM     73  F   UNL A   1      38.475  32.123  38.183  1.00  0.00    -0.205 F 
ATOM     74  C   UNL A   1      39.123  35.567  39.239  1.00  0.00     0.022 A 
BRANCH  72  75
ATOM     75  S   UNL A   1      37.715  33.732  40.704  1.00  0.00     0.127 S 
ATOM     76  O   UNL A   1      36.522  33.153  40.092  1.00  0.00    -0.237 OA
ATOM     77  O   UNL A   1      38.619  32.766  41.330  1.00  0.00    -0.237 OA
ATOM     78  O   UNL A   1      37.504  34.945  41.484  1.00  0.00    -0.744 OA
ENDBRANCH  72  75
ENDBRANCH  44  68
BRANCH  56  79
ATOM     79  C   UNL A   1      43.994  28.820  35.360  1.00  0.00     0.023 A 
ATOM     80  C   UNL A   1      45.294  29.345  35.220  1.00  0.00     0.012 A 
ATOM     81  C   UNL A   1      43.770  27.753  36.252  1.00  0.00     0.148 A 
ATOM     82  C   UNL A   1      46.360  28.800  35.935  1.00  0.00     0.002 A 
ATOM     83  C   UNL A   1      44.829  27.246  36.996  1.00  0.00     0.091 A 
ATOM     84  F   UNL A   1      42.530  27.255  36.356  1.00  0.00    -0.205 F 
ATOM     85  C   UNL A   1      46.125  27.760  36.831  1.00  0.00     0.022 A 
BRANCH  83  86
ATOM     86  S   UNL A   1      44.606  25.971  38.243  1.00  0.00     0.127 S 
ATOM     87  O   UNL A   1      44.125  24.848  37.439  1.00  0.00    -0.237 OA
ATOM     88  O   UNL A   1      45.962  25.809  38.768  1.00  0.00    -0.237 OA
ATOM     89  O   UNL A   1      43.649  26.509  39.199  1.00  0.00    -0.744 OA
ENDBRANCH  83  86
ENDBRANCH  56  79
ENDBRANCH  30  31
ENDBRANCH  22  25
ENDBRANCH  20  21
ENDBRANCH   1  20
TORSDOF 16
ENDMDL
