MODEL 1
REMARK VINA RESULT:     -12.6      0.000      0.000
REMARK SMILES O=C(NCCCNC(=O)c1ccc(-c2c3nc(c(-c4cccc(S(=O)(=O)[O-])c4F)c4ccc([nH]4)c(-c4cccc(S(=O)(=O)[O-])c4F)c4nc(c(-c5cccc(S(=O)(=O)[O-])c5F)c5ccc2[nH]5)C=C4)C=C3)cc1)c1ccc(O[C@@H]2[NH+]=C(Cl)[NH+]=C3N=CN=C32)cc1
REMARK SMILES IDX 5 1 4 2 3 3 1 4 2 5 73 7 74 8 89 9 75 10 88 11 76 12 77 13
REMARK SMILES IDX 78 14 79 15 87 16 80 17 83 19 86 20 81 21 82 22 84 23 85 24
REMARK SMILES IDX 6 26 7 27 8 28 9 30 10 31 11 32 72 33 12 34 71 35 13 36
REMARK SMILES IDX 14 37 15 38 65 39 16 40 70 41 64 42 66 43 17 44 69 45 63 46
REMARK SMILES IDX 62 47 18 49 50 50 30 51 49 52 31 53 34 54 48 55 67 56 32 57
REMARK SMILES IDX 33 58 47 60 68 61 35 62 19 63 20 64 28 65 21 66 23 67 29 68
REMARK SMILES IDX 22 69 24 70 25 71 26 72 27 73 51 74 52 75 60 76 53 77 55 78
REMARK SMILES IDX 61 79 54 80 56 81 57 82 58 83 59 84 36 85 37 86 45 87 38 88
REMARK SMILES IDX 40 89 46 90 39 91 41 92 42 93 43 94 44 95
REMARK H PARENT 3 6 79 18 82 25 7 29 66 48 34 59
REMARK Flexibility Score: inf
ROOT
ATOM      1  C   UNL A   1      31.912  28.559  25.384  1.00  0.00     0.042 C 
ENDROOT
BRANCH   1   2
ATOM      2  C   UNL A   1      31.511  28.168  23.981  1.00  0.00     0.118 C 
BRANCH   2   3
ATOM      3  N   UNL A   1      30.083  27.898  23.844  1.00  0.00    -0.352 N 
ATOM      4  O   UNL A   1      28.211  26.640  23.667  1.00  0.00    -0.269 OA
ATOM      5  C   UNL A   1      29.396  26.714  23.976  1.00  0.00     0.251 C 
ATOM      6  H   UNL A   1      29.528  28.681  23.623  1.00  0.00     0.163 HD
BRANCH   5   7
ATOM      7  C   UNL A   1      30.101  25.525  24.498  1.00  0.00     0.040 A 
ATOM      8  C   UNL A   1      30.599  24.581  23.603  1.00  0.00     0.017 A 
ATOM      9  C   UNL A   1      30.242  25.328  25.876  1.00  0.00     0.017 A 
ATOM     10  C   UNL A   1      31.044  23.362  24.070  1.00  0.00     0.047 A 
ATOM     11  C   UNL A   1      30.866  24.166  26.343  1.00  0.00     0.047 A 
ATOM     12  C   UNL A   1      31.287  23.202  25.426  1.00  0.00     0.127 A 
BRANCH  12  13
ATOM     13  O   UNL A   1      32.009  22.113  25.840  1.00  0.00    -0.429 OA
BRANCH  13  14
ATOM     14  C   UNL A   1      32.603  21.423  24.715  1.00  0.00     0.521 C 
ATOM     15  N   UNL A   1      32.235  20.009  24.571  1.00  0.00    -0.130 N 
ATOM     16  C   UNL A   1      34.083  21.584  24.634  1.00  0.00     0.246 C 
ATOM     17  C   UNL A   1      33.091  19.078  24.780  1.00  0.00     0.517 C 
ATOM     18  H   UNL A   1      31.317  19.771  24.308  1.00  0.00     0.458 HD
ATOM     19  C   UNL A   1      34.888  20.396  24.907  1.00  0.00     0.341 C 
ATOM     20  N   UNL A   1      34.891  22.589  24.491  1.00  0.00    -0.222 NA
ATOM     21  Cl  UNL A   1      32.531  17.462  24.694  1.00  0.00     0.068 Cl
ATOM     22  N   UNL A   1      34.427  19.212  25.015  1.00  0.00    -0.118 N 
ATOM     23  N   UNL A   1      36.197  20.765  24.995  1.00  0.00    -0.173 NA
ATOM     24  C   UNL A   1      36.150  22.038  24.729  1.00  0.00     0.230 C 
ATOM     25  H   UNL A   1      34.998  18.445  25.252  1.00  0.00     0.464 HD
ENDBRANCH  13  14
ENDBRANCH  12  13
ENDBRANCH   5   7
ENDBRANCH   2   3
ENDBRANCH   1   2
BRANCH   1  26
ATOM     26  C   UNL A   1      33.066  29.535  25.421  1.00  0.00     0.118 C 
BRANCH  26  27
ATOM     27  N   UNL A   1      32.669  30.845  25.918  1.00  0.00    -0.352 N 
ATOM     28  C   UNL A   1      33.147  31.564  26.983  1.00  0.00     0.251 C 
ATOM     29  H   UNL A   1      31.946  31.281  25.413  1.00  0.00     0.163 HD
ATOM     30  O   UNL A   1      32.530  32.555  27.366  1.00  0.00    -0.269 OA
BRANCH  28  31
ATOM     31  C   UNL A   1      34.387  31.143  27.669  1.00  0.00     0.039 A 
ATOM     32  C   UNL A   1      35.379  32.094  27.909  1.00  0.00     0.014 A 
ATOM     33  C   UNL A   1      34.583  29.816  28.059  1.00  0.00     0.014 A 
ATOM     34  C   UNL A   1      36.548  31.716  28.569  1.00  0.00     0.010 A 
ATOM     35  C   UNL A   1      35.683  29.472  28.833  1.00  0.00     0.010 A 
ATOM     36  C   UNL A   1      36.698  30.408  29.062  1.00  0.00    -0.014 A 
BRANCH  36  37
ATOM     37  C   UNL A   1      37.929  30.006  29.784  1.00  0.00     0.031 A 
ATOM     38  C   UNL A   1      38.185  30.495  31.185  1.00  0.00     0.074 A 
ATOM     39  C   UNL A   1      38.833  29.223  29.166  1.00  0.00     0.049 A 
ATOM     40  N   UNL A   1      39.185  30.217  31.981  1.00  0.00    -0.248 NA
ATOM     41  C   UNL A   1      37.208  31.434  31.763  1.00  0.00     0.031 C 
ATOM     42  C   UNL A   1      38.737  28.750  27.783  1.00  0.00     0.029 A 
ATOM     43  N   UNL A   1      40.014  28.692  29.617  1.00  0.00    -0.354 N 
ATOM     44  C   UNL A   1      38.975  30.967  33.132  1.00  0.00     0.074 A 
ATOM     45  C   UNL A   1      37.778  31.747  32.916  1.00  0.00     0.031 C 
ATOM     46  C   UNL A   1      39.797  27.974  27.509  1.00  0.00     0.029 A 
ATOM     47  C   UNL A   1      40.672  27.935  28.676  1.00  0.00     0.049 A 
ATOM     48  H   UNL A   1      40.359  28.839  30.528  1.00  0.00     0.167 HD
ATOM     49  C   UNL A   1      39.698  30.989  34.276  1.00  0.00     0.034 A 
ATOM     50  C   UNL A   1      41.853  27.292  28.741  1.00  0.00     0.034 A 
ATOM     51  C   UNL A   1      40.883  30.203  34.490  1.00  0.00     0.049 A 
ATOM     52  C   UNL A   1      42.631  27.323  30.026  1.00  0.00     0.074 A 
ATOM     53  C   UNL A   1      41.643  30.093  35.640  1.00  0.00     0.029 A 
ATOM     54  N   UNL A   1      41.500  29.420  33.527  1.00  0.00    -0.354 N 
ATOM     55  N   UNL A   1      42.340  27.923  31.154  1.00  0.00    -0.248 NA
ATOM     56  C   UNL A   1      43.883  26.555  30.057  1.00  0.00     0.031 C 
ATOM     57  C   UNL A   1      42.757  29.299  35.352  1.00  0.00     0.029 A 
ATOM     58  C   UNL A   1      42.647  28.847  34.047  1.00  0.00     0.049 A 
ATOM     59  H   UNL A   1      41.171  29.292  32.608  1.00  0.00     0.167 HD
ATOM     60  C   UNL A   1      43.351  27.573  32.042  1.00  0.00     0.074 A 
ATOM     61  C   UNL A   1      44.248  26.691  31.324  1.00  0.00     0.031 C 
ATOM     62  C   UNL A   1      43.521  27.950  33.333  1.00  0.00     0.034 A 
BRANCH  49  63
ATOM     63  C   UNL A   1      39.226  31.891  35.387  1.00  0.00     0.023 A 
ATOM     64  C   UNL A   1      38.307  31.419  36.348  1.00  0.00     0.012 A 
ATOM     65  C   UNL A   1      39.732  33.201  35.504  1.00  0.00     0.148 A 
ATOM     66  C   UNL A   1      37.865  32.249  37.378  1.00  0.00     0.002 A 
ATOM     67  C   UNL A   1      39.331  34.002  36.564  1.00  0.00     0.091 A 
ATOM     68  F   UNL A   1      40.589  33.639  34.572  1.00  0.00    -0.205 F 
ATOM     69  C   UNL A   1      38.385  33.535  37.492  1.00  0.00     0.022 A 
BRANCH  67  70
ATOM     70  S   UNL A   1      40.007  35.641  36.848  1.00  0.00     0.127 S 
ATOM     71  O   UNL A   1      39.369  36.007  38.113  1.00  0.00    -0.237 OA
ATOM     72  O   UNL A   1      41.440  35.366  36.944  1.00  0.00    -0.237 OA
ATOM     73  O   UNL A   1      39.614  36.446  35.699  1.00  0.00    -0.744 OA
ENDBRANCH  67  70
ENDBRANCH  49  63
BRANCH  50  74
ATOM     74  C   UNL A   1      42.358  26.545  27.555  1.00  0.00     0.023 A 
ATOM     75  C   UNL A   1      43.164  27.195  26.600  1.00  0.00     0.012 A 
ATOM     76  C   UNL A   1      42.049  25.183  27.383  1.00  0.00     0.148 A 
ATOM     77  C   UNL A   1      43.618  26.509  25.473  1.00  0.00     0.002 A 
ATOM     78  C   UNL A   1      42.554  24.491  26.291  1.00  0.00     0.091 A 
ATOM     79  F   UNL A   1      41.278  24.587  28.304  1.00  0.00    -0.205 F 
ATOM     80  C   UNL A   1      43.322  25.156  25.324  1.00  0.00     0.022 A 
BRANCH  78  81
ATOM     81  S   UNL A   1      42.330  22.722  26.086  1.00  0.00     0.127 S 
ATOM     82  O   UNL A   1      42.939  22.495  24.778  1.00  0.00    -0.237 OA
ATOM     83  O   UNL A   1      43.087  22.193  27.221  1.00  0.00    -0.237 OA
ATOM     84  O   UNL A   1      40.893  22.492  26.158  1.00  0.00    -0.744 OA
ENDBRANCH  78  81
ENDBRANCH  50  74
BRANCH  62  85
ATOM     85  C   UNL A   1      44.689  27.360  34.082  1.00  0.00     0.023 A 
ATOM     86  C   UNL A   1      45.951  27.987  34.057  1.00  0.00     0.012 A 
ATOM     87  C   UNL A   1      44.516  26.189  34.848  1.00  0.00     0.148 A 
ATOM     88  C   UNL A   1      47.034  27.425  34.733  1.00  0.00     0.002 A 
ATOM     89  C   UNL A   1      45.583  25.670  35.568  1.00  0.00     0.091 A 
ATOM     90  F   UNL A   1      43.312  25.598  34.850  1.00  0.00    -0.205 F 
ATOM     91  C   UNL A   1      46.847  26.275  35.496  1.00  0.00     0.022 A 
BRANCH  89  92
ATOM     92  S   UNL A   1      45.410  24.253  36.656  1.00  0.00     0.127 S 
ATOM     93  O   UNL A   1      44.385  24.719  37.589  1.00  0.00    -0.237 OA
ATOM     94  O   UNL A   1      44.967  23.209  35.732  1.00  0.00    -0.237 OA
ATOM     95  O   UNL A   1      46.726  24.027  37.239  1.00  0.00    -0.744 OA
ENDBRANCH  89  92
ENDBRANCH  62  85
ENDBRANCH  36  37
ENDBRANCH  28  31
ENDBRANCH  26  27
ENDBRANCH   1  26
TORSDOF 15
ENDMDL
MODEL 2
REMARK VINA RESULT:     -12.4      1.589      2.099
REMARK SMILES O=C(NCCCNC(=O)c1ccc(-c2c3nc(c(-c4cccc(S(=O)(=O)[O-])c4F)c4ccc([nH]4)c(-c4cccc(S(=O)(=O)[O-])c4F)c4nc(c(-c5cccc(S(=O)(=O)[O-])c5F)c5ccc2[nH]5)C=C4)C=C3)cc1)c1ccc(O[C@@H]2[NH+]=C(Cl)[NH+]=C3N=CN=C32)cc1
REMARK SMILES IDX 5 1 4 2 3 3 1 4 2 5 73 7 74 8 89 9 75 10 88 11 76 12 77 13
REMARK SMILES IDX 78 14 79 15 87 16 80 17 83 19 86 20 81 21 82 22 84 23 85 24
REMARK SMILES IDX 6 26 7 27 8 28 9 30 10 31 11 32 72 33 12 34 71 35 13 36
REMARK SMILES IDX 14 37 15 38 65 39 16 40 70 41 64 42 66 43 17 44 69 45 63 46
REMARK SMILES IDX 62 47 18 49 50 50 30 51 49 52 31 53 34 54 48 55 67 56 32 57
REMARK SMILES IDX 33 58 47 60 68 61 35 62 19 63 20 64 28 65 21 66 23 67 29 68
REMARK SMILES IDX 22 69 24 70 25 71 26 72 27 73 51 74 52 75 60 76 53 77 55 78
REMARK SMILES IDX 61 79 54 80 56 81 57 82 58 83 59 84 36 85 37 86 45 87 38 88
REMARK SMILES IDX 40 89 46 90 39 91 41 92 42 93 43 94 44 95
REMARK H PARENT 3 6 79 18 82 25 7 29 66 48 34 59
REMARK Flexibility Score: inf
ROOT
ATOM      1  C   UNL A   1      32.034  28.618  26.642  1.00  0.00     0.042 C 
ENDROOT
BRANCH   1   2
ATOM      2  C   UNL A   1      31.664  27.449  25.758  1.00  0.00     0.118 C 
BRANCH   2   3
ATOM      3  N   UNL A   1      31.091  27.854  24.478  1.00  0.00    -0.352 N 
ATOM      4  O   UNL A   1      30.678  27.746  22.256  1.00  0.00    -0.269 OA
ATOM      5  C   UNL A   1      31.063  27.184  23.277  1.00  0.00     0.251 C 
ATOM      6  H   UNL A   1      30.661  28.740  24.473  1.00  0.00     0.163 HD
BRANCH   5   7
ATOM      7  C   UNL A   1      31.500  25.774  23.226  1.00  0.00     0.040 A 
ATOM      8  C   UNL A   1      32.809  25.481  22.849  1.00  0.00     0.017 A 
ATOM      9  C   UNL A   1      30.607  24.740  23.522  1.00  0.00     0.017 A 
ATOM     10  C   UNL A   1      33.166  24.179  22.568  1.00  0.00     0.047 A 
ATOM     11  C   UNL A   1      31.034  23.412  23.413  1.00  0.00     0.047 A 
ATOM     12  C   UNL A   1      32.326  23.145  22.959  1.00  0.00     0.127 A 
BRANCH  12  13
ATOM     13  O   UNL A   1      32.816  21.865  22.958  1.00  0.00    -0.429 OA
BRANCH  13  14
ATOM     14  C   UNL A   1      33.085  21.409  24.305  1.00  0.00     0.521 C 
ATOM     15  N   UNL A   1      34.332  21.899  24.904  1.00  0.00    -0.130 N 
ATOM     16  C   UNL A   1      32.983  19.929  24.461  1.00  0.00     0.246 C 
ATOM     17  C   UNL A   1      35.319  21.110  25.119  1.00  0.00     0.517 C 
ATOM     18  H   UNL A   1      34.412  22.850  25.147  1.00  0.00     0.458 HD
ATOM     19  C   UNL A   1      34.230  19.207  24.702  1.00  0.00     0.341 C 
ATOM     20  N   UNL A   1      32.036  19.054  24.315  1.00  0.00    -0.222 NA
ATOM     21  Cl  UNL A   1      36.765  21.805  25.718  1.00  0.00     0.068 Cl
ATOM     22  N   UNL A   1      35.348  19.755  24.978  1.00  0.00    -0.118 N 
ATOM     23  N   UNL A   1      33.985  17.870  24.613  1.00  0.00    -0.173 NA
ATOM     24  C   UNL A   1      32.701  17.830  24.406  1.00  0.00     0.230 C 
ATOM     25  H   UNL A   1      36.177  19.234  25.082  1.00  0.00     0.464 HD
ENDBRANCH  13  14
ENDBRANCH  12  13
ENDBRANCH   5   7
ENDBRANCH   2   3
ENDBRANCH   1   2
BRANCH   1  26
ATOM     26  C   UNL A   1      33.076  29.521  26.025  1.00  0.00     0.118 C 
BRANCH  26  27
ATOM     27  N   UNL A   1      32.873  30.921  26.373  1.00  0.00    -0.352 N 
ATOM     28  C   UNL A   1      33.529  31.706  27.285  1.00  0.00     0.251 C 
ATOM     29  H   UNL A   1      32.153  31.373  25.877  1.00  0.00     0.163 HD
ATOM     30  O   UNL A   1      33.063  32.803  27.582  1.00  0.00    -0.269 OA
BRANCH  28  31
ATOM     31  C   UNL A   1      34.780  31.230  27.913  1.00  0.00     0.039 A 
ATOM     32  C   UNL A   1      35.872  32.096  27.980  1.00  0.00     0.014 A 
ATOM     33  C   UNL A   1      34.888  29.932  28.417  1.00  0.00     0.014 A 
ATOM     34  C   UNL A   1      37.053  31.667  28.583  1.00  0.00     0.010 A 
ATOM     35  C   UNL A   1      36.014  29.554  29.136  1.00  0.00     0.010 A 
ATOM     36  C   UNL A   1      37.126  30.401  29.192  1.00  0.00    -0.014 A 
BRANCH  36  37
ATOM     37  C   UNL A   1      38.373  29.949  29.854  1.00  0.00     0.031 A 
ATOM     38  C   UNL A   1      38.739  30.461  31.221  1.00  0.00     0.074 A 
ATOM     39  C   UNL A   1      39.193  29.097  29.209  1.00  0.00     0.049 A 
ATOM     40  N   UNL A   1      39.767  30.147  31.966  1.00  0.00    -0.248 NA
ATOM     41  C   UNL A   1      37.853  31.471  31.825  1.00  0.00     0.031 C 
ATOM     42  C   UNL A   1      38.988  28.591  27.849  1.00  0.00     0.029 A 
ATOM     43  N   UNL A   1      40.366  28.510  29.608  1.00  0.00    -0.354 N 
ATOM     44  C   UNL A   1      39.669  30.940  33.103  1.00  0.00     0.074 A 
ATOM     45  C   UNL A   1      38.508  31.783  32.933  1.00  0.00     0.031 C 
ATOM     46  C   UNL A   1      39.984  27.748  27.539  1.00  0.00     0.029 A 
ATOM     47  C   UNL A   1      40.923  27.690  28.655  1.00  0.00     0.049 A 
ATOM     48  H   UNL A   1      40.772  28.662  30.492  1.00  0.00     0.167 HD
ATOM     49  C   UNL A   1      40.459  30.951  34.202  1.00  0.00     0.034 A 
ATOM     50  C   UNL A   1      42.067  26.981  28.671  1.00  0.00     0.034 A 
ATOM     51  C   UNL A   1      41.608  30.104  34.373  1.00  0.00     0.049 A 
ATOM     52  C   UNL A   1      42.920  27.002  29.908  1.00  0.00     0.074 A 
ATOM     53  C   UNL A   1      42.427  29.981  35.480  1.00  0.00     0.029 A 
ATOM     54  N   UNL A   1      42.120  29.259  33.400  1.00  0.00    -0.354 N 
ATOM     55  N   UNL A   1      42.732  27.649  31.031  1.00  0.00    -0.248 NA
ATOM     56  C   UNL A   1      44.126  26.163  29.891  1.00  0.00     0.031 C 
ATOM     57  C   UNL A   1      43.475  29.115  35.153  1.00  0.00     0.029 A 
ATOM     58  C   UNL A   1      43.262  28.634  33.871  1.00  0.00     0.049 A 
ATOM     59  H   UNL A   1      41.731  29.124  32.507  1.00  0.00     0.167 HD
ATOM     60  C   UNL A   1      43.772  27.266  31.869  1.00  0.00     0.074 A 
ATOM     61  C   UNL A   1      44.573  26.313  31.129  1.00  0.00     0.031 C 
ATOM     62  C   UNL A   1      44.039  27.668  33.137  1.00  0.00     0.034 A 
BRANCH  49  63
ATOM     63  C   UNL A   1      40.106  31.910  35.310  1.00  0.00     0.023 A 
ATOM     64  C   UNL A   1      40.756  33.159  35.407  1.00  0.00     0.012 A 
ATOM     65  C   UNL A   1      39.092  31.590  36.234  1.00  0.00     0.148 A 
ATOM     66  C   UNL A   1      40.436  34.050  36.431  1.00  0.00     0.002 A 
ATOM     67  C   UNL A   1      38.739  32.505  37.216  1.00  0.00     0.091 A 
ATOM     68  F   UNL A   1      38.499  30.391  36.139  1.00  0.00    -0.205 F 
ATOM     69  C   UNL A   1      39.420  33.729  37.326  1.00  0.00     0.022 A 
BRANCH  67  70
ATOM     70  S   UNL A   1      37.388  32.221  38.363  1.00  0.00     0.127 S 
ATOM     71  O   UNL A   1      37.950  32.734  39.612  1.00  0.00    -0.237 OA
ATOM     72  O   UNL A   1      36.323  33.043  37.789  1.00  0.00    -0.237 OA
ATOM     73  O   UNL A   1      37.132  30.787  38.341  1.00  0.00    -0.744 OA
ENDBRANCH  67  70
ENDBRANCH  49  63
BRANCH  50  74
ATOM     74  C   UNL A   1      42.457  26.173  27.483  1.00  0.00     0.023 A 
ATOM     75  C   UNL A   1      43.251  26.743  26.469  1.00  0.00     0.012 A 
ATOM     76  C   UNL A   1      42.051  24.831  27.365  1.00  0.00     0.148 A 
ATOM     77  C   UNL A   1      43.598  26.001  25.339  1.00  0.00     0.002 A 
ATOM     78  C   UNL A   1      42.451  24.079  26.269  1.00  0.00     0.091 A 
ATOM     79  F   UNL A   1      41.294  24.310  28.342  1.00  0.00    -0.205 F 
ATOM     80  C   UNL A   1      43.206  24.668  25.244  1.00  0.00     0.022 A 
BRANCH  78  81
ATOM     81  S   UNL A   1      42.100  22.324  26.126  1.00  0.00     0.127 S 
ATOM     82  O   UNL A   1      42.816  21.978  24.900  1.00  0.00    -0.237 OA
ATOM     83  O   UNL A   1      42.693  21.803  27.357  1.00  0.00    -0.237 OA
ATOM     84  O   UNL A   1      40.650  22.213  26.059  1.00  0.00    -0.744 OA
ENDBRANCH  78  81
ENDBRANCH  50  74
BRANCH  62  85
ATOM     85  C   UNL A   1      45.214  27.032  33.835  1.00  0.00     0.023 A 
ATOM     86  C   UNL A   1      46.491  27.628  33.785  1.00  0.00     0.012 A 
ATOM     87  C   UNL A   1      45.035  25.847  34.579  1.00  0.00     0.148 A 
ATOM     88  C   UNL A   1      47.579  27.023  34.414  1.00  0.00     0.002 A 
ATOM     89  C   UNL A   1      46.110  25.286  35.253  1.00  0.00     0.091 A 
ATOM     90  F   UNL A   1      43.817  25.287  34.605  1.00  0.00    -0.205 F 
ATOM     91  C   UNL A   1      47.387  25.860  35.156  1.00  0.00     0.022 A 
BRANCH  89  92
ATOM     92  S   UNL A   1      45.935  23.848  36.313  1.00  0.00     0.127 S 
ATOM     93  O   UNL A   1      45.664  22.792  35.337  1.00  0.00    -0.237 OA
ATOM     94  O   UNL A   1      47.252  23.771  36.946  1.00  0.00    -0.237 OA
ATOM     95  O   UNL A   1      44.840  24.147  37.226  1.00  0.00    -0.744 OA
ENDBRANCH  89  92
ENDBRANCH  62  85
ENDBRANCH  36  37
ENDBRANCH  28  31
ENDBRANCH  26  27
ENDBRANCH   1  26
TORSDOF 15
ENDMDL
MODEL 3
REMARK VINA RESULT:     -12.4      4.748     10.256
REMARK SMILES O=C(NCCCNC(=O)c1ccc(-c2c3nc(c(-c4cccc(S(=O)(=O)[O-])c4F)c4ccc([nH]4)c(-c4cccc(S(=O)(=O)[O-])c4F)c4nc(c(-c5cccc(S(=O)(=O)[O-])c5F)c5ccc2[nH]5)C=C4)C=C3)cc1)c1ccc(O[C@@H]2[NH+]=C(Cl)[NH+]=C3N=CN=C32)cc1
REMARK SMILES IDX 5 1 4 2 3 3 1 4 2 5 73 7 74 8 89 9 75 10 88 11 76 12 77 13
REMARK SMILES IDX 78 14 79 15 87 16 80 17 83 19 86 20 81 21 82 22 84 23 85 24
REMARK SMILES IDX 6 26 7 27 8 28 9 30 10 31 11 32 72 33 12 34 71 35 13 36
REMARK SMILES IDX 14 37 15 38 65 39 16 40 70 41 64 42 66 43 17 44 69 45 63 46
REMARK SMILES IDX 62 47 18 49 50 50 30 51 49 52 31 53 34 54 48 55 67 56 32 57
REMARK SMILES IDX 33 58 47 60 68 61 35 62 19 63 20 64 28 65 21 66 23 67 29 68
REMARK SMILES IDX 22 69 24 70 25 71 26 72 27 73 51 74 52 75 60 76 53 77 55 78
REMARK SMILES IDX 61 79 54 80 56 81 57 82 58 83 59 84 36 85 37 86 45 87 38 88
REMARK SMILES IDX 40 89 46 90 39 91 41 92 42 93 43 94 44 95
REMARK H PARENT 3 6 79 18 82 25 7 29 66 48 34 59
REMARK Flexibility Score: inf
ROOT
ATOM      1  C   UNL A   1      36.066  22.516  24.062  1.00  0.00     0.042 C 
ENDROOT
BRANCH   1   2
ATOM      2  C   UNL A   1      34.605  22.738  23.745  1.00  0.00     0.118 C 
BRANCH   2   3
ATOM      3  N   UNL A   1      33.746  21.650  24.202  1.00  0.00    -0.352 N 
ATOM      4  O   UNL A   1      31.941  20.691  25.173  1.00  0.00    -0.269 OA
ATOM      5  C   UNL A   1      32.456  21.689  24.681  1.00  0.00     0.251 C 
ATOM      6  H   UNL A   1      34.149  20.752  24.163  1.00  0.00     0.163 HD
BRANCH   5   7
ATOM      7  C   UNL A   1      31.694  22.951  24.594  1.00  0.00     0.040 A 
ATOM      8  C   UNL A   1      31.575  23.754  25.727  1.00  0.00     0.017 A 
ATOM      9  C   UNL A   1      31.069  23.326  23.401  1.00  0.00     0.017 A 
ATOM     10  C   UNL A   1      30.679  24.803  25.733  1.00  0.00     0.047 A 
ATOM     11  C   UNL A   1      30.308  24.500  23.363  1.00  0.00     0.047 A 
ATOM     12  C   UNL A   1      30.142  25.244  24.532  1.00  0.00     0.127 A 
BRANCH  12  13
ATOM     13  O   UNL A   1      29.508  26.459  24.503  1.00  0.00    -0.429 OA
BRANCH  13  14
ATOM     14  C   UNL A   1      30.051  27.305  23.463  1.00  0.00     0.521 C 
ATOM     15  N   UNL A   1      31.457  27.694  23.630  1.00  0.00    -0.130 N 
ATOM     16  C   UNL A   1      29.213  28.506  23.178  1.00  0.00     0.246 C 
ATOM     17  C   UNL A   1      31.782  28.903  23.905  1.00  0.00     0.517 C 
ATOM     18  H   UNL A   1      32.162  27.015  23.528  1.00  0.00     0.458 HD
ATOM     19  C   UNL A   1      29.766  29.800  23.569  1.00  0.00     0.341 C 
ATOM     20  N   UNL A   1      28.002  28.700  22.755  1.00  0.00    -0.222 NA
ATOM     21  Cl  UNL A   1      33.439  29.225  24.188  1.00  0.00     0.068 Cl
ATOM     22  N   UNL A   1      30.967  29.994  23.949  1.00  0.00    -0.118 N 
ATOM     23  N   UNL A   1      28.798  30.750  23.430  1.00  0.00    -0.173 NA
ATOM     24  C   UNL A   1      27.804  30.069  22.939  1.00  0.00     0.230 C 
ATOM     25  H   UNL A   1      31.286  30.875  24.255  1.00  0.00     0.464 HD
ENDBRANCH  13  14
ENDBRANCH  12  13
ENDBRANCH   5   7
ENDBRANCH   2   3
ENDBRANCH   1   2
BRANCH   1  26
ATOM     26  C   UNL A   1      36.312  22.164  25.510  1.00  0.00     0.118 C 
BRANCH  26  27
ATOM     27  N   UNL A   1      37.279  21.085  25.663  1.00  0.00    -0.352 N 
ATOM     28  C   UNL A   1      38.622  21.138  25.932  1.00  0.00     0.251 C 
ATOM     29  H   UNL A   1      36.911  20.179  25.556  1.00  0.00     0.163 HD
ATOM     30  O   UNL A   1      39.301  20.122  25.807  1.00  0.00    -0.269 OA
BRANCH  28  31
ATOM     31  C   UNL A   1      39.247  22.408  26.357  1.00  0.00     0.039 A 
ATOM     32  C   UNL A   1      40.288  22.369  27.285  1.00  0.00     0.014 A 
ATOM     33  C   UNL A   1      38.800  23.636  25.862  1.00  0.00     0.014 A 
ATOM     34  C   UNL A   1      40.897  23.558  27.684  1.00  0.00     0.010 A 
ATOM     35  C   UNL A   1      39.495  24.801  26.155  1.00  0.00     0.010 A 
ATOM     36  C   UNL A   1      40.525  24.782  27.102  1.00  0.00    -0.014 A 
BRANCH  36  37
ATOM     37  C   UNL A   1      41.186  26.046  27.506  1.00  0.00     0.031 A 
ATOM     38  C   UNL A   1      42.605  26.331  27.094  1.00  0.00     0.074 A 
ATOM     39  C   UNL A   1      40.515  26.928  28.272  1.00  0.00     0.049 A 
ATOM     40  N   UNL A   1      43.329  27.396  27.322  1.00  0.00    -0.248 NA
ATOM     41  C   UNL A   1      43.317  25.279  26.346  1.00  0.00     0.031 C 
ATOM     42  C   UNL A   1      39.164  26.731  28.803  1.00  0.00     0.029 A 
ATOM     43  N   UNL A   1      40.880  28.162  28.744  1.00  0.00    -0.354 N 
ATOM     44  C   UNL A   1      44.580  27.130  26.781  1.00  0.00     0.074 A 
ATOM     45  C   UNL A   1      44.535  25.787  26.250  1.00  0.00     0.031 C 
ATOM     46  C   UNL A   1      38.803  27.819  29.500  1.00  0.00     0.029 A 
ATOM     47  C   UNL A   1      39.911  28.767  29.509  1.00  0.00     0.049 A 
ATOM     48  H   UNL A   1      41.754  28.576  28.554  1.00  0.00     0.167 HD
ATOM     49  C   UNL A   1      45.664  27.938  26.708  1.00  0.00     0.034 A 
ATOM     50  C   UNL A   1      39.918  29.947  30.157  1.00  0.00     0.034 A 
ATOM     51  C   UNL A   1      45.701  29.278  27.228  1.00  0.00     0.049 A 
ATOM     52  C   UNL A   1      41.130  30.830  30.051  1.00  0.00     0.074 A 
ATOM     53  C   UNL A   1      46.722  30.206  27.135  1.00  0.00     0.029 A 
ATOM     54  N   UNL A   1      44.688  29.870  27.965  1.00  0.00    -0.354 N 
ATOM     55  N   UNL A   1      42.252  30.619  29.410  1.00  0.00    -0.248 NA
ATOM     56  C   UNL A   1      41.058  32.131  30.729  1.00  0.00     0.031 C 
ATOM     57  C   UNL A   1      46.355  31.334  27.875  1.00  0.00     0.029 A 
ATOM     58  C   UNL A   1      45.071  31.141  28.359  1.00  0.00     0.049 A 
ATOM     59  H   UNL A   1      43.824  29.449  28.178  1.00  0.00     0.167 HD
ATOM     60  C   UNL A   1      43.006  31.776  29.572  1.00  0.00     0.074 A 
ATOM     61  C   UNL A   1      42.200  32.690  30.355  1.00  0.00     0.031 C 
ATOM     62  C   UNL A   1      44.253  32.054  29.117  1.00  0.00     0.034 A 
BRANCH  49  63
ATOM     63  C   UNL A   1      46.901  27.394  26.039  1.00  0.00     0.023 A 
ATOM     64  C   UNL A   1      47.112  27.595  24.659  1.00  0.00     0.012 A 
ATOM     65  C   UNL A   1      47.880  26.720  26.794  1.00  0.00     0.148 A 
ATOM     66  C   UNL A   1      48.253  27.093  24.034  1.00  0.00     0.002 A 
ATOM     67  C   UNL A   1      49.040  26.273  26.177  1.00  0.00     0.091 A 
ATOM     68  F   UNL A   1      47.654  26.521  28.101  1.00  0.00    -0.205 F 
ATOM     69  C   UNL A   1      49.221  26.443  24.794  1.00  0.00     0.022 A 
BRANCH  67  70
ATOM     70  S   UNL A   1      50.383  25.501  27.083  1.00  0.00     0.127 S 
ATOM     71  O   UNL A   1      51.352  25.250  26.017  1.00  0.00    -0.237 OA
ATOM     72  O   UNL A   1      50.765  26.558  28.019  1.00  0.00    -0.237 OA
ATOM     73  O   UNL A   1      49.821  24.309  27.704  1.00  0.00    -0.744 OA
ENDBRANCH  67  70
ENDBRANCH  49  63
BRANCH  50  74
ATOM     74  C   UNL A   1      38.727  30.370  30.944  1.00  0.00     0.023 A 
ATOM     75  C   UNL A   1      38.645  30.074  32.319  1.00  0.00     0.012 A 
ATOM     76  C   UNL A   1      37.678  31.079  30.330  1.00  0.00     0.148 A 
ATOM     77  C   UNL A   1      37.520  30.443  33.057  1.00  0.00     0.002 A 
ATOM     78  C   UNL A   1      36.590  31.496  31.083  1.00  0.00     0.091 A 
ATOM     79  F   UNL A   1      37.777  31.347  29.019  1.00  0.00    -0.205 F 
ATOM     80  C   UNL A   1      36.498  31.162  32.442  1.00  0.00     0.022 A 
BRANCH  78  81
ATOM     81  S   UNL A   1      35.291  32.533  30.404  1.00  0.00     0.127 S 
ATOM     82  O   UNL A   1      34.349  32.598  31.519  1.00  0.00    -0.237 OA
ATOM     83  O   UNL A   1      36.015  33.775  30.133  1.00  0.00    -0.237 OA
ATOM     84  O   UNL A   1      34.811  31.842  29.215  1.00  0.00    -0.744 OA
ENDBRANCH  78  81
ENDBRANCH  50  74
BRANCH  62  85
ATOM     85  C   UNL A   1      44.804  33.429  29.394  1.00  0.00     0.023 A 
ATOM     86  C   UNL A   1      45.452  33.712  30.614  1.00  0.00     0.012 A 
ATOM     87  C   UNL A   1      44.708  34.438  28.415  1.00  0.00     0.148 A 
ATOM     88  C   UNL A   1      45.940  34.992  30.876  1.00  0.00     0.002 A 
ATOM     89  C   UNL A   1      45.252  35.692  28.658  1.00  0.00     0.091 A 
ATOM     90  F   UNL A   1      44.078  34.156  27.265  1.00  0.00    -0.205 F 
ATOM     91  C   UNL A   1      45.850  35.977  29.895  1.00  0.00     0.022 A 
BRANCH  89  92
ATOM     92  S   UNL A   1      45.272  36.989  27.417  1.00  0.00     0.127 S 
ATOM     93  O   UNL A   1      43.843  37.216  27.203  1.00  0.00    -0.237 OA
ATOM     94  O   UNL A   1      45.965  38.072  28.115  1.00  0.00    -0.237 OA
ATOM     95  O   UNL A   1      45.993  36.445  26.274  1.00  0.00    -0.744 OA
ENDBRANCH  89  92
ENDBRANCH  62  85
ENDBRANCH  36  37
ENDBRANCH  28  31
ENDBRANCH  26  27
ENDBRANCH   1  26
TORSDOF 15
ENDMDL
