MODEL 1
REMARK VINA RESULT:     -11.5      0.000      0.000
REMARK SMILES CCn1cnc(S(=O)(=O)NC[C@H]2CC[C@@H](C(=O)NCCCNC(=O)c3ccc(-c4c5nc(c(-c6cccc(S(=O)(=O)[O-])c6F)c6ccc([nH]6)c(-c6cccc(S(=O)(=O)[O-])c6F)c6nc(c(-c7cccc(S(=O)(=O)[O-])c7F)c7ccc4[nH]7)C=C6)C=C5)cc3)O2)c1
REMARK SMILES IDX 19 1 18 2 16 3 17 4 15 6 12 7 13 8 88 9 14 10 11 11 10 12
REMARK SMILES IDX 7 14 8 15 9 16 6 17 3 18 4 19 89 20 5 21 2 22 1 23 20 24
REMARK SMILES IDX 21 25 22 26 23 27 24 29 25 30 26 31 87 32 27 33 86 34 28 35
REMARK SMILES IDX 29 36 30 37 80 38 31 39 85 40 79 41 81 42 32 43 84 44 78 45
REMARK SMILES IDX 77 46 33 48 65 49 45 50 64 51 46 52 49 53 63 54 82 55 47 56
REMARK SMILES IDX 48 57 62 59 83 60 50 61 34 62 35 63 43 64 36 65 38 66 44 67
REMARK SMILES IDX 37 68 39 69 40 70 41 71 42 72 66 73 67 74 75 75 68 76 70 77
REMARK SMILES IDX 76 78 69 79 71 80 72 81 73 82 74 83 51 84 52 85 60 86 53 87
REMARK SMILES IDX 55 88 61 89 54 90 56 91 57 92 58 93 59 94
REMARK H PARENT 18 5 10 13 22 28 81 47 49 58
REMARK Flexibility Score: inf
ROOT
ATOM      1  C   UNL A   1      32.417  30.038  26.907  1.00  0.00     0.117 C 
ENDROOT
BRANCH   1   2
ATOM      2  N   UNL A   1      31.589  28.883  27.205  1.00  0.00    -0.354 N 
ATOM      3  C   UNL A   1      31.416  27.706  26.530  1.00  0.00     0.249 C 
ATOM      4  O   UNL A   1      30.906  26.771  27.156  1.00  0.00    -0.272 OA
ATOM      5  H   UNL A   1      31.061  28.961  28.033  1.00  0.00     0.163 HD
BRANCH   3   6
ATOM      6  C   UNL A   1      31.862  27.515  25.066  1.00  0.00     0.207 C 
ATOM      7  C   UNL A   1      31.578  25.731  23.547  1.00  0.00     0.134 C 
ATOM      8  C   UNL A   1      30.713  26.884  23.042  1.00  0.00     0.037 C 
ATOM      9  O   UNL A   1      32.178  26.158  24.774  1.00  0.00    -0.364 OA
ATOM     10  C   UNL A   1      30.869  28.014  24.037  1.00  0.00     0.045 C 
BRANCH   7  11
ATOM     11  C   UNL A   1      30.803  24.447  23.875  1.00  0.00     0.131 C 
BRANCH  11  12
ATOM     12  N   UNL A   1      30.356  24.263  25.263  1.00  0.00    -0.207 NA
ATOM     13  H   UNL A   1      30.560  25.133  25.754  1.00  0.00     0.141 HD
BRANCH  12  14
ATOM     14  S   UNL A   1      30.995  23.006  26.208  1.00  0.00     0.259 S 
ATOM     15  O   UNL A   1      29.975  21.978  26.251  1.00  0.00    -0.205 OA
ATOM     16  O   UNL A   1      31.447  23.658  27.417  1.00  0.00    -0.205 OA
BRANCH  14  17
ATOM     17  C   UNL A   1      32.420  22.266  25.522  1.00  0.00     0.188 A 
ATOM     18  N   UNL A   1      34.440  21.822  24.808  1.00  0.00    -0.336 N 
ATOM     19  C   UNL A   1      33.602  20.789  24.495  1.00  0.00     0.201 A 
ATOM     20  C   UNL A   1      33.720  22.744  25.526  1.00  0.00     0.129 A 
ATOM     21  N   UNL A   1      32.377  21.025  24.907  1.00  0.00    -0.224 NA
BRANCH  18  22
ATOM     22  C   UNL A   1      35.837  21.904  24.424  1.00  0.00     0.120 C 
ATOM     23  C   UNL A   1      36.059  22.860  23.263  1.00  0.00     0.027 C 
ENDBRANCH  18  22
ENDBRANCH  14  17
ENDBRANCH  12  14
ENDBRANCH  11  12
ENDBRANCH   7  11
ENDBRANCH   3   6
ENDBRANCH   1   2
BRANCH   1  24
ATOM     24  C   UNL A   1      33.868  29.918  27.361  1.00  0.00     0.042 C 
BRANCH  24  25
ATOM     25  C   UNL A   1      34.585  31.237  27.504  1.00  0.00     0.118 C 
BRANCH  25  26
ATOM     26  N   UNL A   1      34.469  31.856  28.826  1.00  0.00    -0.352 N 
ATOM     27  C   UNL A   1      35.292  31.638  29.931  1.00  0.00     0.251 C 
ATOM     28  H   UNL A   1      33.731  32.497  28.948  1.00  0.00     0.163 HD
ATOM     29  O   UNL A   1      34.954  31.968  31.047  1.00  0.00    -0.269 OA
BRANCH  27  30
ATOM     30  C   UNL A   1      36.586  30.965  29.683  1.00  0.00     0.039 A 
ATOM     31  C   UNL A   1      37.765  31.671  29.444  1.00  0.00     0.014 A 
ATOM     32  C   UNL A   1      36.608  29.593  29.872  1.00  0.00     0.014 A 
ATOM     33  C   UNL A   1      38.980  30.984  29.521  1.00  0.00     0.010 A 
ATOM     34  C   UNL A   1      37.788  29.004  30.227  1.00  0.00     0.010 A 
ATOM     35  C   UNL A   1      38.986  29.649  29.954  1.00  0.00    -0.014 A 
BRANCH  35  36
ATOM     36  C   UNL A   1      40.219  28.896  30.156  1.00  0.00     0.031 A 
ATOM     37  C   UNL A   1      40.721  28.796  31.552  1.00  0.00     0.074 A 
ATOM     38  C   UNL A   1      40.787  28.157  29.177  1.00  0.00     0.049 A 
ATOM     39  N   UNL A   1      41.752  29.390  32.055  1.00  0.00    -0.248 NA
ATOM     40  C   UNL A   1      39.943  28.029  32.532  1.00  0.00     0.031 C 
ATOM     41  C   UNL A   1      40.282  27.869  27.824  1.00  0.00     0.029 A 
ATOM     42  N   UNL A   1      41.899  27.378  29.244  1.00  0.00    -0.354 N 
ATOM     43  C   UNL A   1      41.891  28.890  33.348  1.00  0.00     0.074 A 
ATOM     44  C   UNL A   1      40.654  28.217  33.647  1.00  0.00     0.031 C 
ATOM     45  C   UNL A   1      40.917  26.790  27.323  1.00  0.00     0.029 A 
ATOM     46  C   UNL A   1      42.013  26.463  28.207  1.00  0.00     0.049 A 
ATOM     47  H   UNL A   1      42.565  27.457  29.965  1.00  0.00     0.167 HD
ATOM     48  C   UNL A   1      43.100  28.874  33.979  1.00  0.00     0.034 A 
ATOM     49  C   UNL A   1      42.945  25.493  28.082  1.00  0.00     0.034 A 
ATOM     50  C   UNL A   1      44.076  29.655  33.258  1.00  0.00     0.049 A 
ATOM     51  C   UNL A   1      44.103  25.906  28.904  1.00  0.00     0.074 A 
ATOM     52  C   UNL A   1      44.170  30.970  32.847  1.00  0.00     0.029 A 
ATOM     53  N   UNL A   1      44.995  28.962  32.507  1.00  0.00    -0.354 N 
ATOM     54  N   UNL A   1      44.833  26.954  28.638  1.00  0.00    -0.248 NA
ATOM     55  C   UNL A   1      44.203  25.403  30.262  1.00  0.00     0.031 C 
ATOM     56  C   UNL A   1      44.771  30.906  31.556  1.00  0.00     0.029 A 
ATOM     57  C   UNL A   1      45.064  29.567  31.281  1.00  0.00     0.049 A 
ATOM     58  H   UNL A   1      45.508  28.173  32.798  1.00  0.00     0.167 HD
ATOM     59  C   UNL A   1      45.113  27.506  29.880  1.00  0.00     0.074 A 
ATOM     60  C   UNL A   1      44.819  26.441  30.836  1.00  0.00     0.031 C 
ATOM     61  C   UNL A   1      45.273  28.855  30.036  1.00  0.00     0.034 A 
BRANCH  48  62
ATOM     62  C   UNL A   1      43.537  27.902  35.054  1.00  0.00     0.023 A 
ATOM     63  C   UNL A   1      44.064  28.451  36.247  1.00  0.00     0.012 A 
ATOM     64  C   UNL A   1      43.703  26.513  34.867  1.00  0.00     0.148 A 
ATOM     65  C   UNL A   1      44.762  27.673  37.176  1.00  0.00     0.002 A 
ATOM     66  C   UNL A   1      44.324  25.727  35.833  1.00  0.00     0.091 A 
ATOM     67  F   UNL A   1      43.386  25.951  33.698  1.00  0.00    -0.205 F 
ATOM     68  C   UNL A   1      44.886  26.305  36.974  1.00  0.00     0.022 A 
BRANCH  66  69
ATOM     69  S   UNL A   1      44.449  23.945  35.646  1.00  0.00     0.127 S 
ATOM     70  O   UNL A   1      45.054  23.558  36.916  1.00  0.00    -0.237 OA
ATOM     71  O   UNL A   1      43.047  23.558  35.481  1.00  0.00    -0.237 OA
ATOM     72  O   UNL A   1      45.266  23.744  34.455  1.00  0.00    -0.744 OA
ENDBRANCH  66  69
ENDBRANCH  48  62
BRANCH  49  73
ATOM     73  C   UNL A   1      42.825  24.161  27.461  1.00  0.00     0.023 A 
ATOM     74  C   UNL A   1      41.580  23.505  27.454  1.00  0.00     0.012 A 
ATOM     75  C   UNL A   1      43.856  23.657  26.637  1.00  0.00     0.148 A 
ATOM     76  C   UNL A   1      41.355  22.405  26.619  1.00  0.00     0.002 A 
ATOM     77  C   UNL A   1      43.627  22.563  25.810  1.00  0.00     0.091 A 
ATOM     78  F   UNL A   1      45.026  24.310  26.593  1.00  0.00    -0.205 F 
ATOM     79  C   UNL A   1      42.372  21.942  25.788  1.00  0.00     0.022 A 
BRANCH  77  80
ATOM     80  S   UNL A   1      44.882  21.938  24.685  1.00  0.00     0.127 S 
ATOM     81  O   UNL A   1      44.275  20.692  24.215  1.00  0.00    -0.237 OA
ATOM     82  O   UNL A   1      44.947  23.005  23.690  1.00  0.00    -0.237 OA
ATOM     83  O   UNL A   1      46.078  21.755  25.497  1.00  0.00    -0.744 OA
ENDBRANCH  77  80
ENDBRANCH  49  73
BRANCH  61  84
ATOM     84  C   UNL A   1      45.386  29.712  28.794  1.00  0.00     0.023 A 
ATOM     85  C   UNL A   1      44.250  30.147  28.079  1.00  0.00     0.012 A 
ATOM     86  C   UNL A   1      46.639  30.247  28.452  1.00  0.00     0.148 A 
ATOM     87  C   UNL A   1      44.362  31.070  27.036  1.00  0.00     0.002 A 
ATOM     88  C   UNL A   1      46.742  31.203  27.446  1.00  0.00     0.091 A 
ATOM     89  F   UNL A   1      47.716  29.835  29.141  1.00  0.00    -0.205 F 
ATOM     90  C   UNL A   1      45.606  31.609  26.728  1.00  0.00     0.022 A 
BRANCH  88  91
ATOM     91  S   UNL A   1      48.294  32.034  27.096  1.00  0.00     0.127 S 
ATOM     92  O   UNL A   1      49.124  30.939  26.601  1.00  0.00    -0.237 OA
ATOM     93  O   UNL A   1      47.906  33.015  26.080  1.00  0.00    -0.237 OA
ATOM     94  O   UNL A   1      48.718  32.627  28.358  1.00  0.00    -0.744 OA
ENDBRANCH  88  91
ENDBRANCH  61  84
ENDBRANCH  35  36
ENDBRANCH  27  30
ENDBRANCH  25  26
ENDBRANCH  24  25
ENDBRANCH   1  24
TORSDOF 18
ENDMDL
MODEL 2
REMARK VINA RESULT:     -11.4      2.751      8.130
REMARK SMILES CCn1cnc(S(=O)(=O)NC[C@H]2CC[C@@H](C(=O)NCCCNC(=O)c3ccc(-c4c5nc(c(-c6cccc(S(=O)(=O)[O-])c6F)c6ccc([nH]6)c(-c6cccc(S(=O)(=O)[O-])c6F)c6nc(c(-c7cccc(S(=O)(=O)[O-])c7F)c7ccc4[nH]7)C=C6)C=C5)cc3)O2)c1
REMARK SMILES IDX 19 1 18 2 16 3 17 4 15 6 12 7 13 8 88 9 14 10 11 11 10 12
REMARK SMILES IDX 7 14 8 15 9 16 6 17 3 18 4 19 89 20 5 21 2 22 1 23 20 24
REMARK SMILES IDX 21 25 22 26 23 27 24 29 25 30 26 31 87 32 27 33 86 34 28 35
REMARK SMILES IDX 29 36 30 37 80 38 31 39 85 40 79 41 81 42 32 43 84 44 78 45
REMARK SMILES IDX 77 46 33 48 65 49 45 50 64 51 46 52 49 53 63 54 82 55 47 56
REMARK SMILES IDX 48 57 62 59 83 60 50 61 34 62 35 63 43 64 36 65 38 66 44 67
REMARK SMILES IDX 37 68 39 69 40 70 41 71 42 72 66 73 67 74 75 75 68 76 70 77
REMARK SMILES IDX 76 78 69 79 71 80 72 81 73 82 74 83 51 84 52 85 60 86 53 87
REMARK SMILES IDX 55 88 61 89 54 90 56 91 57 92 58 93 59 94
REMARK H PARENT 18 5 10 13 22 28 81 47 49 58
REMARK Flexibility Score: inf
ROOT
ATOM      1  C   UNL A   1      36.769  20.835  25.357  1.00  0.00     0.117 C 
ENDROOT
BRANCH   1   2
ATOM      2  N   UNL A   1      36.510  22.142  24.779  1.00  0.00    -0.354 N 
ATOM      3  C   UNL A   1      35.373  22.903  24.759  1.00  0.00     0.249 C 
ATOM      4  O   UNL A   1      35.506  24.100  24.482  1.00  0.00    -0.272 OA
ATOM      5  H   UNL A   1      37.282  22.548  24.322  1.00  0.00     0.163 HD
BRANCH   3   6
ATOM      6  C   UNL A   1      33.983  22.330  25.098  1.00  0.00     0.207 C 
ATOM      7  C   UNL A   1      31.803  23.010  24.502  1.00  0.00     0.134 C 
ATOM      8  C   UNL A   1      32.071  21.697  23.772  1.00  0.00     0.037 C 
ATOM      9  O   UNL A   1      32.996  23.349  25.217  1.00  0.00    -0.364 OA
ATOM     10  C   UNL A   1      33.482  21.280  24.127  1.00  0.00     0.045 C 
BRANCH   7  11
ATOM     11  C   UNL A   1      31.503  24.203  23.583  1.00  0.00     0.131 C 
BRANCH  11  12
ATOM     12  N   UNL A   1      32.513  24.547  22.571  1.00  0.00    -0.207 NA
ATOM     13  H   UNL A   1      33.424  24.431  23.015  1.00  0.00     0.141 HD
BRANCH  12  14
ATOM     14  S   UNL A   1      32.511  26.082  21.848  1.00  0.00     0.259 S 
ATOM     15  O   UNL A   1      31.591  26.000  20.732  1.00  0.00    -0.205 OA
ATOM     16  O   UNL A   1      33.910  26.384  21.640  1.00  0.00    -0.205 OA
BRANCH  14  17
ATOM     17  C   UNL A   1      31.916  27.349  22.892  1.00  0.00     0.188 A 
ATOM     18  N   UNL A   1      31.696  28.939  24.379  1.00  0.00    -0.336 N 
ATOM     19  C   UNL A   1      30.482  28.663  23.815  1.00  0.00     0.201 A 
ATOM     20  C   UNL A   1      32.636  28.160  23.753  1.00  0.00     0.129 A 
ATOM     21  N   UNL A   1      30.578  27.708  22.918  1.00  0.00    -0.224 NA
BRANCH  18  22
ATOM     22  C   UNL A   1      31.915  29.886  25.456  1.00  0.00     0.120 C 
ATOM     23  C   UNL A   1      33.238  29.652  26.168  1.00  0.00     0.027 C 
ENDBRANCH  18  22
ENDBRANCH  14  17
ENDBRANCH  12  14
ENDBRANCH  11  12
ENDBRANCH   7  11
ENDBRANCH   3   6
ENDBRANCH   1   2
BRANCH   1  24
ATOM     24  C   UNL A   1      38.070  20.182  24.899  1.00  0.00     0.042 C 
BRANCH  24  25
ATOM     25  C   UNL A   1      39.198  20.284  25.895  1.00  0.00     0.118 C 
BRANCH  25  26
ATOM     26  N   UNL A   1      40.208  19.229  25.786  1.00  0.00    -0.352 N 
ATOM     27  C   UNL A   1      41.589  19.370  25.922  1.00  0.00     0.251 C 
ATOM     28  H   UNL A   1      39.876  18.322  25.596  1.00  0.00     0.163 HD
ATOM     29  O   UNL A   1      42.354  18.514  25.537  1.00  0.00    -0.269 OA
BRANCH  27  30
ATOM     30  C   UNL A   1      42.079  20.623  26.539  1.00  0.00     0.039 A 
ATOM     31  C   UNL A   1      42.559  21.693  25.783  1.00  0.00     0.014 A 
ATOM     32  C   UNL A   1      41.876  20.754  27.903  1.00  0.00     0.014 A 
ATOM     33  C   UNL A   1      42.715  22.933  26.408  1.00  0.00     0.010 A 
ATOM     34  C   UNL A   1      41.753  22.010  28.424  1.00  0.00     0.010 A 
ATOM     35  C   UNL A   1      42.269  23.095  27.729  1.00  0.00    -0.014 A 
BRANCH  35  36
ATOM     36  C   UNL A   1      42.305  24.382  28.417  1.00  0.00     0.031 A 
ATOM     37  C   UNL A   1      41.127  25.271  28.234  1.00  0.00     0.074 A 
ATOM     38  C   UNL A   1      43.252  24.691  29.330  1.00  0.00     0.049 A 
ATOM     39  N   UNL A   1      41.072  26.361  27.542  1.00  0.00    -0.248 NA
ATOM     40  C   UNL A   1      39.836  24.861  28.799  1.00  0.00     0.031 C 
ATOM     41  C   UNL A   1      44.317  23.838  29.885  1.00  0.00     0.029 A 
ATOM     42  N   UNL A   1      43.373  25.825  30.069  1.00  0.00    -0.354 N 
ATOM     43  C   UNL A   1      39.808  26.900  27.775  1.00  0.00     0.074 A 
ATOM     44  C   UNL A   1      39.036  25.850  28.387  1.00  0.00     0.031 C 
ATOM     45  C   UNL A   1      44.772  24.372  31.036  1.00  0.00     0.029 A 
ATOM     46  C   UNL A   1      44.208  25.697  31.171  1.00  0.00     0.049 A 
ATOM     47  H   UNL A   1      42.910  26.664  29.843  1.00  0.00     0.167 HD
ATOM     48  C   UNL A   1      39.573  28.238  27.655  1.00  0.00     0.034 A 
ATOM     49  C   UNL A   1      44.420  26.616  32.137  1.00  0.00     0.034 A 
ATOM     50  C   UNL A   1      40.682  28.909  27.023  1.00  0.00     0.049 A 
ATOM     51  C   UNL A   1      44.070  27.931  31.560  1.00  0.00     0.074 A 
ATOM     52  C   UNL A   1      41.340  28.792  25.814  1.00  0.00     0.029 A 
ATOM     53  N   UNL A   1      41.528  29.617  27.843  1.00  0.00    -0.354 N 
ATOM     54  N   UNL A   1      44.731  28.482  30.579  1.00  0.00    -0.248 NA
ATOM     55  C   UNL A   1      42.733  28.452  31.782  1.00  0.00     0.031 C 
ATOM     56  C   UNL A   1      42.716  28.998  26.128  1.00  0.00     0.029 A 
ATOM     57  C   UNL A   1      42.810  29.289  27.492  1.00  0.00     0.049 A 
ATOM     58  H   UNL A   1      41.261  30.244  28.553  1.00  0.00     0.167 HD
ATOM     59  C   UNL A   1      43.753  29.070  29.789  1.00  0.00     0.074 A 
ATOM     60  C   UNL A   1      42.571  29.137  30.646  1.00  0.00     0.031 C 
ATOM     61  C   UNL A   1      43.905  29.177  28.434  1.00  0.00     0.034 A 
BRANCH  48  62
ATOM     62  C   UNL A   1      38.513  29.030  28.390  1.00  0.00     0.023 A 
ATOM     63  C   UNL A   1      37.689  29.882  27.617  1.00  0.00     0.012 A 
ATOM     64  C   UNL A   1      38.450  29.187  29.792  1.00  0.00     0.148 A 
ATOM     65  C   UNL A   1      36.888  30.869  28.201  1.00  0.00     0.002 A 
ATOM     66  C   UNL A   1      37.589  30.113  30.374  1.00  0.00     0.091 A 
ATOM     67  F   UNL A   1      39.316  28.543  30.578  1.00  0.00    -0.205 F 
ATOM     68  C   UNL A   1      36.830  30.980  29.584  1.00  0.00     0.022 A 
BRANCH  66  69
ATOM     69  S   UNL A   1      37.432  30.247  32.158  1.00  0.00     0.127 S 
ATOM     70  O   UNL A   1      37.118  28.870  32.528  1.00  0.00    -0.237 OA
ATOM     71  O   UNL A   1      38.767  30.705  32.546  1.00  0.00    -0.237 OA
ATOM     72  O   UNL A   1      36.378  31.230  32.374  1.00  0.00    -0.744 OA
ENDBRANCH  66  69
ENDBRANCH  48  62
BRANCH  49  73
ATOM     73  C   UNL A   1      44.717  26.411  33.567  1.00  0.00     0.023 A 
ATOM     74  C   UNL A   1      46.025  26.616  34.045  1.00  0.00     0.012 A 
ATOM     75  C   UNL A   1      43.670  26.286  34.508  1.00  0.00     0.148 A 
ATOM     76  C   UNL A   1      46.277  26.736  35.415  1.00  0.00     0.002 A 
ATOM     77  C   UNL A   1      43.926  26.404  35.869  1.00  0.00     0.091 A 
ATOM     78  F   UNL A   1      42.413  26.149  34.061  1.00  0.00    -0.205 F 
ATOM     79  C   UNL A   1      45.227  26.642  36.327  1.00  0.00     0.022 A 
BRANCH  77  80
ATOM     80  S   UNL A   1      42.615  26.334  37.097  1.00  0.00     0.127 S 
ATOM     81  O   UNL A   1      41.806  27.501  36.744  1.00  0.00    -0.237 OA
ATOM     82  O   UNL A   1      41.998  25.044  36.799  1.00  0.00    -0.237 OA
ATOM     83  O   UNL A   1      43.283  26.433  38.388  1.00  0.00    -0.744 OA
ENDBRANCH  77  80
ENDBRANCH  49  73
BRANCH  61  84
ATOM     84  C   UNL A   1      45.262  28.869  27.839  1.00  0.00     0.023 A 
ATOM     85  C   UNL A   1      46.318  29.806  27.858  1.00  0.00     0.012 A 
ATOM     86  C   UNL A   1      45.539  27.554  27.428  1.00  0.00     0.148 A 
ATOM     87  C   UNL A   1      47.608  29.449  27.456  1.00  0.00     0.002 A 
ATOM     88  C   UNL A   1      46.834  27.189  27.075  1.00  0.00     0.091 A 
ATOM     89  F   UNL A   1      44.532  26.667  27.418  1.00  0.00    -0.205 F 
ATOM     90  C   UNL A   1      47.870  28.136  27.078  1.00  0.00     0.022 A 
BRANCH  88  91
ATOM     91  S   UNL A   1      47.262  25.484  26.711  1.00  0.00     0.127 S 
ATOM     92  O   UNL A   1      48.673  25.591  26.351  1.00  0.00    -0.237 OA
ATOM     93  O   UNL A   1      47.006  24.814  27.989  1.00  0.00    -0.237 OA
ATOM     94  O   UNL A   1      46.366  25.071  25.638  1.00  0.00    -0.744 OA
ENDBRANCH  88  91
ENDBRANCH  61  84
ENDBRANCH  35  36
ENDBRANCH  27  30
ENDBRANCH  25  26
ENDBRANCH  24  25
ENDBRANCH   1  24
TORSDOF 18
ENDMDL
MODEL 3
REMARK VINA RESULT:     -11.2      1.645      2.026
REMARK SMILES CCn1cnc(S(=O)(=O)NC[C@H]2CC[C@@H](C(=O)NCCCNC(=O)c3ccc(-c4c5nc(c(-c6cccc(S(=O)(=O)[O-])c6F)c6ccc([nH]6)c(-c6cccc(S(=O)(=O)[O-])c6F)c6nc(c(-c7cccc(S(=O)(=O)[O-])c7F)c7ccc4[nH]7)C=C6)C=C5)cc3)O2)c1
REMARK SMILES IDX 19 1 18 2 16 3 17 4 15 6 12 7 13 8 88 9 14 10 11 11 10 12
REMARK SMILES IDX 7 14 8 15 9 16 6 17 3 18 4 19 89 20 5 21 2 22 1 23 20 24
REMARK SMILES IDX 21 25 22 26 23 27 24 29 25 30 26 31 87 32 27 33 86 34 28 35
REMARK SMILES IDX 29 36 30 37 80 38 31 39 85 40 79 41 81 42 32 43 84 44 78 45
REMARK SMILES IDX 77 46 33 48 65 49 45 50 64 51 46 52 49 53 63 54 82 55 47 56
REMARK SMILES IDX 48 57 62 59 83 60 50 61 34 62 35 63 43 64 36 65 38 66 44 67
REMARK SMILES IDX 37 68 39 69 40 70 41 71 42 72 66 73 67 74 75 75 68 76 70 77
REMARK SMILES IDX 76 78 69 79 71 80 72 81 73 82 74 83 51 84 52 85 60 86 53 87
REMARK SMILES IDX 55 88 61 89 54 90 56 91 57 92 58 93 59 94
REMARK H PARENT 18 5 10 13 22 28 81 47 49 58
REMARK Flexibility Score: inf
ROOT
ATOM      1  C   UNL A   1      33.256  29.834  26.633  1.00  0.00     0.117 C 
ENDROOT
BRANCH   1   2
ATOM      2  N   UNL A   1      32.233  28.889  27.043  1.00  0.00    -0.354 N 
ATOM      3  C   UNL A   1      31.719  27.793  26.406  1.00  0.00     0.249 C 
ATOM      4  O   UNL A   1      31.091  26.986  27.099  1.00  0.00    -0.272 OA
ATOM      5  H   UNL A   1      31.841  29.069  27.929  1.00  0.00     0.163 HD
BRANCH   3   6
ATOM      6  C   UNL A   1      31.927  27.532  24.901  1.00  0.00     0.207 C 
ATOM      7  C   UNL A   1      31.326  25.723  23.510  1.00  0.00     0.134 C 
ATOM      8  C   UNL A   1      30.455  26.908  23.096  1.00  0.00     0.037 C 
ATOM      9  O   UNL A   1      32.126  26.152  24.617  1.00  0.00    -0.364 OA
ATOM     10  C   UNL A   1      30.818  28.057  24.012  1.00  0.00     0.045 C 
BRANCH   7  11
ATOM     11  C   UNL A   1      30.544  24.496  23.999  1.00  0.00     0.131 C 
BRANCH  11  12
ATOM     12  N   UNL A   1      30.265  24.401  25.439  1.00  0.00    -0.207 NA
ATOM     13  H   UNL A   1      30.631  25.253  25.865  1.00  0.00     0.141 HD
BRANCH  12  14
ATOM     14  S   UNL A   1      30.873  23.101  26.344  1.00  0.00     0.259 S 
ATOM     15  O   UNL A   1      29.810  22.119  26.403  1.00  0.00    -0.205 OA
ATOM     16  O   UNL A   1      31.391  23.711  27.549  1.00  0.00    -0.205 OA
BRANCH  14  17
ATOM     17  C   UNL A   1      32.242  22.309  25.604  1.00  0.00     0.188 A 
ATOM     18  N   UNL A   1      34.223  21.776  24.843  1.00  0.00    -0.336 N 
ATOM     19  C   UNL A   1      33.319  20.816  24.488  1.00  0.00     0.201 A 
ATOM     20  C   UNL A   1      33.570  22.703  25.615  1.00  0.00     0.129 A 
ATOM     21  N   UNL A   1      32.115  21.107  24.927  1.00  0.00    -0.224 NA
BRANCH  18  22
ATOM     22  C   UNL A   1      35.619  21.790  24.446  1.00  0.00     0.120 C 
ATOM     23  C   UNL A   1      36.395  20.620  25.029  1.00  0.00     0.027 C 
ENDBRANCH  18  22
ENDBRANCH  14  17
ENDBRANCH  12  14
ENDBRANCH  11  12
ENDBRANCH   7  11
ENDBRANCH   3   6
ENDBRANCH   1   2
BRANCH   1  24
ATOM     24  C   UNL A   1      34.543  29.775  27.451  1.00  0.00     0.042 C 
BRANCH  24  25
ATOM     25  C   UNL A   1      35.291  31.082  27.524  1.00  0.00     0.118 C 
BRANCH  25  26
ATOM     26  N   UNL A   1      34.808  32.007  28.552  1.00  0.00    -0.352 N 
ATOM     27  C   UNL A   1      35.185  32.045  29.894  1.00  0.00     0.251 C 
ATOM     28  H   UNL A   1      34.145  32.675  28.264  1.00  0.00     0.163 HD
ATOM     29  O   UNL A   1      34.531  32.644  30.719  1.00  0.00    -0.269 OA
BRANCH  27  30
ATOM     30  C   UNL A   1      36.408  31.300  30.269  1.00  0.00     0.039 A 
ATOM     31  C   UNL A   1      36.386  29.951  30.623  1.00  0.00     0.014 A 
ATOM     32  C   UNL A   1      37.610  31.964  30.084  1.00  0.00     0.014 A 
ATOM     33  C   UNL A   1      37.597  29.254  30.666  1.00  0.00     0.010 A 
ATOM     34  C   UNL A   1      38.732  31.224  29.848  1.00  0.00     0.010 A 
ATOM     35  C   UNL A   1      38.770  29.892  30.236  1.00  0.00    -0.014 A 
BRANCH  35  36
ATOM     36  C   UNL A   1      40.054  29.203  30.157  1.00  0.00     0.031 A 
ATOM     37  C   UNL A   1      40.751  28.937  31.443  1.00  0.00     0.074 A 
ATOM     38  C   UNL A   1      40.514  28.653  29.011  1.00  0.00     0.049 A 
ATOM     39  N   UNL A   1      41.812  29.521  31.892  1.00  0.00    -0.248 NA
ATOM     40  C   UNL A   1      40.154  27.986  32.389  1.00  0.00     0.031 C 
ATOM     41  C   UNL A   1      39.839  28.529  27.708  1.00  0.00     0.029 A 
ATOM     42  N   UNL A   1      41.661  27.951  28.813  1.00  0.00    -0.354 N 
ATOM     43  C   UNL A   1      42.155  28.851  33.064  1.00  0.00     0.074 A 
ATOM     44  C   UNL A   1      41.005  28.059  33.417  1.00  0.00     0.031 C 
ATOM     45  C   UNL A   1      40.448  27.579  26.970  1.00  0.00     0.029 A 
ATOM     46  C   UNL A   1      41.672  27.204  27.643  1.00  0.00     0.049 A 
ATOM     47  H   UNL A   1      42.416  27.970  29.444  1.00  0.00     0.167 HD
ATOM     48  C   UNL A   1      43.439  28.826  33.521  1.00  0.00     0.034 A 
ATOM     49  C   UNL A   1      42.623  26.328  27.251  1.00  0.00     0.034 A 
ATOM     50  C   UNL A   1      44.266  29.768  32.806  1.00  0.00     0.049 A 
ATOM     51  C   UNL A   1      43.863  26.696  27.966  1.00  0.00     0.074 A 
ATOM     52  C   UNL A   1      44.239  31.131  32.591  1.00  0.00     0.029 A 
ATOM     53  N   UNL A   1      45.103  29.254  31.844  1.00  0.00    -0.354 N 
ATOM     54  N   UNL A   1      44.498  27.818  27.769  1.00  0.00    -0.248 NA
ATOM     55  C   UNL A   1      44.176  26.011  29.208  1.00  0.00     0.031 C 
ATOM     56  C   UNL A   1      44.655  31.295  31.237  1.00  0.00     0.029 A 
ATOM     57  C   UNL A   1      44.971  30.033  30.726  1.00  0.00     0.049 A 
ATOM     58  H   UNL A   1      45.689  28.469  31.942  1.00  0.00     0.167 HD
ATOM     59  C   UNL A   1      44.923  28.204  29.034  1.00  0.00     0.074 A 
ATOM     60  C   UNL A   1      44.816  26.994  29.847  1.00  0.00     0.031 C 
ATOM     61  C   UNL A   1      45.038  29.524  29.371  1.00  0.00     0.034 A 
BRANCH  48  62
ATOM     62  C   UNL A   1      44.067  27.742  34.369  1.00  0.00     0.023 A 
ATOM     63  C   UNL A   1      44.571  26.604  33.695  1.00  0.00     0.012 A 
ATOM     64  C   UNL A   1      43.961  27.652  35.774  1.00  0.00     0.148 A 
ATOM     65  C   UNL A   1      44.900  25.426  34.374  1.00  0.00     0.002 A 
ATOM     66  C   UNL A   1      44.368  26.508  36.455  1.00  0.00     0.091 A 
ATOM     67  F   UNL A   1      43.340  28.614  36.462  1.00  0.00    -0.205 F 
ATOM     68  C   UNL A   1      44.807  25.379  35.759  1.00  0.00     0.022 A 
BRANCH  66  69
ATOM     69  S   UNL A   1      44.328  26.427  38.248  1.00  0.00     0.127 S 
ATOM     70  O   UNL A   1      44.866  27.734  38.612  1.00  0.00    -0.237 OA
ATOM     71  O   UNL A   1      42.899  26.248  38.512  1.00  0.00    -0.237 OA
ATOM     72  O   UNL A   1      45.147  25.272  38.595  1.00  0.00    -0.744 OA
ENDBRANCH  66  69
ENDBRANCH  48  62
BRANCH  49  73
ATOM     73  C   UNL A   1      42.480  25.094  26.456  1.00  0.00     0.023 A 
ATOM     74  C   UNL A   1      43.432  24.788  25.465  1.00  0.00     0.012 A 
ATOM     75  C   UNL A   1      41.574  24.085  26.853  1.00  0.00     0.148 A 
ATOM     76  C   UNL A   1      43.507  23.503  24.917  1.00  0.00     0.002 A 
ATOM     77  C   UNL A   1      41.653  22.810  26.303  1.00  0.00     0.091 A 
ATOM     78  F   UNL A   1      40.703  24.349  27.837  1.00  0.00    -0.205 F 
ATOM     79  C   UNL A   1      42.627  22.511  25.344  1.00  0.00     0.022 A 
BRANCH  77  80
ATOM     80  S   UNL A   1      40.576  21.473  26.837  1.00  0.00     0.127 S 
ATOM     81  O   UNL A   1      41.084  20.344  26.057  1.00  0.00    -0.237 OA
ATOM     82  O   UNL A   1      40.862  21.413  28.267  1.00  0.00    -0.237 OA
ATOM     83  O   UNL A   1      39.227  21.892  26.478  1.00  0.00    -0.744 OA
ENDBRANCH  77  80
ENDBRANCH  49  73
BRANCH  61  84
ATOM     84  C   UNL A   1      44.935  30.557  28.270  1.00  0.00     0.023 A 
ATOM     85  C   UNL A   1      43.691  30.989  27.763  1.00  0.00     0.012 A 
ATOM     86  C   UNL A   1      46.096  31.242  27.873  1.00  0.00     0.148 A 
ATOM     87  C   UNL A   1      43.607  32.058  26.867  1.00  0.00     0.002 A 
ATOM     88  C   UNL A   1      46.005  32.337  27.019  1.00  0.00     0.091 A 
ATOM     89  F   UNL A   1      47.276  30.830  28.364  1.00  0.00    -0.205 F 
ATOM     90  C   UNL A   1      44.763  32.742  26.506  1.00  0.00     0.022 A 
BRANCH  88  91
ATOM     91  S   UNL A   1      47.440  33.341  26.627  1.00  0.00     0.127 S 
ATOM     92  O   UNL A   1      48.406  32.338  26.188  1.00  0.00    -0.237 OA
ATOM     93  O   UNL A   1      46.936  34.212  25.562  1.00  0.00    -0.237 OA
ATOM     94  O   UNL A   1      47.778  34.047  27.857  1.00  0.00    -0.744 OA
ENDBRANCH  88  91
ENDBRANCH  61  84
ENDBRANCH  35  36
ENDBRANCH  27  30
ENDBRANCH  25  26
ENDBRANCH  24  25
ENDBRANCH   1  24
TORSDOF 18
ENDMDL
