MODEL 1
REMARK VINA RESULT:     -12.7      0.000      0.000
REMARK SMILES O=C(CCC(=O)Nc1ccc(C(=O)N2CCOCC2)cc1)NCCCNC(=O)c1ccc(-c2c3nc(c(-c4cccc(S(=O)(=O)[O-])c4F)c4ccc([nH]4)c(-c4cccc(S(=O)(=O)[O-])c4F)c4nc(c(-c5cccc(S(=O)(=O)[O-])c5F)c5ccc2[nH]5)C=C4)C=C3)cc1
REMARK SMILES IDX 23 1 22 2 1 3 2 4 3 6 4 7 5 8 6 9 7 10 8 12 9 13 21 14 10 15
REMARK SMILES IDX 20 16 11 17 12 18 13 19 14 20 15 21 19 22 16 23 18 24 17 25
REMARK SMILES IDX 24 26 25 27 26 28 27 29 28 31 29 32 30 33 91 34 31 35 90 36
REMARK SMILES IDX 32 37 33 38 34 39 84 40 35 41 89 42 83 43 85 44 36 45 88 46
REMARK SMILES IDX 82 47 81 48 37 50 69 51 49 52 68 53 50 54 53 55 67 56 86 57
REMARK SMILES IDX 51 58 52 59 66 61 87 62 54 63 38 64 39 65 47 66 40 67 42 68
REMARK SMILES IDX 48 69 41 70 43 71 44 72 45 73 46 74 70 75 71 76 79 77 72 78
REMARK SMILES IDX 74 79 80 80 73 81 75 82 76 83 77 84 78 85 55 86 56 87 64 88
REMARK SMILES IDX 57 89 59 90 65 91 58 92 60 93 61 94 62 95 63 96
REMARK H PARENT 22 5 7 11 26 30 85 49 53 60
REMARK Flexibility Score: inf
ROOT
ATOM      1  C   UNL A   1      35.896  22.473  23.700  1.00  0.00     0.117 C 
ENDROOT
BRANCH   1   2
ATOM      2  N   UNL A   1      35.454  23.635  24.442  1.00  0.00    -0.356 N 
ATOM      3  O   UNL A   1      34.311  24.620  22.701  1.00  0.00    -0.275 OA
ATOM      4  C   UNL A   1      34.618  24.578  23.888  1.00  0.00     0.220 C 
ATOM      5  H   UNL A   1      35.759  23.753  25.370  1.00  0.00     0.163 HD
BRANCH   4   6
ATOM      6  C   UNL A   1      34.031  25.536  24.897  1.00  0.00     0.110 C 
BRANCH   6   7
ATOM      7  C   UNL A   1      33.350  24.839  26.072  1.00  0.00     0.110 C 
BRANCH   7   8
ATOM      8  C   UNL A   1      31.868  24.592  25.878  1.00  0.00     0.224 C 
ATOM      9  O   UNL A   1      31.069  25.367  26.419  1.00  0.00    -0.275 OA
ATOM     10  N   UNL A   1      31.326  23.542  25.200  1.00  0.00    -0.326 N 
ATOM     11  H   UNL A   1      30.353  23.628  25.084  1.00  0.00     0.169 HD
BRANCH  10  12
ATOM     12  C   UNL A   1      31.839  22.363  24.626  1.00  0.00     0.041 A 
ATOM     13  C   UNL A   1      31.738  22.244  23.226  1.00  0.00     0.027 A 
ATOM     14  C   UNL A   1      32.321  21.277  25.340  1.00  0.00     0.027 A 
ATOM     15  C   UNL A   1      31.951  21.008  22.587  1.00  0.00     0.016 A 
ATOM     16  C   UNL A   1      32.514  20.045  24.716  1.00  0.00     0.016 A 
ATOM     17  C   UNL A   1      32.271  19.889  23.352  1.00  0.00     0.040 A 
BRANCH  17  18
ATOM     18  C   UNL A   1      32.484  18.551  22.745  1.00  0.00     0.254 C 
ATOM     19  O   UNL A   1      32.486  18.440  21.525  1.00  0.00    -0.269 OA
ATOM     20  N   UNL A   1      32.872  17.550  23.617  1.00  0.00    -0.334 N 
ATOM     21  C   UNL A   1      32.080  17.109  24.769  1.00  0.00     0.148 C 
ATOM     22  C   UNL A   1      34.018  16.710  23.313  1.00  0.00     0.148 C 
ATOM     23  C   UNL A   1      32.969  16.830  25.989  1.00  0.00     0.181 C 
ATOM     24  C   UNL A   1      34.860  16.542  24.585  1.00  0.00     0.181 C 
ATOM     25  O   UNL A   1      34.078  15.975  25.649  1.00  0.00    -0.378 OA
ENDBRANCH  17  18
ENDBRANCH  10  12
ENDBRANCH   7   8
ENDBRANCH   6   7
ENDBRANCH   4   6
ENDBRANCH   1   2
BRANCH   1  26
ATOM     26  C   UNL A   1      36.145  21.239  24.540  1.00  0.00     0.042 C 
BRANCH  26  27
ATOM     27  C   UNL A   1      37.205  21.394  25.617  1.00  0.00     0.118 C 
BRANCH  27  28
ATOM     28  N   UNL A   1      38.340  20.481  25.519  1.00  0.00    -0.352 N 
ATOM     29  C   UNL A   1      39.608  20.657  26.044  1.00  0.00     0.251 C 
ATOM     30  H   UNL A   1      38.186  19.645  25.022  1.00  0.00     0.163 HD
ATOM     31  O   UNL A   1      40.483  19.815  25.868  1.00  0.00    -0.269 OA
BRANCH  29  32
ATOM     32  C   UNL A   1      39.898  21.914  26.769  1.00  0.00     0.039 A 
ATOM     33  C   UNL A   1      40.822  21.899  27.817  1.00  0.00     0.014 A 
ATOM     34  C   UNL A   1      39.397  23.123  26.282  1.00  0.00     0.014 A 
ATOM     35  C   UNL A   1      41.349  23.108  28.284  1.00  0.00     0.010 A 
ATOM     36  C   UNL A   1      40.001  24.310  26.674  1.00  0.00     0.010 A 
ATOM     37  C   UNL A   1      41.001  24.318  27.661  1.00  0.00    -0.014 A 
BRANCH  37  38
ATOM     38  C   UNL A   1      41.687  25.604  27.969  1.00  0.00     0.031 A 
ATOM     39  C   UNL A   1      40.940  26.690  28.698  1.00  0.00     0.074 A 
ATOM     40  C   UNL A   1      42.910  25.860  27.457  1.00  0.00     0.049 A 
ATOM     41  N   UNL A   1      41.268  27.944  28.873  1.00  0.00    -0.248 NA
ATOM     42  C   UNL A   1      39.629  26.328  29.260  1.00  0.00     0.031 C 
ATOM     43  C   UNL A   1      43.712  24.930  26.657  1.00  0.00     0.029 A 
ATOM     44  N   UNL A   1      43.679  27.000  27.500  1.00  0.00    -0.354 N 
ATOM     45  C   UNL A   1      40.176  28.533  29.499  1.00  0.00     0.074 A 
ATOM     46  C   UNL A   1      39.169  27.507  29.650  1.00  0.00     0.031 C 
ATOM     47  C   UNL A   1      44.855  25.534  26.290  1.00  0.00     0.029 A 
ATOM     48  C   UNL A   1      44.855  26.904  26.790  1.00  0.00     0.049 A 
ATOM     49  H   UNL A   1      43.412  27.810  27.992  1.00  0.00     0.167 HD
ATOM     50  C   UNL A   1      40.035  29.806  29.940  1.00  0.00     0.034 A 
ATOM     51  C   UNL A   1      45.819  27.817  26.557  1.00  0.00     0.034 A 
ATOM     52  C   UNL A   1      41.071  30.799  29.874  1.00  0.00     0.049 A 
ATOM     53  C   UNL A   1      45.679  29.197  27.141  1.00  0.00     0.074 A 
ATOM     54  C   UNL A   1      41.062  32.084  30.385  1.00  0.00     0.029 A 
ATOM     55  N   UNL A   1      42.307  30.612  29.276  1.00  0.00    -0.354 N 
ATOM     56  N   UNL A   1      44.696  29.693  27.853  1.00  0.00    -0.248 NA
ATOM     57  C   UNL A   1      46.792  30.135  26.919  1.00  0.00     0.031 C 
ATOM     58  C   UNL A   1      42.297  32.676  30.097  1.00  0.00     0.029 A 
ATOM     59  C   UNL A   1      43.075  31.754  29.415  1.00  0.00     0.049 A 
ATOM     60  H   UNL A   1      42.595  29.789  28.818  1.00  0.00     0.167 HD
ATOM     61  C   UNL A   1      45.091  30.981  28.201  1.00  0.00     0.074 A 
ATOM     62  C   UNL A   1      46.405  31.186  27.631  1.00  0.00     0.031 C 
ATOM     63  C   UNL A   1      44.415  31.913  28.914  1.00  0.00     0.034 A 
BRANCH  50  64
ATOM     64  C   UNL A   1      38.734  30.175  30.601  1.00  0.00     0.023 A 
ATOM     65  C   UNL A   1      38.515  29.811  31.946  1.00  0.00     0.012 A 
ATOM     66  C   UNL A   1      37.755  30.921  29.918  1.00  0.00     0.148 A 
ATOM     67  C   UNL A   1      37.326  30.150  32.588  1.00  0.00     0.002 A 
ATOM     68  C   UNL A   1      36.590  31.293  30.579  1.00  0.00     0.091 A 
ATOM     69  F   UNL A   1      37.970  31.238  28.633  1.00  0.00    -0.205 F 
ATOM     70  C   UNL A   1      36.369  30.899  31.909  1.00  0.00     0.022 A 
BRANCH  68  71
ATOM     71  S   UNL A   1      35.336  32.326  29.813  1.00  0.00     0.127 S 
ATOM     72  O   UNL A   1      36.120  33.491  29.406  1.00  0.00    -0.237 OA
ATOM     73  O   UNL A   1      34.874  31.486  28.706  1.00  0.00    -0.237 OA
ATOM     74  O   UNL A   1      34.336  32.568  30.844  1.00  0.00    -0.744 OA
ENDBRANCH  68  71
ENDBRANCH  50  64
BRANCH  51  75
ATOM     75  C   UNL A   1      47.045  27.432  25.801  1.00  0.00     0.023 A 
ATOM     76  C   UNL A   1      48.054  26.701  26.461  1.00  0.00     0.012 A 
ATOM     77  C   UNL A   1      47.211  27.751  24.439  1.00  0.00     0.148 A 
ATOM     78  C   UNL A   1      49.216  26.322  25.789  1.00  0.00     0.002 A 
ATOM     79  C   UNL A   1      48.348  27.325  23.761  1.00  0.00     0.091 A 
ATOM     80  F   UNL A   1      46.249  28.458  23.831  1.00  0.00    -0.205 F 
ATOM     81  C   UNL A   1      49.359  26.624  24.437  1.00  0.00     0.022 A 
BRANCH  79  82
ATOM     82  S   UNL A   1      48.553  27.558  21.991  1.00  0.00     0.127 S 
ATOM     83  O   UNL A   1      48.818  26.196  21.538  1.00  0.00    -0.237 OA
ATOM     84  O   UNL A   1      47.249  28.095  21.599  1.00  0.00    -0.237 OA
ATOM     85  O   UNL A   1      49.653  28.504  21.852  1.00  0.00    -0.744 OA
ENDBRANCH  79  82
ENDBRANCH  51  75
BRANCH  63  86
ATOM     86  C   UNL A   1      45.095  33.229  29.183  1.00  0.00     0.023 A 
ATOM     87  C   UNL A   1      45.921  33.369  30.315  1.00  0.00     0.012 A 
ATOM     88  C   UNL A   1      45.004  34.283  28.253  1.00  0.00     0.148 A 
ATOM     89  C   UNL A   1      46.636  34.548  30.525  1.00  0.00     0.002 A 
ATOM     90  C   UNL A   1      45.752  35.438  28.447  1.00  0.00     0.091 A 
ATOM     91  F   UNL A   1      44.195  34.133  27.194  1.00  0.00    -0.205 F 
ATOM     92  C   UNL A   1      46.563  35.575  29.585  1.00  0.00     0.022 A 
BRANCH  90  93
ATOM     93  S   UNL A   1      45.792  36.769  27.241  1.00  0.00     0.127 S 
ATOM     94  O   UNL A   1      46.730  37.703  27.859  1.00  0.00    -0.237 OA
ATOM     95  O   UNL A   1      46.300  36.094  26.047  1.00  0.00    -0.237 OA
ATOM     96  O   UNL A   1      44.420  37.246  27.125  1.00  0.00    -0.744 OA
ENDBRANCH  90  93
ENDBRANCH  63  86
ENDBRANCH  37  38
ENDBRANCH  29  32
ENDBRANCH  27  28
ENDBRANCH  26  27
ENDBRANCH   1  26
TORSDOF 17
ENDMDL
MODEL 2
REMARK VINA RESULT:     -12.7      2.369      4.571
REMARK SMILES O=C(CCC(=O)Nc1ccc(C(=O)N2CCOCC2)cc1)NCCCNC(=O)c1ccc(-c2c3nc(c(-c4cccc(S(=O)(=O)[O-])c4F)c4ccc([nH]4)c(-c4cccc(S(=O)(=O)[O-])c4F)c4nc(c(-c5cccc(S(=O)(=O)[O-])c5F)c5ccc2[nH]5)C=C4)C=C3)cc1
REMARK SMILES IDX 23 1 22 2 1 3 2 4 3 6 4 7 5 8 6 9 7 10 8 12 9 13 21 14 10 15
REMARK SMILES IDX 20 16 11 17 12 18 13 19 14 20 15 21 19 22 16 23 18 24 17 25
REMARK SMILES IDX 24 26 25 27 26 28 27 29 28 31 29 32 30 33 91 34 31 35 90 36
REMARK SMILES IDX 32 37 33 38 34 39 84 40 35 41 89 42 83 43 85 44 36 45 88 46
REMARK SMILES IDX 82 47 81 48 37 50 69 51 49 52 68 53 50 54 53 55 67 56 86 57
REMARK SMILES IDX 51 58 52 59 66 61 87 62 54 63 38 64 39 65 47 66 40 67 42 68
REMARK SMILES IDX 48 69 41 70 43 71 44 72 45 73 46 74 70 75 71 76 79 77 72 78
REMARK SMILES IDX 74 79 80 80 73 81 75 82 76 83 77 84 78 85 55 86 56 87 64 88
REMARK SMILES IDX 57 89 59 90 65 91 58 92 60 93 61 94 62 95 63 96
REMARK H PARENT 22 5 7 11 26 30 85 49 53 60
REMARK Flexibility Score: inf
ROOT
ATOM      1  C   UNL A   1      35.357  21.802  24.378  1.00  0.00     0.117 C 
ENDROOT
BRANCH   1   2
ATOM      2  N   UNL A   1      34.339  22.224  25.315  1.00  0.00    -0.356 N 
ATOM      3  O   UNL A   1      35.115  24.378  25.571  1.00  0.00    -0.275 OA
ATOM      4  C   UNL A   1      34.260  23.521  25.771  1.00  0.00     0.220 C 
ATOM      5  H   UNL A   1      33.681  21.564  25.635  1.00  0.00     0.163 HD
BRANCH   4   6
ATOM      6  C   UNL A   1      32.969  23.835  26.488  1.00  0.00     0.110 C 
BRANCH   6   7
ATOM      7  C   UNL A   1      31.749  23.164  25.865  1.00  0.00     0.110 C 
BRANCH   7   8
ATOM      8  C   UNL A   1      30.442  23.467  26.568  1.00  0.00     0.224 C 
ATOM      9  O   UNL A   1      29.876  22.549  27.175  1.00  0.00    -0.275 OA
ATOM     10  N   UNL A   1      29.793  24.665  26.543  1.00  0.00    -0.326 N 
ATOM     11  H   UNL A   1      29.027  24.694  27.160  1.00  0.00     0.169 HD
BRANCH  10  12
ATOM     12  C   UNL A   1      29.966  25.871  25.838  1.00  0.00     0.041 A 
ATOM     13  C   UNL A   1      29.213  26.031  24.658  1.00  0.00     0.027 A 
ATOM     14  C   UNL A   1      30.897  26.849  26.154  1.00  0.00     0.027 A 
ATOM     15  C   UNL A   1      29.515  27.051  23.738  1.00  0.00     0.016 A 
ATOM     16  C   UNL A   1      31.215  27.851  25.238  1.00  0.00     0.016 A 
ATOM     17  C   UNL A   1      30.571  27.920  24.003  1.00  0.00     0.040 A 
BRANCH  17  18
ATOM     18  C   UNL A   1      30.959  29.003  23.065  1.00  0.00     0.254 C 
ATOM     19  O   UNL A   1      32.026  28.924  22.467  1.00  0.00    -0.269 OA
ATOM     20  N   UNL A   1      29.976  29.934  22.780  1.00  0.00    -0.334 N 
ATOM     21  C   UNL A   1      29.329  30.782  23.787  1.00  0.00     0.148 C 
ATOM     22  C   UNL A   1      29.669  30.285  21.404  1.00  0.00     0.148 C 
ATOM     23  C   UNL A   1      27.825  30.924  23.518  1.00  0.00     0.181 C 
ATOM     24  C   UNL A   1      28.145  30.348  21.238  1.00  0.00     0.181 C 
ATOM     25  O   UNL A   1      27.566  31.296  22.150  1.00  0.00    -0.378 OA
ENDBRANCH  17  18
ENDBRANCH  10  12
ENDBRANCH   7   8
ENDBRANCH   6   7
ENDBRANCH   4   6
ENDBRANCH   1   2
BRANCH   1  26
ATOM     26  C   UNL A   1      36.343  20.790  24.922  1.00  0.00     0.042 C 
BRANCH  26  27
ATOM     27  C   UNL A   1      37.648  21.374  25.437  1.00  0.00     0.118 C 
BRANCH  27  28
ATOM     28  N   UNL A   1      38.773  20.444  25.498  1.00  0.00    -0.352 N 
ATOM     29  C   UNL A   1      39.973  20.620  26.162  1.00  0.00     0.251 C 
ATOM     30  H   UNL A   1      38.664  19.595  25.011  1.00  0.00     0.163 HD
ATOM     31  O   UNL A   1      40.849  19.762  26.113  1.00  0.00    -0.269 OA
BRANCH  29  32
ATOM     32  C   UNL A   1      40.197  21.894  26.879  1.00  0.00     0.039 A 
ATOM     33  C   UNL A   1      41.064  21.917  27.975  1.00  0.00     0.014 A 
ATOM     34  C   UNL A   1      39.698  23.084  26.346  1.00  0.00     0.014 A 
ATOM     35  C   UNL A   1      41.540  23.144  28.448  1.00  0.00     0.010 A 
ATOM     36  C   UNL A   1      40.254  24.291  26.748  1.00  0.00     0.010 A 
ATOM     37  C   UNL A   1      41.200  24.336  27.786  1.00  0.00    -0.014 A 
BRANCH  37  38
ATOM     38  C   UNL A   1      41.842  25.642  28.108  1.00  0.00     0.031 A 
ATOM     39  C   UNL A   1      41.035  26.721  28.781  1.00  0.00     0.074 A 
ATOM     40  C   UNL A   1      43.083  25.918  27.654  1.00  0.00     0.049 A 
ATOM     41  N   UNL A   1      41.326  27.985  28.952  1.00  0.00    -0.248 NA
ATOM     42  C   UNL A   1      39.705  26.338  29.282  1.00  0.00     0.031 C 
ATOM     43  C   UNL A   1      43.945  24.995  26.910  1.00  0.00     0.029 A 
ATOM     44  N   UNL A   1      43.823  27.075  27.717  1.00  0.00    -0.354 N 
ATOM     45  C   UNL A   1      40.191  28.558  29.514  1.00  0.00     0.074 A 
ATOM     46  C   UNL A   1      39.200  27.512  29.630  1.00  0.00     0.031 C 
ATOM     47  C   UNL A   1      45.091  25.619  26.591  1.00  0.00     0.029 A 
ATOM     48  C   UNL A   1      45.036  26.996  27.068  1.00  0.00     0.049 A 
ATOM     49  H   UNL A   1      43.514  27.887  28.182  1.00  0.00     0.167 HD
ATOM     50  C   UNL A   1      40.000  29.834  29.926  1.00  0.00     0.034 A 
ATOM     51  C   UNL A   1      45.990  27.927  26.869  1.00  0.00     0.034 A 
ATOM     52  C   UNL A   1      41.016  30.849  29.896  1.00  0.00     0.049 A 
ATOM     53  C   UNL A   1      45.790  29.312  27.424  1.00  0.00     0.074 A 
ATOM     54  C   UNL A   1      40.953  32.142  30.385  1.00  0.00     0.029 A 
ATOM     55  N   UNL A   1      42.284  30.682  29.364  1.00  0.00    -0.354 N 
ATOM     56  N   UNL A   1      44.762  29.796  28.077  1.00  0.00    -0.248 NA
ATOM     57  C   UNL A   1      46.892  30.271  27.243  1.00  0.00     0.031 C 
ATOM     58  C   UNL A   1      42.188  32.756  30.151  1.00  0.00     0.029 A 
ATOM     59  C   UNL A   1      43.019  31.843  29.523  1.00  0.00     0.049 A 
ATOM     60  H   UNL A   1      42.613  29.859  28.935  1.00  0.00     0.167 HD
ATOM     61  C   UNL A   1      45.110  31.098  28.424  1.00  0.00     0.074 A 
ATOM     62  C   UNL A   1      46.447  31.324  27.917  1.00  0.00     0.031 C 
ATOM     63  C   UNL A   1      44.379  32.025  29.088  1.00  0.00     0.034 A 
BRANCH  50  64
ATOM     64  C   UNL A   1      38.660  30.183  30.516  1.00  0.00     0.023 A 
ATOM     65  C   UNL A   1      38.385  29.842  31.856  1.00  0.00     0.012 A 
ATOM     66  C   UNL A   1      37.697  30.889  29.770  1.00  0.00     0.148 A 
ATOM     67  C   UNL A   1      37.157  30.164  32.432  1.00  0.00     0.002 A 
ATOM     68  C   UNL A   1      36.492  31.245  30.365  1.00  0.00     0.091 A 
ATOM     69  F   UNL A   1      37.967  31.184  28.489  1.00  0.00    -0.205 F 
ATOM     70  C   UNL A   1      36.216  30.874  31.691  1.00  0.00     0.022 A 
BRANCH  68  71
ATOM     71  S   UNL A   1      35.252  32.228  29.516  1.00  0.00     0.127 S 
ATOM     72  O   UNL A   1      36.053  33.341  29.010  1.00  0.00    -0.237 OA
ATOM     73  O   UNL A   1      34.773  31.305  28.486  1.00  0.00    -0.237 OA
ATOM     74  O   UNL A   1      34.260  32.573  30.525  1.00  0.00    -0.744 OA
ENDBRANCH  68  71
ENDBRANCH  50  64
BRANCH  51  75
ATOM     75  C   UNL A   1      47.261  27.558  26.182  1.00  0.00     0.023 A 
ATOM     76  C   UNL A   1      48.309  26.997  26.938  1.00  0.00     0.012 A 
ATOM     77  C   UNL A   1      47.432  27.728  24.795  1.00  0.00     0.148 A 
ATOM     78  C   UNL A   1      49.514  26.639  26.333  1.00  0.00     0.002 A 
ATOM     79  C   UNL A   1      48.616  27.321  24.188  1.00  0.00     0.091 A 
ATOM     80  F   UNL A   1      46.431  28.277  24.093  1.00  0.00    -0.205 F 
ATOM     81  C   UNL A   1      49.664  26.791  24.957  1.00  0.00     0.022 A 
BRANCH  79  82
ATOM     82  S   UNL A   1      48.844  27.360  22.406  1.00  0.00     0.127 S 
ATOM     83  O   UNL A   1      47.971  28.463  22.016  1.00  0.00    -0.237 OA
ATOM     84  O   UNL A   1      50.277  27.635  22.286  1.00  0.00    -0.237 OA
ATOM     85  O   UNL A   1      48.450  26.037  21.938  1.00  0.00    -0.744 OA
ENDBRANCH  79  82
ENDBRANCH  51  75
BRANCH  63  86
ATOM     86  C   UNL A   1      45.015  33.359  29.369  1.00  0.00     0.023 A 
ATOM     87  C   UNL A   1      45.834  33.517  30.505  1.00  0.00     0.012 A 
ATOM     88  C   UNL A   1      44.893  34.418  28.448  1.00  0.00     0.148 A 
ATOM     89  C   UNL A   1      46.510  34.717  30.726  1.00  0.00     0.002 A 
ATOM     90  C   UNL A   1      45.603  35.594  28.653  1.00  0.00     0.091 A 
ATOM     91  F   UNL A   1      44.092  34.251  27.385  1.00  0.00    -0.205 F 
ATOM     92  C   UNL A   1      46.406  35.748  29.794  1.00  0.00     0.022 A 
BRANCH  90  93
ATOM     93  S   UNL A   1      45.603  36.937  27.458  1.00  0.00     0.127 S 
ATOM     94  O   UNL A   1      46.163  36.284  26.277  1.00  0.00    -0.237 OA
ATOM     95  O   UNL A   1      44.180  37.265  27.358  1.00  0.00    -0.237 OA
ATOM     96  O   UNL A   1      46.424  37.991  28.040  1.00  0.00    -0.744 OA
ENDBRANCH  90  93
ENDBRANCH  63  86
ENDBRANCH  37  38
ENDBRANCH  29  32
ENDBRANCH  27  28
ENDBRANCH  26  27
ENDBRANCH   1  26
TORSDOF 17
ENDMDL
MODEL 3
REMARK VINA RESULT:     -12.6      2.812      8.845
REMARK SMILES O=C(CCC(=O)Nc1ccc(C(=O)N2CCOCC2)cc1)NCCCNC(=O)c1ccc(-c2c3nc(c(-c4cccc(S(=O)(=O)[O-])c4F)c4ccc([nH]4)c(-c4cccc(S(=O)(=O)[O-])c4F)c4nc(c(-c5cccc(S(=O)(=O)[O-])c5F)c5ccc2[nH]5)C=C4)C=C3)cc1
REMARK SMILES IDX 23 1 22 2 1 3 2 4 3 6 4 7 5 8 6 9 7 10 8 12 9 13 21 14 10 15
REMARK SMILES IDX 20 16 11 17 12 18 13 19 14 20 15 21 19 22 16 23 18 24 17 25
REMARK SMILES IDX 24 26 25 27 26 28 27 29 28 31 29 32 30 33 91 34 31 35 90 36
REMARK SMILES IDX 32 37 33 38 34 39 84 40 35 41 89 42 83 43 85 44 36 45 88 46
REMARK SMILES IDX 82 47 81 48 37 50 69 51 49 52 68 53 50 54 53 55 67 56 86 57
REMARK SMILES IDX 51 58 52 59 66 61 87 62 54 63 38 64 39 65 47 66 40 67 42 68
REMARK SMILES IDX 48 69 41 70 43 71 44 72 45 73 46 74 70 75 71 76 79 77 72 78
REMARK SMILES IDX 74 79 80 80 73 81 75 82 76 83 77 84 78 85 55 86 56 87 64 88
REMARK SMILES IDX 57 89 59 90 65 91 58 92 60 93 61 94 62 95 63 96
REMARK H PARENT 22 5 7 11 26 30 85 49 53 60
REMARK Flexibility Score: inf
ROOT
ATOM      1  C   UNL A   1      35.153  20.669  25.222  1.00  0.00     0.117 C 
ENDROOT
BRANCH   1   2
ATOM      2  N   UNL A   1      34.193  21.664  25.650  1.00  0.00    -0.356 N 
ATOM      3  O   UNL A   1      32.330  20.333  25.400  1.00  0.00    -0.275 OA
ATOM      4  C   UNL A   1      32.854  21.375  25.781  1.00  0.00     0.220 C 
ATOM      5  H   UNL A   1      34.507  22.575  25.854  1.00  0.00     0.163 HD
BRANCH   4   6
ATOM      6  C   UNL A   1      32.073  22.435  26.521  1.00  0.00     0.110 C 
BRANCH   6   7
ATOM      7  C   UNL A   1      30.670  22.656  25.963  1.00  0.00     0.110 C 
BRANCH   7   8
ATOM      8  C   UNL A   1      29.817  23.608  26.777  1.00  0.00     0.224 C 
ATOM      9  O   UNL A   1      29.130  23.142  27.695  1.00  0.00    -0.275 OA
ATOM     10  N   UNL A   1      29.693  24.946  26.548  1.00  0.00    -0.326 N 
ATOM     11  H   UNL A   1      29.192  25.406  27.260  1.00  0.00     0.169 HD
BRANCH  10  12
ATOM     12  C   UNL A   1      30.117  25.820  25.530  1.00  0.00     0.041 A 
ATOM     13  C   UNL A   1      31.216  26.650  25.823  1.00  0.00     0.027 A 
ATOM     14  C   UNL A   1      29.466  26.004  24.319  1.00  0.00     0.027 A 
ATOM     15  C   UNL A   1      31.538  27.745  25.001  1.00  0.00     0.016 A 
ATOM     16  C   UNL A   1      29.767  27.099  23.509  1.00  0.00     0.016 A 
ATOM     17  C   UNL A   1      30.759  28.007  23.876  1.00  0.00     0.040 A 
BRANCH  17  18
ATOM     18  C   UNL A   1      31.027  29.159  22.979  1.00  0.00     0.254 C 
ATOM     19  O   UNL A   1      32.074  29.192  22.342  1.00  0.00    -0.269 OA
ATOM     20  N   UNL A   1      29.966  30.022  22.774  1.00  0.00    -0.334 N 
ATOM     21  C   UNL A   1      29.294  30.770  23.842  1.00  0.00     0.148 C 
ATOM     22  C   UNL A   1      29.581  30.411  21.428  1.00  0.00     0.148 C 
ATOM     23  C   UNL A   1      27.774  30.806  23.632  1.00  0.00     0.181 C 
ATOM     24  C   UNL A   1      28.051  30.362  21.318  1.00  0.00     0.181 C 
ATOM     25  O   UNL A   1      27.437  31.219  22.293  1.00  0.00    -0.378 OA
ENDBRANCH  17  18
ENDBRANCH  10  12
ENDBRANCH   7   8
ENDBRANCH   6   7
ENDBRANCH   4   6
ENDBRANCH   1   2
BRANCH   1  26
ATOM     26  C   UNL A   1      36.287  21.203  24.373  1.00  0.00     0.042 C 
BRANCH  26  27
ATOM     27  C   UNL A   1      37.494  21.704  25.149  1.00  0.00     0.118 C 
BRANCH  27  28
ATOM     28  N   UNL A   1      38.526  20.707  25.419  1.00  0.00    -0.352 N 
ATOM     29  C   UNL A   1      39.640  20.849  26.227  1.00  0.00     0.251 C 
ATOM     30  H   UNL A   1      38.416  19.834  24.977  1.00  0.00     0.163 HD
ATOM     31  O   UNL A   1      40.447  19.932  26.351  1.00  0.00    -0.269 OA
BRANCH  29  32
ATOM     32  C   UNL A   1      39.866  22.154  26.886  1.00  0.00     0.039 A 
ATOM     33  C   UNL A   1      40.931  22.291  27.780  1.00  0.00     0.014 A 
ATOM     34  C   UNL A   1      39.142  23.273  26.470  1.00  0.00     0.014 A 
ATOM     35  C   UNL A   1      41.358  23.571  28.148  1.00  0.00     0.010 A 
ATOM     36  C   UNL A   1      39.634  24.540  26.752  1.00  0.00     0.010 A 
ATOM     37  C   UNL A   1      40.762  24.707  27.574  1.00  0.00    -0.014 A 
BRANCH  37  38
ATOM     38  C   UNL A   1      41.310  26.080  27.760  1.00  0.00     0.031 A 
ATOM     39  C   UNL A   1      42.713  26.389  27.306  1.00  0.00     0.074 A 
ATOM     40  C   UNL A   1      40.620  26.994  28.474  1.00  0.00     0.049 A 
ATOM     41  N   UNL A   1      43.452  27.436  27.563  1.00  0.00    -0.248 NA
ATOM     42  C   UNL A   1      43.390  25.359  26.501  1.00  0.00     0.031 C 
ATOM     43  C   UNL A   1      39.286  26.799  29.049  1.00  0.00     0.029 A 
ATOM     44  N   UNL A   1      40.966  28.263  28.877  1.00  0.00    -0.354 N 
ATOM     45  C   UNL A   1      44.698  27.161  27.013  1.00  0.00     0.074 A 
ATOM     46  C   UNL A   1      44.623  25.839  26.432  1.00  0.00     0.031 C 
ATOM     47  C   UNL A   1      38.928  27.905  29.723  1.00  0.00     0.029 A 
ATOM     48  C   UNL A   1      40.017  28.874  29.666  1.00  0.00     0.049 A 
ATOM     49  H   UNL A   1      41.814  28.695  28.625  1.00  0.00     0.167 HD
ATOM     50  C   UNL A   1      45.799  27.948  26.966  1.00  0.00     0.034 A 
ATOM     51  C   UNL A   1      40.025  30.071  30.285  1.00  0.00     0.034 A 
ATOM     52  C   UNL A   1      45.844  29.296  27.460  1.00  0.00     0.049 A 
ATOM     53  C   UNL A   1      41.227  30.966  30.135  1.00  0.00     0.074 A 
ATOM     54  C   UNL A   1      46.878  30.211  27.367  1.00  0.00     0.029 A 
ATOM     55  N   UNL A   1      44.806  29.929  28.124  1.00  0.00    -0.354 N 
ATOM     56  N   UNL A   1      42.345  30.741  29.490  1.00  0.00    -0.248 NA
ATOM     57  C   UNL A   1      41.157  32.292  30.769  1.00  0.00     0.031 C 
ATOM     58  C   UNL A   1      46.462  31.401  27.973  1.00  0.00     0.029 A 
ATOM     59  C   UNL A   1      45.168  31.227  28.436  1.00  0.00     0.049 A 
ATOM     60  H   UNL A   1      43.939  29.516  28.342  1.00  0.00     0.167 HD
ATOM     61  C   UNL A   1      43.091  31.909  29.602  1.00  0.00     0.074 A 
ATOM     62  C   UNL A   1      42.295  32.844  30.368  1.00  0.00     0.031 C 
ATOM     63  C   UNL A   1      44.331  32.174  29.126  1.00  0.00     0.034 A 
BRANCH  50  64
ATOM     64  C   UNL A   1      47.024  27.395  26.289  1.00  0.00     0.023 A 
ATOM     65  C   UNL A   1      47.230  27.648  24.917  1.00  0.00     0.012 A 
ATOM     66  C   UNL A   1      47.993  26.674  27.013  1.00  0.00     0.148 A 
ATOM     67  C   UNL A   1      48.361  27.159  24.268  1.00  0.00     0.002 A 
ATOM     68  C   UNL A   1      49.141  26.227  26.367  1.00  0.00     0.091 A 
ATOM     69  F   UNL A   1      47.770  26.423  28.311  1.00  0.00    -0.205 F 
ATOM     70  C   UNL A   1      49.321  26.459  24.994  1.00  0.00     0.022 A 
BRANCH  68  71
ATOM     71  S   UNL A   1      50.469  25.387  27.236  1.00  0.00     0.127 S 
ATOM     72  O   UNL A   1      50.921  26.425  28.161  1.00  0.00    -0.237 OA
ATOM     73  O   UNL A   1      49.768  24.269  27.871  1.00  0.00    -0.237 OA
ATOM     74  O   UNL A   1      51.427  24.993  26.212  1.00  0.00    -0.744 OA
ENDBRANCH  68  71
ENDBRANCH  50  64
BRANCH  51  75
ATOM     75  C   UNL A   1      38.822  30.532  31.037  1.00  0.00     0.023 A 
ATOM     76  C   UNL A   1      38.765  30.323  32.429  1.00  0.00     0.012 A 
ATOM     77  C   UNL A   1      37.756  31.195  30.399  1.00  0.00     0.148 A 
ATOM     78  C   UNL A   1      37.658  30.740  33.168  1.00  0.00     0.002 A 
ATOM     79  C   UNL A   1      36.679  31.653  31.149  1.00  0.00     0.091 A 
ATOM     80  F   UNL A   1      37.820  31.372  29.072  1.00  0.00    -0.205 F 
ATOM     81  C   UNL A   1      36.620  31.413  32.531  1.00  0.00     0.022 A 
BRANCH  79  82
ATOM     82  S   UNL A   1      35.362  32.643  30.431  1.00  0.00     0.127 S 
ATOM     83  O   UNL A   1      34.923  31.801  29.323  1.00  0.00    -0.237 OA
ATOM     84  O   UNL A   1      34.414  32.746  31.542  1.00  0.00    -0.237 OA
ATOM     85  O   UNL A   1      35.987  33.908  30.064  1.00  0.00    -0.744 OA
ENDBRANCH  79  82
ENDBRANCH  51  75
BRANCH  63  86
ATOM     86  C   UNL A   1      44.899  33.549  29.357  1.00  0.00     0.023 A 
ATOM     87  C   UNL A   1      45.665  33.802  30.512  1.00  0.00     0.012 A 
ATOM     88  C   UNL A   1      44.769  34.550  28.376  1.00  0.00     0.148 A 
ATOM     89  C   UNL A   1      46.281  35.040  30.693  1.00  0.00     0.002 A 
ATOM     90  C   UNL A   1      45.421  35.766  28.542  1.00  0.00     0.091 A 
ATOM     91  F   UNL A   1      44.019  34.292  27.295  1.00  0.00    -0.205 F 
ATOM     92  C   UNL A   1      46.171  36.015  29.703  1.00  0.00     0.022 A 
BRANCH  90  93
ATOM     93  S   UNL A   1      45.412  37.042  27.277  1.00  0.00     0.127 S 
ATOM     94  O   UNL A   1      45.992  36.335  26.137  1.00  0.00    -0.237 OA
ATOM     95  O   UNL A   1      43.985  37.342  27.147  1.00  0.00    -0.237 OA
ATOM     96  O   UNL A   1      46.212  38.138  27.808  1.00  0.00    -0.744 OA
ENDBRANCH  90  93
ENDBRANCH  63  86
ENDBRANCH  37  38
ENDBRANCH  29  32
ENDBRANCH  27  28
ENDBRANCH  26  27
ENDBRANCH   1  26
TORSDOF 17
ENDMDL
