MODEL 1
REMARK VINA RESULT:     -11.2      0.000      0.000
REMARK SMILES C[C@@H](NC1=[NH+]CCC1)C(=O)NCCCNC(=O)c1ccc(-c2c3nc(c(-c4cccc(S(=O)(=O)[O-])c4F)c4ccc([nH]4)c(-c4cccc(S(=O)(=O)[O-])c4F)c4nc(c(-c5cccc(S(=O)(=O)[O-])c5F)c5ccc2[nH]5)C=C4)C=C3)cc1
REMARK SMILES IDX 14 1 13 2 12 3 11 4 9 5 10 6 2 8 1 9 3 10 4 11 5 13 8 14
REMARK SMILES IDX 6 15 7 17 15 18 16 19 17 21 18 22 19 23 80 24 20 25 79 26
REMARK SMILES IDX 21 27 22 28 23 29 73 30 24 31 78 32 72 33 74 34 25 35 77 36
REMARK SMILES IDX 71 37 70 38 26 40 58 41 38 42 57 43 39 44 42 45 56 46 75 47
REMARK SMILES IDX 40 48 41 49 55 51 76 52 43 53 27 54 28 55 36 56 29 57 31 58
REMARK SMILES IDX 37 59 30 60 32 61 33 62 34 63 35 64 59 65 60 66 68 67 61 68
REMARK SMILES IDX 63 69 69 70 62 71 64 72 65 73 66 74 67 75 44 76 45 77 53 78
REMARK SMILES IDX 46 79 48 80 54 81 47 82 49 83 50 84 51 85 52 86
REMARK H PARENT 11 7 3 12 5 16 15 20 74 39 42 50
REMARK Flexibility Score: inf
ROOT
ATOM      1  C   UNL A   1      33.697  34.208  28.955  1.00  0.00     0.118 C 
ENDROOT
BRANCH   1   2
ATOM      2  C   UNL A   1      34.249  35.472  28.318  1.00  0.00     0.042 C 
BRANCH   2   3
ATOM      3  C   UNL A   1      33.647  36.738  28.891  1.00  0.00     0.118 C 
BRANCH   3   4
ATOM      4  N   UNL A   1      32.659  36.454  29.920  1.00  0.00    -0.352 N 
ATOM      5  C   UNL A   1      32.714  36.672  31.265  1.00  0.00     0.264 C 
ATOM      6  O   UNL A   1      31.719  36.375  31.934  1.00  0.00    -0.270 OA
ATOM      7  H   UNL A   1      31.825  36.042  29.597  1.00  0.00     0.163 HD
BRANCH   5   8
ATOM      8  C   UNL A   1      33.967  37.257  31.940  1.00  0.00     0.258 C 
ATOM      9  C   UNL A   1      33.652  38.670  32.436  1.00  0.00     0.069 C 
BRANCH   8  10
ATOM     10  N   UNL A   1      34.498  36.437  33.032  1.00  0.00    -0.267 N 
ATOM     11  C   UNL A   1      34.782  35.104  32.997  1.00  0.00     0.243 C 
ATOM     12  H   UNL A   1      34.667  36.900  33.884  1.00  0.00     0.305 HD
ATOM     13  N   UNL A   1      34.524  34.370  34.041  1.00  0.00    -0.279 N 
ATOM     14  C   UNL A   1      35.373  34.373  31.824  1.00  0.00     0.131 C 
ATOM     15  C   UNL A   1      34.786  32.976  33.630  1.00  0.00     0.234 C 
ATOM     16  H   UNL A   1      34.218  34.681  34.924  1.00  0.00     0.304 HD
ATOM     17  C   UNL A   1      34.828  32.994  32.112  1.00  0.00     0.058 C 
ENDBRANCH   8  10
ENDBRANCH   5   8
ENDBRANCH   3   4
ENDBRANCH   2   3
ENDBRANCH   1   2
BRANCH   1  18
ATOM     18  N   UNL A   1      33.078  33.307  27.989  1.00  0.00    -0.352 N 
ATOM     19  C   UNL A   1      33.563  32.137  27.458  1.00  0.00     0.251 C 
ATOM     20  H   UNL A   1      32.186  33.576  27.672  1.00  0.00     0.163 HD
ATOM     21  O   UNL A   1      32.972  31.593  26.528  1.00  0.00    -0.269 OA
BRANCH  19  22
ATOM     22  C   UNL A   1      34.806  31.552  27.999  1.00  0.00     0.039 A 
ATOM     23  C   UNL A   1      35.948  32.348  28.090  1.00  0.00     0.014 A 
ATOM     24  C   UNL A   1      34.833  30.227  28.441  1.00  0.00     0.014 A 
ATOM     25  C   UNL A   1      37.101  31.829  28.681  1.00  0.00     0.010 A 
ATOM     26  C   UNL A   1      35.942  29.750  29.126  1.00  0.00     0.010 A 
ATOM     27  C   UNL A   1      37.096  30.538  29.236  1.00  0.00    -0.014 A 
BRANCH  27  28
ATOM     28  C   UNL A   1      38.291  29.990  29.924  1.00  0.00     0.031 A 
ATOM     29  C   UNL A   1      38.646  30.461  31.310  1.00  0.00     0.074 A 
ATOM     30  C   UNL A   1      39.096  29.125  29.275  1.00  0.00     0.049 A 
ATOM     31  N   UNL A   1      39.665  30.125  32.057  1.00  0.00    -0.248 NA
ATOM     32  C   UNL A   1      37.760  31.465  31.925  1.00  0.00     0.031 C 
ATOM     33  C   UNL A   1      38.906  28.662  27.898  1.00  0.00     0.029 A 
ATOM     34  N   UNL A   1      40.246  28.499  29.679  1.00  0.00    -0.354 N 
ATOM     35  C   UNL A   1      39.562  30.898  33.208  1.00  0.00     0.074 A 
ATOM     36  C   UNL A   1      38.410  31.753  33.042  1.00  0.00     0.031 C 
ATOM     37  C   UNL A   1      39.896  27.814  27.579  1.00  0.00     0.029 A 
ATOM     38  C   UNL A   1      40.808  27.697  28.712  1.00  0.00     0.049 A 
ATOM     39  H   UNL A   1      40.635  28.612  30.577  1.00  0.00     0.167 HD
ATOM     40  C   UNL A   1      40.336  30.875  34.318  1.00  0.00     0.034 A 
ATOM     41  C   UNL A   1      41.933  26.957  28.735  1.00  0.00     0.034 A 
ATOM     42  C   UNL A   1      41.459  29.994  34.494  1.00  0.00     0.049 A 
ATOM     43  C   UNL A   1      42.750  26.916  29.998  1.00  0.00     0.074 A 
ATOM     44  C   UNL A   1      42.256  29.830  35.612  1.00  0.00     0.029 A 
ATOM     45  N   UNL A   1      41.948  29.133  33.524  1.00  0.00    -0.354 N 
ATOM     46  N   UNL A   1      42.548  27.536  31.134  1.00  0.00    -0.248 NA
ATOM     47  C   UNL A   1      43.932  26.040  29.993  1.00  0.00     0.031 C 
ATOM     48  C   UNL A   1      43.248  28.892  35.306  1.00  0.00     0.029 A 
ATOM     49  C   UNL A   1      43.043  28.443  34.012  1.00  0.00     0.049 A 
ATOM     50  H   UNL A   1      41.572  29.029  32.620  1.00  0.00     0.167 HD
ATOM     51  C   UNL A   1      43.548  27.097  31.993  1.00  0.00     0.074 A 
ATOM     52  C   UNL A   1      44.343  26.140  31.250  1.00  0.00     0.031 C 
ATOM     53  C   UNL A   1      43.795  27.458  33.276  1.00  0.00     0.034 A 
BRANCH  40  54
ATOM     54  C   UNL A   1      39.967  31.801  35.448  1.00  0.00     0.023 A 
ATOM     55  C   UNL A   1      40.579  33.069  35.542  1.00  0.00     0.012 A 
ATOM     56  C   UNL A   1      38.980  31.441  36.386  1.00  0.00     0.148 A 
ATOM     57  C   UNL A   1      40.244  33.946  36.573  1.00  0.00     0.002 A 
ATOM     58  C   UNL A   1      38.616  32.341  37.382  1.00  0.00     0.091 A 
ATOM     59  F   UNL A   1      38.425  30.224  36.295  1.00  0.00    -0.205 F 
ATOM     60  C   UNL A   1      39.255  33.587  37.484  1.00  0.00     0.022 A 
BRANCH  58  61
ATOM     61  S   UNL A   1      37.296  32.008  38.552  1.00  0.00     0.127 S 
ATOM     62  O   UNL A   1      37.031  30.591  38.303  1.00  0.00    -0.237 OA
ATOM     63  O   UNL A   1      37.944  32.291  39.833  1.00  0.00    -0.237 OA
ATOM     64  O   UNL A   1      36.210  32.915  38.207  1.00  0.00    -0.744 OA
ENDBRANCH  58  61
ENDBRANCH  40  54
BRANCH  41  65
ATOM     65  C   UNL A   1      42.316  26.144  27.547  1.00  0.00     0.023 A 
ATOM     66  C   UNL A   1      43.067  26.735  26.512  1.00  0.00     0.012 A 
ATOM     67  C   UNL A   1      41.957  24.785  27.444  1.00  0.00     0.148 A 
ATOM     68  C   UNL A   1      43.420  26.001  25.379  1.00  0.00     0.002 A 
ATOM     69  C   UNL A   1      42.361  24.045  26.340  1.00  0.00     0.091 A 
ATOM     70  F   UNL A   1      41.236  24.243  28.436  1.00  0.00    -0.205 F 
ATOM     71  C   UNL A   1      43.075  24.654  25.297  1.00  0.00     0.022 A 
BRANCH  69  72
ATOM     72  S   UNL A   1      42.077  22.276  26.211  1.00  0.00     0.127 S 
ATOM     73  O   UNL A   1      42.825  21.941  25.001  1.00  0.00    -0.237 OA
ATOM     74  O   UNL A   1      42.667  21.784  27.457  1.00  0.00    -0.237 OA
ATOM     75  O   UNL A   1      40.632  22.113  26.126  1.00  0.00    -0.744 OA
ENDBRANCH  69  72
ENDBRANCH  41  65
BRANCH  53  76
ATOM     76  C   UNL A   1      44.943  26.785  33.981  1.00  0.00     0.023 A 
ATOM     77  C   UNL A   1      46.252  27.291  33.847  1.00  0.00     0.012 A 
ATOM     78  C   UNL A   1      44.713  25.681  34.825  1.00  0.00     0.148 A 
ATOM     79  C   UNL A   1      47.318  26.681  34.506  1.00  0.00     0.002 A 
ATOM     80  C   UNL A   1      45.771  25.113  35.523  1.00  0.00     0.091 A 
ATOM     81  F   UNL A   1      43.464  25.202  34.928  1.00  0.00    -0.205 F 
ATOM     82  C   UNL A   1      47.077  25.601  35.352  1.00  0.00     0.022 A 
BRANCH  80  83
ATOM     83  S   UNL A   1      45.539  23.785  36.710  1.00  0.00     0.127 S 
ATOM     84  O   UNL A   1      44.919  22.751  35.884  1.00  0.00    -0.237 OA
ATOM     85  O   UNL A   1      46.913  23.496  37.123  1.00  0.00    -0.237 OA
ATOM     86  O   UNL A   1      44.697  24.334  37.765  1.00  0.00    -0.744 OA
ENDBRANCH  80  83
ENDBRANCH  53  76
ENDBRANCH  27  28
ENDBRANCH  19  22
ENDBRANCH   1  18
TORSDOF 14
ENDMDL
MODEL 2
REMARK VINA RESULT:     -11.1      1.967      2.527
REMARK SMILES C[C@@H](NC1=[NH+]CCC1)C(=O)NCCCNC(=O)c1ccc(-c2c3nc(c(-c4cccc(S(=O)(=O)[O-])c4F)c4ccc([nH]4)c(-c4cccc(S(=O)(=O)[O-])c4F)c4nc(c(-c5cccc(S(=O)(=O)[O-])c5F)c5ccc2[nH]5)C=C4)C=C3)cc1
REMARK SMILES IDX 14 1 13 2 12 3 11 4 9 5 10 6 2 8 1 9 3 10 4 11 5 13 8 14
REMARK SMILES IDX 6 15 7 17 15 18 16 19 17 21 18 22 19 23 80 24 20 25 79 26
REMARK SMILES IDX 21 27 22 28 23 29 73 30 24 31 78 32 72 33 74 34 25 35 77 36
REMARK SMILES IDX 71 37 70 38 26 40 58 41 38 42 57 43 39 44 42 45 56 46 75 47
REMARK SMILES IDX 40 48 41 49 55 51 76 52 43 53 27 54 28 55 36 56 29 57 31 58
REMARK SMILES IDX 37 59 30 60 32 61 33 62 34 63 35 64 59 65 60 66 68 67 61 68
REMARK SMILES IDX 63 69 69 70 62 71 64 72 65 73 66 74 67 75 44 76 45 77 53 78
REMARK SMILES IDX 46 79 48 80 54 81 47 82 49 83 50 84 51 85 52 86
REMARK H PARENT 11 7 3 12 5 16 15 20 74 39 42 50
REMARK Flexibility Score: inf
ROOT
ATOM      1  C   UNL A   1      35.058  33.125  28.886  1.00  0.00     0.118 C 
ENDROOT
BRANCH   1   2
ATOM      2  C   UNL A   1      34.363  33.787  30.064  1.00  0.00     0.042 C 
BRANCH   2   3
ATOM      3  C   UNL A   1      33.704  35.103  29.703  1.00  0.00     0.118 C 
BRANCH   3   4
ATOM      4  N   UNL A   1      32.617  35.435  30.610  1.00  0.00    -0.352 N 
ATOM      5  C   UNL A   1      32.648  36.087  31.807  1.00  0.00     0.264 C 
ATOM      6  O   UNL A   1      31.572  36.284  32.380  1.00  0.00    -0.270 OA
ATOM      7  H   UNL A   1      31.723  35.144  30.316  1.00  0.00     0.163 HD
BRANCH   5   8
ATOM      8  C   UNL A   1      33.970  36.557  32.437  1.00  0.00     0.258 C 
ATOM      9  C   UNL A   1      33.860  38.047  32.773  1.00  0.00     0.069 C 
BRANCH   8  10
ATOM     10  N   UNL A   1      34.376  35.795  33.621  1.00  0.00    -0.267 N 
ATOM     11  C   UNL A   1      35.320  34.812  33.682  1.00  0.00     0.243 C 
ATOM     12  H   UNL A   1      33.916  36.015  34.462  1.00  0.00     0.305 HD
ATOM     13  N   UNL A   1      35.112  33.776  34.442  1.00  0.00    -0.279 N 
ATOM     14  C   UNL A   1      36.617  34.805  32.922  1.00  0.00     0.131 C 
ATOM     15  C   UNL A   1      36.219  32.840  34.163  1.00  0.00     0.234 C 
ATOM     16  H   UNL A   1      34.368  33.642  35.073  1.00  0.00     0.304 HD
ATOM     17  C   UNL A   1      36.840  33.313  32.859  1.00  0.00     0.058 C 
ENDBRANCH   8  10
ENDBRANCH   5   8
ENDBRANCH   3   4
ENDBRANCH   2   3
ENDBRANCH   1   2
BRANCH   1  18
ATOM     18  N   UNL A   1      34.205  32.170  28.188  1.00  0.00    -0.352 N 
ATOM     19  C   UNL A   1      34.492  30.893  27.771  1.00  0.00     0.251 C 
ATOM     20  H   UNL A   1      33.294  32.485  27.985  1.00  0.00     0.163 HD
ATOM     21  O   UNL A   1      33.702  30.290  27.048  1.00  0.00    -0.269 OA
BRANCH  19  22
ATOM     22  C   UNL A   1      35.761  30.261  28.182  1.00  0.00     0.039 A 
ATOM     23  C   UNL A   1      36.851  30.296  27.311  1.00  0.00     0.014 A 
ATOM     24  C   UNL A   1      35.881  29.659  29.437  1.00  0.00     0.014 A 
ATOM     25  C   UNL A   1      38.079  29.779  27.727  1.00  0.00     0.010 A 
ATOM     26  C   UNL A   1      37.127  29.246  29.888  1.00  0.00     0.010 A 
ATOM     27  C   UNL A   1      38.236  29.283  29.032  1.00  0.00    -0.014 A 
BRANCH  27  28
ATOM     28  C   UNL A   1      39.548  28.786  29.515  1.00  0.00     0.031 A 
ATOM     29  C   UNL A   1      40.262  29.503  30.630  1.00  0.00     0.074 A 
ATOM     30  C   UNL A   1      40.130  27.735  28.903  1.00  0.00     0.049 A 
ATOM     31  N   UNL A   1      41.426  29.242  31.165  1.00  0.00    -0.248 NA
ATOM     32  C   UNL A   1      39.598  30.690  31.198  1.00  0.00     0.031 C 
ATOM     33  C   UNL A   1      39.578  27.012  27.755  1.00  0.00     0.029 A 
ATOM     34  N   UNL A   1      41.324  27.107  29.147  1.00  0.00    -0.354 N 
ATOM     35  C   UNL A   1      41.649  30.245  32.100  1.00  0.00     0.074 A 
ATOM     36  C   UNL A   1      40.522  31.147  32.030  1.00  0.00     0.031 C 
ATOM     37  C   UNL A   1      40.423  26.030  27.406  1.00  0.00     0.029 A 
ATOM     38  C   UNL A   1      41.591  26.073  28.280  1.00  0.00     0.049 A 
ATOM     39  H   UNL A   1      41.933  27.370  29.875  1.00  0.00     0.167 HD
ATOM     40  C   UNL A   1      42.680  30.386  32.965  1.00  0.00     0.034 A 
ATOM     41  C   UNL A   1      42.659  25.256  28.196  1.00  0.00     0.034 A 
ATOM     42  C   UNL A   1      43.780  29.464  33.059  1.00  0.00     0.049 A 
ATOM     43  C   UNL A   1      43.770  25.407  29.198  1.00  0.00     0.074 A 
ATOM     44  C   UNL A   1      44.830  29.468  33.957  1.00  0.00     0.029 A 
ATOM     45  N   UNL A   1      43.975  28.379  32.219  1.00  0.00    -0.354 N 
ATOM     46  N   UNL A   1      43.887  26.268  30.180  1.00  0.00    -0.248 NA
ATOM     47  C   UNL A   1      44.880  24.448  29.106  1.00  0.00     0.031 C 
ATOM     48  C   UNL A   1      45.679  28.402  33.640  1.00  0.00     0.029 A 
ATOM     49  C   UNL A   1      45.134  27.710  32.570  1.00  0.00     0.049 A 
ATOM     50  H   UNL A   1      43.376  28.122  31.481  1.00  0.00     0.167 HD
ATOM     51  C   UNL A   1      45.059  25.931  30.847  1.00  0.00     0.074 A 
ATOM     52  C   UNL A   1      45.603  24.771  30.169  1.00  0.00     0.031 C 
ATOM     53  C   UNL A   1      45.638  26.530  31.916  1.00  0.00     0.034 A 
BRANCH  40  54
ATOM     54  C   UNL A   1      42.645  31.559  33.912  1.00  0.00     0.023 A 
ATOM     55  C   UNL A   1      43.131  32.813  33.490  1.00  0.00     0.012 A 
ATOM     56  C   UNL A   1      42.085  31.433  35.198  1.00  0.00     0.148 A 
ATOM     57  C   UNL A   1      43.097  33.915  34.345  1.00  0.00     0.002 A 
ATOM     58  C   UNL A   1      42.009  32.547  36.027  1.00  0.00     0.091 A 
ATOM     59  F   UNL A   1      41.648  30.228  35.591  1.00  0.00    -0.205 F 
ATOM     60  C   UNL A   1      42.526  33.783  35.607  1.00  0.00     0.022 A 
BRANCH  58  61
ATOM     61  S   UNL A   1      41.218  32.504  37.638  1.00  0.00     0.127 S 
ATOM     62  O   UNL A   1      41.275  33.911  38.033  1.00  0.00    -0.237 OA
ATOM     63  O   UNL A   1      39.878  32.018  37.307  1.00  0.00    -0.237 OA
ATOM     64  O   UNL A   1      42.010  31.595  38.454  1.00  0.00    -0.744 OA
ENDBRANCH  58  61
ENDBRANCH  40  54
BRANCH  41  65
ATOM     65  C   UNL A   1      42.696  24.180  27.166  1.00  0.00     0.023 A 
ATOM     66  C   UNL A   1      43.396  24.394  25.962  1.00  0.00     0.012 A 
ATOM     67  C   UNL A   1      42.059  22.942  27.378  1.00  0.00     0.148 A 
ATOM     68  C   UNL A   1      43.429  23.410  24.973  1.00  0.00     0.002 A 
ATOM     69  C   UNL A   1      42.143  21.945  26.413  1.00  0.00     0.091 A 
ATOM     70  F   UNL A   1      41.392  22.760  28.527  1.00  0.00    -0.205 F 
ATOM     71  C   UNL A   1      42.811  22.183  25.202  1.00  0.00     0.022 A 
BRANCH  69  72
ATOM     72  S   UNL A   1      41.493  20.292  26.677  1.00  0.00     0.127 S 
ATOM     73  O   UNL A   1      41.900  19.612  25.449  1.00  0.00    -0.237 OA
ATOM     74  O   UNL A   1      42.210  19.874  27.881  1.00  0.00    -0.237 OA
ATOM     75  O   UNL A   1      40.058  20.458  26.860  1.00  0.00    -0.744 OA
ENDBRANCH  69  72
ENDBRANCH  41  65
BRANCH  53  76
ATOM     76  C   UNL A   1      46.905  25.919  32.455  1.00  0.00     0.023 A 
ATOM     77  C   UNL A   1      48.158  26.345  31.970  1.00  0.00     0.012 A 
ATOM     78  C   UNL A   1      46.852  24.960  33.485  1.00  0.00     0.148 A 
ATOM     79  C   UNL A   1      49.336  25.793  32.473  1.00  0.00     0.002 A 
ATOM     80  C   UNL A   1      48.031  24.457  34.021  1.00  0.00     0.091 A 
ATOM     81  F   UNL A   1      45.651  24.554  33.922  1.00  0.00    -0.205 F 
ATOM     82  C   UNL A   1      49.274  24.860  33.505  1.00  0.00     0.022 A 
BRANCH  80  83
ATOM     83  S   UNL A   1      48.048  23.327  35.417  1.00  0.00     0.127 S 
ATOM     84  O   UNL A   1      49.482  23.120  35.615  1.00  0.00    -0.237 OA
ATOM     85  O   UNL A   1      47.395  24.117  36.462  1.00  0.00    -0.237 OA
ATOM     86  O   UNL A   1      47.299  22.153  34.992  1.00  0.00    -0.744 OA
ENDBRANCH  80  83
ENDBRANCH  53  76
ENDBRANCH  27  28
ENDBRANCH  19  22
ENDBRANCH   1  18
TORSDOF 14
ENDMDL
MODEL 3
REMARK VINA RESULT:     -10.8      3.401      5.593
REMARK SMILES C[C@@H](NC1=[NH+]CCC1)C(=O)NCCCNC(=O)c1ccc(-c2c3nc(c(-c4cccc(S(=O)(=O)[O-])c4F)c4ccc([nH]4)c(-c4cccc(S(=O)(=O)[O-])c4F)c4nc(c(-c5cccc(S(=O)(=O)[O-])c5F)c5ccc2[nH]5)C=C4)C=C3)cc1
REMARK SMILES IDX 14 1 13 2 12 3 11 4 9 5 10 6 2 8 1 9 3 10 4 11 5 13 8 14
REMARK SMILES IDX 6 15 7 17 15 18 16 19 17 21 18 22 19 23 80 24 20 25 79 26
REMARK SMILES IDX 21 27 22 28 23 29 73 30 24 31 78 32 72 33 74 34 25 35 77 36
REMARK SMILES IDX 71 37 70 38 26 40 58 41 38 42 57 43 39 44 42 45 56 46 75 47
REMARK SMILES IDX 40 48 41 49 55 51 76 52 43 53 27 54 28 55 36 56 29 57 31 58
REMARK SMILES IDX 37 59 30 60 32 61 33 62 34 63 35 64 59 65 60 66 68 67 61 68
REMARK SMILES IDX 63 69 69 70 62 71 64 72 65 73 66 74 67 75 44 76 45 77 53 78
REMARK SMILES IDX 46 79 48 80 54 81 47 82 49 83 50 84 51 85 52 86
REMARK H PARENT 11 7 3 12 5 16 15 20 74 39 42 50
REMARK Flexibility Score: inf
ROOT
ATOM      1  C   UNL A   1      32.824  29.468  25.623  1.00  0.00     0.118 C 
ENDROOT
BRANCH   1   2
ATOM      2  C   UNL A   1      31.969  28.384  26.257  1.00  0.00     0.042 C 
BRANCH   2   3
ATOM      3  C   UNL A   1      32.541  26.993  26.076  1.00  0.00     0.118 C 
BRANCH   3   4
ATOM      4  N   UNL A   1      31.763  25.988  26.783  1.00  0.00    -0.352 N 
ATOM      5  C   UNL A   1      31.138  24.874  26.305  1.00  0.00     0.264 C 
ATOM      6  O   UNL A   1      30.564  24.146  27.122  1.00  0.00    -0.270 OA
ATOM      7  H   UNL A   1      31.675  26.134  27.753  1.00  0.00     0.163 HD
BRANCH   5   8
ATOM      8  C   UNL A   1      31.131  24.531  24.806  1.00  0.00     0.258 C 
ATOM      9  C   UNL A   1      31.452  23.044  24.634  1.00  0.00     0.069 C 
BRANCH   8  10
ATOM     10  N   UNL A   1      29.880  24.867  24.119  1.00  0.00    -0.267 N 
ATOM     11  C   UNL A   1      29.501  26.091  23.654  1.00  0.00     0.243 C 
ATOM     12  H   UNL A   1      29.245  24.128  23.979  1.00  0.00     0.305 HD
ATOM     13  N   UNL A   1      28.256  26.456  23.762  1.00  0.00    -0.279 N 
ATOM     14  C   UNL A   1      30.416  27.100  23.018  1.00  0.00     0.131 C 
ATOM     15  C   UNL A   1      28.207  27.866  23.327  1.00  0.00     0.234 C 
ATOM     16  H   UNL A   1      27.500  25.904  24.070  1.00  0.00     0.304 HD
ATOM     17  C   UNL A   1      29.646  28.355  23.353  1.00  0.00     0.058 C 
ENDBRANCH   8  10
ENDBRANCH   5   8
ENDBRANCH   3   4
ENDBRANCH   2   3
ENDBRANCH   1   2
BRANCH   1  18
ATOM     18  N   UNL A   1      32.482  30.807  26.089  1.00  0.00    -0.352 N 
ATOM     19  C   UNL A   1      33.094  31.575  27.050  1.00  0.00     0.251 C 
ATOM     20  H   UNL A   1      31.701  31.220  25.653  1.00  0.00     0.163 HD
ATOM     21  O   UNL A   1      32.567  32.618  27.430  1.00  0.00    -0.269 OA
BRANCH  19  22
ATOM     22  C   UNL A   1      34.374  31.128  27.633  1.00  0.00     0.039 A 
ATOM     23  C   UNL A   1      35.391  32.063  27.837  1.00  0.00     0.014 A 
ATOM     24  C   UNL A   1      34.558  29.794  28.004  1.00  0.00     0.014 A 
ATOM     25  C   UNL A   1      36.570  31.666  28.468  1.00  0.00     0.010 A 
ATOM     26  C   UNL A   1      35.685  29.428  28.728  1.00  0.00     0.010 A 
ATOM     27  C   UNL A   1      36.712  30.355  28.951  1.00  0.00    -0.014 A 
BRANCH  27  28
ATOM     28  C   UNL A   1      37.932  29.929  29.681  1.00  0.00     0.031 A 
ATOM     29  C   UNL A   1      38.199  30.443  31.071  1.00  0.00     0.074 A 
ATOM     30  C   UNL A   1      38.835  29.140  29.066  1.00  0.00     0.049 A 
ATOM     31  N   UNL A   1      39.221  30.213  31.852  1.00  0.00    -0.248 NA
ATOM     32  C   UNL A   1      37.202  31.364  31.648  1.00  0.00     0.031 C 
ATOM     33  C   UNL A   1      38.733  28.648  27.689  1.00  0.00     0.029 A 
ATOM     34  N   UNL A   1      40.027  28.630  29.511  1.00  0.00    -0.354 N 
ATOM     35  C   UNL A   1      39.010  30.982  32.990  1.00  0.00     0.074 A 
ATOM     36  C   UNL A   1      37.787  31.723  32.780  1.00  0.00     0.031 C 
ATOM     37  C   UNL A   1      39.808  27.896  27.410  1.00  0.00     0.029 A 
ATOM     38  C   UNL A   1      40.693  27.877  28.570  1.00  0.00     0.049 A 
ATOM     39  H   UNL A   1      40.376  28.787  30.419  1.00  0.00     0.167 HD
ATOM     40  C   UNL A   1      39.749  31.044  34.123  1.00  0.00     0.034 A 
ATOM     41  C   UNL A   1      41.882  27.249  28.635  1.00  0.00     0.034 A 
ATOM     42  C   UNL A   1      40.944  30.275  34.343  1.00  0.00     0.049 A 
ATOM     43  C   UNL A   1      42.660  27.296  29.922  1.00  0.00     0.074 A 
ATOM     44  C   UNL A   1      41.719  30.198  35.485  1.00  0.00     0.029 A 
ATOM     45  N   UNL A   1      41.543  29.457  33.397  1.00  0.00    -0.354 N 
ATOM     46  N   UNL A   1      42.365  27.904  31.045  1.00  0.00    -0.248 NA
ATOM     47  C   UNL A   1      43.919  26.538  29.962  1.00  0.00     0.031 C 
ATOM     48  C   UNL A   1      42.805  29.357  35.219  1.00  0.00     0.029 A 
ATOM     49  C   UNL A   1      42.683  28.879  33.925  1.00  0.00     0.049 A 
ATOM     50  H   UNL A   1      41.206  29.310  32.484  1.00  0.00     0.167 HD
ATOM     51  C   UNL A   1      43.376  27.570  31.938  1.00  0.00     0.074 A 
ATOM     52  C   UNL A   1      44.281  26.687  31.229  1.00  0.00     0.031 C 
ATOM     53  C   UNL A   1      43.548  27.964  33.223  1.00  0.00     0.034 A 
BRANCH  40  54
ATOM     54  C   UNL A   1      39.259  31.940  35.231  1.00  0.00     0.023 A 
ATOM     55  C   UNL A   1      38.300  31.460  36.146  1.00  0.00     0.012 A 
ATOM     56  C   UNL A   1      39.783  33.236  35.398  1.00  0.00     0.148 A 
ATOM     57  C   UNL A   1      37.840  32.268  37.186  1.00  0.00     0.002 A 
ATOM     58  C   UNL A   1      39.357  34.018  36.467  1.00  0.00     0.091 A 
ATOM     59  F   UNL A   1      40.678  33.685  34.507  1.00  0.00    -0.205 F 
ATOM     60  C   UNL A   1      38.378  33.541  37.352  1.00  0.00     0.022 A 
BRANCH  58  61
ATOM     61  S   UNL A   1      40.048  35.638  36.818  1.00  0.00     0.127 S 
ATOM     62  O   UNL A   1      39.613  36.403  35.650  1.00  0.00    -0.237 OA
ATOM     63  O   UNL A   1      39.373  35.994  38.066  1.00  0.00    -0.237 OA
ATOM     64  O   UNL A   1      41.487  35.447  36.938  1.00  0.00    -0.744 OA
ENDBRANCH  58  61
ENDBRANCH  40  54
BRANCH  41  65
ATOM     65  C   UNL A   1      42.376  26.465  27.468  1.00  0.00     0.023 A 
ATOM     66  C   UNL A   1      43.173  27.097  26.493  1.00  0.00     0.012 A 
ATOM     67  C   UNL A   1      42.078  25.095  27.327  1.00  0.00     0.148 A 
ATOM     68  C   UNL A   1      43.631  26.391  25.381  1.00  0.00     0.002 A 
ATOM     69  C   UNL A   1      42.585  24.384  26.247  1.00  0.00     0.091 A 
ATOM     70  F   UNL A   1      41.313  24.514  28.262  1.00  0.00    -0.205 F 
ATOM     71  C   UNL A   1      43.345  25.034  25.261  1.00  0.00     0.022 A 
BRANCH  69  72
ATOM     72  S   UNL A   1      42.380  22.608  26.081  1.00  0.00     0.127 S 
ATOM     73  O   UNL A   1      43.067  22.344  24.819  1.00  0.00    -0.237 OA
ATOM     74  O   UNL A   1      43.069  22.112  27.274  1.00  0.00    -0.237 OA
ATOM     75  O   UNL A   1      40.943  22.375  26.079  1.00  0.00    -0.744 OA
ENDBRANCH  69  72
ENDBRANCH  41  65
BRANCH  53  76
ATOM     76  C   UNL A   1      44.733  27.410  33.969  1.00  0.00     0.023 A 
ATOM     77  C   UNL A   1      45.963  28.099  33.958  1.00  0.00     0.012 A 
ATOM     78  C   UNL A   1      44.608  26.231  34.731  1.00  0.00     0.148 A 
ATOM     79  C   UNL A   1      47.061  27.598  34.656  1.00  0.00     0.002 A 
ATOM     80  C   UNL A   1      45.690  25.770  35.470  1.00  0.00     0.091 A 
ATOM     81  F   UNL A   1      43.436  25.580  34.716  1.00  0.00    -0.205 F 
ATOM     82  C   UNL A   1      46.922  26.443  35.421  1.00  0.00     0.022 A 
BRANCH  80  83
ATOM     83  S   UNL A   1      45.574  24.347  36.560  1.00  0.00     0.127 S 
ATOM     84  O   UNL A   1      44.556  24.785  37.513  1.00  0.00    -0.237 OA
ATOM     85  O   UNL A   1      45.141  23.290  35.646  1.00  0.00    -0.237 OA
ATOM     86  O   UNL A   1      46.908  24.156  37.113  1.00  0.00    -0.744 OA
ENDBRANCH  80  83
ENDBRANCH  53  76
ENDBRANCH  27  28
ENDBRANCH  19  22
ENDBRANCH   1  18
TORSDOF 14
ENDMDL
