MODEL 1
REMARK VINA RESULT:     -13.5      0.000      0.000
REMARK SMILES O=C(NCCCNC(=O)[C@H]1CC2(CCN(C(=O)C3CC3)CC2)CN1C(=O)CCn1cccn1)c1ccc(-c2c3nc(c(-c4cccc(S(=O)(=O)[O-])c4F)c4ccc([nH]4)c(-c4cccc(S(=O)(=O)[O-])c4F)c4nc(c(-c5cccc(S(=O)(=O)[O-])c5F)c5ccc2[nH]5)C=C4)C=C3)cc1
REMARK SMILES IDX 5 1 4 2 3 3 1 4 2 5 34 7 35 8 96 9 36 10 95 11 37 12 38 13
REMARK SMILES IDX 39 14 89 15 40 16 94 17 88 18 90 19 41 20 93 21 87 22 86 23
REMARK SMILES IDX 42 25 74 26 54 27 73 28 55 29 58 30 72 31 91 32 56 33 57 34
REMARK SMILES IDX 71 36 92 37 59 38 43 39 44 40 52 41 45 42 47 43 53 44 46 45
REMARK SMILES IDX 48 46 49 47 50 48 51 49 75 50 76 51 84 52 77 53 79 54 85 55
REMARK SMILES IDX 78 56 80 57 81 58 82 59 83 60 60 61 61 62 69 63 62 64 64 65
REMARK SMILES IDX 70 66 63 67 65 68 66 69 67 70 68 71 6 72 7 73 8 74 9 76
REMARK SMILES IDX 10 77 11 78 24 79 12 80 23 81 13 82 22 83 14 84 21 85 15 86
REMARK SMILES IDX 16 87 17 88 25 89 26 90 27 91 28 92 29 93 30 94 33 95 31 96
REMARK SMILES IDX 32 97 18 98 19 99 20 100
REMARK H PARENT 3 6 90 24 58 35 7 75
REMARK Flexibility Score: inf
ROOT
ATOM      1  C   UNL A   1      32.519  29.675  26.993  1.00  0.00     0.042 C 
ENDROOT
BRANCH   1   2
ATOM      2  C   UNL A   1      33.918  30.314  27.064  1.00  0.00     0.118 C 
BRANCH   2   3
ATOM      3  N   UNL A   1      34.299  30.929  28.320  1.00  0.00    -0.352 N 
ATOM      4  O   UNL A   1      35.236  32.914  28.832  1.00  0.00    -0.269 OA
ATOM      5  C   UNL A   1      35.390  31.749  28.463  1.00  0.00     0.251 C 
ATOM      6  H   UNL A   1      33.746  30.749  29.114  1.00  0.00     0.163 HD
BRANCH   5   7
ATOM      7  C   UNL A   1      36.709  31.101  28.463  1.00  0.00     0.039 A 
ATOM      8  C   UNL A   1      36.861  29.759  28.112  1.00  0.00     0.014 A 
ATOM      9  C   UNL A   1      37.765  31.823  29.032  1.00  0.00     0.014 A 
ATOM     10  C   UNL A   1      38.013  29.100  28.455  1.00  0.00     0.010 A 
ATOM     11  C   UNL A   1      38.940  31.169  29.353  1.00  0.00     0.010 A 
ATOM     12  C   UNL A   1      39.029  29.801  29.105  1.00  0.00    -0.014 A 
BRANCH  12  13
ATOM     13  C   UNL A   1      40.255  29.059  29.314  1.00  0.00     0.031 A 
ATOM     14  C   UNL A   1      40.501  28.769  30.753  1.00  0.00     0.074 A 
ATOM     15  C   UNL A   1      41.037  28.647  28.301  1.00  0.00     0.049 A 
ATOM     16  N   UNL A   1      41.469  29.194  31.499  1.00  0.00    -0.248 NA
ATOM     17  C   UNL A   1      39.417  28.107  31.499  1.00  0.00     0.031 C 
ATOM     18  C   UNL A   1      40.733  28.663  26.869  1.00  0.00     0.029 A 
ATOM     19  N   UNL A   1      42.219  27.980  28.362  1.00  0.00    -0.354 N 
ATOM     20  C   UNL A   1      41.233  28.642  32.758  1.00  0.00     0.074 A 
ATOM     21  C   UNL A   1      39.872  28.182  32.748  1.00  0.00     0.031 C 
ATOM     22  C   UNL A   1      41.556  27.795  26.241  1.00  0.00     0.029 A 
ATOM     23  C   UNL A   1      42.512  27.273  27.202  1.00  0.00     0.049 A 
ATOM     24  H   UNL A   1      42.809  27.995  29.150  1.00  0.00     0.167 HD
ATOM     25  C   UNL A   1      42.260  28.358  33.605  1.00  0.00     0.034 A 
ATOM     26  C   UNL A   1      43.395  26.250  27.091  1.00  0.00     0.034 A 
ATOM     27  C   UNL A   1      43.434  29.120  33.264  1.00  0.00     0.049 A 
ATOM     28  C   UNL A   1      44.311  26.322  28.254  1.00  0.00     0.074 A 
ATOM     29  C   UNL A   1      43.743  30.464  33.183  1.00  0.00     0.029 A 
ATOM     30  N   UNL A   1      44.424  28.463  32.574  1.00  0.00    -0.354 N 
ATOM     31  N   UNL A   1      45.161  27.291  28.440  1.00  0.00    -0.248 NA
ATOM     32  C   UNL A   1      43.967  25.551  29.439  1.00  0.00     0.031 C 
ATOM     33  C   UNL A   1      44.624  30.571  32.066  1.00  0.00     0.029 A 
ATOM     34  C   UNL A   1      44.848  29.286  31.570  1.00  0.00     0.049 A 
ATOM     35  H   UNL A   1      44.764  27.560  32.768  1.00  0.00     0.167 HD
ATOM     36  C   UNL A   1      45.098  27.546  29.804  1.00  0.00     0.074 A 
ATOM     37  C   UNL A   1      44.431  26.379  30.379  1.00  0.00     0.031 C 
ATOM     38  C   UNL A   1      45.323  28.801  30.294  1.00  0.00     0.034 A 
BRANCH  25  39
ATOM     39  C   UNL A   1      42.357  27.080  34.425  1.00  0.00     0.023 A 
ATOM     40  C   UNL A   1      41.949  27.165  35.777  1.00  0.00     0.012 A 
ATOM     41  C   UNL A   1      43.100  25.931  34.061  1.00  0.00     0.148 A 
ATOM     42  C   UNL A   1      42.368  26.234  36.734  1.00  0.00     0.002 A 
ATOM     43  C   UNL A   1      43.467  24.979  35.005  1.00  0.00     0.091 A 
ATOM     44  F   UNL A   1      43.560  25.782  32.820  1.00  0.00    -0.205 F 
ATOM     45  C   UNL A   1      43.139  25.146  36.349  1.00  0.00     0.022 A 
BRANCH  43  46
ATOM     46  S   UNL A   1      44.444  23.537  34.555  1.00  0.00     0.127 S 
ATOM     47  O   UNL A   1      45.658  24.162  34.038  1.00  0.00    -0.237 OA
ATOM     48  O   UNL A   1      44.591  22.866  35.846  1.00  0.00    -0.237 OA
ATOM     49  O   UNL A   1      43.644  22.800  33.587  1.00  0.00    -0.744 OA
ENDBRANCH  43  46
ENDBRANCH  25  39
BRANCH  26  50
ATOM     50  C   UNL A   1      43.305  25.037  26.245  1.00  0.00     0.023 A 
ATOM     51  C   UNL A   1      44.273  24.807  25.249  1.00  0.00     0.012 A 
ATOM     52  C   UNL A   1      42.439  23.974  26.593  1.00  0.00     0.148 A 
ATOM     53  C   UNL A   1      44.391  23.554  24.635  1.00  0.00     0.002 A 
ATOM     54  C   UNL A   1      42.553  22.735  25.971  1.00  0.00     0.091 A 
ATOM     55  F   UNL A   1      41.572  24.150  27.597  1.00  0.00    -0.205 F 
ATOM     56  C   UNL A   1      43.535  22.517  25.000  1.00  0.00     0.022 A 
BRANCH  54  57
ATOM     57  S   UNL A   1      41.490  21.352  26.412  1.00  0.00     0.127 S 
ATOM     58  O   UNL A   1      42.066  20.266  25.608  1.00  0.00    -0.237 OA
ATOM     59  O   UNL A   1      41.740  21.233  27.854  1.00  0.00    -0.237 OA
ATOM     60  O   UNL A   1      40.150  21.734  26.032  1.00  0.00    -0.744 OA
ENDBRANCH  54  57
ENDBRANCH  26  50
BRANCH  38  61
ATOM     61  C   UNL A   1      45.887  29.839  29.357  1.00  0.00     0.023 A 
ATOM     62  C   UNL A   1      47.271  29.982  29.128  1.00  0.00     0.012 A 
ATOM     63  C   UNL A   1      44.986  30.563  28.561  1.00  0.00     0.148 A 
ATOM     64  C   UNL A   1      47.746  30.848  28.139  1.00  0.00     0.002 A 
ATOM     65  C   UNL A   1      45.459  31.384  27.547  1.00  0.00     0.091 A 
ATOM     66  F   UNL A   1      43.673  30.409  28.791  1.00  0.00    -0.205 F 
ATOM     67  C   UNL A   1      46.838  31.539  27.339  1.00  0.00     0.022 A 
BRANCH  65  68
ATOM     68  S   UNL A   1      44.340  32.188  26.398  1.00  0.00     0.127 S 
ATOM     69  O   UNL A   1      43.436  31.098  26.041  1.00  0.00    -0.237 OA
ATOM     70  O   UNL A   1      43.742  33.237  27.227  1.00  0.00    -0.237 OA
ATOM     71  O   UNL A   1      45.175  32.694  25.315  1.00  0.00    -0.744 OA
ENDBRANCH  65  68
ENDBRANCH  38  61
ENDBRANCH  12  13
ENDBRANCH   5   7
ENDBRANCH   2   3
ENDBRANCH   1   2
BRANCH   1  72
ATOM     72  C   UNL A   1      32.337  28.280  27.593  1.00  0.00     0.117 C 
BRANCH  72  73
ATOM     73  N   UNL A   1      31.551  27.372  26.741  1.00  0.00    -0.354 N 
ATOM     74  C   UNL A   1      31.840  26.531  25.701  1.00  0.00     0.242 C 
ATOM     75  H   UNL A   1      30.595  27.370  26.974  1.00  0.00     0.163 HD
ATOM     76  O   UNL A   1      30.930  25.854  25.207  1.00  0.00    -0.273 OA
BRANCH  74  77
ATOM     77  C   UNL A   1      33.116  26.591  24.923  1.00  0.00     0.175 C 
ATOM     78  C   UNL A   1      33.470  25.123  24.930  1.00  0.00     0.044 C 
ATOM     79  N   UNL A   1      32.993  27.030  23.587  1.00  0.00    -0.330 N 
ATOM     80  C   UNL A   1      33.490  24.609  23.496  1.00  0.00    -0.006 C 
ATOM     81  C   UNL A   1      33.360  25.928  22.640  1.00  0.00     0.127 C 
ATOM     82  C   UNL A   1      32.337  23.605  23.214  1.00  0.00     0.030 C 
ATOM     83  C   UNL A   1      34.789  23.775  23.398  1.00  0.00     0.030 C 
ATOM     84  C   UNL A   1      32.316  22.392  24.162  1.00  0.00     0.120 C 
ATOM     85  C   UNL A   1      34.767  22.594  24.410  1.00  0.00     0.120 C 
ATOM     86  N   UNL A   1      33.607  21.714  24.241  1.00  0.00    -0.342 N 
ATOM     87  C   UNL A   1      33.810  20.356  24.530  1.00  0.00     0.225 C 
ATOM     88  O   UNL A   1      34.894  19.967  24.978  1.00  0.00    -0.275 OA
BRANCH  79  89
ATOM     89  C   UNL A   1      32.624  28.350  23.331  1.00  0.00     0.225 C 
ATOM     90  O   UNL A   1      33.415  29.265  23.574  1.00  0.00    -0.275 OA
BRANCH  89  91
ATOM     91  C   UNL A   1      31.166  28.698  22.720  1.00  0.00     0.124 C 
BRANCH  91  92
ATOM     92  C   UNL A   1      30.002  29.565  23.366  1.00  0.00     0.154 C 
BRANCH  92  93
ATOM     93  N   UNL A   1      29.157  30.504  22.616  1.00  0.00    -0.272 N 
ATOM     94  C   UNL A   1      28.630  31.710  23.041  1.00  0.00     0.108 A 
ATOM     95  N   UNL A   1      28.742  30.221  21.361  1.00  0.00    -0.182 NA
ATOM     96  C   UNL A   1      28.173  32.368  21.926  1.00  0.00     0.042 A 
ATOM     97  C   UNL A   1      28.217  31.380  20.933  1.00  0.00     0.135 A 
ENDBRANCH  92  93
ENDBRANCH  91  92
ENDBRANCH  89  91
ENDBRANCH  79  89
BRANCH  87  98
ATOM     98  C   UNL A   1      32.815  19.273  24.261  1.00  0.00     0.079 C 
ATOM     99  C   UNL A   1      33.060  17.851  23.847  1.00  0.00     0.014 C 
ATOM    100  C   UNL A   1      32.538  18.155  25.229  1.00  0.00     0.014 C 
ENDBRANCH  87  98
ENDBRANCH  74  77
ENDBRANCH  72  73
ENDBRANCH   1  72
TORSDOF 18
ENDMDL
MODEL 2
REMARK VINA RESULT:     -12.9      1.772      2.232
REMARK SMILES O=C(NCCCNC(=O)[C@H]1CC2(CCN(C(=O)C3CC3)CC2)CN1C(=O)CCn1cccn1)c1ccc(-c2c3nc(c(-c4cccc(S(=O)(=O)[O-])c4F)c4ccc([nH]4)c(-c4cccc(S(=O)(=O)[O-])c4F)c4nc(c(-c5cccc(S(=O)(=O)[O-])c5F)c5ccc2[nH]5)C=C4)C=C3)cc1
REMARK SMILES IDX 5 1 4 2 3 3 1 4 2 5 34 7 35 8 96 9 36 10 95 11 37 12 38 13
REMARK SMILES IDX 39 14 89 15 40 16 94 17 88 18 90 19 41 20 93 21 87 22 86 23
REMARK SMILES IDX 42 25 74 26 54 27 73 28 55 29 58 30 72 31 91 32 56 33 57 34
REMARK SMILES IDX 71 36 92 37 59 38 43 39 44 40 52 41 45 42 47 43 53 44 46 45
REMARK SMILES IDX 48 46 49 47 50 48 51 49 75 50 76 51 84 52 77 53 79 54 85 55
REMARK SMILES IDX 78 56 80 57 81 58 82 59 83 60 60 61 61 62 69 63 62 64 64 65
REMARK SMILES IDX 70 66 63 67 65 68 66 69 67 70 68 71 6 72 7 73 8 74 9 76
REMARK SMILES IDX 10 77 11 78 24 79 12 80 23 81 13 82 22 83 14 84 21 85 15 86
REMARK SMILES IDX 16 87 17 88 25 89 26 90 27 91 28 92 29 93 30 94 33 95 31 96
REMARK SMILES IDX 32 97 18 98 19 99 20 100
REMARK H PARENT 3 6 90 24 58 35 7 75
REMARK Flexibility Score: inf
ROOT
ATOM      1  C   UNL A   1      33.206  28.455  27.044  1.00  0.00     0.042 C 
ENDROOT
BRANCH   1   2
ATOM      2  C   UNL A   1      33.635  29.908  26.770  1.00  0.00     0.118 C 
BRANCH   2   3
ATOM      3  N   UNL A   1      33.626  30.823  27.895  1.00  0.00    -0.352 N 
ATOM      4  O   UNL A   1      34.386  32.927  28.165  1.00  0.00    -0.269 OA
ATOM      5  C   UNL A   1      34.631  31.720  28.152  1.00  0.00     0.251 C 
ATOM      6  H   UNL A   1      32.856  30.799  28.508  1.00  0.00     0.163 HD
BRANCH   5   7
ATOM      7  C   UNL A   1      35.881  31.174  28.698  1.00  0.00     0.039 A 
ATOM      8  C   UNL A   1      37.019  31.967  28.848  1.00  0.00     0.014 A 
ATOM      9  C   UNL A   1      35.943  29.784  28.858  1.00  0.00     0.014 A 
ATOM     10  C   UNL A   1      38.240  31.367  29.016  1.00  0.00     0.010 A 
ATOM     11  C   UNL A   1      37.169  29.177  29.058  1.00  0.00     0.010 A 
ATOM     12  C   UNL A   1      38.311  29.976  29.084  1.00  0.00    -0.014 A 
BRANCH  12  13
ATOM     13  C   UNL A   1      39.620  29.438  29.390  1.00  0.00     0.031 A 
ATOM     14  C   UNL A   1      40.007  29.668  30.809  1.00  0.00     0.074 A 
ATOM     15  C   UNL A   1      40.358  28.767  28.489  1.00  0.00     0.049 A 
ATOM     16  N   UNL A   1      40.981  30.388  31.264  1.00  0.00    -0.248 NA
ATOM     17  C   UNL A   1      39.061  29.219  31.844  1.00  0.00     0.031 C 
ATOM     18  C   UNL A   1      39.943  28.280  27.173  1.00  0.00     0.029 A 
ATOM     19  N   UNL A   1      41.605  28.247  28.636  1.00  0.00    -0.354 N 
ATOM     20  C   UNL A   1      40.903  30.275  32.652  1.00  0.00     0.074 A 
ATOM     21  C   UNL A   1      39.602  29.742  32.942  1.00  0.00     0.031 C 
ATOM     22  C   UNL A   1      40.800  27.313  26.778  1.00  0.00     0.029 A 
ATOM     23  C   UNL A   1      41.878  27.214  27.747  1.00  0.00     0.049 A 
ATOM     24  H   UNL A   1      42.250  28.569  29.306  1.00  0.00     0.167 HD
ATOM     25  C   UNL A   1      42.018  30.367  33.428  1.00  0.00     0.034 A 
ATOM     26  C   UNL A   1      42.851  26.280  27.882  1.00  0.00     0.034 A 
ATOM     27  C   UNL A   1      43.076  31.054  32.731  1.00  0.00     0.049 A 
ATOM     28  C   UNL A   1      43.843  26.806  28.850  1.00  0.00     0.074 A 
ATOM     29  C   UNL A   1      43.235  32.310  32.181  1.00  0.00     0.029 A 
ATOM     30  N   UNL A   1      44.071  30.277  32.190  1.00  0.00    -0.354 N 
ATOM     31  N   UNL A   1      44.600  27.839  28.614  1.00  0.00    -0.248 NA
ATOM     32  C   UNL A   1      43.676  26.455  30.251  1.00  0.00     0.031 C 
ATOM     33  C   UNL A   1      44.010  32.099  31.002  1.00  0.00     0.029 A 
ATOM     34  C   UNL A   1      44.327  30.742  30.933  1.00  0.00     0.049 A 
ATOM     35  H   UNL A   1      44.519  29.518  32.631  1.00  0.00     0.167 HD
ATOM     36  C   UNL A   1      44.618  28.533  29.817  1.00  0.00     0.074 A 
ATOM     37  C   UNL A   1      44.124  27.582  30.812  1.00  0.00     0.031 C 
ATOM     38  C   UNL A   1      44.749  29.892  29.842  1.00  0.00     0.034 A 
BRANCH  25  39
ATOM     39  C   UNL A   1      42.313  29.450  34.606  1.00  0.00     0.023 A 
ATOM     40  C   UNL A   1      42.875  30.057  35.754  1.00  0.00     0.012 A 
ATOM     41  C   UNL A   1      42.376  28.037  34.544  1.00  0.00     0.148 A 
ATOM     42  C   UNL A   1      43.574  29.316  36.713  1.00  0.00     0.002 A 
ATOM     43  C   UNL A   1      43.024  27.300  35.528  1.00  0.00     0.091 A 
ATOM     44  F   UNL A   1      41.908  27.380  33.484  1.00  0.00    -0.205 F 
ATOM     45  C   UNL A   1      43.660  27.936  36.593  1.00  0.00     0.022 A 
BRANCH  43  46
ATOM     46  S   UNL A   1      43.141  25.507  35.435  1.00  0.00     0.127 S 
ATOM     47  O   UNL A   1      41.734  25.133  35.313  1.00  0.00    -0.237 OA
ATOM     48  O   UNL A   1      43.939  25.326  34.222  1.00  0.00    -0.237 OA
ATOM     49  O   UNL A   1      43.809  25.087  36.658  1.00  0.00    -0.744 OA
ENDBRANCH  43  46
ENDBRANCH  25  39
BRANCH  26  50
ATOM     50  C   UNL A   1      42.822  24.850  27.495  1.00  0.00     0.023 A 
ATOM     51  C   UNL A   1      41.663  24.086  27.730  1.00  0.00     0.012 A 
ATOM     52  C   UNL A   1      43.819  24.309  26.651  1.00  0.00     0.148 A 
ATOM     53  C   UNL A   1      41.491  22.835  27.126  1.00  0.00     0.002 A 
ATOM     54  C   UNL A   1      43.648  23.059  26.063  1.00  0.00     0.091 A 
ATOM     55  F   UNL A   1      44.886  25.058  26.348  1.00  0.00    -0.205 F 
ATOM     56  C   UNL A   1      42.480  22.324  26.290  1.00  0.00     0.022 A 
BRANCH  54  57
ATOM     57  S   UNL A   1      44.881  22.354  24.959  1.00  0.00     0.127 S 
ATOM     58  O   UNL A   1      44.224  21.111  24.536  1.00  0.00    -0.237 OA
ATOM     59  O   UNL A   1      44.963  23.380  23.912  1.00  0.00    -0.237 OA
ATOM     60  O   UNL A   1      46.073  22.164  25.752  1.00  0.00    -0.744 OA
ENDBRANCH  54  57
ENDBRANCH  26  50
BRANCH  38  61
ATOM     61  C   UNL A   1      45.125  30.593  28.561  1.00  0.00     0.023 A 
ATOM     62  C   UNL A   1      44.163  31.111  27.670  1.00  0.00     0.012 A 
ATOM     63  C   UNL A   1      46.480  30.886  28.347  1.00  0.00     0.148 A 
ATOM     64  C   UNL A   1      44.550  31.889  26.575  1.00  0.00     0.002 A 
ATOM     65  C   UNL A   1      46.857  31.700  27.288  1.00  0.00     0.091 A 
ATOM     66  F   UNL A   1      47.380  30.389  29.210  1.00  0.00    -0.205 F 
ATOM     67  C   UNL A   1      45.897  32.195  26.392  1.00  0.00     0.022 A 
BRANCH  65  68
ATOM     68  S   UNL A   1      48.555  32.241  27.083  1.00  0.00     0.127 S 
ATOM     69  O   UNL A   1      49.236  30.990  26.758  1.00  0.00    -0.237 OA
ATOM     70  O   UNL A   1      48.450  33.189  25.973  1.00  0.00    -0.237 OA
ATOM     71  O   UNL A   1      48.936  32.852  28.351  1.00  0.00    -0.744 OA
ENDBRANCH  65  68
ENDBRANCH  38  61
ENDBRANCH  12  13
ENDBRANCH   5   7
ENDBRANCH   2   3
ENDBRANCH   1   2
BRANCH   1  72
ATOM     72  C   UNL A   1      31.798  28.214  27.588  1.00  0.00     0.117 C 
BRANCH  72  73
ATOM     73  N   UNL A   1      31.145  27.023  27.021  1.00  0.00    -0.354 N 
ATOM     74  C   UNL A   1      31.499  26.073  26.102  1.00  0.00     0.242 C 
ATOM     75  H   UNL A   1      30.244  26.875  27.388  1.00  0.00     0.163 HD
ATOM     76  O   UNL A   1      30.714  25.147  25.864  1.00  0.00    -0.273 OA
BRANCH  74  77
ATOM     77  C   UNL A   1      32.639  26.235  25.146  1.00  0.00     0.175 C 
ATOM     78  C   UNL A   1      33.091  24.796  25.067  1.00  0.00     0.044 C 
ATOM     79  N   UNL A   1      32.288  26.680  23.854  1.00  0.00    -0.330 N 
ATOM     80  C   UNL A   1      32.934  24.303  23.635  1.00  0.00    -0.006 C 
ATOM     81  C   UNL A   1      32.587  25.620  22.838  1.00  0.00     0.127 C 
ATOM     82  C   UNL A   1      31.825  23.221  23.503  1.00  0.00     0.030 C 
ATOM     83  C   UNL A   1      34.259  23.566  23.328  1.00  0.00     0.030 C 
ATOM     84  C   UNL A   1      32.030  21.999  24.415  1.00  0.00     0.120 C 
ATOM     85  C   UNL A   1      34.471  22.375  24.304  1.00  0.00     0.120 C 
ATOM     86  N   UNL A   1      33.362  21.415  24.288  1.00  0.00    -0.342 N 
ATOM     87  C   UNL A   1      33.701  20.072  24.513  1.00  0.00     0.225 C 
ATOM     88  O   UNL A   1      34.863  19.757  24.787  1.00  0.00    -0.275 OA
BRANCH  79  89
ATOM     89  C   UNL A   1      31.794  27.973  23.685  1.00  0.00     0.225 C 
ATOM     90  O   UNL A   1      32.566  28.889  23.389  1.00  0.00    -0.275 OA
BRANCH  89  91
ATOM     91  C   UNL A   1      30.217  28.288  23.876  1.00  0.00     0.124 C 
BRANCH  91  92
ATOM     92  C   UNL A   1      29.120  28.564  22.762  1.00  0.00     0.154 C 
BRANCH  92  93
ATOM     93  N   UNL A   1      28.596  29.896  22.429  1.00  0.00    -0.272 N 
ATOM     94  C   UNL A   1      27.928  30.785  23.250  1.00  0.00     0.108 A 
ATOM     95  N   UNL A   1      28.683  30.384  21.171  1.00  0.00    -0.182 NA
ATOM     96  C   UNL A   1      27.906  31.996  22.604  1.00  0.00     0.042 A 
ATOM     97  C   UNL A   1      28.334  31.674  21.308  1.00  0.00     0.135 A 
ENDBRANCH  92  93
ENDBRANCH  91  92
ENDBRANCH  89  91
ENDBRANCH  79  89
BRANCH  87  98
ATOM     98  C   UNL A   1      32.755  18.923  24.368  1.00  0.00     0.079 C 
ATOM     99  C   UNL A   1      32.998  17.575  23.752  1.00  0.00     0.014 C 
ATOM    100  C   UNL A   1      32.808  17.700  25.244  1.00  0.00     0.014 C 
ENDBRANCH  87  98
ENDBRANCH  74  77
ENDBRANCH  72  73
ENDBRANCH   1  72
TORSDOF 18
ENDMDL
MODEL 3
REMARK VINA RESULT:     -12.9      2.945      9.542
REMARK SMILES O=C(NCCCNC(=O)[C@H]1CC2(CCN(C(=O)C3CC3)CC2)CN1C(=O)CCn1cccn1)c1ccc(-c2c3nc(c(-c4cccc(S(=O)(=O)[O-])c4F)c4ccc([nH]4)c(-c4cccc(S(=O)(=O)[O-])c4F)c4nc(c(-c5cccc(S(=O)(=O)[O-])c5F)c5ccc2[nH]5)C=C4)C=C3)cc1
REMARK SMILES IDX 5 1 4 2 3 3 1 4 2 5 34 7 35 8 96 9 36 10 95 11 37 12 38 13
REMARK SMILES IDX 39 14 89 15 40 16 94 17 88 18 90 19 41 20 93 21 87 22 86 23
REMARK SMILES IDX 42 25 74 26 54 27 73 28 55 29 58 30 72 31 91 32 56 33 57 34
REMARK SMILES IDX 71 36 92 37 59 38 43 39 44 40 52 41 45 42 47 43 53 44 46 45
REMARK SMILES IDX 48 46 49 47 50 48 51 49 75 50 76 51 84 52 77 53 79 54 85 55
REMARK SMILES IDX 78 56 80 57 81 58 82 59 83 60 60 61 61 62 69 63 62 64 64 65
REMARK SMILES IDX 70 66 63 67 65 68 66 69 67 70 68 71 6 72 7 73 8 74 9 76
REMARK SMILES IDX 10 77 11 78 24 79 12 80 23 81 13 82 22 83 14 84 21 85 15 86
REMARK SMILES IDX 16 87 17 88 25 89 26 90 27 91 28 92 29 93 30 94 33 95 31 96
REMARK SMILES IDX 32 97 18 98 19 99 20 100
REMARK H PARENT 3 6 90 24 58 35 7 75
REMARK Flexibility Score: inf
ROOT
ATOM      1  C   UNL A   1      37.223  23.260  24.836  1.00  0.00     0.042 C 
ENDROOT
BRANCH   1   2
ATOM      2  C   UNL A   1      37.922  22.728  26.100  1.00  0.00     0.118 C 
BRANCH   2   3
ATOM      3  N   UNL A   1      39.367  22.611  26.056  1.00  0.00    -0.352 N 
ATOM      4  O   UNL A   1      40.900  21.978  27.581  1.00  0.00    -0.269 OA
ATOM      5  C   UNL A   1      40.182  22.870  27.129  1.00  0.00     0.251 C 
ATOM      6  H   UNL A   1      39.786  22.331  25.210  1.00  0.00     0.163 HD
BRANCH   5   7
ATOM      7  C   UNL A   1      40.378  24.282  27.484  1.00  0.00     0.039 A 
ATOM      8  C   UNL A   1      41.538  24.718  28.125  1.00  0.00     0.014 A 
ATOM      9  C   UNL A   1      39.268  25.125  27.348  1.00  0.00     0.014 A 
ATOM     10  C   UNL A   1      41.544  25.937  28.751  1.00  0.00     0.010 A 
ATOM     11  C   UNL A   1      39.281  26.368  27.953  1.00  0.00     0.010 A 
ATOM     12  C   UNL A   1      40.403  26.738  28.691  1.00  0.00    -0.014 A 
BRANCH  12  13
ATOM     13  C   UNL A   1      40.544  28.058  29.270  1.00  0.00     0.031 A 
ATOM     14  C   UNL A   1      41.561  28.881  28.560  1.00  0.00     0.074 A 
ATOM     15  C   UNL A   1      39.792  28.483  30.300  1.00  0.00     0.049 A 
ATOM     16  N   UNL A   1      42.680  29.339  29.019  1.00  0.00    -0.248 NA
ATOM     17  C   UNL A   1      41.411  29.020  27.101  1.00  0.00     0.031 C 
ATOM     18  C   UNL A   1      38.610  27.839  30.875  1.00  0.00     0.029 A 
ATOM     19  N   UNL A   1      39.847  29.674  30.952  1.00  0.00    -0.354 N 
ATOM     20  C   UNL A   1      43.256  30.034  27.956  1.00  0.00     0.074 A 
ATOM     21  C   UNL A   1      42.553  29.620  26.774  1.00  0.00     0.031 C 
ATOM     22  C   UNL A   1      37.910  28.760  31.574  1.00  0.00     0.029 A 
ATOM     23  C   UNL A   1      38.661  30.003  31.596  1.00  0.00     0.049 A 
ATOM     24  H   UNL A   1      40.648  30.246  30.968  1.00  0.00     0.167 HD
ATOM     25  C   UNL A   1      44.076  31.098  28.174  1.00  0.00     0.034 A 
ATOM     26  C   UNL A   1      38.289  31.243  32.002  1.00  0.00     0.034 A 
ATOM     27  C   UNL A   1      44.622  31.063  29.508  1.00  0.00     0.049 A 
ATOM     28  C   UNL A   1      39.514  32.075  32.074  1.00  0.00     0.074 A 
ATOM     29  C   UNL A   1      45.410  30.184  30.223  1.00  0.00     0.029 A 
ATOM     30  N   UNL A   1      44.046  31.896  30.437  1.00  0.00    -0.354 N 
ATOM     31  N   UNL A   1      40.471  31.871  32.933  1.00  0.00    -0.248 NA
ATOM     32  C   UNL A   1      39.876  32.853  30.901  1.00  0.00     0.031 C 
ATOM     33  C   UNL A   1      44.901  30.235  31.555  1.00  0.00     0.029 A 
ATOM     34  C   UNL A   1      43.876  31.182  31.589  1.00  0.00     0.049 A 
ATOM     35  H   UNL A   1      43.800  32.839  30.297  1.00  0.00     0.167 HD
ATOM     36  C   UNL A   1      41.636  32.080  32.205  1.00  0.00     0.074 A 
ATOM     37  C   UNL A   1      41.207  32.784  30.997  1.00  0.00     0.031 C 
ATOM     38  C   UNL A   1      42.784  31.406  32.508  1.00  0.00     0.034 A 
BRANCH  25  39
ATOM     39  C   UNL A   1      44.020  32.393  27.377  1.00  0.00     0.023 A 
ATOM     40  C   UNL A   1      44.913  32.502  26.286  1.00  0.00     0.012 A 
ATOM     41  C   UNL A   1      43.403  33.592  27.810  1.00  0.00     0.148 A 
ATOM     42  C   UNL A   1      45.272  33.742  25.747  1.00  0.00     0.002 A 
ATOM     43  C   UNL A   1      43.721  34.816  27.235  1.00  0.00     0.091 A 
ATOM     44  F   UNL A   1      42.576  33.594  28.854  1.00  0.00    -0.205 F 
ATOM     45  C   UNL A   1      44.685  34.902  26.231  1.00  0.00     0.022 A 
BRANCH  43  46
ATOM     46  S   UNL A   1      42.968  36.347  27.806  1.00  0.00     0.127 S 
ATOM     47  O   UNL A   1      43.545  37.315  26.876  1.00  0.00    -0.237 OA
ATOM     48  O   UNL A   1      41.546  36.068  27.609  1.00  0.00    -0.237 OA
ATOM     49  O   UNL A   1      43.362  36.489  29.200  1.00  0.00    -0.744 OA
ENDBRANCH  43  46
ENDBRANCH  25  39
BRANCH  26  50
ATOM     50  C   UNL A   1      36.936  31.846  32.014  1.00  0.00     0.023 A 
ATOM     51  C   UNL A   1      36.362  32.250  33.236  1.00  0.00     0.012 A 
ATOM     52  C   UNL A   1      36.325  32.276  30.814  1.00  0.00     0.148 A 
ATOM     53  C   UNL A   1      35.232  33.075  33.261  1.00  0.00     0.002 A 
ATOM     54  C   UNL A   1      35.193  33.086  30.846  1.00  0.00     0.091 A 
ATOM     55  F   UNL A   1      36.906  31.973  29.648  1.00  0.00    -0.205 F 
ATOM     56  C   UNL A   1      34.650  33.497  32.068  1.00  0.00     0.022 A 
BRANCH  54  57
ATOM     57  S   UNL A   1      34.409  33.679  29.339  1.00  0.00     0.127 S 
ATOM     58  O   UNL A   1      34.029  32.419  28.687  1.00  0.00    -0.237 OA
ATOM     59  O   UNL A   1      33.278  34.446  29.875  1.00  0.00    -0.237 OA
ATOM     60  O   UNL A   1      35.412  34.441  28.634  1.00  0.00    -0.744 OA
ENDBRANCH  54  57
ENDBRANCH  26  50
BRANCH  38  61
ATOM     61  C   UNL A   1      42.831  30.627  33.797  1.00  0.00     0.023 A 
ATOM     62  C   UNL A   1      43.115  31.232  35.039  1.00  0.00     0.012 A 
ATOM     63  C   UNL A   1      42.404  29.290  33.773  1.00  0.00     0.148 A 
ATOM     64  C   UNL A   1      42.997  30.510  36.230  1.00  0.00     0.002 A 
ATOM     65  C   UNL A   1      42.239  28.591  34.960  1.00  0.00     0.091 A 
ATOM     66  F   UNL A   1      42.132  28.735  32.582  1.00  0.00    -0.205 F 
ATOM     67  C   UNL A   1      42.545  29.192  36.191  1.00  0.00     0.022 A 
BRANCH  65  68
ATOM     68  S   UNL A   1      41.530  26.943  34.983  1.00  0.00     0.127 S 
ATOM     69  O   UNL A   1      40.420  27.076  34.042  1.00  0.00    -0.237 OA
ATOM     70  O   UNL A   1      42.642  26.118  34.508  1.00  0.00    -0.237 OA
ATOM     71  O   UNL A   1      41.153  26.689  36.368  1.00  0.00    -0.744 OA
ENDBRANCH  65  68
ENDBRANCH  38  61
ENDBRANCH  12  13
ENDBRANCH   5   7
ENDBRANCH   2   3
ENDBRANCH   1   2
BRANCH   1  72
ATOM     72  C   UNL A   1      36.487  22.256  23.948  1.00  0.00     0.117 C 
BRANCH  72  73
ATOM     73  N   UNL A   1      35.249  22.790  23.358  1.00  0.00    -0.354 N 
ATOM     74  C   UNL A   1      34.242  23.607  23.799  1.00  0.00     0.242 C 
ATOM     75  H   UNL A   1      35.112  22.491  22.431  1.00  0.00     0.163 HD
ATOM     76  O   UNL A   1      33.330  23.908  23.020  1.00  0.00    -0.273 OA
BRANCH  74  77
ATOM     77  C   UNL A   1      34.010  23.921  25.244  1.00  0.00     0.175 C 
ATOM     78  C   UNL A   1      33.340  25.266  25.090  1.00  0.00     0.044 C 
ATOM     79  N   UNL A   1      33.136  23.045  25.922  1.00  0.00    -0.330 N 
ATOM     80  C   UNL A   1      31.925  25.183  25.649  1.00  0.00    -0.006 C 
ATOM     81  C   UNL A   1      31.899  23.772  26.354  1.00  0.00     0.127 C 
ATOM     82  C   UNL A   1      30.844  25.310  24.538  1.00  0.00     0.030 C 
ATOM     83  C   UNL A   1      31.771  26.457  26.513  1.00  0.00     0.030 C 
ATOM     84  C   UNL A   1      30.958  26.594  23.697  1.00  0.00     0.120 C 
ATOM     85  C   UNL A   1      31.953  27.738  25.650  1.00  0.00     0.120 C 
ATOM     86  N   UNL A   1      31.026  27.802  24.515  1.00  0.00    -0.342 N 
ATOM     87  C   UNL A   1      30.598  29.083  24.135  1.00  0.00     0.225 C 
ATOM     88  O   UNL A   1      31.056  30.087  24.690  1.00  0.00    -0.275 OA
BRANCH  79  89
ATOM     89  C   UNL A   1      33.525  21.723  26.140  1.00  0.00     0.225 C 
ATOM     90  O   UNL A   1      34.474  21.479  26.889  1.00  0.00    -0.275 OA
BRANCH  89  91
ATOM     91  C   UNL A   1      32.745  20.503  25.416  1.00  0.00     0.124 C 
BRANCH  91  92
ATOM     92  C   UNL A   1      33.309  19.447  24.372  1.00  0.00     0.154 C 
BRANCH  92  93
ATOM     93  N   UNL A   1      33.560  18.032  24.680  1.00  0.00    -0.272 N 
ATOM     94  C   UNL A   1      32.695  17.110  25.241  1.00  0.00     0.108 A 
ATOM     95  N   UNL A   1      34.775  17.479  24.474  1.00  0.00    -0.182 NA
ATOM     96  C   UNL A   1      33.252  15.869  25.058  1.00  0.00     0.042 A 
ATOM     97  C   UNL A   1      34.555  16.164  24.632  1.00  0.00     0.135 A 
ENDBRANCH  92  93
ENDBRANCH  91  92
ENDBRANCH  89  91
ENDBRANCH  79  89
BRANCH  87  98
ATOM     98  C   UNL A   1      29.530  29.355  23.124  1.00  0.00     0.079 C 
ATOM     99  C   UNL A   1      28.815  30.643  22.833  1.00  0.00     0.014 C 
ATOM    100  C   UNL A   1      29.791  30.079  21.830  1.00  0.00     0.014 C 
ENDBRANCH  87  98
ENDBRANCH  74  77
ENDBRANCH  72  73
ENDBRANCH   1  72
TORSDOF 18
ENDMDL
