MODEL 1
REMARK VINA RESULT:     -11.5      0.000      0.000
REMARK SMILES C[C@H](NC1=[NH+]S(=O)(=O)c2ccccc21)C(=O)NCCCNC(=O)c1ccc(-c2c3nc(c(-c4cccc(S(=O)(=O)[O-])c4F)c4ccc([nH]4)c(-c4cccc(S(=O)(=O)[O-])c4F)c4nc(c(-c5cccc(S(=O)(=O)[O-])c5F)c5ccc2[nH]5)C=C4)C=C3)cc1
REMARK SMILES IDX 20 1 19 2 18 3 17 4 15 5 16 6 2 8 1 9 3 10 4 11 5 13 14 14
REMARK SMILES IDX 6 15 9 17 13 18 7 19 8 20 10 21 12 22 11 23 21 24 22 25
REMARK SMILES IDX 23 27 24 28 25 29 86 30 26 31 85 32 27 33 28 34 29 35 79 36
REMARK SMILES IDX 30 37 84 38 78 39 80 40 31 41 83 42 77 43 76 44 32 46 64 47
REMARK SMILES IDX 44 48 63 49 45 50 48 51 62 52 81 53 46 54 47 55 61 57 82 58
REMARK SMILES IDX 49 59 33 60 34 61 42 62 35 63 37 64 43 65 36 66 38 67 39 68
REMARK SMILES IDX 40 69 41 70 65 71 66 72 74 73 67 74 69 75 75 76 68 77 70 78
REMARK SMILES IDX 71 79 72 80 73 81 50 82 51 83 59 84 52 85 54 86 60 87 53 88
REMARK SMILES IDX 55 89 56 90 57 91 58 92
REMARK H PARENT 17 7 3 12 5 16 21 26 80 45 48 56
REMARK Flexibility Score: inf
ROOT
ATOM      1  C   UNL A   1      41.107  21.336  27.523  1.00  0.00     0.118 C 
ENDROOT
BRANCH   1   2
ATOM      2  C   UNL A   1      41.679  19.928  27.423  1.00  0.00     0.042 C 
BRANCH   2   3
ATOM      3  C   UNL A   1      42.158  19.517  26.034  1.00  0.00     0.118 C 
BRANCH   3   4
ATOM      4  N   UNL A   1      43.410  18.780  26.083  1.00  0.00    -0.352 N 
ATOM      5  C   UNL A   1      44.514  18.836  25.284  1.00  0.00     0.264 C 
ATOM      6  O   UNL A   1      45.422  18.034  25.532  1.00  0.00    -0.270 OA
ATOM      7  H   UNL A   1      43.472  18.129  26.820  1.00  0.00     0.163 HD
BRANCH   5   8
ATOM      8  C   UNL A   1      44.664  19.832  24.112  1.00  0.00     0.258 C 
ATOM      9  C   UNL A   1      44.856  19.132  22.777  1.00  0.00     0.069 C 
BRANCH   8  10
ATOM     10  N   UNL A   1      45.601  20.909  24.451  1.00  0.00    -0.262 N 
ATOM     11  C   UNL A   1      45.441  21.922  25.360  1.00  0.00     0.292 C 
ATOM     12  H   UNL A   1      46.455  20.905  23.960  1.00  0.00     0.306 HD
ATOM     13  N   UNL A   1      44.594  21.907  26.347  1.00  0.00    -0.162 N 
ATOM     14  C   UNL A   1      46.207  23.188  25.209  1.00  0.00     0.087 A 
ATOM     15  S   UNL A   1      44.586  23.338  27.148  1.00  0.00     0.329 S 
ATOM     16  H   UNL A   1      44.029  21.136  26.581  1.00  0.00     0.327 HD
ATOM     17  C   UNL A   1      45.757  24.115  26.130  1.00  0.00     0.124 A 
ATOM     18  C   UNL A   1      47.120  23.558  24.233  1.00  0.00     0.018 A 
ATOM     19  O   UNL A   1      45.165  23.178  28.459  1.00  0.00    -0.179 OA
ATOM     20  O   UNL A   1      43.311  23.996  26.927  1.00  0.00    -0.179 OA
ATOM     21  C   UNL A   1      46.130  25.445  26.111  1.00  0.00     0.025 A 
ATOM     22  C   UNL A   1      47.532  24.895  24.195  1.00  0.00     0.001 A 
ATOM     23  C   UNL A   1      47.033  25.833  25.120  1.00  0.00     0.002 A 
ENDBRANCH   8  10
ENDBRANCH   5   8
ENDBRANCH   3   4
ENDBRANCH   2   3
ENDBRANCH   1   2
BRANCH   1  24
ATOM     24  N   UNL A   1      39.919  21.519  26.708  1.00  0.00    -0.352 N 
ATOM     25  C   UNL A   1      39.131  22.623  26.491  1.00  0.00     0.251 C 
ATOM     26  H   UNL A   1      39.628  20.712  26.226  1.00  0.00     0.163 HD
ATOM     27  O   UNL A   1      38.075  22.473  25.877  1.00  0.00    -0.269 OA
BRANCH  25  28
ATOM     28  C   UNL A   1      39.503  23.977  26.976  1.00  0.00     0.039 A 
ATOM     29  C   UNL A   1      40.040  24.885  26.053  1.00  0.00     0.014 A 
ATOM     30  C   UNL A   1      39.421  24.346  28.321  1.00  0.00     0.014 A 
ATOM     31  C   UNL A   1      40.457  26.155  26.468  1.00  0.00     0.010 A 
ATOM     32  C   UNL A   1      39.765  25.641  28.721  1.00  0.00     0.010 A 
ATOM     33  C   UNL A   1      40.308  26.553  27.804  1.00  0.00    -0.014 A 
BRANCH  33  34
ATOM     34  C   UNL A   1      40.738  27.904  28.257  1.00  0.00     0.031 A 
ATOM     35  C   UNL A   1      42.195  28.290  28.245  1.00  0.00     0.074 A 
ATOM     36  C   UNL A   1      39.825  28.772  28.738  1.00  0.00     0.049 A 
ATOM     37  N   UNL A   1      42.755  29.411  28.623  1.00  0.00    -0.248 NA
ATOM     38  C   UNL A   1      43.152  27.277  27.770  1.00  0.00     0.031 C 
ATOM     39  C   UNL A   1      38.394  28.501  28.884  1.00  0.00     0.029 A 
ATOM     40  N   UNL A   1      39.970  30.053  29.213  1.00  0.00    -0.354 N 
ATOM     41  C   UNL A   1      44.124  29.225  28.474  1.00  0.00     0.074 A 
ATOM     42  C   UNL A   1      44.315  27.873  27.996  1.00  0.00     0.031 C 
ATOM     43  C   UNL A   1      37.792  29.584  29.402  1.00  0.00     0.029 A 
ATOM     44  C   UNL A   1      38.792  30.621  29.639  1.00  0.00     0.049 A 
ATOM     45  H   UNL A   1      40.836  30.521  29.243  1.00  0.00     0.167 HD
ATOM     46  C   UNL A   1      45.132  30.107  28.677  1.00  0.00     0.034 A 
ATOM     47  C   UNL A   1      38.542  31.841  30.155  1.00  0.00     0.034 A 
ATOM     48  C   UNL A   1      44.944  31.476  29.076  1.00  0.00     0.049 A 
ATOM     49  C   UNL A   1      39.667  32.832  30.289  1.00  0.00     0.074 A 
ATOM     50  C   UNL A   1      45.895  32.472  29.213  1.00  0.00     0.029 A 
ATOM     51  N   UNL A   1      43.721  32.046  29.391  1.00  0.00    -0.354 N 
ATOM     52  N   UNL A   1      40.933  32.685  29.984  1.00  0.00    -0.248 NA
ATOM     53  C   UNL A   1      39.322  34.168  30.796  1.00  0.00     0.031 C 
ATOM     54  C   UNL A   1      45.247  33.646  29.610  1.00  0.00     0.029 A 
ATOM     55  C   UNL A   1      43.892  33.381  29.720  1.00  0.00     0.049 A 
ATOM     56  H   UNL A   1      42.859  31.572  29.383  1.00  0.00     0.167 HD
ATOM     57  C   UNL A   1      41.530  33.916  30.233  1.00  0.00     0.074 A 
ATOM     58  C   UNL A   1      40.481  34.804  30.692  1.00  0.00     0.031 C 
ATOM     59  C   UNL A   1      42.832  34.271  30.114  1.00  0.00     0.034 A 
BRANCH  46  60
ATOM     60  C   UNL A   1      46.535  29.641  28.389  1.00  0.00     0.023 A 
ATOM     61  C   UNL A   1      47.058  29.798  27.089  1.00  0.00     0.012 A 
ATOM     62  C   UNL A   1      47.352  29.107  29.403  1.00  0.00     0.148 A 
ATOM     63  C   UNL A   1      48.361  29.402  26.794  1.00  0.00     0.002 A 
ATOM     64  C   UNL A   1      48.664  28.748  29.110  1.00  0.00     0.091 A 
ATOM     65  F   UNL A   1      46.831  28.941  30.627  1.00  0.00    -0.205 F 
ATOM     66  C   UNL A   1      49.167  28.888  27.806  1.00  0.00     0.022 A 
BRANCH  64  67
ATOM     67  S   UNL A   1      49.796  28.140  30.367  1.00  0.00     0.127 S 
ATOM     68  O   UNL A   1      49.745  29.217  31.355  1.00  0.00    -0.237 OA
ATOM     69  O   UNL A   1      49.155  26.894  30.791  1.00  0.00    -0.237 OA
ATOM     70  O   UNL A   1      51.075  27.960  29.693  1.00  0.00    -0.744 OA
ENDBRANCH  64  67
ENDBRANCH  46  60
BRANCH  47  71
ATOM     71  C   UNL A   1      37.143  32.223  30.493  1.00  0.00     0.023 A 
ATOM     72  C   UNL A   1      36.672  32.019  31.805  1.00  0.00     0.012 A 
ATOM     73  C   UNL A   1      36.296  32.828  29.546  1.00  0.00     0.148 A 
ATOM     74  C   UNL A   1      35.376  32.392  32.162  1.00  0.00     0.002 A 
ATOM     75  C   UNL A   1      35.025  33.247  29.923  1.00  0.00     0.091 A 
ATOM     76  F   UNL A   1      36.752  32.996  28.297  1.00  0.00    -0.205 F 
ATOM     77  C   UNL A   1      34.556  33.018  31.226  1.00  0.00     0.022 A 
BRANCH  75  78
ATOM     78  S   UNL A   1      33.978  34.191  28.809  1.00  0.00     0.127 S 
ATOM     79  O   UNL A   1      34.877  35.257  28.379  1.00  0.00    -0.237 OA
ATOM     80  O   UNL A   1      33.651  33.207  27.777  1.00  0.00    -0.237 OA
ATOM     81  O   UNL A   1      32.836  34.597  29.620  1.00  0.00    -0.744 OA
ENDBRANCH  75  78
ENDBRANCH  47  71
BRANCH  59  82
ATOM     82  C   UNL A   1      43.205  35.686  30.466  1.00  0.00     0.023 A 
ATOM     83  C   UNL A   1      43.675  35.975  31.761  1.00  0.00     0.012 A 
ATOM     84  C   UNL A   1      43.164  36.711  29.501  1.00  0.00     0.148 A 
ATOM     85  C   UNL A   1      44.075  37.267  32.100  1.00  0.00     0.002 A 
ATOM     86  C   UNL A   1      43.601  37.988  29.833  1.00  0.00     0.091 A 
ATOM     87  F   UNL A   1      42.691  36.425  28.278  1.00  0.00    -0.205 F 
ATOM     88  C   UNL A   1      44.050  38.271  31.133  1.00  0.00     0.022 A 
BRANCH  86  89
ATOM     89  S   UNL A   1      43.676  39.309  28.617  1.00  0.00     0.127 S 
ATOM     90  O   UNL A   1      42.263  39.506  28.300  1.00  0.00    -0.237 OA
ATOM     91  O   UNL A   1      44.288  40.405  29.372  1.00  0.00    -0.237 OA
ATOM     92  O   UNL A   1      44.505  38.795  27.535  1.00  0.00    -0.744 OA
ENDBRANCH  86  89
ENDBRANCH  59  82
ENDBRANCH  33  34
ENDBRANCH  25  28
ENDBRANCH   1  24
TORSDOF 14
ENDMDL
MODEL 2
REMARK VINA RESULT:     -11.5      4.717     12.486
REMARK SMILES C[C@H](NC1=[NH+]S(=O)(=O)c2ccccc21)C(=O)NCCCNC(=O)c1ccc(-c2c3nc(c(-c4cccc(S(=O)(=O)[O-])c4F)c4ccc([nH]4)c(-c4cccc(S(=O)(=O)[O-])c4F)c4nc(c(-c5cccc(S(=O)(=O)[O-])c5F)c5ccc2[nH]5)C=C4)C=C3)cc1
REMARK SMILES IDX 20 1 19 2 18 3 17 4 15 5 16 6 2 8 1 9 3 10 4 11 5 13 14 14
REMARK SMILES IDX 6 15 9 17 13 18 7 19 8 20 10 21 12 22 11 23 21 24 22 25
REMARK SMILES IDX 23 27 24 28 25 29 86 30 26 31 85 32 27 33 28 34 29 35 79 36
REMARK SMILES IDX 30 37 84 38 78 39 80 40 31 41 83 42 77 43 76 44 32 46 64 47
REMARK SMILES IDX 44 48 63 49 45 50 48 51 62 52 81 53 46 54 47 55 61 57 82 58
REMARK SMILES IDX 49 59 33 60 34 61 42 62 35 63 37 64 43 65 36 66 38 67 39 68
REMARK SMILES IDX 40 69 41 70 65 71 66 72 74 73 67 74 69 75 75 76 68 77 70 78
REMARK SMILES IDX 71 79 72 80 73 81 50 82 51 83 59 84 52 85 54 86 60 87 53 88
REMARK SMILES IDX 55 89 56 90 57 91 58 92
REMARK H PARENT 17 7 3 12 5 16 21 26 80 45 48 56
REMARK Flexibility Score: inf
ROOT
ATOM      1  C   UNL A   1      34.532  33.191  28.366  1.00  0.00     0.118 C 
ENDROOT
BRANCH   1   2
ATOM      2  C   UNL A   1      33.782  34.511  28.243  1.00  0.00     0.042 C 
BRANCH   2   3
ATOM      3  C   UNL A   1      33.964  35.475  29.410  1.00  0.00     0.118 C 
BRANCH   3   4
ATOM      4  N   UNL A   1      32.877  35.384  30.370  1.00  0.00    -0.352 N 
ATOM      5  C   UNL A   1      32.884  35.394  31.734  1.00  0.00     0.264 C 
ATOM      6  O   UNL A   1      31.794  35.236  32.298  1.00  0.00    -0.270 OA
ATOM      7  H   UNL A   1      31.983  35.300  29.968  1.00  0.00     0.163 HD
BRANCH   5   8
ATOM      8  C   UNL A   1      34.167  35.585  32.576  1.00  0.00     0.258 C 
ATOM      9  C   UNL A   1      34.403  37.039  32.951  1.00  0.00     0.069 C 
BRANCH   8  10
ATOM     10  N   UNL A   1      35.293  34.845  31.997  1.00  0.00    -0.262 N 
ATOM     11  C   UNL A   1      36.500  34.546  32.572  1.00  0.00     0.292 C 
ATOM     12  H   UNL A   1      35.166  34.523  31.076  1.00  0.00     0.306 HD
ATOM     13  N   UNL A   1      36.734  34.542  33.852  1.00  0.00    -0.162 N 
ATOM     14  C   UNL A   1      37.688  34.280  31.717  1.00  0.00     0.087 A 
ATOM     15  S   UNL A   1      38.319  34.268  34.168  1.00  0.00     0.329 S 
ATOM     16  H   UNL A   1      36.046  34.685  34.541  1.00  0.00     0.327 HD
ATOM     17  C   UNL A   1      38.816  34.176  32.509  1.00  0.00     0.124 A 
ATOM     18  C   UNL A   1      37.802  34.288  30.334  1.00  0.00     0.018 A 
ATOM     19  O   UNL A   1      38.491  32.965  34.762  1.00  0.00    -0.179 OA
ATOM     20  O   UNL A   1      38.903  35.471  34.733  1.00  0.00    -0.179 OA
ATOM     21  C   UNL A   1      40.099  34.130  31.998  1.00  0.00     0.025 A 
ATOM     22  C   UNL A   1      39.087  34.226  29.783  1.00  0.00     0.001 A 
ATOM     23  C   UNL A   1      40.226  34.157  30.608  1.00  0.00     0.002 A 
ENDBRANCH   8  10
ENDBRANCH   5   8
ENDBRANCH   3   4
ENDBRANCH   2   3
ENDBRANCH   1   2
BRANCH   1  24
ATOM     24  N   UNL A   1      33.820  32.081  27.758  1.00  0.00    -0.352 N 
ATOM     25  C   UNL A   1      34.210  30.791  27.492  1.00  0.00     0.251 C 
ATOM     26  H   UNL A   1      32.896  32.289  27.489  1.00  0.00     0.163 HD
ATOM     27  O   UNL A   1      33.463  30.085  26.815  1.00  0.00    -0.269 OA
BRANCH  25  28
ATOM     28  C   UNL A   1      35.493  30.228  27.985  1.00  0.00     0.039 A 
ATOM     29  C   UNL A   1      35.530  29.704  29.284  1.00  0.00     0.014 A 
ATOM     30  C   UNL A   1      36.675  30.280  27.241  1.00  0.00     0.014 A 
ATOM     31  C   UNL A   1      36.726  29.211  29.817  1.00  0.00     0.010 A 
ATOM     32  C   UNL A   1      37.852  29.716  27.744  1.00  0.00     0.010 A 
ATOM     33  C   UNL A   1      37.898  29.196  29.045  1.00  0.00    -0.014 A 
BRANCH  33  34
ATOM     34  C   UNL A   1      39.174  28.664  29.595  1.00  0.00     0.031 A 
ATOM     35  C   UNL A   1      39.790  29.272  30.830  1.00  0.00     0.074 A 
ATOM     36  C   UNL A   1      39.819  27.670  28.952  1.00  0.00     0.049 A 
ATOM     37  N   UNL A   1      40.906  28.955  31.436  1.00  0.00    -0.248 NA
ATOM     38  C   UNL A   1      39.073  30.399  31.450  1.00  0.00     0.031 C 
ATOM     39  C   UNL A   1      39.380  27.045  27.704  1.00  0.00     0.029 A 
ATOM     40  N   UNL A   1      40.993  27.023  29.251  1.00  0.00    -0.354 N 
ATOM     41  C   UNL A   1      41.047  29.864  32.478  1.00  0.00     0.074 A 
ATOM     42  C   UNL A   1      39.916  30.765  32.406  1.00  0.00     0.031 C 
ATOM     43  C   UNL A   1      40.266  26.100  27.349  1.00  0.00     0.029 A 
ATOM     44  C   UNL A   1      41.343  26.059  28.334  1.00  0.00     0.049 A 
ATOM     45  H   UNL A   1      41.533  27.228  30.049  1.00  0.00     0.167 HD
ATOM     46  C   UNL A   1      42.005  29.926  33.433  1.00  0.00     0.034 A 
ATOM     47  C   UNL A   1      42.405  25.231  28.293  1.00  0.00     0.034 A 
ATOM     48  C   UNL A   1      43.088  28.987  33.557  1.00  0.00     0.049 A 
ATOM     49  C   UNL A   1      43.410  25.261  29.413  1.00  0.00     0.074 A 
ATOM     50  C   UNL A   1      44.053  28.910  34.547  1.00  0.00     0.029 A 
ATOM     51  N   UNL A   1      43.344  27.955  32.669  1.00  0.00    -0.354 N 
ATOM     52  N   UNL A   1      43.431  26.024  30.478  1.00  0.00    -0.248 NA
ATOM     53  C   UNL A   1      44.512  24.290  29.347  1.00  0.00     0.031 C 
ATOM     54  C   UNL A   1      44.891  27.829  34.258  1.00  0.00     0.029 A 
ATOM     55  C   UNL A   1      44.450  27.233  33.088  1.00  0.00     0.049 A 
ATOM     56  H   UNL A   1      42.819  27.764  31.859  1.00  0.00     0.167 HD
ATOM     57  C   UNL A   1      44.528  25.606  31.225  1.00  0.00     0.074 A 
ATOM     58  C   UNL A   1      45.132  24.506  30.500  1.00  0.00     0.031 C 
ATOM     59  C   UNL A   1      45.004  26.102  32.393  1.00  0.00     0.034 A 
BRANCH  46  60
ATOM     60  C   UNL A   1      41.882  31.004  34.478  1.00  0.00     0.023 A 
ATOM     61  C   UNL A   1      41.247  30.705  35.701  1.00  0.00     0.012 A 
ATOM     62  C   UNL A   1      42.435  32.283  34.280  1.00  0.00     0.148 A 
ATOM     63  C   UNL A   1      41.138  31.670  36.699  1.00  0.00     0.002 A 
ATOM     64  C   UNL A   1      42.355  33.230  35.296  1.00  0.00     0.091 A 
ATOM     65  F   UNL A   1      43.012  32.558  33.102  1.00  0.00    -0.205 F 
ATOM     66  C   UNL A   1      41.701  32.928  36.502  1.00  0.00     0.022 A 
BRANCH  64  67
ATOM     67  S   UNL A   1      43.111  34.855  35.155  1.00  0.00     0.127 S 
ATOM     68  O   UNL A   1      42.837  35.423  36.474  1.00  0.00    -0.237 OA
ATOM     69  O   UNL A   1      44.517  34.527  34.914  1.00  0.00    -0.237 OA
ATOM     70  O   UNL A   1      42.444  35.504  34.035  1.00  0.00    -0.744 OA
ENDBRANCH  64  67
ENDBRANCH  46  60
BRANCH  47  71
ATOM     71  C   UNL A   1      42.516  24.233  27.194  1.00  0.00     0.023 A 
ATOM     72  C   UNL A   1      43.255  24.560  26.040  1.00  0.00     0.012 A 
ATOM     73  C   UNL A   1      41.943  22.952  27.301  1.00  0.00     0.148 A 
ATOM     74  C   UNL A   1      43.403  23.638  25.003  1.00  0.00     0.002 A 
ATOM     75  C   UNL A   1      42.140  22.019  26.289  1.00  0.00     0.091 A 
ATOM     76  F   UNL A   1      41.226  22.663  28.396  1.00  0.00    -0.205 F 
ATOM     77  C   UNL A   1      42.857  22.363  25.132  1.00  0.00     0.022 A 
BRANCH  75  78
ATOM     78  S   UNL A   1      41.591  20.317  26.461  1.00  0.00     0.127 S 
ATOM     79  O   UNL A   1      40.148  20.446  26.295  1.00  0.00    -0.237 OA
ATOM     80  O   UNL A   1      42.282  19.652  25.357  1.00  0.00    -0.237 OA
ATOM     81  O   UNL A   1      42.055  19.904  27.781  1.00  0.00    -0.744 OA
ENDBRANCH  75  78
ENDBRANCH  47  71
BRANCH  59  82
ATOM     82  C   UNL A   1      46.229  25.454  32.979  1.00  0.00     0.023 A 
ATOM     83  C   UNL A   1      47.497  26.003  32.707  1.00  0.00     0.012 A 
ATOM     84  C   UNL A   1      46.123  24.357  33.854  1.00  0.00     0.148 A 
ATOM     85  C   UNL A   1      48.645  25.454  33.278  1.00  0.00     0.002 A 
ATOM     86  C   UNL A   1      47.268  23.838  34.450  1.00  0.00     0.091 A 
ATOM     87  F   UNL A   1      44.911  23.830  34.083  1.00  0.00    -0.205 F 
ATOM     88  C   UNL A   1      48.530  24.380  34.158  1.00  0.00     0.022 A 
BRANCH  86  89
ATOM     89  S   UNL A   1      47.186  22.510  35.659  1.00  0.00     0.127 S 
ATOM     90  O   UNL A   1      46.694  21.398  34.850  1.00  0.00    -0.237 OA
ATOM     91  O   UNL A   1      48.581  22.381  36.086  1.00  0.00    -0.237 OA
ATOM     92  O   UNL A   1      46.286  22.987  36.701  1.00  0.00    -0.744 OA
ENDBRANCH  86  89
ENDBRANCH  59  82
ENDBRANCH  33  34
ENDBRANCH  25  28
ENDBRANCH   1  24
TORSDOF 14
ENDMDL
MODEL 3
REMARK VINA RESULT:     -11.4      6.088     10.730
REMARK SMILES C[C@H](NC1=[NH+]S(=O)(=O)c2ccccc21)C(=O)NCCCNC(=O)c1ccc(-c2c3nc(c(-c4cccc(S(=O)(=O)[O-])c4F)c4ccc([nH]4)c(-c4cccc(S(=O)(=O)[O-])c4F)c4nc(c(-c5cccc(S(=O)(=O)[O-])c5F)c5ccc2[nH]5)C=C4)C=C3)cc1
REMARK SMILES IDX 20 1 19 2 18 3 17 4 15 5 16 6 2 8 1 9 3 10 4 11 5 13 14 14
REMARK SMILES IDX 6 15 9 17 13 18 7 19 8 20 10 21 12 22 11 23 21 24 22 25
REMARK SMILES IDX 23 27 24 28 25 29 86 30 26 31 85 32 27 33 28 34 29 35 79 36
REMARK SMILES IDX 30 37 84 38 78 39 80 40 31 41 83 42 77 43 76 44 32 46 64 47
REMARK SMILES IDX 44 48 63 49 45 50 48 51 62 52 81 53 46 54 47 55 61 57 82 58
REMARK SMILES IDX 49 59 33 60 34 61 42 62 35 63 37 64 43 65 36 66 38 67 39 68
REMARK SMILES IDX 40 69 41 70 65 71 66 72 74 73 67 74 69 75 75 76 68 77 70 78
REMARK SMILES IDX 71 79 72 80 73 81 50 82 51 83 59 84 52 85 54 86 60 87 53 88
REMARK SMILES IDX 55 89 56 90 57 91 58 92
REMARK H PARENT 17 7 3 12 5 16 21 26 80 45 48 56
REMARK Flexibility Score: inf
ROOT
ATOM      1  C   UNL A   1      32.709  32.939  27.062  1.00  0.00     0.118 C 
ENDROOT
BRANCH   1   2
ATOM      2  C   UNL A   1      31.401  32.316  26.592  1.00  0.00     0.042 C 
BRANCH   2   3
ATOM      3  C   UNL A   1      31.391  30.793  26.525  1.00  0.00     0.118 C 
BRANCH   3   4
ATOM      4  N   UNL A   1      31.979  30.295  25.293  1.00  0.00    -0.352 N 
ATOM      5  C   UNL A   1      32.902  29.315  25.072  1.00  0.00     0.264 C 
ATOM      6  O   UNL A   1      33.267  29.146  23.903  1.00  0.00    -0.270 OA
ATOM      7  H   UNL A   1      31.655  30.741  24.477  1.00  0.00     0.163 HD
BRANCH   5   8
ATOM      8  C   UNL A   1      33.495  28.438  26.199  1.00  0.00     0.258 C 
ATOM      9  C   UNL A   1      34.470  29.204  27.078  1.00  0.00     0.069 C 
BRANCH   8  10
ATOM     10  N   UNL A   1      33.932  27.136  25.681  1.00  0.00    -0.262 N 
ATOM     11  C   UNL A   1      33.253  25.946  25.688  1.00  0.00     0.292 C 
ATOM     12  H   UNL A   1      34.829  27.115  25.277  1.00  0.00     0.306 HD
ATOM     13  N   UNL A   1      31.964  25.826  25.820  1.00  0.00    -0.162 N 
ATOM     14  C   UNL A   1      34.000  24.661  25.626  1.00  0.00     0.087 A 
ATOM     15  S   UNL A   1      31.519  24.251  25.916  1.00  0.00     0.329 S 
ATOM     16  H   UNL A   1      31.338  26.585  25.859  1.00  0.00     0.327 HD
ATOM     17  C   UNL A   1      33.127  23.608  25.821  1.00  0.00     0.124 A 
ATOM     18  C   UNL A   1      35.367  24.435  25.565  1.00  0.00     0.018 A 
ATOM     19  O   UNL A   1      30.807  23.861  24.724  1.00  0.00    -0.179 OA
ATOM     20  O   UNL A   1      31.018  23.982  27.252  1.00  0.00    -0.179 OA
ATOM     21  C   UNL A   1      33.543  22.305  26.018  1.00  0.00     0.025 A 
ATOM     22  C   UNL A   1      35.822  23.124  25.743  1.00  0.00     0.001 A 
ATOM     23  C   UNL A   1      34.918  22.069  25.978  1.00  0.00     0.002 A 
ENDBRANCH   8  10
ENDBRANCH   5   8
ENDBRANCH   3   4
ENDBRANCH   2   3
ENDBRANCH   1   2
BRANCH   1  24
ATOM     24  N   UNL A   1      32.529  34.262  27.632  1.00  0.00    -0.352 N 
ATOM     25  C   UNL A   1      33.089  34.856  28.737  1.00  0.00     0.251 C 
ATOM     26  H   UNL A   1      31.895  34.834  27.142  1.00  0.00     0.163 HD
ATOM     27  O   UNL A   1      32.642  35.943  29.103  1.00  0.00    -0.269 OA
BRANCH  25  28
ATOM     28  C   UNL A   1      34.201  34.233  29.501  1.00  0.00     0.039 A 
ATOM     29  C   UNL A   1      35.510  34.430  29.041  1.00  0.00     0.014 A 
ATOM     30  C   UNL A   1      33.986  33.396  30.598  1.00  0.00     0.014 A 
ATOM     31  C   UNL A   1      36.589  33.821  29.692  1.00  0.00     0.010 A 
ATOM     32  C   UNL A   1      35.069  32.851  31.295  1.00  0.00     0.010 A 
ATOM     33  C   UNL A   1      36.382  33.038  30.837  1.00  0.00    -0.014 A 
BRANCH  33  34
ATOM     34  C   UNL A   1      37.521  32.394  31.546  1.00  0.00     0.031 A 
ATOM     35  C   UNL A   1      38.285  31.265  30.901  1.00  0.00     0.074 A 
ATOM     36  C   UNL A   1      37.837  32.780  32.798  1.00  0.00     0.049 A 
ATOM     37  N   UNL A   1      39.288  30.572  31.377  1.00  0.00    -0.248 NA
ATOM     38  C   UNL A   1      37.852  30.843  29.559  1.00  0.00     0.031 C 
ATOM     39  C   UNL A   1      37.130  33.802  33.572  1.00  0.00     0.029 A 
ATOM     40  N   UNL A   1      38.824  32.344  33.648  1.00  0.00    -0.354 N 
ATOM     41  C   UNL A   1      39.577  29.609  30.417  1.00  0.00     0.074 A 
ATOM     42  C   UNL A   1      38.625  29.789  29.342  1.00  0.00     0.031 C 
ATOM     43  C   UNL A   1      37.711  33.921  34.777  1.00  0.00     0.029 A 
ATOM     44  C   UNL A   1      38.821  32.977  34.870  1.00  0.00     0.049 A 
ATOM     45  H   UNL A   1      39.474  31.646  33.405  1.00  0.00     0.167 HD
ATOM     46  C   UNL A   1      40.566  28.683  30.408  1.00  0.00     0.034 A 
ATOM     47  C   UNL A   1      39.624  32.822  35.940  1.00  0.00     0.034 A 
ATOM     48  C   UNL A   1      41.563  28.551  31.436  1.00  0.00     0.049 A 
ATOM     49  C   UNL A   1      40.769  31.847  35.870  1.00  0.00     0.074 A 
ATOM     50  C   UNL A   1      42.660  27.708  31.468  1.00  0.00     0.029 A 
ATOM     51  N   UNL A   1      41.591  29.288  32.608  1.00  0.00    -0.354 N 
ATOM     52  N   UNL A   1      41.122  31.062  34.882  1.00  0.00    -0.248 NA
ATOM     53  C   UNL A   1      41.651  31.768  37.044  1.00  0.00     0.031 C 
ATOM     54  C   UNL A   1      43.354  27.938  32.661  1.00  0.00     0.029 A 
ATOM     55  C   UNL A   1      42.688  28.923  33.371  1.00  0.00     0.049 A 
ATOM     56  H   UNL A   1      40.928  29.970  32.862  1.00  0.00     0.167 HD
ATOM     57  C   UNL A   1      42.281  30.418  35.302  1.00  0.00     0.074 A 
ATOM     58  C   UNL A   1      42.585  30.924  36.625  1.00  0.00     0.031 C 
ATOM     59  C   UNL A   1      43.015  29.479  34.658  1.00  0.00     0.034 A 
BRANCH  46  60
ATOM     60  C   UNL A   1      40.671  27.787  29.202  1.00  0.00     0.023 A 
ATOM     61  C   UNL A   1      39.868  26.630  29.133  1.00  0.00     0.012 A 
ATOM     62  C   UNL A   1      41.512  28.110  28.120  1.00  0.00     0.148 A 
ATOM     63  C   UNL A   1      39.920  25.793  28.021  1.00  0.00     0.002 A 
ATOM     64  C   UNL A   1      41.532  27.288  26.997  1.00  0.00     0.091 A 
ATOM     65  F   UNL A   1      42.289  29.199  28.213  1.00  0.00    -0.205 F 
ATOM     66  C   UNL A   1      40.743  26.127  26.949  1.00  0.00     0.022 A 
BRANCH  64  67
ATOM     67  S   UNL A   1      42.512  27.678  25.542  1.00  0.00     0.127 S 
ATOM     68  O   UNL A   1      41.925  28.949  25.123  1.00  0.00    -0.237 OA
ATOM     69  O   UNL A   1      43.864  27.784  26.092  1.00  0.00    -0.237 OA
ATOM     70  O   UNL A   1      42.320  26.561  24.626  1.00  0.00    -0.744 OA
ENDBRANCH  64  67
ENDBRANCH  46  60
BRANCH  47  71
ATOM     71  C   UNL A   1      39.428  33.685  37.137  1.00  0.00     0.023 A 
ATOM     72  C   UNL A   1      39.864  35.024  37.099  1.00  0.00     0.012 A 
ATOM     73  C   UNL A   1      38.773  33.210  38.288  1.00  0.00     0.148 A 
ATOM     74  C   UNL A   1      39.670  35.867  38.193  1.00  0.00     0.002 A 
ATOM     75  C   UNL A   1      38.534  34.070  39.354  1.00  0.00     0.091 A 
ATOM     76  F   UNL A   1      38.383  31.927  38.318  1.00  0.00    -0.205 F 
ATOM     77  C   UNL A   1      38.994  35.396  39.316  1.00  0.00     0.022 A 
BRANCH  75  78
ATOM     78  S   UNL A   1      37.541  33.567  40.764  1.00  0.00     0.127 S 
ATOM     79  O   UNL A   1      38.396  32.569  41.396  1.00  0.00    -0.237 OA
ATOM     80  O   UNL A   1      37.397  34.818  41.508  1.00  0.00    -0.237 OA
ATOM     81  O   UNL A   1      36.293  33.077  40.188  1.00  0.00    -0.744 OA
ENDBRANCH  75  78
ENDBRANCH  47  71
BRANCH  59  82
ATOM     82  C   UNL A   1      44.232  28.941  35.361  1.00  0.00     0.023 A 
ATOM     83  C   UNL A   1      45.479  29.563  35.156  1.00  0.00     0.012 A 
ATOM     84  C   UNL A   1      44.133  27.876  36.276  1.00  0.00     0.148 A 
ATOM     85  C   UNL A   1      46.614  29.117  35.833  1.00  0.00     0.002 A 
ATOM     86  C   UNL A   1      45.260  27.461  36.977  1.00  0.00     0.091 A 
ATOM     87  F   UNL A   1      42.943  27.278  36.441  1.00  0.00    -0.205 F 
ATOM     88  C   UNL A   1      46.503  28.075  36.752  1.00  0.00     0.022 A 
BRANCH  86  89
ATOM     89  S   UNL A   1      45.174  26.182  38.236  1.00  0.00     0.127 S 
ATOM     90  O   UNL A   1      46.546  26.161  38.737  1.00  0.00    -0.237 OA
ATOM     91  O   UNL A   1      44.192  26.726  39.177  1.00  0.00    -0.237 OA
ATOM     92  O   UNL A   1      44.732  24.980  37.541  1.00  0.00    -0.744 OA
ENDBRANCH  86  89
ENDBRANCH  59  82
ENDBRANCH  33  34
ENDBRANCH  25  28
ENDBRANCH   1  24
TORSDOF 14
ENDMDL
