MODEL 1
REMARK VINA RESULT:     -12.5      0.000      0.000
REMARK SMILES O=C(NCCCNC(=O)c1ccc(C[N@@H+]2CCN3C(=O)NC[C@@H]3C2)nc1)c1ccc(-c2c3nc(c(-c4cccc(S(=O)(=O)[O-])c4F)c4ccc([nH]4)c(-c4cccc(S(=O)(=O)[O-])c4F)c4nc(c(-c5cccc(S(=O)(=O)[O-])c5F)c5ccc2[nH]5)C=C4)C=C3)cc1
REMARK SMILES IDX 4 1 3 2 1 3 2 4 27 6 28 7 89 8 29 9 88 10 30 11 31 12 32 13
REMARK SMILES IDX 82 14 33 15 87 16 81 17 83 18 34 19 86 20 80 21 79 22 35 24
REMARK SMILES IDX 67 25 47 26 66 27 48 28 51 29 65 30 84 31 49 32 50 33 64 35
REMARK SMILES IDX 85 36 52 37 36 38 37 39 45 40 38 41 40 42 46 43 39 44 41 45
REMARK SMILES IDX 42 46 43 47 44 48 68 49 69 50 77 51 70 52 72 53 78 54 71 55
REMARK SMILES IDX 73 56 74 57 75 58 76 59 53 60 54 61 62 62 55 63 57 64 63 65
REMARK SMILES IDX 56 66 58 67 59 68 60 69 61 70 5 71 6 72 7 73 8 74 9 76 10 77
REMARK SMILES IDX 11 78 26 79 12 80 25 81 13 82 14 83 15 84 16 85 24 86 17 88
REMARK SMILES IDX 23 89 18 90 22 91 19 92 21 93 20 94
REMARK H PARENT 3 5 83 23 51 34 7 75 15 87 21 95
REMARK Flexibility Score: inf
ROOT
ATOM      1  C   UNL A   1      32.797  32.846  27.127  1.00  0.00     0.118 C 
ENDROOT
BRANCH   1   2
ATOM      2  N   UNL A   1      32.601  34.197  27.639  1.00  0.00    -0.352 N 
ATOM      3  O   UNL A   1      32.673  35.878  29.130  1.00  0.00    -0.269 OA
ATOM      4  C   UNL A   1      33.144  34.813  28.740  1.00  0.00     0.251 C 
ATOM      5  H   UNL A   1      31.983  34.755  27.113  1.00  0.00     0.163 HD
BRANCH   4   6
ATOM      6  C   UNL A   1      34.269  34.178  29.457  1.00  0.00     0.039 A 
ATOM      7  C   UNL A   1      35.583  34.425  29.055  1.00  0.00     0.014 A 
ATOM      8  C   UNL A   1      34.016  33.333  30.539  1.00  0.00     0.014 A 
ATOM      9  C   UNL A   1      36.622  33.688  29.602  1.00  0.00     0.010 A 
ATOM     10  C   UNL A   1      35.079  32.689  31.177  1.00  0.00     0.010 A 
ATOM     11  C   UNL A   1      36.388  32.835  30.690  1.00  0.00    -0.014 A 
BRANCH  11  12
ATOM     12  C   UNL A   1      37.548  32.192  31.355  1.00  0.00     0.031 A 
ATOM     13  C   UNL A   1      38.316  31.081  30.699  1.00  0.00     0.074 A 
ATOM     14  C   UNL A   1      37.909  32.639  32.576  1.00  0.00     0.049 A 
ATOM     15  N   UNL A   1      39.361  30.432  31.147  1.00  0.00    -0.248 NA
ATOM     16  C   UNL A   1      37.856  30.630  29.376  1.00  0.00     0.031 C 
ATOM     17  C   UNL A   1      37.212  33.690  33.326  1.00  0.00     0.029 A 
ATOM     18  N   UNL A   1      38.941  32.277  33.400  1.00  0.00    -0.354 N 
ATOM     19  C   UNL A   1      39.657  29.472  30.188  1.00  0.00     0.074 A 
ATOM     20  C   UNL A   1      38.678  29.618  29.132  1.00  0.00     0.031 C 
ATOM     21  C   UNL A   1      37.853  33.908  34.481  1.00  0.00     0.029 A 
ATOM     22  C   UNL A   1      38.957  32.964  34.591  1.00  0.00     0.049 A 
ATOM     23  H   UNL A   1      39.606  31.590  33.164  1.00  0.00     0.167 HD
ATOM     24  C   UNL A   1      40.661  28.561  30.185  1.00  0.00     0.034 A 
ATOM     25  C   UNL A   1      39.750  32.833  35.670  1.00  0.00     0.034 A 
ATOM     26  C   UNL A   1      41.640  28.438  31.233  1.00  0.00     0.049 A 
ATOM     27  C   UNL A   1      40.847  31.811  35.637  1.00  0.00     0.074 A 
ATOM     28  C   UNL A   1      42.731  27.586  31.296  1.00  0.00     0.029 A 
ATOM     29  N   UNL A   1      41.641  29.169  32.412  1.00  0.00    -0.354 N 
ATOM     30  N   UNL A   1      41.183  30.994  34.669  1.00  0.00    -0.248 NA
ATOM     31  C   UNL A   1      41.691  31.712  36.834  1.00  0.00     0.031 C 
ATOM     32  C   UNL A   1      43.363  27.774  32.529  1.00  0.00     0.029 A 
ATOM     33  C   UNL A   1      42.699  28.777  33.215  1.00  0.00     0.049 A 
ATOM     34  H   UNL A   1      40.985  29.867  32.644  1.00  0.00     0.167 HD
ATOM     35  C   UNL A   1      42.298  30.304  35.126  1.00  0.00     0.074 A 
ATOM     36  C   UNL A   1      42.594  30.819  36.448  1.00  0.00     0.031 C 
ATOM     37  C   UNL A   1      43.007  29.326  34.512  1.00  0.00     0.034 A 
BRANCH  24  38
ATOM     38  C   UNL A   1      40.765  27.627  29.005  1.00  0.00     0.023 A 
ATOM     39  C   UNL A   1      39.898  26.520  28.905  1.00  0.00     0.012 A 
ATOM     40  C   UNL A   1      41.674  27.888  27.960  1.00  0.00     0.148 A 
ATOM     41  C   UNL A   1      39.956  25.670  27.801  1.00  0.00     0.002 A 
ATOM     42  C   UNL A   1      41.695  27.062  26.841  1.00  0.00     0.091 A 
ATOM     43  F   UNL A   1      42.503  28.935  28.078  1.00  0.00    -0.205 F 
ATOM     44  C   UNL A   1      40.845  25.946  26.765  1.00  0.00     0.022 A 
BRANCH  42  45
ATOM     45  S   UNL A   1      42.745  27.378  25.419  1.00  0.00     0.127 S 
ATOM     46  O   UNL A   1      42.608  26.131  24.669  1.00  0.00    -0.237 OA
ATOM     47  O   UNL A   1      42.091  28.534  24.805  1.00  0.00    -0.237 OA
ATOM     48  O   UNL A   1      44.075  27.642  25.950  1.00  0.00    -0.744 OA
ENDBRANCH  42  45
ENDBRANCH  24  38
BRANCH  25  49
ATOM     49  C   UNL A   1      39.535  33.704  36.857  1.00  0.00     0.023 A 
ATOM     50  C   UNL A   1      39.922  35.057  36.808  1.00  0.00     0.012 A 
ATOM     51  C   UNL A   1      38.916  33.207  38.020  1.00  0.00     0.148 A 
ATOM     52  C   UNL A   1      39.727  35.890  37.911  1.00  0.00     0.002 A 
ATOM     53  C   UNL A   1      38.668  34.056  39.090  1.00  0.00     0.091 A 
ATOM     54  F   UNL A   1      38.561  31.915  38.047  1.00  0.00    -0.205 F 
ATOM     55  C   UNL A   1      39.090  35.393  39.046  1.00  0.00     0.022 A 
BRANCH  53  56
ATOM     56  S   UNL A   1      37.732  33.538  40.531  1.00  0.00     0.127 S 
ATOM     57  O   UNL A   1      37.632  34.786  41.286  1.00  0.00    -0.237 OA
ATOM     58  O   UNL A   1      36.480  33.081  39.928  1.00  0.00    -0.237 OA
ATOM     59  O   UNL A   1      38.519  32.484  41.156  1.00  0.00    -0.744 OA
ENDBRANCH  53  56
ENDBRANCH  25  49
BRANCH  37  60
ATOM     60  C   UNL A   1      44.203  28.776  35.241  1.00  0.00     0.023 A 
ATOM     61  C   UNL A   1      45.478  29.341  35.039  1.00  0.00     0.012 A 
ATOM     62  C   UNL A   1      44.049  27.730  36.173  1.00  0.00     0.148 A 
ATOM     63  C   UNL A   1      46.588  28.846  35.724  1.00  0.00     0.002 A 
ATOM     64  C   UNL A   1      45.148  27.281  36.892  1.00  0.00     0.091 A 
ATOM     65  F   UNL A   1      42.832  27.194  36.335  1.00  0.00    -0.205 F 
ATOM     66  C   UNL A   1      46.422  27.827  36.658  1.00  0.00     0.022 A 
BRANCH  64  67
ATOM     67  S   UNL A   1      45.013  26.042  38.185  1.00  0.00     0.127 S 
ATOM     68  O   UNL A   1      46.387  25.979  38.682  1.00  0.00    -0.237 OA
ATOM     69  O   UNL A   1      44.059  26.661  39.106  1.00  0.00    -0.237 OA
ATOM     70  O   UNL A   1      44.529  24.832  37.536  1.00  0.00    -0.744 OA
ENDBRANCH  64  67
ENDBRANCH  37  60
ENDBRANCH  11  12
ENDBRANCH   4   6
ENDBRANCH   1   2
BRANCH   1  71
ATOM     71  C   UNL A   1      31.501  32.211  26.654  1.00  0.00     0.042 C 
BRANCH  71  72
ATOM     72  C   UNL A   1      31.675  30.773  26.196  1.00  0.00     0.118 C 
BRANCH  72  73
ATOM     73  N   UNL A   1      30.958  30.505  24.957  1.00  0.00    -0.352 N 
ATOM     74  C   UNL A   1      31.029  29.397  24.156  1.00  0.00     0.252 C 
ATOM     75  H   UNL A   1      30.343  31.212  24.656  1.00  0.00     0.163 HD
ATOM     76  O   UNL A   1      30.513  29.376  23.045  1.00  0.00    -0.269 OA
BRANCH  74  77
ATOM     77  C   UNL A   1      31.755  28.225  24.648  1.00  0.00     0.058 A 
ATOM     78  C   UNL A   1      33.086  27.986  24.308  1.00  0.00     0.017 A 
ATOM     79  C   UNL A   1      31.089  27.316  25.441  1.00  0.00     0.125 A 
ATOM     80  C   UNL A   1      33.697  26.818  24.753  1.00  0.00     0.030 A 
ATOM     81  N   UNL A   1      31.659  26.170  25.868  1.00  0.00    -0.255 NA
ATOM     82  C   UNL A   1      32.959  25.936  25.541  1.00  0.00     0.095 A 
BRANCH  82  83
ATOM     83  C   UNL A   1      33.614  24.694  26.131  1.00  0.00     0.319 C 
BRANCH  83  84
ATOM     84  N   UNL A   1      33.428  23.437  25.371  1.00  0.00    -0.327 N 
ATOM     85  C   UNL A   1      32.056  22.891  25.521  1.00  0.00     0.284 C 
ATOM     86  C   UNL A   1      34.486  22.449  25.633  1.00  0.00     0.289 C 
ATOM     87  H   UNL A   1      33.527  23.676  24.385  1.00  0.00     0.348 HD
ATOM     88  C   UNL A   1      31.805  21.384  25.252  1.00  0.00     0.183 C 
ATOM     89  C   UNL A   1      34.263  21.220  24.753  1.00  0.00     0.161 C 
ATOM     90  N   UNL A   1      33.001  20.595  25.071  1.00  0.00    -0.309 N 
ATOM     91  C   UNL A   1      35.260  20.081  24.951  1.00  0.00     0.148 C 
ATOM     92  C   UNL A   1      33.093  19.220  25.056  1.00  0.00     0.318 C 
ATOM     93  N   UNL A   1      34.433  18.901  24.901  1.00  0.00    -0.336 N 
ATOM     94  O   UNL A   1      32.189  18.409  25.170  1.00  0.00    -0.249 OA
ATOM     95  H   UNL A   1      34.776  17.987  24.772  1.00  0.00     0.165 HD
ENDBRANCH  83  84
ENDBRANCH  82  83
ENDBRANCH  74  77
ENDBRANCH  72  73
ENDBRANCH  71  72
ENDBRANCH   1  71
TORSDOF 15
ENDMDL
MODEL 2
REMARK VINA RESULT:     -12.4      2.492      8.033
REMARK SMILES O=C(NCCCNC(=O)c1ccc(C[N@@H+]2CCN3C(=O)NC[C@@H]3C2)nc1)c1ccc(-c2c3nc(c(-c4cccc(S(=O)(=O)[O-])c4F)c4ccc([nH]4)c(-c4cccc(S(=O)(=O)[O-])c4F)c4nc(c(-c5cccc(S(=O)(=O)[O-])c5F)c5ccc2[nH]5)C=C4)C=C3)cc1
REMARK SMILES IDX 4 1 3 2 1 3 2 4 27 6 28 7 89 8 29 9 88 10 30 11 31 12 32 13
REMARK SMILES IDX 82 14 33 15 87 16 81 17 83 18 34 19 86 20 80 21 79 22 35 24
REMARK SMILES IDX 67 25 47 26 66 27 48 28 51 29 65 30 84 31 49 32 50 33 64 35
REMARK SMILES IDX 85 36 52 37 36 38 37 39 45 40 38 41 40 42 46 43 39 44 41 45
REMARK SMILES IDX 42 46 43 47 44 48 68 49 69 50 77 51 70 52 72 53 78 54 71 55
REMARK SMILES IDX 73 56 74 57 75 58 76 59 53 60 54 61 62 62 55 63 57 64 63 65
REMARK SMILES IDX 56 66 58 67 59 68 60 69 61 70 5 71 6 72 7 73 8 74 9 76 10 77
REMARK SMILES IDX 11 78 26 79 12 80 25 81 13 82 14 83 15 84 16 85 24 86 17 88
REMARK SMILES IDX 23 89 18 90 22 91 19 92 21 93 20 94
REMARK H PARENT 3 5 83 23 51 34 7 75 15 87 21 95
REMARK Flexibility Score: inf
ROOT
ATOM      1  C   UNL A   1      33.281  28.962  25.310  1.00  0.00     0.118 C 
ENDROOT
BRANCH   1   2
ATOM      2  N   UNL A   1      32.809  30.281  25.714  1.00  0.00    -0.352 N 
ATOM      3  O   UNL A   1      32.538  32.062  27.059  1.00  0.00    -0.269 OA
ATOM      4  C   UNL A   1      33.218  31.089  26.746  1.00  0.00     0.251 C 
ATOM      5  H   UNL A   1      32.085  30.651  25.158  1.00  0.00     0.163 HD
BRANCH   4   6
ATOM      6  C   UNL A   1      34.457  30.766  27.484  1.00  0.00     0.039 A 
ATOM      7  C   UNL A   1      34.633  29.495  28.033  1.00  0.00     0.014 A 
ATOM      8  C   UNL A   1      35.453  31.735  27.628  1.00  0.00     0.014 A 
ATOM      9  C   UNL A   1      35.704  29.252  28.881  1.00  0.00     0.010 A 
ATOM     10  C   UNL A   1      36.596  31.445  28.377  1.00  0.00     0.010 A 
ATOM     11  C   UNL A   1      36.714  30.212  29.038  1.00  0.00    -0.014 A 
BRANCH  11  12
ATOM     12  C   UNL A   1      37.924  29.853  29.818  1.00  0.00     0.031 A 
ATOM     13  C   UNL A   1      38.150  30.377  31.207  1.00  0.00     0.074 A 
ATOM     14  C   UNL A   1      38.825  29.026  29.248  1.00  0.00     0.049 A 
ATOM     15  N   UNL A   1      39.149  30.140  32.019  1.00  0.00    -0.248 NA
ATOM     16  C   UNL A   1      37.136  31.290  31.759  1.00  0.00     0.031 C 
ATOM     17  C   UNL A   1      38.727  28.484  27.889  1.00  0.00     0.029 A 
ATOM     18  N   UNL A   1      39.993  28.496  29.730  1.00  0.00    -0.354 N 
ATOM     19  C   UNL A   1      38.909  30.902  33.156  1.00  0.00     0.074 A 
ATOM     20  C   UNL A   1      37.671  31.616  32.928  1.00  0.00     0.031 C 
ATOM     21  C   UNL A   1      39.770  27.677  27.658  1.00  0.00     0.029 A 
ATOM     22  C   UNL A   1      40.649  27.702  28.819  1.00  0.00     0.049 A 
ATOM     23  H   UNL A   1      40.330  28.668  30.639  1.00  0.00     0.167 HD
ATOM     24  C   UNL A   1      39.650  30.988  34.287  1.00  0.00     0.034 A 
ATOM     25  C   UNL A   1      41.843  27.086  28.891  1.00  0.00     0.034 A 
ATOM     26  C   UNL A   1      40.871  30.259  34.509  1.00  0.00     0.049 A 
ATOM     27  C   UNL A   1      42.641  27.206  30.155  1.00  0.00     0.074 A 
ATOM     28  C   UNL A   1      41.663  30.232  35.644  1.00  0.00     0.029 A 
ATOM     29  N   UNL A   1      41.492  29.443  33.574  1.00  0.00    -0.354 N 
ATOM     30  N   UNL A   1      42.337  27.837  31.263  1.00  0.00    -0.248 NA
ATOM     31  C   UNL A   1      43.931  26.508  30.190  1.00  0.00     0.031 C 
ATOM     32  C   UNL A   1      42.782  29.436  35.380  1.00  0.00     0.029 A 
ATOM     33  C   UNL A   1      42.664  28.925  34.099  1.00  0.00     0.049 A 
ATOM     34  H   UNL A   1      41.148  29.259  32.669  1.00  0.00     0.167 HD
ATOM     35  C   UNL A   1      43.385  27.586  32.140  1.00  0.00     0.074 A 
ATOM     36  C   UNL A   1      44.317  26.725  31.440  1.00  0.00     0.031 C 
ATOM     37  C   UNL A   1      43.563  28.036  33.406  1.00  0.00     0.034 A 
BRANCH  24  38
ATOM     38  C   UNL A   1      39.157  31.895  35.388  1.00  0.00     0.023 A 
ATOM     39  C   UNL A   1      38.213  31.421  36.321  1.00  0.00     0.012 A 
ATOM     40  C   UNL A   1      39.683  33.194  35.539  1.00  0.00     0.148 A 
ATOM     41  C   UNL A   1      37.776  32.234  37.366  1.00  0.00     0.002 A 
ATOM     42  C   UNL A   1      39.277  33.982  36.610  1.00  0.00     0.091 A 
ATOM     43  F   UNL A   1      40.568  33.635  34.633  1.00  0.00    -0.205 F 
ATOM     44  C   UNL A   1      38.316  33.509  37.517  1.00  0.00     0.022 A 
BRANCH  42  45
ATOM     45  S   UNL A   1      39.971  35.606  36.939  1.00  0.00     0.127 S 
ATOM     46  O   UNL A   1      39.283  35.976  38.174  1.00  0.00    -0.237 OA
ATOM     47  O   UNL A   1      41.394  35.305  37.101  1.00  0.00    -0.237 OA
ATOM     48  O   UNL A   1      39.651  36.425  35.778  1.00  0.00    -0.744 OA
ENDBRANCH  42  45
ENDBRANCH  24  38
BRANCH  25  49
ATOM     49  C   UNL A   1      42.337  26.292  27.733  1.00  0.00     0.023 A 
ATOM     50  C   UNL A   1      43.275  26.859  26.849  1.00  0.00     0.012 A 
ATOM     51  C   UNL A   1      41.909  24.967  27.525  1.00  0.00     0.148 A 
ATOM     52  C   UNL A   1      43.751  26.129  25.759  1.00  0.00     0.002 A 
ATOM     53  C   UNL A   1      42.433  24.226  26.475  1.00  0.00     0.091 A 
ATOM     54  F   UNL A   1      41.011  24.450  28.376  1.00  0.00    -0.205 F 
ATOM     55  C   UNL A   1      43.340  24.811  25.578  1.00  0.00     0.022 A 
BRANCH  53  56
ATOM     56  S   UNL A   1      42.067  22.483  26.251  1.00  0.00     0.127 S 
ATOM     57  O   UNL A   1      42.776  22.186  25.008  1.00  0.00    -0.237 OA
ATOM     58  O   UNL A   1      42.658  21.894  27.453  1.00  0.00    -0.237 OA
ATOM     59  O   UNL A   1      40.615  22.389  26.187  1.00  0.00    -0.744 OA
ENDBRANCH  53  56
ENDBRANCH  25  49
BRANCH  37  60
ATOM     60  C   UNL A   1      44.793  27.570  34.139  1.00  0.00     0.023 A 
ATOM     61  C   UNL A   1      45.968  28.347  34.117  1.00  0.00     0.012 A 
ATOM     62  C   UNL A   1      44.762  26.384  34.899  1.00  0.00     0.148 A 
ATOM     63  C   UNL A   1      47.106  27.930  34.807  1.00  0.00     0.002 A 
ATOM     64  C   UNL A   1      45.879  26.003  35.629  1.00  0.00     0.091 A 
ATOM     65  F   UNL A   1      43.640  25.650  34.891  1.00  0.00    -0.205 F 
ATOM     66  C   UNL A   1      47.058  26.766  35.572  1.00  0.00     0.022 A 
BRANCH  64  67
ATOM     67  S   UNL A   1      45.878  24.577  36.720  1.00  0.00     0.127 S 
ATOM     68  O   UNL A   1      45.484  23.505  35.807  1.00  0.00    -0.237 OA
ATOM     69  O   UNL A   1      47.274  24.523  37.158  1.00  0.00    -0.237 OA
ATOM     70  O   UNL A   1      44.924  24.878  37.777  1.00  0.00    -0.744 OA
ENDBRANCH  64  67
ENDBRANCH  37  60
ENDBRANCH  11  12
ENDBRANCH   4   6
ENDBRANCH   1   2
BRANCH   1  71
ATOM     71  C   UNL A   1      33.952  28.979  23.947  1.00  0.00     0.042 C 
BRANCH  71  72
ATOM     72  C   UNL A   1      33.347  27.981  22.973  1.00  0.00     0.118 C 
BRANCH  72  73
ATOM     73  N   UNL A   1      32.051  28.422  22.477  1.00  0.00    -0.352 N 
ATOM     74  C   UNL A   1      30.833  27.814  22.624  1.00  0.00     0.252 C 
ATOM     75  H   UNL A   1      32.050  29.266  21.971  1.00  0.00     0.163 HD
ATOM     76  O   UNL A   1      29.849  28.193  22.000  1.00  0.00    -0.269 OA
BRANCH  74  77
ATOM     77  C   UNL A   1      30.726  26.677  23.539  1.00  0.00     0.058 A 
ATOM     78  C   UNL A   1      30.435  26.844  24.892  1.00  0.00     0.017 A 
ATOM     79  C   UNL A   1      30.956  25.409  23.051  1.00  0.00     0.125 A 
ATOM     80  C   UNL A   1      30.415  25.727  25.721  1.00  0.00     0.030 A 
ATOM     81  N   UNL A   1      30.958  24.315  23.843  1.00  0.00    -0.255 NA
ATOM     82  C   UNL A   1      30.671  24.475  25.162  1.00  0.00     0.095 A 
BRANCH  82  83
ATOM     83  C   UNL A   1      30.565  23.215  26.011  1.00  0.00     0.319 C 
BRANCH  83  84
ATOM     84  N   UNL A   1      31.844  22.557  26.361  1.00  0.00    -0.327 N 
ATOM     85  C   UNL A   1      32.932  23.539  26.595  1.00  0.00     0.284 C 
ATOM     86  C   UNL A   1      32.212  21.485  25.423  1.00  0.00     0.289 C 
ATOM     87  H   UNL A   1      31.696  22.088  27.255  1.00  0.00     0.348 HD
ATOM     88  C   UNL A   1      34.409  23.082  26.468  1.00  0.00     0.183 C 
ATOM     89  C   UNL A   1      33.496  20.809  25.901  1.00  0.00     0.161 C 
ATOM     90  N   UNL A   1      34.586  21.757  25.922  1.00  0.00    -0.309 N 
ATOM     91  C   UNL A   1      34.032  19.704  24.997  1.00  0.00     0.148 C 
ATOM     92  C   UNL A   1      35.763  21.193  25.481  1.00  0.00     0.318 C 
ATOM     93  N   UNL A   1      35.457  19.928  25.001  1.00  0.00    -0.336 N 
ATOM     94  O   UNL A   1      36.878  21.688  25.484  1.00  0.00    -0.249 OA
ATOM     95  H   UNL A   1      36.125  19.270  24.702  1.00  0.00     0.165 HD
ENDBRANCH  83  84
ENDBRANCH  82  83
ENDBRANCH  74  77
ENDBRANCH  72  73
ENDBRANCH  71  72
ENDBRANCH   1  71
TORSDOF 15
ENDMDL
MODEL 3
REMARK VINA RESULT:     -12.4      5.704      9.071
REMARK SMILES O=C(NCCCNC(=O)c1ccc(C[N@@H+]2CCN3C(=O)NC[C@@H]3C2)nc1)c1ccc(-c2c3nc(c(-c4cccc(S(=O)(=O)[O-])c4F)c4ccc([nH]4)c(-c4cccc(S(=O)(=O)[O-])c4F)c4nc(c(-c5cccc(S(=O)(=O)[O-])c5F)c5ccc2[nH]5)C=C4)C=C3)cc1
REMARK SMILES IDX 4 1 3 2 1 3 2 4 27 6 28 7 89 8 29 9 88 10 30 11 31 12 32 13
REMARK SMILES IDX 82 14 33 15 87 16 81 17 83 18 34 19 86 20 80 21 79 22 35 24
REMARK SMILES IDX 67 25 47 26 66 27 48 28 51 29 65 30 84 31 49 32 50 33 64 35
REMARK SMILES IDX 85 36 52 37 36 38 37 39 45 40 38 41 40 42 46 43 39 44 41 45
REMARK SMILES IDX 42 46 43 47 44 48 68 49 69 50 77 51 70 52 72 53 78 54 71 55
REMARK SMILES IDX 73 56 74 57 75 58 76 59 53 60 54 61 62 62 55 63 57 64 63 65
REMARK SMILES IDX 56 66 58 67 59 68 60 69 61 70 5 71 6 72 7 73 8 74 9 76 10 77
REMARK SMILES IDX 11 78 26 79 12 80 25 81 13 82 14 83 15 84 16 85 24 86 17 88
REMARK SMILES IDX 23 89 18 90 22 91 19 92 21 93 20 94
REMARK H PARENT 3 5 83 23 51 34 7 75 15 87 21 95
REMARK Flexibility Score: inf
ROOT
ATOM      1  C   UNL A   1      37.180  22.261  25.082  1.00  0.00     0.118 C 
ENDROOT
BRANCH   1   2
ATOM      2  N   UNL A   1      38.031  21.178  25.562  1.00  0.00    -0.352 N 
ATOM      3  O   UNL A   1      39.922  20.186  26.264  1.00  0.00    -0.269 OA
ATOM      4  C   UNL A   1      39.275  21.222  26.142  1.00  0.00     0.251 C 
ATOM      5  H   UNL A   1      37.653  20.275  25.455  1.00  0.00     0.163 HD
BRANCH   4   6
ATOM      6  C   UNL A   1      39.832  22.516  26.588  1.00  0.00     0.039 A 
ATOM      7  C   UNL A   1      39.409  23.703  25.990  1.00  0.00     0.014 A 
ATOM      8  C   UNL A   1      40.779  22.547  27.614  1.00  0.00     0.014 A 
ATOM      9  C   UNL A   1      40.065  24.891  26.276  1.00  0.00     0.010 A 
ATOM     10  C   UNL A   1      41.346  23.767  27.994  1.00  0.00     0.010 A 
ATOM     11  C   UNL A   1      41.018  24.944  27.303  1.00  0.00    -0.014 A 
BRANCH  11  12
ATOM     12  C   UNL A   1      41.576  26.263  27.693  1.00  0.00     0.031 A 
ATOM     13  C   UNL A   1      42.993  26.645  27.374  1.00  0.00     0.074 A 
ATOM     14  C   UNL A   1      40.768  27.128  28.340  1.00  0.00     0.049 A 
ATOM     15  N   UNL A   1      43.617  27.765  27.635  1.00  0.00    -0.248 NA
ATOM     16  C   UNL A   1      43.823  25.645  26.683  1.00  0.00     0.031 C 
ATOM     17  C   UNL A   1      39.382  26.850  28.734  1.00  0.00     0.029 A 
ATOM     18  N   UNL A   1      40.984  28.407  28.780  1.00  0.00    -0.354 N 
ATOM     19  C   UNL A   1      44.919  27.594  27.182  1.00  0.00     0.074 A 
ATOM     20  C   UNL A   1      44.999  26.257  26.633  1.00  0.00     0.031 C 
ATOM     21  C   UNL A   1      38.865  27.933  29.327  1.00  0.00     0.029 A 
ATOM     22  C   UNL A   1      39.899  28.953  29.425  1.00  0.00     0.049 A 
ATOM     23  H   UNL A   1      41.833  28.887  28.648  1.00  0.00     0.167 HD
ATOM     24  C   UNL A   1      45.947  28.476  27.212  1.00  0.00     0.034 A 
ATOM     25  C   UNL A   1      39.757  30.133  30.056  1.00  0.00     0.034 A 
ATOM     26  C   UNL A   1      45.850  29.810  27.745  1.00  0.00     0.049 A 
ATOM     27  C   UNL A   1      40.916  31.084  30.078  1.00  0.00     0.074 A 
ATOM     28  C   UNL A   1      46.818  30.800  27.768  1.00  0.00     0.029 A 
ATOM     29  N   UNL A   1      44.728  30.339  28.366  1.00  0.00    -0.354 N 
ATOM     30  N   UNL A   1      42.103  30.948  29.538  1.00  0.00    -0.248 NA
ATOM     31  C   UNL A   1      40.709  32.361  30.770  1.00  0.00     0.031 C 
ATOM     32  C   UNL A   1      46.295  31.909  28.440  1.00  0.00     0.029 A 
ATOM     33  C   UNL A   1      44.984  31.631  28.792  1.00  0.00     0.049 A 
ATOM     34  H   UNL A   1      43.873  29.865  28.486  1.00  0.00     0.167 HD
ATOM     35  C   UNL A   1      42.775  32.135  29.797  1.00  0.00     0.074 A 
ATOM     36  C   UNL A   1      41.852  32.986  30.521  1.00  0.00     0.031 C 
ATOM     37  C   UNL A   1      44.044  32.484  29.475  1.00  0.00     0.034 A 
BRANCH  24  38
ATOM     38  C   UNL A   1      47.273  28.036  26.642  1.00  0.00     0.023 A 
ATOM     39  C   UNL A   1      48.321  27.660  27.505  1.00  0.00     0.012 A 
ATOM     40  C   UNL A   1      47.456  27.928  25.248  1.00  0.00     0.148 A 
ATOM     41  C   UNL A   1      49.539  27.214  26.993  1.00  0.00     0.002 A 
ATOM     42  C   UNL A   1      48.657  27.440  24.746  1.00  0.00     0.091 A 
ATOM     43  F   UNL A   1      46.455  28.307  24.440  1.00  0.00    -0.205 F 
ATOM     44  C   UNL A   1      49.703  27.094  25.615  1.00  0.00     0.022 A 
BRANCH  42  45
ATOM     45  S   UNL A   1      48.939  27.172  22.992  1.00  0.00     0.127 S 
ATOM     46  O   UNL A   1      48.244  25.905  22.772  1.00  0.00    -0.237 OA
ATOM     47  O   UNL A   1      48.285  28.337  22.394  1.00  0.00    -0.237 OA
ATOM     48  O   UNL A   1      50.383  27.128  22.818  1.00  0.00    -0.744 OA
ENDBRANCH  42  45
ENDBRANCH  24  38
BRANCH  25  49
ATOM     49  C   UNL A   1      38.460  30.474  30.703  1.00  0.00     0.023 A 
ATOM     50  C   UNL A   1      38.234  30.114  32.044  1.00  0.00     0.012 A 
ATOM     51  C   UNL A   1      37.466  31.186  30.003  1.00  0.00     0.148 A 
ATOM     52  C   UNL A   1      37.024  30.427  32.667  1.00  0.00     0.002 A 
ATOM     53  C   UNL A   1      36.291  31.549  30.648  1.00  0.00     0.091 A 
ATOM     54  F   UNL A   1      37.701  31.514  28.725  1.00  0.00    -0.205 F 
ATOM     55  C   UNL A   1      36.059  31.153  31.974  1.00  0.00     0.022 A 
BRANCH  53  56
ATOM     56  S   UNL A   1      35.057  32.601  29.878  1.00  0.00     0.127 S 
ATOM     57  O   UNL A   1      34.495  31.710  28.866  1.00  0.00    -0.237 OA
ATOM     58  O   UNL A   1      34.168  32.894  31.003  1.00  0.00    -0.237 OA
ATOM     59  O   UNL A   1      35.784  33.756  29.370  1.00  0.00    -0.744 OA
ENDBRANCH  53  56
ENDBRANCH  25  49
BRANCH  37  60
ATOM     60  C   UNL A   1      44.501  33.866  29.861  1.00  0.00     0.023 A 
ATOM     61  C   UNL A   1      45.185  34.073  31.076  1.00  0.00     0.012 A 
ATOM     62  C   UNL A   1      44.298  34.952  28.987  1.00  0.00     0.148 A 
ATOM     63  C   UNL A   1      45.625  35.347  31.432  1.00  0.00     0.002 A 
ATOM     64  C   UNL A   1      44.789  36.207  29.322  1.00  0.00     0.091 A 
ATOM     65  F   UNL A   1      43.628  34.737  27.846  1.00  0.00    -0.205 F 
ATOM     66  C   UNL A   1      45.439  36.410  30.551  1.00  0.00     0.022 A 
BRANCH  64  67
ATOM     67  S   UNL A   1      44.684  37.611  28.208  1.00  0.00     0.127 S 
ATOM     68  O   UNL A   1      45.329  38.663  28.993  1.00  0.00    -0.237 OA
ATOM     69  O   UNL A   1      45.457  37.149  27.055  1.00  0.00    -0.237 OA
ATOM     70  O   UNL A   1      43.266  37.812  27.944  1.00  0.00    -0.744 OA
ENDBRANCH  64  67
ENDBRANCH  37  60
ENDBRANCH  11  12
ENDBRANCH   4   6
ENDBRANCH   1   2
BRANCH   1  71
ATOM     71  C   UNL A   1      35.777  21.788  24.742  1.00  0.00     0.042 C 
BRANCH  71  72
ATOM     72  C   UNL A   1      34.988  21.342  25.962  1.00  0.00     0.118 C 
BRANCH  72  73
ATOM     73  N   UNL A   1      34.143  20.191  25.673  1.00  0.00    -0.352 N 
ATOM     74  C   UNL A   1      32.840  20.177  25.254  1.00  0.00     0.252 C 
ATOM     75  H   UNL A   1      34.564  19.309  25.793  1.00  0.00     0.163 HD
ATOM     76  O   UNL A   1      32.188  19.140  25.224  1.00  0.00    -0.269 OA
BRANCH  74  77
ATOM     77  C   UNL A   1      32.222  21.441  24.851  1.00  0.00     0.058 A 
ATOM     78  C   UNL A   1      32.271  21.899  23.535  1.00  0.00     0.017 A 
ATOM     79  C   UNL A   1      31.608  22.215  25.811  1.00  0.00     0.125 A 
ATOM     80  C   UNL A   1      31.723  23.142  23.232  1.00  0.00     0.030 A 
ATOM     81  N   UNL A   1      31.087  23.431  25.541  1.00  0.00    -0.255 NA
ATOM     82  C   UNL A   1      31.129  23.878  24.256  1.00  0.00     0.095 A 
BRANCH  82  83
ATOM     83  C   UNL A   1      30.432  25.198  23.955  1.00  0.00     0.319 C 
BRANCH  83  84
ATOM     84  N   UNL A   1      31.151  26.423  24.371  1.00  0.00    -0.327 N 
ATOM     85  C   UNL A   1      32.575  26.406  23.952  1.00  0.00     0.284 C 
ATOM     86  C   UNL A   1      30.962  26.742  25.795  1.00  0.00     0.289 C 
ATOM     87  H   UNL A   1      30.722  27.199  23.867  1.00  0.00     0.348 HD
ATOM     88  C   UNL A   1      33.598  27.304  24.696  1.00  0.00     0.183 C 
ATOM     89  C   UNL A   1      31.668  28.057  26.120  1.00  0.00     0.161 C 
ATOM     90  N   UNL A   1      33.089  27.937  25.890  1.00  0.00    -0.309 N 
ATOM     91  C   UNL A   1      31.602  28.495  27.580  1.00  0.00     0.148 C 
ATOM     92  C   UNL A   1      33.821  28.583  26.862  1.00  0.00     0.318 C 
ATOM     93  N   UNL A   1      32.929  28.995  27.841  1.00  0.00    -0.336 N 
ATOM     94  O   UNL A   1      35.027  28.762  26.895  1.00  0.00    -0.249 OA
ATOM     95  H   UNL A   1      33.170  29.557  28.613  1.00  0.00     0.165 HD
ENDBRANCH  83  84
ENDBRANCH  82  83
ENDBRANCH  74  77
ENDBRANCH  72  73
ENDBRANCH  71  72
ENDBRANCH   1  71
TORSDOF 15
ENDMDL
