MODEL 1
REMARK VINA RESULT:     -12.2      0.000      0.000
REMARK SMILES Cc1ccc(C(=O)N2CCC(CC(=O)NCCCNC(=O)c3ccc(-c4c5nc(c(-c6cccc(S(=O)(=O)[O-])c6F)c6ccc([nH]6)c(-c6cccc(S(=O)(=O)[O-])c6F)c6nc(c(-c7cccc(S(=O)(=O)[O-])c7F)c7ccc4[nH]7)C=C6)C=C5)cc3)CC2)cn1
REMARK SMILES IDX 17 1 16 2 15 3 13 4 14 5 12 7 11 8 6 9 7 10 8 11 9 12 86 13
REMARK SMILES IDX 10 14 85 15 5 16 1 17 2 18 3 19 88 20 4 21 87 22 18 23 19 24
REMARK SMILES IDX 20 25 21 27 22 28 23 29 84 30 24 31 83 32 25 33 26 34 27 35
REMARK SMILES IDX 77 36 28 37 82 38 76 39 78 40 29 41 81 42 75 43 74 44 30 46
REMARK SMILES IDX 62 47 42 48 61 49 43 50 46 51 60 52 79 53 44 54 45 55 59 57
REMARK SMILES IDX 80 58 47 59 31 60 32 61 40 62 33 63 35 64 41 65 34 66 36 67
REMARK SMILES IDX 37 68 38 69 39 70 63 71 64 72 72 73 65 74 67 75 73 76 66 77
REMARK SMILES IDX 68 78 69 79 70 80 71 81 48 82 49 83 57 84 50 85 52 86 58 87
REMARK SMILES IDX 51 88 53 89 54 90 55 91 56 92
REMARK H PARENT 15 6 19 26 78 45 46 56
REMARK Flexibility Score: inf
ROOT
ATOM      1  C   UNL A   1      37.269  19.551  24.936  1.00  0.00     0.042 C 
ENDROOT
BRANCH   1   2
ATOM      2  C   UNL A   1      35.987  20.383  25.001  1.00  0.00     0.117 C 
BRANCH   2   3
ATOM      3  N   UNL A   1      34.794  19.584  25.253  1.00  0.00    -0.356 N 
ATOM      4  C   UNL A   1      33.484  19.810  24.948  1.00  0.00     0.220 C 
ATOM      5  O   UNL A   1      32.656  18.948  25.247  1.00  0.00    -0.275 OA
ATOM      6  H   UNL A   1      34.962  18.736  25.723  1.00  0.00     0.163 HD
BRANCH   4   7
ATOM      7  C   UNL A   1      33.052  21.095  24.269  1.00  0.00     0.103 C 
BRANCH   7   8
ATOM      8  C   UNL A   1      33.075  22.318  25.204  1.00  0.00     0.002 C 
ATOM      9  C   UNL A   1      31.815  26.078  24.856  1.00  0.00     0.255 C 
ATOM     10  O   UNL A   1      31.232  25.815  23.810  1.00  0.00    -0.269 OA
ATOM     11  N   UNL A   1      32.413  25.109  25.646  1.00  0.00    -0.339 N 
ATOM     12  C   UNL A   1      33.800  24.764  25.411  1.00  0.00     0.120 C 
ATOM     13  C   UNL A   1      31.592  24.088  26.264  1.00  0.00     0.120 C 
ATOM     14  C   UNL A   1      33.898  23.471  24.614  1.00  0.00     0.026 C 
ATOM     15  C   UNL A   1      31.632  22.781  25.481  1.00  0.00     0.026 C 
BRANCH   9  16
ATOM     16  C   UNL A   1      31.831  27.449  25.425  1.00  0.00     0.058 A 
ATOM     17  C   UNL A   1      31.715  31.468  26.815  1.00  0.00     0.066 C 
ATOM     18  C   UNL A   1      31.746  30.045  26.342  1.00  0.00     0.037 A 
ATOM     19  C   UNL A   1      31.737  29.002  27.264  1.00  0.00     0.024 A 
ATOM     20  N   UNL A   1      31.778  29.832  24.999  1.00  0.00    -0.261 NA
ATOM     21  C   UNL A   1      31.768  27.691  26.798  1.00  0.00     0.017 A 
ATOM     22  C   UNL A   1      31.845  28.545  24.576  1.00  0.00     0.125 A 
ENDBRANCH   9  16
ENDBRANCH   7   8
ENDBRANCH   4   7
ENDBRANCH   2   3
ENDBRANCH   1   2
BRANCH   1  23
ATOM     23  C   UNL A   1      38.510  20.260  25.461  1.00  0.00     0.118 C 
BRANCH  23  24
ATOM     24  N   UNL A   1      39.545  19.315  25.843  1.00  0.00    -0.352 N 
ATOM     25  C   UNL A   1      40.868  19.535  26.148  1.00  0.00     0.251 C 
ATOM     26  H   UNL A   1      39.256  18.376  25.891  1.00  0.00     0.163 HD
ATOM     27  O   UNL A   1      41.633  18.572  26.183  1.00  0.00    -0.269 OA
BRANCH  25  28
ATOM     28  C   UNL A   1      41.390  20.897  26.430  1.00  0.00     0.039 A 
ATOM     29  C   UNL A   1      41.408  21.348  27.756  1.00  0.00     0.014 A 
ATOM     30  C   UNL A   1      41.779  21.767  25.407  1.00  0.00     0.014 A 
ATOM     31  C   UNL A   1      41.841  22.646  28.054  1.00  0.00     0.010 A 
ATOM     32  C   UNL A   1      42.280  23.034  25.713  1.00  0.00     0.010 A 
ATOM     33  C   UNL A   1      42.296  23.499  27.036  1.00  0.00    -0.014 A 
BRANCH  33  34
ATOM     34  C   UNL A   1      42.759  24.884  27.330  1.00  0.00     0.031 A 
ATOM     35  C   UNL A   1      41.824  25.881  27.970  1.00  0.00     0.074 A 
ATOM     36  C   UNL A   1      43.993  25.278  26.955  1.00  0.00     0.049 A 
ATOM     37  N   UNL A   1      42.024  27.145  28.242  1.00  0.00    -0.248 NA
ATOM     38  C   UNL A   1      40.477  25.401  28.326  1.00  0.00     0.031 C 
ATOM     39  C   UNL A   1      44.973  24.442  26.260  1.00  0.00     0.029 A 
ATOM     40  N   UNL A   1      44.622  26.492  27.079  1.00  0.00    -0.354 N 
ATOM     41  C   UNL A   1      40.822  27.622  28.756  1.00  0.00     0.074 A 
ATOM     42  C   UNL A   1      39.890  26.517  28.735  1.00  0.00     0.031 C 
ATOM     43  C   UNL A   1      46.076  25.169  26.015  1.00  0.00     0.029 A 
ATOM     44  C   UNL A   1      45.877  26.525  26.515  1.00  0.00     0.049 A 
ATOM     45  H   UNL A   1      44.214  27.267  27.530  1.00  0.00     0.167 HD
ATOM     46  C   UNL A   1      40.528  28.855  29.232  1.00  0.00     0.034 A 
ATOM     47  C   UNL A   1      46.766  27.533  26.411  1.00  0.00     0.034 A 
ATOM     48  C   UNL A   1      41.473  29.936  29.322  1.00  0.00     0.049 A 
ATOM     49  C   UNL A   1      46.440  28.873  27.015  1.00  0.00     0.074 A 
ATOM     50  C   UNL A   1      41.295  31.188  29.885  1.00  0.00     0.029 A 
ATOM     51  N   UNL A   1      42.772  29.894  28.841  1.00  0.00    -0.354 N 
ATOM     52  N   UNL A   1      45.356  29.251  27.646  1.00  0.00    -0.248 NA
ATOM     53  C   UNL A   1      47.476  29.913  26.927  1.00  0.00     0.031 C 
ATOM     54  C   UNL A   1      42.487  31.907  29.738  1.00  0.00     0.029 A 
ATOM     55  C   UNL A   1      43.407  31.098  29.091  1.00  0.00     0.049 A 
ATOM     56  H   UNL A   1      43.182  29.122  28.390  1.00  0.00     0.167 HD
ATOM     57  C   UNL A   1      45.589  30.560  28.054  1.00  0.00     0.074 A 
ATOM     58  C   UNL A   1      46.927  30.901  27.621  1.00  0.00     0.031 C 
ATOM     59  C   UNL A   1      44.760  31.408  28.711  1.00  0.00     0.034 A 
BRANCH  46  60
ATOM     60  C   UNL A   1      39.139  29.091  29.763  1.00  0.00     0.023 A 
ATOM     61  C   UNL A   1      38.830  28.706  31.084  1.00  0.00     0.012 A 
ATOM     62  C   UNL A   1      38.165  29.756  28.992  1.00  0.00     0.148 A 
ATOM     63  C   UNL A   1      37.567  28.953  31.620  1.00  0.00     0.002 A 
ATOM     64  C   UNL A   1      36.920  30.035  29.547  1.00  0.00     0.091 A 
ATOM     65  F   UNL A   1      38.469  30.096  27.731  1.00  0.00    -0.205 F 
ATOM     66  C   UNL A   1      36.618  29.626  30.856  1.00  0.00     0.022 A 
BRANCH  64  67
ATOM     67  S   UNL A   1      35.655  30.961  28.670  1.00  0.00     0.127 S 
ATOM     68  O   UNL A   1      34.967  29.900  27.937  1.00  0.00    -0.237 OA
ATOM     69  O   UNL A   1      34.881  31.544  29.767  1.00  0.00    -0.237 OA
ATOM     70  O   UNL A   1      36.366  31.931  27.850  1.00  0.00    -0.744 OA
ENDBRANCH  64  67
ENDBRANCH  46  60
BRANCH  47  71
ATOM     71  C   UNL A   1      48.091  27.289  25.771  1.00  0.00     0.023 A 
ATOM     72  C   UNL A   1      49.167  26.851  26.568  1.00  0.00     0.012 A 
ATOM     73  C   UNL A   1      48.287  27.464  24.388  1.00  0.00     0.148 A 
ATOM     74  C   UNL A   1      50.422  26.619  26.003  1.00  0.00     0.002 A 
ATOM     75  C   UNL A   1      49.529  27.188  23.823  1.00  0.00     0.091 A 
ATOM     76  F   UNL A   1      47.260  27.901  23.645  1.00  0.00    -0.205 F 
ATOM     77  C   UNL A   1      50.600  26.778  24.631  1.00  0.00     0.022 A 
BRANCH  75  78
ATOM     78  S   UNL A   1      49.790  27.266  22.047  1.00  0.00     0.127 S 
ATOM     79  O   UNL A   1      51.165  26.799  21.918  1.00  0.00    -0.237 OA
ATOM     80  O   UNL A   1      48.780  26.340  21.534  1.00  0.00    -0.237 OA
ATOM     81  O   UNL A   1      49.548  28.660  21.688  1.00  0.00    -0.744 OA
ENDBRANCH  75  78
ENDBRANCH  47  71
BRANCH  59  82
ATOM     82  C   UNL A   1      45.275  32.787  29.028  1.00  0.00     0.023 A 
ATOM     83  C   UNL A   1      45.980  33.007  30.226  1.00  0.00     0.012 A 
ATOM     84  C   UNL A   1      45.134  33.843  28.105  1.00  0.00     0.148 A 
ATOM     85  C   UNL A   1      46.517  34.261  30.514  1.00  0.00     0.002 A 
ATOM     86  C   UNL A   1      45.707  35.079  28.379  1.00  0.00     0.091 A 
ATOM     87  F   UNL A   1      44.441  33.621  26.978  1.00  0.00    -0.205 F 
ATOM     88  C   UNL A   1      46.392  35.292  29.586  1.00  0.00     0.022 A 
BRANCH  86  89
ATOM     89  S   UNL A   1      45.670  36.435  27.201  1.00  0.00     0.127 S 
ATOM     90  O   UNL A   1      46.403  37.476  27.920  1.00  0.00    -0.237 OA
ATOM     91  O   UNL A   1      46.381  35.873  26.051  1.00  0.00    -0.237 OA
ATOM     92  O   UNL A   1      44.261  36.713  26.958  1.00  0.00    -0.744 OA
ENDBRANCH  86  89
ENDBRANCH  59  82
ENDBRANCH  33  34
ENDBRANCH  25  28
ENDBRANCH  23  24
ENDBRANCH   1  23
TORSDOF 15
ENDMDL
MODEL 2
REMARK VINA RESULT:     -12.2      6.253     11.841
REMARK SMILES Cc1ccc(C(=O)N2CCC(CC(=O)NCCCNC(=O)c3ccc(-c4c5nc(c(-c6cccc(S(=O)(=O)[O-])c6F)c6ccc([nH]6)c(-c6cccc(S(=O)(=O)[O-])c6F)c6nc(c(-c7cccc(S(=O)(=O)[O-])c7F)c7ccc4[nH]7)C=C6)C=C5)cc3)CC2)cn1
REMARK SMILES IDX 17 1 16 2 15 3 13 4 14 5 12 7 11 8 6 9 7 10 8 11 9 12 86 13
REMARK SMILES IDX 10 14 85 15 5 16 1 17 2 18 3 19 88 20 4 21 87 22 18 23 19 24
REMARK SMILES IDX 20 25 21 27 22 28 23 29 84 30 24 31 83 32 25 33 26 34 27 35
REMARK SMILES IDX 77 36 28 37 82 38 76 39 78 40 29 41 81 42 75 43 74 44 30 46
REMARK SMILES IDX 62 47 42 48 61 49 43 50 46 51 60 52 79 53 44 54 45 55 59 57
REMARK SMILES IDX 80 58 47 59 31 60 32 61 40 62 33 63 35 64 41 65 34 66 36 67
REMARK SMILES IDX 37 68 38 69 39 70 63 71 64 72 72 73 65 74 67 75 73 76 66 77
REMARK SMILES IDX 68 78 69 79 70 80 71 81 48 82 49 83 57 84 50 85 52 86 58 87
REMARK SMILES IDX 51 88 53 89 54 90 55 91 56 92
REMARK H PARENT 15 6 19 26 78 45 46 56
REMARK Flexibility Score: inf
ROOT
ATOM      1  C   UNL A   1      31.428  32.368  26.551  1.00  0.00     0.042 C 
ENDROOT
BRANCH   1   2
ATOM      2  C   UNL A   1      31.392  30.843  26.441  1.00  0.00     0.117 C 
BRANCH   2   3
ATOM      3  N   UNL A   1      31.359  30.366  25.064  1.00  0.00    -0.356 N 
ATOM      4  C   UNL A   1      31.596  29.129  24.538  1.00  0.00     0.220 C 
ATOM      5  O   UNL A   1      31.469  28.977  23.322  1.00  0.00    -0.275 OA
ATOM      6  H   UNL A   1      31.126  31.053  24.399  1.00  0.00     0.163 HD
BRANCH   4   7
ATOM      7  C   UNL A   1      32.017  27.974  25.424  1.00  0.00     0.103 C 
BRANCH   7   8
ATOM      8  C   UNL A   1      32.188  26.648  24.660  1.00  0.00     0.002 C 
ATOM      9  C   UNL A   1      32.752  22.871  25.783  1.00  0.00     0.255 C 
ATOM     10  O   UNL A   1      32.532  23.158  26.954  1.00  0.00    -0.269 OA
ATOM     11  N   UNL A   1      32.584  23.774  24.745  1.00  0.00    -0.339 N 
ATOM     12  C   UNL A   1      33.700  24.607  24.347  1.00  0.00     0.120 C 
ATOM     13  C   UNL A   1      31.261  24.290  24.458  1.00  0.00     0.120 C 
ATOM     14  C   UNL A   1      33.554  26.006  24.931  1.00  0.00     0.026 C 
ATOM     15  C   UNL A   1      31.056  25.679  25.052  1.00  0.00     0.026 C 
BRANCH   9  16
ATOM     16  C   UNL A   1      33.108  21.492  25.363  1.00  0.00     0.058 A 
ATOM     17  C   UNL A   1      33.889  17.550  23.970  1.00  0.00     0.066 C 
ATOM     18  C   UNL A   1      33.632  18.946  24.454  1.00  0.00     0.037 A 
ATOM     19  C   UNL A   1      34.697  19.772  24.800  1.00  0.00     0.024 A 
ATOM     20  N   UNL A   1      32.337  19.353  24.530  1.00  0.00    -0.261 NA
ATOM     21  C   UNL A   1      34.431  21.062  25.248  1.00  0.00     0.017 A 
ATOM     22  C   UNL A   1      32.106  20.603  25.005  1.00  0.00     0.125 A 
ENDBRANCH   9  16
ENDBRANCH   7   8
ENDBRANCH   4   7
ENDBRANCH   2   3
ENDBRANCH   1   2
BRANCH   1  23
ATOM     23  C   UNL A   1      32.712  32.927  27.151  1.00  0.00     0.118 C 
BRANCH  23  24
ATOM     24  N   UNL A   1      32.534  34.293  27.614  1.00  0.00    -0.352 N 
ATOM     25  C   UNL A   1      33.076  34.928  28.707  1.00  0.00     0.251 C 
ATOM     26  H   UNL A   1      31.935  34.847  27.064  1.00  0.00     0.163 HD
ATOM     27  O   UNL A   1      32.589  35.998  29.069  1.00  0.00    -0.269 OA
BRANCH  25  28
ATOM     28  C   UNL A   1      34.225  34.354  29.455  1.00  0.00     0.039 A 
ATOM     29  C   UNL A   1      35.509  34.473  28.909  1.00  0.00     0.014 A 
ATOM     30  C   UNL A   1      34.050  33.630  30.637  1.00  0.00     0.014 A 
ATOM     31  C   UNL A   1      36.608  33.897  29.558  1.00  0.00     0.010 A 
ATOM     32  C   UNL A   1      35.155  33.119  31.321  1.00  0.00     0.010 A 
ATOM     33  C   UNL A   1      36.445  33.226  30.779  1.00  0.00    -0.014 A 
BRANCH  33  34
ATOM     34  C   UNL A   1      37.600  32.604  31.486  1.00  0.00     0.031 A 
ATOM     35  C   UNL A   1      38.351  31.457  30.856  1.00  0.00     0.074 A 
ATOM     36  C   UNL A   1      37.932  33.012  32.728  1.00  0.00     0.049 A 
ATOM     37  N   UNL A   1      39.337  30.748  31.343  1.00  0.00    -0.248 NA
ATOM     38  C   UNL A   1      37.920  31.033  29.512  1.00  0.00     0.031 C 
ATOM     39  C   UNL A   1      37.244  34.057  33.488  1.00  0.00     0.029 A 
ATOM     40  N   UNL A   1      38.914  32.575  33.582  1.00  0.00    -0.354 N 
ATOM     41  C   UNL A   1      39.613  29.771  30.393  1.00  0.00     0.074 A 
ATOM     42  C   UNL A   1      38.675  29.963  29.309  1.00  0.00     0.031 C 
ATOM     43  C   UNL A   1      37.820  34.176  34.695  1.00  0.00     0.029 A 
ATOM     44  C   UNL A   1      38.904  33.205  34.805  1.00  0.00     0.049 A 
ATOM     45  H   UNL A   1      39.564  31.875  33.343  1.00  0.00     0.167 HD
ATOM     46  C   UNL A   1      40.579  28.820  30.402  1.00  0.00     0.034 A 
ATOM     47  C   UNL A   1      39.678  33.022  35.894  1.00  0.00     0.034 A 
ATOM     48  C   UNL A   1      41.560  28.672  31.443  1.00  0.00     0.049 A 
ATOM     49  C   UNL A   1      40.791  32.009  35.848  1.00  0.00     0.074 A 
ATOM     50  C   UNL A   1      42.640  27.807  31.489  1.00  0.00     0.029 A 
ATOM     51  N   UNL A   1      41.586  29.407  32.617  1.00  0.00    -0.354 N 
ATOM     52  N   UNL A   1      41.138  31.210  34.869  1.00  0.00    -0.248 NA
ATOM     53  C   UNL A   1      41.644  31.901  37.042  1.00  0.00     0.031 C 
ATOM     54  C   UNL A   1      43.315  28.015  32.697  1.00  0.00     0.029 A 
ATOM     55  C   UNL A   1      42.660  29.014  33.397  1.00  0.00     0.049 A 
ATOM     56  H   UNL A   1      40.937  30.106  32.860  1.00  0.00     0.167 HD
ATOM     57  C   UNL A   1      42.264  30.526  35.317  1.00  0.00     0.074 A 
ATOM     58  C   UNL A   1      42.555  31.022  36.645  1.00  0.00     0.031 C 
ATOM     59  C   UNL A   1      42.979  29.558  34.691  1.00  0.00     0.034 A 
BRANCH  46  60
ATOM     60  C   UNL A   1      40.673  27.901  29.212  1.00  0.00     0.023 A 
ATOM     61  C   UNL A   1      39.821  26.781  29.137  1.00  0.00     0.012 A 
ATOM     62  C   UNL A   1      41.541  28.182  28.140  1.00  0.00     0.148 A 
ATOM     63  C   UNL A   1      39.852  25.938  28.027  1.00  0.00     0.002 A 
ATOM     64  C   UNL A   1      41.538  27.360  27.018  1.00  0.00     0.091 A 
ATOM     65  F   UNL A   1      42.359  29.241  28.238  1.00  0.00    -0.205 F 
ATOM     66  C   UNL A   1      40.701  26.233  26.964  1.00  0.00     0.022 A 
BRANCH  64  67
ATOM     67  S   UNL A   1      42.543  27.697  25.567  1.00  0.00     0.127 S 
ATOM     68  O   UNL A   1      41.957  28.947  25.086  1.00  0.00    -0.237 OA
ATOM     69  O   UNL A   1      43.882  27.831  26.141  1.00  0.00    -0.237 OA
ATOM     70  O   UNL A   1      42.375  26.547  24.689  1.00  0.00    -0.744 OA
ENDBRANCH  64  67
ENDBRANCH  46  60
BRANCH  47  71
ATOM     71  C   UNL A   1      39.477  33.877  37.099  1.00  0.00     0.023 A 
ATOM     72  C   UNL A   1      39.940  35.207  37.081  1.00  0.00     0.012 A 
ATOM     73  C   UNL A   1      38.817  33.395  38.245  1.00  0.00     0.148 A 
ATOM     74  C   UNL A   1      39.774  36.033  38.194  1.00  0.00     0.002 A 
ATOM     75  C   UNL A   1      38.614  34.237  39.334  1.00  0.00     0.091 A 
ATOM     76  F   UNL A   1      38.400  32.121  38.256  1.00  0.00    -0.205 F 
ATOM     77  C   UNL A   1      39.103  35.552  39.315  1.00  0.00     0.022 A 
BRANCH  75  78
ATOM     78  S   UNL A   1      37.660  33.710  40.763  1.00  0.00     0.127 S 
ATOM     79  O   UNL A   1      37.495  34.958  41.498  1.00  0.00    -0.237 OA
ATOM     80  O   UNL A   1      36.435  33.191  40.155  1.00  0.00    -0.237 OA
ATOM     81  O   UNL A   1      38.476  32.687  41.409  1.00  0.00    -0.744 OA
ENDBRANCH  75  78
ENDBRANCH  47  71
BRANCH  59  82
ATOM     82  C   UNL A   1      44.163  28.979  35.418  1.00  0.00     0.023 A 
ATOM     83  C   UNL A   1      45.436  29.554  35.238  1.00  0.00     0.012 A 
ATOM     84  C   UNL A   1      44.004  27.925  36.339  1.00  0.00     0.148 A 
ATOM     85  C   UNL A   1      46.538  29.074  35.945  1.00  0.00     0.002 A 
ATOM     86  C   UNL A   1      45.098  27.477  37.070  1.00  0.00     0.091 A 
ATOM     87  F   UNL A   1      42.788  27.376  36.481  1.00  0.00    -0.205 F 
ATOM     88  C   UNL A   1      46.367  28.045  36.869  1.00  0.00     0.022 A 
BRANCH  86  89
ATOM     89  S   UNL A   1      44.950  26.219  38.344  1.00  0.00     0.127 S 
ATOM     90  O   UNL A   1      44.019  26.849  39.279  1.00  0.00    -0.237 OA
ATOM     91  O   UNL A   1      44.396  25.085  37.603  1.00  0.00    -0.237 OA
ATOM     92  O   UNL A   1      46.299  26.005  38.850  1.00  0.00    -0.744 OA
ENDBRANCH  86  89
ENDBRANCH  59  82
ENDBRANCH  33  34
ENDBRANCH  25  28
ENDBRANCH  23  24
ENDBRANCH   1  23
TORSDOF 15
ENDMDL
MODEL 3
REMARK VINA RESULT:     -12.1      5.625     11.406
REMARK SMILES Cc1ccc(C(=O)N2CCC(CC(=O)NCCCNC(=O)c3ccc(-c4c5nc(c(-c6cccc(S(=O)(=O)[O-])c6F)c6ccc([nH]6)c(-c6cccc(S(=O)(=O)[O-])c6F)c6nc(c(-c7cccc(S(=O)(=O)[O-])c7F)c7ccc4[nH]7)C=C6)C=C5)cc3)CC2)cn1
REMARK SMILES IDX 17 1 16 2 15 3 13 4 14 5 12 7 11 8 6 9 7 10 8 11 9 12 86 13
REMARK SMILES IDX 10 14 85 15 5 16 1 17 2 18 3 19 88 20 4 21 87 22 18 23 19 24
REMARK SMILES IDX 20 25 21 27 22 28 23 29 84 30 24 31 83 32 25 33 26 34 27 35
REMARK SMILES IDX 77 36 28 37 82 38 76 39 78 40 29 41 81 42 75 43 74 44 30 46
REMARK SMILES IDX 62 47 42 48 61 49 43 50 46 51 60 52 79 53 44 54 45 55 59 57
REMARK SMILES IDX 80 58 47 59 31 60 32 61 40 62 33 63 35 64 41 65 34 66 36 67
REMARK SMILES IDX 37 68 38 69 39 70 63 71 64 72 72 73 65 74 67 75 73 76 66 77
REMARK SMILES IDX 68 78 69 79 70 80 71 81 48 82 49 83 57 84 50 85 52 86 58 87
REMARK SMILES IDX 51 88 53 89 54 90 55 91 56 92
REMARK H PARENT 15 6 19 26 78 45 46 56
REMARK Flexibility Score: inf
ROOT
ATOM      1  C   UNL A   1      31.012  31.686  25.888  1.00  0.00     0.042 C 
ENDROOT
BRANCH   1   2
ATOM      2  C   UNL A   1      31.058  30.260  25.337  1.00  0.00     0.117 C 
BRANCH   2   3
ATOM      3  N   UNL A   1      30.643  30.169  23.942  1.00  0.00    -0.356 N 
ATOM      4  C   UNL A   1      30.329  29.088  23.170  1.00  0.00     0.220 C 
ATOM      5  O   UNL A   1      29.972  29.285  22.008  1.00  0.00    -0.275 OA
ATOM      6  H   UNL A   1      30.579  31.033  23.478  1.00  0.00     0.163 HD
BRANCH   4   7
ATOM      7  C   UNL A   1      30.428  27.680  23.723  1.00  0.00     0.103 C 
BRANCH   7   8
ATOM      8  C   UNL A   1      31.848  27.092  23.644  1.00  0.00     0.002 C 
ATOM      9  C   UNL A   1      33.360  23.454  24.218  1.00  0.00     0.255 C 
ATOM     10  O   UNL A   1      32.237  22.966  24.277  1.00  0.00    -0.269 OA
ATOM     11  N   UNL A   1      33.587  24.779  23.881  1.00  0.00    -0.339 N 
ATOM     12  C   UNL A   1      33.629  25.777  24.930  1.00  0.00     0.120 C 
ATOM     13  C   UNL A   1      33.223  25.249  22.560  1.00  0.00     0.120 C 
ATOM     14  C   UNL A   1      32.309  26.534  24.997  1.00  0.00     0.026 C 
ATOM     15  C   UNL A   1      31.889  25.987  22.571  1.00  0.00     0.026 C 
BRANCH   9  16
ATOM     16  C   UNL A   1      34.585  22.633  24.393  1.00  0.00     0.058 A 
ATOM     17  C   UNL A   1      37.922  20.035  24.850  1.00  0.00     0.066 C 
ATOM     18  C   UNL A   1      36.754  20.959  24.672  1.00  0.00     0.037 A 
ATOM     19  C   UNL A   1      36.935  22.207  24.083  1.00  0.00     0.024 A 
ATOM     20  N   UNL A   1      35.540  20.524  25.103  1.00  0.00    -0.261 NA
ATOM     21  C   UNL A   1      35.836  23.046  23.931  1.00  0.00     0.017 A 
ATOM     22  C   UNL A   1      34.493  21.378  24.976  1.00  0.00     0.125 A 
ENDBRANCH   9  16
ENDBRANCH   7   8
ENDBRANCH   4   7
ENDBRANCH   2   3
ENDBRANCH   1   2
BRANCH   1  23
ATOM     23  C   UNL A   1      32.163  32.040  26.820  1.00  0.00     0.118 C 
BRANCH  23  24
ATOM     24  N   UNL A   1      32.197  33.462  27.113  1.00  0.00    -0.352 N 
ATOM     25  C   UNL A   1      32.976  34.158  28.007  1.00  0.00     0.251 C 
ATOM     26  H   UNL A   1      31.565  34.011  26.595  1.00  0.00     0.163 HD
ATOM     27  O   UNL A   1      32.661  35.313  28.291  1.00  0.00    -0.269 OA
BRANCH  25  28
ATOM     28  C   UNL A   1      34.180  33.552  28.633  1.00  0.00     0.039 A 
ATOM     29  C   UNL A   1      34.054  32.307  29.263  1.00  0.00     0.014 A 
ATOM     30  C   UNL A   1      35.404  34.224  28.685  1.00  0.00     0.014 A 
ATOM     31  C   UNL A   1      35.154  31.731  29.911  1.00  0.00     0.010 A 
ATOM     32  C   UNL A   1      36.518  33.615  29.268  1.00  0.00     0.010 A 
ATOM     33  C   UNL A   1      36.402  32.372  29.908  1.00  0.00    -0.014 A 
BRANCH  33  34
ATOM     34  C   UNL A   1      37.584  31.778  30.593  1.00  0.00     0.031 A 
ATOM     35  C   UNL A   1      38.424  30.735  29.897  1.00  0.00     0.074 A 
ATOM     36  C   UNL A   1      37.865  32.113  31.869  1.00  0.00     0.049 A 
ATOM     37  N   UNL A   1      39.447  30.059  30.353  1.00  0.00    -0.248 NA
ATOM     38  C   UNL A   1      38.047  30.385  28.516  1.00  0.00     0.031 C 
ATOM     39  C   UNL A   1      37.094  33.049  32.688  1.00  0.00     0.029 A 
ATOM     40  N   UNL A   1      38.860  31.679  32.710  1.00  0.00    -0.354 N 
ATOM     41  C   UNL A   1      39.807  29.177  29.339  1.00  0.00     0.074 A 
ATOM     42  C   UNL A   1      38.876  29.386  28.251  1.00  0.00     0.031 C 
ATOM     43  C   UNL A   1      37.640  33.116  33.913  1.00  0.00     0.029 A 
ATOM     44  C   UNL A   1      38.786  32.214  33.976  1.00  0.00     0.049 A 
ATOM     45  H   UNL A   1      39.561  31.045  32.434  1.00  0.00     0.167 HD
ATOM     46  C   UNL A   1      40.835  28.296  29.299  1.00  0.00     0.034 A 
ATOM     47  C   UNL A   1      39.552  32.002  35.065  1.00  0.00     0.034 A 
ATOM     48  C   UNL A   1      41.806  28.136  30.349  1.00  0.00     0.049 A 
ATOM     49  C   UNL A   1      40.732  31.073  34.970  1.00  0.00     0.074 A 
ATOM     50  C   UNL A   1      42.942  27.344  30.355  1.00  0.00     0.029 A 
ATOM     51  N   UNL A   1      41.760  28.781  31.574  1.00  0.00    -0.354 N 
ATOM     52  N   UNL A   1      41.150  30.374  33.943  1.00  0.00    -0.248 NA
ATOM     53  C   UNL A   1      41.569  30.932  36.171  1.00  0.00     0.031 C 
ATOM     54  C   UNL A   1      43.579  27.505  31.591  1.00  0.00     0.029 A 
ATOM     55  C   UNL A   1      42.845  28.403  32.347  1.00  0.00     0.049 A 
ATOM     56  H   UNL A   1      41.061  29.414  31.853  1.00  0.00     0.167 HD
ATOM     57  C   UNL A   1      42.313  29.735  34.364  1.00  0.00     0.074 A 
ATOM     58  C   UNL A   1      42.545  30.149  35.732  1.00  0.00     0.031 C 
ATOM     59  C   UNL A   1      43.103  28.868  33.685  1.00  0.00     0.034 A 
BRANCH  46  60
ATOM     60  C   UNL A   1      41.013  27.477  28.048  1.00  0.00     0.023 A 
ATOM     61  C   UNL A   1      41.569  28.080  26.902  1.00  0.00     0.012 A 
ATOM     62  C   UNL A   1      40.703  26.103  28.025  1.00  0.00     0.148 A 
ATOM     63  C   UNL A   1      41.789  27.337  25.743  1.00  0.00     0.002 A 
ATOM     64  C   UNL A   1      40.962  25.359  26.878  1.00  0.00     0.091 A 
ATOM     65  F   UNL A   1      40.155  25.551  29.117  1.00  0.00    -0.205 F 
ATOM     66  C   UNL A   1      41.496  25.976  25.735  1.00  0.00     0.022 A 
BRANCH  64  67
ATOM     67  S   UNL A   1      40.689  23.586  26.792  1.00  0.00     0.127 S 
ATOM     68  O   UNL A   1      41.593  23.199  25.711  1.00  0.00    -0.237 OA
ATOM     69  O   UNL A   1      41.105  23.142  28.123  1.00  0.00    -0.237 OA
ATOM     70  O   UNL A   1      39.270  23.413  26.514  1.00  0.00    -0.744 OA
ENDBRANCH  64  67
ENDBRANCH  46  60
BRANCH  47  71
ATOM     71  C   UNL A   1      39.271  32.748  36.325  1.00  0.00     0.023 A 
ATOM     72  C   UNL A   1      39.865  34.010  36.522  1.00  0.00     0.012 A 
ATOM     73  C   UNL A   1      38.410  32.233  37.313  1.00  0.00     0.148 A 
ATOM     74  C   UNL A   1      39.629  34.733  37.692  1.00  0.00     0.002 A 
ATOM     75  C   UNL A   1      38.143  32.978  38.457  1.00  0.00     0.091 A 
ATOM     76  F   UNL A   1      37.868  31.022  37.122  1.00  0.00    -0.205 F 
ATOM     77  C   UNL A   1      38.761  34.222  38.655  1.00  0.00     0.022 A 
BRANCH  75  78
ATOM     78  S   UNL A   1      36.949  32.425  39.681  1.00  0.00     0.127 S 
ATOM     79  O   UNL A   1      37.024  33.481  40.683  1.00  0.00    -0.237 OA
ATOM     80  O   UNL A   1      35.701  32.394  38.917  1.00  0.00    -0.237 OA
ATOM     81  O   UNL A   1      37.416  31.107  40.099  1.00  0.00    -0.744 OA
ENDBRANCH  75  78
ENDBRANCH  47  71
BRANCH  59  82
ATOM     82  C   UNL A   1      44.311  28.317  34.394  1.00  0.00     0.023 A 
ATOM     83  C   UNL A   1      45.551  28.973  34.265  1.00  0.00     0.012 A 
ATOM     84  C   UNL A   1      44.204  27.204  35.250  1.00  0.00     0.148 A 
ATOM     85  C   UNL A   1      46.671  28.517  34.958  1.00  0.00     0.002 A 
ATOM     86  C   UNL A   1      45.315  26.778  35.970  1.00  0.00     0.091 A 
ATOM     87  F   UNL A   1      43.021  26.579  35.344  1.00  0.00    -0.205 F 
ATOM     88  C   UNL A   1      46.550  27.429  35.819  1.00  0.00     0.022 A 
BRANCH  86  89
ATOM     89  S   UNL A   1      45.227  25.442  37.168  1.00  0.00     0.127 S 
ATOM     90  O   UNL A   1      46.596  25.411  37.681  1.00  0.00    -0.237 OA
ATOM     91  O   UNL A   1      44.231  25.938  38.119  1.00  0.00    -0.237 OA
ATOM     92  O   UNL A   1      44.809  24.264  36.420  1.00  0.00    -0.744 OA
ENDBRANCH  86  89
ENDBRANCH  59  82
ENDBRANCH  33  34
ENDBRANCH  25  28
ENDBRANCH  23  24
ENDBRANCH   1  23
TORSDOF 15
ENDMDL
