MODEL 1
REMARK VINA RESULT:     -12.2      0.000      0.000
REMARK SMILES O=C(NCCCNC(=O)c1cccc2cccc([S@](=O)c3ccccc3CO)c12)c1ccc(-c2c3nc(c(-c4cccc(S(=O)(=O)[O-])c4F)c4ccc([nH]4)c(-c4cccc(S(=O)(=O)[O-])c4F)c4nc(c(-c5cccc(S(=O)(=O)[O-])c5F)c5ccc2[nH]5)C=C4)C=C3)cc1
REMARK SMILES IDX 5 1 4 2 3 3 1 4 2 5 30 7 31 8 92 9 32 10 91 11 33 12 34 13
REMARK SMILES IDX 35 14 85 15 36 16 90 17 84 18 86 19 37 20 89 21 83 22 82 23
REMARK SMILES IDX 38 25 70 26 50 27 69 28 51 29 54 30 68 31 87 32 52 33 53 34
REMARK SMILES IDX 67 36 88 37 55 38 39 39 40 40 48 41 41 42 43 43 49 44 42 45
REMARK SMILES IDX 44 46 45 47 46 48 47 49 71 50 72 51 80 52 73 53 75 54 81 55
REMARK SMILES IDX 74 56 76 57 77 58 78 59 79 60 56 61 57 62 65 63 58 64 60 65
REMARK SMILES IDX 66 66 59 67 61 68 62 69 63 70 64 71 6 72 7 73 8 74 9 76
REMARK SMILES IDX 10 77 11 78 29 79 12 80 14 81 18 82 13 83 15 84 17 85 16 86
REMARK SMILES IDX 19 87 20 88 21 89 22 90 26 91 23 92 25 93 24 94 27 95 28 96
REMARK H PARENT 3 6 86 24 54 35 7 75 28 97
REMARK Flexibility Score: inf
ROOT
ATOM      1  C   UNL A   1      33.314  30.075  25.817  1.00  0.00     0.042 C 
ENDROOT
BRANCH   1   2
ATOM      2  C   UNL A   1      32.520  30.697  26.955  1.00  0.00     0.118 C 
BRANCH   2   3
ATOM      3  N   UNL A   1      32.669  32.148  27.030  1.00  0.00    -0.352 N 
ATOM      4  O   UNL A   1      33.404  34.150  27.723  1.00  0.00    -0.269 OA
ATOM      5  C   UNL A   1      33.600  32.937  27.662  1.00  0.00     0.251 C 
ATOM      6  H   UNL A   1      31.980  32.651  26.539  1.00  0.00     0.163 HD
BRANCH   5   7
ATOM      7  C   UNL A   1      34.810  32.353  28.286  1.00  0.00     0.039 A 
ATOM      8  C   UNL A   1      34.757  31.146  28.980  1.00  0.00     0.014 A 
ATOM      9  C   UNL A   1      36.040  33.005  28.133  1.00  0.00     0.014 A 
ATOM     10  C   UNL A   1      35.875  30.686  29.667  1.00  0.00     0.010 A 
ATOM     11  C   UNL A   1      37.192  32.483  28.734  1.00  0.00     0.010 A 
ATOM     12  C   UNL A   1      37.111  31.338  29.540  1.00  0.00    -0.014 A 
BRANCH  12  13
ATOM     13  C   UNL A   1      38.310  30.753  30.198  1.00  0.00     0.031 A 
ATOM     14  C   UNL A   1      38.700  31.130  31.602  1.00  0.00     0.074 A 
ATOM     15  C   UNL A   1      39.047  29.856  29.512  1.00  0.00     0.049 A 
ATOM     16  N   UNL A   1      39.690  30.676  32.327  1.00  0.00    -0.248 NA
ATOM     17  C   UNL A   1      37.885  32.150  32.277  1.00  0.00     0.031 C 
ATOM     18  C   UNL A   1      38.798  29.446  28.127  1.00  0.00     0.029 A 
ATOM     19  N   UNL A   1      40.149  29.127  29.878  1.00  0.00    -0.354 N 
ATOM     20  C   UNL A   1      39.642  31.377  33.525  1.00  0.00     0.074 A 
ATOM     21  C   UNL A   1      38.529  32.298  33.427  1.00  0.00     0.031 C 
ATOM     22  C   UNL A   1      39.698  28.519  27.771  1.00  0.00     0.029 A 
ATOM     23  C   UNL A   1      40.622  28.308  28.879  1.00  0.00     0.049 A 
ATOM     24  H   UNL A   1      40.562  29.183  30.770  1.00  0.00     0.167 HD
ATOM     25  C   UNL A   1      40.441  31.255  34.613  1.00  0.00     0.034 A 
ATOM     26  C   UNL A   1      41.690  27.489  28.845  1.00  0.00     0.034 A 
ATOM     27  C   UNL A   1      41.527  30.313  34.718  1.00  0.00     0.049 A 
ATOM     28  C   UNL A   1      42.544  27.360  30.073  1.00  0.00     0.074 A 
ATOM     29  C   UNL A   1      42.348  30.065  35.805  1.00  0.00     0.029 A 
ATOM     30  N   UNL A   1      41.950  29.474  33.699  1.00  0.00    -0.354 N 
ATOM     31  N   UNL A   1      42.398  27.932  31.242  1.00  0.00    -0.248 NA
ATOM     32  C   UNL A   1      43.695  26.450  29.985  1.00  0.00     0.031 C 
ATOM     33  C   UNL A   1      43.284  29.095  35.434  1.00  0.00     0.029 A 
ATOM     34  C   UNL A   1      43.030  28.717  34.126  1.00  0.00     0.049 A 
ATOM     35  H   UNL A   1      41.544  29.422  32.804  1.00  0.00     0.167 HD
ATOM     36  C   UNL A   1      43.423  27.438  32.038  1.00  0.00     0.074 A 
ATOM     37  C   UNL A   1      44.164  26.495  31.225  1.00  0.00     0.031 C 
ATOM     38  C   UNL A   1      43.732  27.749  33.321  1.00  0.00     0.034 A 
BRANCH  25  39
ATOM     39  C   UNL A   1      40.153  32.135  35.803  1.00  0.00     0.023 A 
ATOM     40  C   UNL A   1      40.905  33.311  35.998  1.00  0.00     0.012 A 
ATOM     41  C   UNL A   1      39.094  31.840  36.686  1.00  0.00     0.148 A 
ATOM     42  C   UNL A   1      40.629  34.164  37.067  1.00  0.00     0.002 A 
ATOM     43  C   UNL A   1      38.798  32.715  37.725  1.00  0.00     0.091 A 
ATOM     44  F   UNL A   1      38.402  30.707  36.498  1.00  0.00    -0.205 F 
ATOM     45  C   UNL A   1      39.570  33.871  37.924  1.00  0.00     0.022 A 
BRANCH  43  46
ATOM     46  S   UNL A   1      37.407  32.467  38.836  1.00  0.00     0.127 S 
ATOM     47  O   UNL A   1      37.715  33.411  39.908  1.00  0.00    -0.237 OA
ATOM     48  O   UNL A   1      36.270  32.848  37.997  1.00  0.00    -0.237 OA
ATOM     49  O   UNL A   1      37.440  31.060  39.210  1.00  0.00    -0.744 OA
ENDBRANCH  43  46
ENDBRANCH  25  39
BRANCH  26  50
ATOM     50  C   UNL A   1      41.978  26.703  27.614  1.00  0.00     0.023 A 
ATOM     51  C   UNL A   1      42.594  27.332  26.515  1.00  0.00     0.012 A 
ATOM     52  C   UNL A   1      41.693  25.325  27.546  1.00  0.00     0.148 A 
ATOM     53  C   UNL A   1      42.898  26.609  25.361  1.00  0.00     0.002 A 
ATOM     54  C   UNL A   1      42.053  24.598  26.419  1.00  0.00     0.091 A 
ATOM     55  F   UNL A   1      41.094  24.748  28.597  1.00  0.00    -0.205 F 
ATOM     56  C   UNL A   1      42.639  25.241  25.318  1.00  0.00     0.022 A 
BRANCH  54  57
ATOM     57  S   UNL A   1      41.889  22.812  26.337  1.00  0.00     0.127 S 
ATOM     58  O   UNL A   1      42.486  22.515  25.037  1.00  0.00    -0.237 OA
ATOM     59  O   UNL A   1      42.679  22.382  27.491  1.00  0.00    -0.237 OA
ATOM     60  O   UNL A   1      40.462  22.544  26.456  1.00  0.00    -0.744 OA
ENDBRANCH  54  57
ENDBRANCH  26  50
BRANCH  38  61
ATOM     61  C   UNL A   1      44.915  27.049  33.936  1.00  0.00     0.023 A 
ATOM     62  C   UNL A   1      46.202  27.607  33.810  1.00  0.00     0.012 A 
ATOM     63  C   UNL A   1      44.743  25.871  34.689  1.00  0.00     0.148 A 
ATOM     64  C   UNL A   1      47.305  26.987  34.394  1.00  0.00     0.002 A 
ATOM     65  C   UNL A   1      45.840  25.284  35.309  1.00  0.00     0.091 A 
ATOM     66  F   UNL A   1      43.514  25.343  34.781  1.00  0.00    -0.205 F 
ATOM     67  C   UNL A   1      47.123  25.832  35.152  1.00  0.00     0.022 A 
BRANCH  65  68
ATOM     68  S   UNL A   1      45.685  23.850  36.381  1.00  0.00     0.127 S 
ATOM     69  O   UNL A   1      44.816  24.363  37.440  1.00  0.00    -0.237 OA
ATOM     70  O   UNL A   1      45.056  22.868  35.499  1.00  0.00    -0.237 OA
ATOM     71  O   UNL A   1      47.040  23.511  36.794  1.00  0.00    -0.744 OA
ENDBRANCH  65  68
ENDBRANCH  38  61
ENDBRANCH  12  13
ENDBRANCH   5   7
ENDBRANCH   2   3
ENDBRANCH   1   2
BRANCH   1  72
ATOM     72  C   UNL A   1      33.823  28.671  26.103  1.00  0.00     0.118 C 
BRANCH  72  73
ATOM     73  N   UNL A   1      32.877  27.836  26.836  1.00  0.00    -0.352 N 
ATOM     74  C   UNL A   1      31.819  27.089  26.372  1.00  0.00     0.251 C 
ATOM     75  H   UNL A   1      33.017  27.802  27.810  1.00  0.00     0.163 HD
ATOM     76  O   UNL A   1      31.201  26.326  27.119  1.00  0.00    -0.269 OA
BRANCH  74  77
ATOM     77  C   UNL A   1      31.511  27.091  24.933  1.00  0.00     0.048 A 
ATOM     78  C   UNL A   1      30.548  28.069  24.592  1.00  0.00     0.014 A 
ATOM     79  C   UNL A   1      32.147  26.246  23.949  1.00  0.00     0.011 A 
ATOM     80  C   UNL A   1      30.087  28.189  23.298  1.00  0.00     0.001 A 
ATOM     81  C   UNL A   1      31.657  26.455  22.615  1.00  0.00    -0.016 A 
ATOM     82  C   UNL A   1      33.175  25.227  24.078  1.00  0.00     0.052 A 
ATOM     83  C   UNL A   1      30.640  27.379  22.323  1.00  0.00     0.009 A 
ATOM     84  C   UNL A   1      32.160  25.743  21.519  1.00  0.00     0.009 A 
ATOM     85  C   UNL A   1      33.640  24.530  22.932  1.00  0.00     0.019 A 
ATOM     86  C   UNL A   1      33.154  24.795  21.665  1.00  0.00     0.002 A 
BRANCH  82  87
ATOM     87  S   UNL A   1      33.932  24.559  25.589  1.00  0.00     0.086 S 
ATOM     88  O   UNL A   1      35.409  24.753  25.520  1.00  0.00    -0.249 OA
BRANCH  87  89
ATOM     89  C   UNL A   1      33.483  22.790  25.471  1.00  0.00     0.049 A 
ATOM     90  C   UNL A   1      34.467  21.850  25.091  1.00  0.00     0.018 A 
ATOM     91  C   UNL A   1      32.141  22.343  25.513  1.00  0.00    -0.006 A 
ATOM     92  C   UNL A   1      34.150  20.532  24.742  1.00  0.00     0.001 A 
ATOM     93  C   UNL A   1      31.838  21.011  25.132  1.00  0.00     0.007 A 
ATOM     94  C   UNL A   1      32.830  20.117  24.745  1.00  0.00     0.000 A 
BRANCH  91  95
ATOM     95  C   UNL A   1      30.957  23.193  25.890  1.00  0.00     0.192 C 
BRANCH  95  96
ATOM     96  O   UNL A   1      31.008  23.462  27.286  1.00  0.00    -0.392 OA
ATOM     97  H   UNL A   1      31.109  22.629  27.772  1.00  0.00     0.211 HD
ENDBRANCH  95  96
ENDBRANCH  91  95
ENDBRANCH  87  89
ENDBRANCH  82  87
ENDBRANCH  74  77
ENDBRANCH  72  73
ENDBRANCH   1  72
TORSDOF 17
ENDMDL
MODEL 2
REMARK VINA RESULT:     -11.9      5.102     10.360
REMARK SMILES O=C(NCCCNC(=O)c1cccc2cccc([S@](=O)c3ccccc3CO)c12)c1ccc(-c2c3nc(c(-c4cccc(S(=O)(=O)[O-])c4F)c4ccc([nH]4)c(-c4cccc(S(=O)(=O)[O-])c4F)c4nc(c(-c5cccc(S(=O)(=O)[O-])c5F)c5ccc2[nH]5)C=C4)C=C3)cc1
REMARK SMILES IDX 5 1 4 2 3 3 1 4 2 5 30 7 31 8 92 9 32 10 91 11 33 12 34 13
REMARK SMILES IDX 35 14 85 15 36 16 90 17 84 18 86 19 37 20 89 21 83 22 82 23
REMARK SMILES IDX 38 25 70 26 50 27 69 28 51 29 54 30 68 31 87 32 52 33 53 34
REMARK SMILES IDX 67 36 88 37 55 38 39 39 40 40 48 41 41 42 43 43 49 44 42 45
REMARK SMILES IDX 44 46 45 47 46 48 47 49 71 50 72 51 80 52 73 53 75 54 81 55
REMARK SMILES IDX 74 56 76 57 77 58 78 59 79 60 56 61 57 62 65 63 58 64 60 65
REMARK SMILES IDX 66 66 59 67 61 68 62 69 63 70 64 71 6 72 7 73 8 74 9 76
REMARK SMILES IDX 10 77 11 78 29 79 12 80 14 81 18 82 13 83 15 84 17 85 16 86
REMARK SMILES IDX 19 87 20 88 21 89 22 90 26 91 23 92 25 93 24 94 27 95 28 96
REMARK H PARENT 3 6 86 24 54 35 7 75 28 97
REMARK Flexibility Score: inf
ROOT
ATOM      1  C   UNL A   1      36.762  22.060  26.142  1.00  0.00     0.042 C 
ENDROOT
BRANCH   1   2
ATOM      2  C   UNL A   1      37.842  21.580  25.185  1.00  0.00     0.118 C 
BRANCH   2   3
ATOM      3  N   UNL A   1      38.761  20.623  25.793  1.00  0.00    -0.352 N 
ATOM      4  O   UNL A   1      40.634  19.807  26.718  1.00  0.00    -0.269 OA
ATOM      5  C   UNL A   1      39.955  20.798  26.451  1.00  0.00     0.251 C 
ATOM      6  H   UNL A   1      38.474  19.684  25.720  1.00  0.00     0.163 HD
BRANCH   5   7
ATOM      7  C   UNL A   1      40.443  22.147  26.819  1.00  0.00     0.039 A 
ATOM      8  C   UNL A   1      40.057  23.278  26.101  1.00  0.00     0.014 A 
ATOM      9  C   UNL A   1      41.270  22.293  27.939  1.00  0.00     0.014 A 
ATOM     10  C   UNL A   1      40.630  24.513  26.383  1.00  0.00     0.010 A 
ATOM     11  C   UNL A   1      41.761  23.557  28.290  1.00  0.00     0.010 A 
ATOM     12  C   UNL A   1      41.477  24.673  27.491  1.00  0.00    -0.014 A 
BRANCH  12  13
ATOM     13  C   UNL A   1      41.980  26.031  27.827  1.00  0.00     0.031 A 
ATOM     14  C   UNL A   1      43.365  26.475  27.440  1.00  0.00     0.074 A 
ATOM     15  C   UNL A   1      41.161  26.877  28.484  1.00  0.00     0.049 A 
ATOM     16  N   UNL A   1      43.934  27.639  27.624  1.00  0.00    -0.248 NA
ATOM     17  C   UNL A   1      44.227  25.489  26.770  1.00  0.00     0.031 C 
ATOM     18  C   UNL A   1      39.814  26.545  28.956  1.00  0.00     0.029 A 
ATOM     19  N   UNL A   1      41.333  28.182  28.869  1.00  0.00    -0.354 N 
ATOM     20  C   UNL A   1      45.227  27.518  27.129  1.00  0.00     0.074 A 
ATOM     21  C   UNL A   1      45.364  26.161  26.645  1.00  0.00     0.031 C 
ATOM     22  C   UNL A   1      39.271  27.624  29.537  1.00  0.00     0.029 A 
ATOM     23  C   UNL A   1      40.248  28.706  29.532  1.00  0.00     0.049 A 
ATOM     24  H   UNL A   1      42.154  28.695  28.687  1.00  0.00     0.167 HD
ATOM     25  C   UNL A   1      46.204  28.456  27.068  1.00  0.00     0.034 A 
ATOM     26  C   UNL A   1      40.059  29.917  30.089  1.00  0.00     0.034 A 
ATOM     27  C   UNL A   1      46.050  29.815  27.521  1.00  0.00     0.049 A 
ATOM     28  C   UNL A   1      41.153  30.941  29.989  1.00  0.00     0.074 A 
ATOM     29  C   UNL A   1      46.958  30.856  27.437  1.00  0.00     0.029 A 
ATOM     30  N   UNL A   1      44.923  30.319  28.151  1.00  0.00    -0.354 N 
ATOM     31  N   UNL A   1      42.317  30.847  29.394  1.00  0.00    -0.248 NA
ATOM     32  C   UNL A   1      40.896  32.247  30.610  1.00  0.00     0.031 C 
ATOM     33  C   UNL A   1      46.390  31.984  28.040  1.00  0.00     0.029 A 
ATOM     34  C   UNL A   1      45.117  31.652  28.475  1.00  0.00     0.049 A 
ATOM     35  H   UNL A   1      44.104  29.806  28.340  1.00  0.00     0.167 HD
ATOM     36  C   UNL A   1      42.925  32.086  29.550  1.00  0.00     0.074 A 
ATOM     37  C   UNL A   1      41.985  32.923  30.269  1.00  0.00     0.031 C 
ATOM     38  C   UNL A   1      44.156  32.488  29.151  1.00  0.00     0.034 A 
BRANCH  25  39
ATOM     39  C   UNL A   1      47.524  28.061  26.456  1.00  0.00     0.023 A 
ATOM     40  C   UNL A   1      48.604  27.713  27.292  1.00  0.00     0.012 A 
ATOM     41  C   UNL A   1      47.675  27.962  25.058  1.00  0.00     0.148 A 
ATOM     42  C   UNL A   1      49.822  27.303  26.749  1.00  0.00     0.002 A 
ATOM     43  C   UNL A   1      48.878  27.513  24.524  1.00  0.00     0.091 A 
ATOM     44  F   UNL A   1      46.644  28.315  24.277  1.00  0.00    -0.205 F 
ATOM     45  C   UNL A   1      49.956  27.194  25.367  1.00  0.00     0.022 A 
BRANCH  43  46
ATOM     46  S   UNL A   1      49.126  27.264  22.762  1.00  0.00     0.127 S 
ATOM     47  O   UNL A   1      48.356  26.044  22.526  1.00  0.00    -0.237 OA
ATOM     48  O   UNL A   1      48.535  28.476  22.193  1.00  0.00    -0.237 OA
ATOM     49  O   UNL A   1      50.565  27.144  22.573  1.00  0.00    -0.744 OA
ENDBRANCH  43  46
ENDBRANCH  25  39
BRANCH  26  50
ATOM     50  C   UNL A   1      38.765  30.229  30.756  1.00  0.00     0.023 A 
ATOM     51  C   UNL A   1      38.556  29.829  32.090  1.00  0.00     0.012 A 
ATOM     52  C   UNL A   1      37.763  30.963  30.093  1.00  0.00     0.148 A 
ATOM     53  C   UNL A   1      37.362  30.134  32.743  1.00  0.00     0.002 A 
ATOM     54  C   UNL A   1      36.601  31.316  30.768  1.00  0.00     0.091 A 
ATOM     55  F   UNL A   1      37.976  31.322  28.819  1.00  0.00    -0.205 F 
ATOM     56  C   UNL A   1      36.391  30.887  32.088  1.00  0.00     0.022 A 
BRANCH  54  57
ATOM     57  S   UNL A   1      35.367  32.403  30.049  1.00  0.00     0.127 S 
ATOM     58  O   UNL A   1      36.167  33.577  29.705  1.00  0.00    -0.237 OA
ATOM     59  O   UNL A   1      34.901  31.619  28.905  1.00  0.00    -0.237 OA
ATOM     60  O   UNL A   1      34.365  32.600  31.087  1.00  0.00    -0.744 OA
ENDBRANCH  54  57
ENDBRANCH  26  50
BRANCH  38  61
ATOM     61  C   UNL A   1      44.555  33.907  29.462  1.00  0.00     0.023 A 
ATOM     62  C   UNL A   1      45.249  34.192  30.655  1.00  0.00     0.012 A 
ATOM     63  C   UNL A   1      44.295  34.945  28.547  1.00  0.00     0.148 A 
ATOM     64  C   UNL A   1      45.647  35.495  30.949  1.00  0.00     0.002 A 
ATOM     65  C   UNL A   1      44.739  36.233  28.824  1.00  0.00     0.091 A 
ATOM     66  F   UNL A   1      43.616  34.658  27.427  1.00  0.00    -0.205 F 
ATOM     67  C   UNL A   1      45.403  36.513  30.029  1.00  0.00     0.022 A 
BRANCH  65  68
ATOM     68  S   UNL A   1      44.551  37.586  27.657  1.00  0.00     0.127 S 
ATOM     69  O   UNL A   1      45.779  37.472  26.869  1.00  0.00    -0.237 OA
ATOM     70  O   UNL A   1      43.332  37.213  26.941  1.00  0.00    -0.237 OA
ATOM     71  O   UNL A   1      44.434  38.795  28.460  1.00  0.00    -0.744 OA
ENDBRANCH  65  68
ENDBRANCH  38  61
ENDBRANCH  12  13
ENDBRANCH   5   7
ENDBRANCH   2   3
ENDBRANCH   1   2
BRANCH   1  72
ATOM     72  C   UNL A   1      36.253  23.464  25.858  1.00  0.00     0.118 C 
BRANCH  72  73
ATOM     73  N   UNL A   1      36.029  23.739  24.442  1.00  0.00    -0.352 N 
ATOM     74  C   UNL A   1      34.910  23.527  23.671  1.00  0.00     0.251 C 
ATOM     75  H   UNL A   1      36.795  24.135  23.967  1.00  0.00     0.163 HD
ATOM     76  O   UNL A   1      34.845  23.947  22.513  1.00  0.00    -0.269 OA
BRANCH  74  77
ATOM     77  C   UNL A   1      33.718  22.917  24.282  1.00  0.00     0.048 A 
ATOM     78  C   UNL A   1      33.699  21.511  24.132  1.00  0.00     0.014 A 
ATOM     79  C   UNL A   1      32.699  23.638  25.008  1.00  0.00     0.011 A 
ATOM     80  C   UNL A   1      32.635  20.764  24.590  1.00  0.00     0.001 A 
ATOM     81  C   UNL A   1      31.645  22.796  25.500  1.00  0.00    -0.016 A 
ATOM     82  C   UNL A   1      32.554  25.052  25.313  1.00  0.00     0.052 A 
ATOM     83  C   UNL A   1      31.616  21.411  25.264  1.00  0.00     0.009 A 
ATOM     84  C   UNL A   1      30.574  23.305  26.244  1.00  0.00     0.009 A 
ATOM     85  C   UNL A   1      31.441  25.512  26.063  1.00  0.00     0.019 A 
ATOM     86  C   UNL A   1      30.471  24.650  26.540  1.00  0.00     0.002 A 
BRANCH  82  87
ATOM     87  S   UNL A   1      33.570  26.447  24.746  1.00  0.00     0.086 S 
ATOM     88  O   UNL A   1      34.139  27.149  25.932  1.00  0.00    -0.249 OA
BRANCH  87  89
ATOM     89  C   UNL A   1      32.327  27.480  23.890  1.00  0.00     0.049 A 
ATOM     90  C   UNL A   1      31.787  28.605  24.554  1.00  0.00     0.018 A 
ATOM     91  C   UNL A   1      31.705  27.077  22.685  1.00  0.00    -0.006 A 
ATOM     92  C   UNL A   1      30.667  29.292  24.072  1.00  0.00     0.001 A 
ATOM     93  C   UNL A   1      30.557  27.772  22.228  1.00  0.00     0.007 A 
ATOM     94  C   UNL A   1      30.039  28.864  22.916  1.00  0.00     0.000 A 
BRANCH  91  95
ATOM     95  C   UNL A   1      32.132  25.907  21.840  1.00  0.00     0.192 C 
BRANCH  95  96
ATOM     96  O   UNL A   1      33.462  26.128  21.384  1.00  0.00    -0.392 OA
ATOM     97  H   UNL A   1      33.903  25.275  21.249  1.00  0.00     0.211 HD
ENDBRANCH  95  96
ENDBRANCH  91  95
ENDBRANCH  87  89
ENDBRANCH  82  87
ENDBRANCH  74  77
ENDBRANCH  72  73
ENDBRANCH   1  72
TORSDOF 17
ENDMDL
MODEL 3
REMARK VINA RESULT:     -11.8      1.535      1.872
REMARK SMILES O=C(NCCCNC(=O)c1cccc2cccc([S@](=O)c3ccccc3CO)c12)c1ccc(-c2c3nc(c(-c4cccc(S(=O)(=O)[O-])c4F)c4ccc([nH]4)c(-c4cccc(S(=O)(=O)[O-])c4F)c4nc(c(-c5cccc(S(=O)(=O)[O-])c5F)c5ccc2[nH]5)C=C4)C=C3)cc1
REMARK SMILES IDX 5 1 4 2 3 3 1 4 2 5 30 7 31 8 92 9 32 10 91 11 33 12 34 13
REMARK SMILES IDX 35 14 85 15 36 16 90 17 84 18 86 19 37 20 89 21 83 22 82 23
REMARK SMILES IDX 38 25 70 26 50 27 69 28 51 29 54 30 68 31 87 32 52 33 53 34
REMARK SMILES IDX 67 36 88 37 55 38 39 39 40 40 48 41 41 42 43 43 49 44 42 45
REMARK SMILES IDX 44 46 45 47 46 48 47 49 71 50 72 51 80 52 73 53 75 54 81 55
REMARK SMILES IDX 74 56 76 57 77 58 78 59 79 60 56 61 57 62 65 63 58 64 60 65
REMARK SMILES IDX 66 66 59 67 61 68 62 69 63 70 64 71 6 72 7 73 8 74 9 76
REMARK SMILES IDX 10 77 11 78 29 79 12 80 14 81 18 82 13 83 15 84 17 85 16 86
REMARK SMILES IDX 19 87 20 88 21 89 22 90 26 91 23 92 25 93 24 94 27 95 28 96
REMARK H PARENT 3 6 86 24 54 35 7 75 28 97
REMARK Flexibility Score: inf
ROOT
ATOM      1  C   UNL A   1      31.741  29.123  26.918  1.00  0.00     0.042 C 
ENDROOT
BRANCH   1   2
ATOM      2  C   UNL A   1      32.549  30.058  26.031  1.00  0.00     0.118 C 
BRANCH   2   3
ATOM      3  N   UNL A   1      32.363  31.467  26.366  1.00  0.00    -0.352 N 
ATOM      4  O   UNL A   1      32.560  33.406  27.476  1.00  0.00    -0.269 OA
ATOM      5  C   UNL A   1      33.027  32.291  27.243  1.00  0.00     0.251 C 
ATOM      6  H   UNL A   1      31.631  31.906  25.875  1.00  0.00     0.163 HD
BRANCH   5   7
ATOM      7  C   UNL A   1      34.269  31.855  27.922  1.00  0.00     0.039 A 
ATOM      8  C   UNL A   1      34.408  30.558  28.414  1.00  0.00     0.014 A 
ATOM      9  C   UNL A   1      35.340  32.750  28.028  1.00  0.00     0.014 A 
ATOM     10  C   UNL A   1      35.528  30.212  29.162  1.00  0.00     0.010 A 
ATOM     11  C   UNL A   1      36.514  32.365  28.687  1.00  0.00     0.010 A 
ATOM     12  C   UNL A   1      36.603  31.104  29.295  1.00  0.00    -0.014 A 
BRANCH  12  13
ATOM     13  C   UNL A   1      37.831  30.658  30.005  1.00  0.00     0.031 A 
ATOM     14  C   UNL A   1      38.134  31.106  31.410  1.00  0.00     0.074 A 
ATOM     15  C   UNL A   1      38.677  29.823  29.368  1.00  0.00     0.049 A 
ATOM     16  N   UNL A   1      39.139  30.771  32.178  1.00  0.00    -0.248 NA
ATOM     17  C   UNL A   1      37.199  32.055  32.031  1.00  0.00     0.031 C 
ATOM     18  C   UNL A   1      38.517  29.358  27.987  1.00  0.00     0.029 A 
ATOM     19  N   UNL A   1      39.833  29.217  29.787  1.00  0.00    -0.354 N 
ATOM     20  C   UNL A   1      38.981  31.492  33.355  1.00  0.00     0.074 A 
ATOM     21  C   UNL A   1      37.786  32.294  33.197  1.00  0.00     0.031 C 
ATOM     22  C   UNL A   1      39.516  28.518  27.685  1.00  0.00     0.029 A 
ATOM     23  C   UNL A   1      40.419  28.427  28.826  1.00  0.00     0.049 A 
ATOM     24  H   UNL A   1      40.208  29.336  30.690  1.00  0.00     0.167 HD
ATOM     25  C   UNL A   1      39.751  31.476  34.470  1.00  0.00     0.034 A 
ATOM     26  C   UNL A   1      41.563  27.718  28.849  1.00  0.00     0.034 A 
ATOM     27  C   UNL A   1      40.920  30.651  34.635  1.00  0.00     0.049 A 
ATOM     28  C   UNL A   1      42.384  27.704  30.105  1.00  0.00     0.074 A 
ATOM     29  C   UNL A   1      41.724  30.513  35.753  1.00  0.00     0.029 A 
ATOM     30  N   UNL A   1      41.460  29.834  33.653  1.00  0.00    -0.354 N 
ATOM     31  N   UNL A   1      42.142  28.287  31.254  1.00  0.00    -0.248 NA
ATOM     32  C   UNL A   1      43.621  26.913  30.079  1.00  0.00     0.031 C 
ATOM     33  C   UNL A   1      42.765  29.633  35.439  1.00  0.00     0.029 A 
ATOM     34  C   UNL A   1      42.594  29.201  34.134  1.00  0.00     0.049 A 
ATOM     35  H   UNL A   1      41.091  29.721  32.747  1.00  0.00     0.167 HD
ATOM     36  C   UNL A   1      43.183  27.917  32.095  1.00  0.00     0.074 A 
ATOM     37  C   UNL A   1      44.042  27.034  31.331  1.00  0.00     0.031 C 
ATOM     38  C   UNL A   1      43.416  28.289  33.378  1.00  0.00     0.034 A 
BRANCH  25  39
ATOM     39  C   UNL A   1      39.337  32.352  35.626  1.00  0.00     0.023 A 
ATOM     40  C   UNL A   1      38.514  31.823  36.641  1.00  0.00     0.012 A 
ATOM     41  C   UNL A   1      39.819  33.671  35.747  1.00  0.00     0.148 A 
ATOM     42  C   UNL A   1      38.153  32.600  37.742  1.00  0.00     0.002 A 
ATOM     43  C   UNL A   1      39.489  34.426  36.867  1.00  0.00     0.091 A 
ATOM     44  F   UNL A   1      40.585  34.165  34.763  1.00  0.00    -0.205 F 
ATOM     45  C   UNL A   1      38.647  33.897  37.859  1.00  0.00     0.022 A 
BRANCH  43  46
ATOM     46  S   UNL A   1      40.137  36.078  37.150  1.00  0.00     0.127 S 
ATOM     47  O   UNL A   1      41.509  35.789  37.563  1.00  0.00    -0.237 OA
ATOM     48  O   UNL A   1      40.016  36.689  35.826  1.00  0.00    -0.237 OA
ATOM     49  O   UNL A   1      39.287  36.672  38.172  1.00  0.00    -0.744 OA
ENDBRANCH  43  46
ENDBRANCH  25  39
BRANCH  26  50
ATOM     50  C   UNL A   1      41.970  26.935  27.649  1.00  0.00     0.023 A 
ATOM     51  C   UNL A   1      42.668  27.574  26.606  1.00  0.00     0.012 A 
ATOM     52  C   UNL A   1      41.714  25.553  27.560  1.00  0.00     0.148 A 
ATOM     53  C   UNL A   1      43.083  26.854  25.485  1.00  0.00     0.002 A 
ATOM     54  C   UNL A   1      42.182  24.831  26.469  1.00  0.00     0.091 A 
ATOM     55  F   UNL A   1      41.035  24.967  28.556  1.00  0.00    -0.205 F 
ATOM     56  C   UNL A   1      42.851  25.482  25.422  1.00  0.00     0.022 A 
BRANCH  54  57
ATOM     57  S   UNL A   1      42.054  23.042  26.379  1.00  0.00     0.127 S 
ATOM     58  O   UNL A   1      42.654  22.766  25.076  1.00  0.00    -0.237 OA
ATOM     59  O   UNL A   1      42.857  22.622  27.528  1.00  0.00    -0.237 OA
ATOM     60  O   UNL A   1      40.634  22.745  26.500  1.00  0.00    -0.744 OA
ENDBRANCH  54  57
ENDBRANCH  26  50
BRANCH  38  61
ATOM     61  C   UNL A   1      44.641  27.725  34.049  1.00  0.00     0.023 A 
ATOM     62  C   UNL A   1      45.854  28.441  34.005  1.00  0.00     0.012 A 
ATOM     63  C   UNL A   1      44.575  26.519  34.772  1.00  0.00     0.148 A 
ATOM     64  C   UNL A   1      46.992  27.947  34.641  1.00  0.00     0.002 A 
ATOM     65  C   UNL A   1      45.701  26.057  35.445  1.00  0.00     0.091 A 
ATOM     66  F   UNL A   1      43.418  25.842  34.785  1.00  0.00    -0.205 F 
ATOM     67  C   UNL A   1      46.913  26.762  35.370  1.00  0.00     0.022 A 
BRANCH  65  68
ATOM     68  S   UNL A   1      45.667  24.592  36.484  1.00  0.00     0.127 S 
ATOM     69  O   UNL A   1      47.029  24.573  37.016  1.00  0.00    -0.237 OA
ATOM     70  O   UNL A   1      44.634  24.929  37.463  1.00  0.00    -0.237 OA
ATOM     71  O   UNL A   1      45.324  23.484  35.602  1.00  0.00    -0.744 OA
ENDBRANCH  65  68
ENDBRANCH  38  61
ENDBRANCH  12  13
ENDBRANCH   5   7
ENDBRANCH   2   3
ENDBRANCH   1   2
BRANCH   1  72
ATOM     72  C   UNL A   1      32.205  27.676  26.888  1.00  0.00     0.118 C 
BRANCH  72  73
ATOM     73  N   UNL A   1      31.128  26.705  27.048  1.00  0.00    -0.352 N 
ATOM     74  C   UNL A   1      30.478  25.947  26.101  1.00  0.00     0.251 C 
ATOM     75  H   UNL A   1      30.820  26.571  27.974  1.00  0.00     0.163 HD
ATOM     76  O   UNL A   1      29.677  25.067  26.429  1.00  0.00    -0.269 OA
BRANCH  74  77
ATOM     77  C   UNL A   1      30.849  26.091  24.684  1.00  0.00     0.048 A 
ATOM     78  C   UNL A   1      30.210  27.195  24.072  1.00  0.00     0.014 A 
ATOM     79  C   UNL A   1      31.797  25.253  23.988  1.00  0.00     0.011 A 
ATOM     80  C   UNL A   1      30.388  27.461  22.731  1.00  0.00     0.001 A 
ATOM     81  C   UNL A   1      31.973  25.614  22.609  1.00  0.00    -0.016 A 
ATOM     82  C   UNL A   1      32.584  24.116  24.435  1.00  0.00     0.052 A 
ATOM     83  C   UNL A   1      31.262  26.668  22.010  1.00  0.00     0.009 A 
ATOM     84  C   UNL A   1      32.863  24.932  21.771  1.00  0.00     0.009 A 
ATOM     85  C   UNL A   1      33.464  23.457  23.537  1.00  0.00     0.019 A 
ATOM     86  C   UNL A   1      33.617  23.869  22.226  1.00  0.00     0.002 A 
BRANCH  82  87
ATOM     87  S   UNL A   1      32.536  23.257  26.035  1.00  0.00     0.086 S 
ATOM     88  O   UNL A   1      32.892  24.220  27.116  1.00  0.00    -0.249 OA
BRANCH  87  89
ATOM     89  C   UNL A   1      33.837  21.991  25.810  1.00  0.00     0.049 A 
ATOM     90  C   UNL A   1      35.191  22.351  25.994  1.00  0.00     0.018 A 
ATOM     91  C   UNL A   1      33.574  20.727  25.232  1.00  0.00    -0.006 A 
ATOM     92  C   UNL A   1      36.247  21.519  25.605  1.00  0.00     0.001 A 
ATOM     93  C   UNL A   1      34.658  19.910  24.822  1.00  0.00     0.007 A 
ATOM     94  C   UNL A   1      35.980  20.303  25.001  1.00  0.00     0.000 A 
BRANCH  91  95
ATOM     95  C   UNL A   1      32.204  20.170  24.954  1.00  0.00     0.192 C 
BRANCH  95  96
ATOM     96  O   UNL A   1      32.154  18.822  25.406  1.00  0.00    -0.392 OA
ATOM     97  H   UNL A   1      32.156  18.806  26.376  1.00  0.00     0.211 HD
ENDBRANCH  95  96
ENDBRANCH  91  95
ENDBRANCH  87  89
ENDBRANCH  82  87
ENDBRANCH  74  77
ENDBRANCH  72  73
ENDBRANCH   1  72
TORSDOF 17
ENDMDL
