MODEL 1
REMARK VINA RESULT:     -11.8      0.000      0.000
REMARK SMILES CC1C[NH+]([C@H]2COC[C@@H]2C(=O)NCCCNC(=O)c2ccc(-c3c4nc(c(-c5cccc(S(=O)(=O)[O-])c5F)c5ccc([nH]5)c(-c5cccc(S(=O)(=O)[O-])c5F)c5nc(c(-c6cccc(S(=O)(=O)[O-])c6F)c6ccc3[nH]6)C=C5)C=C4)cc2)C1
REMARK SMILES IDX 15 1 14 2 13 3 12 4 10 5 11 6 9 8 5 9 6 10 7 11 8 12 4 13
REMARK SMILES IDX 1 14 2 15 3 16 82 17 16 19 17 20 18 22 19 23 20 24 81 25
REMARK SMILES IDX 21 26 80 27 22 28 23 29 24 30 74 31 25 32 79 33 73 34 75 35
REMARK SMILES IDX 26 36 78 37 72 38 71 39 27 41 59 42 39 43 58 44 40 45 43 46
REMARK SMILES IDX 57 47 76 48 41 49 42 50 56 52 77 53 44 54 28 55 29 56 37 57
REMARK SMILES IDX 30 58 32 59 38 60 31 61 33 62 34 63 35 64 36 65 60 66 61 67
REMARK SMILES IDX 69 68 62 69 64 70 70 71 63 72 65 73 66 74 67 75 68 76 45 77
REMARK SMILES IDX 46 78 54 79 47 80 49 81 55 82 48 83 50 84 51 85 52 86 53 87
REMARK H PARENT 12 7 4 18 16 21 75 40 43 51
REMARK Flexibility Score: inf
ROOT
ATOM      1  C   UNL A   1      36.636  21.988  25.351  1.00  0.00     0.118 C 
ENDROOT
BRANCH   1   2
ATOM      2  C   UNL A   1      36.390  22.398  23.902  1.00  0.00     0.042 C 
BRANCH   2   3
ATOM      3  C   UNL A   1      34.926  22.653  23.558  1.00  0.00     0.117 C 
BRANCH   3   4
ATOM      4  N   UNL A   1      34.449  23.926  24.075  1.00  0.00    -0.356 N 
ATOM      5  C   UNL A   1      33.655  24.186  25.155  1.00  0.00     0.231 C 
ATOM      6  O   UNL A   1      33.406  25.364  25.409  1.00  0.00    -0.274 OA
ATOM      7  H   UNL A   1      34.743  24.719  23.572  1.00  0.00     0.163 HD
BRANCH   5   8
ATOM      8  C   UNL A   1      33.135  23.026  25.990  1.00  0.00     0.164 C 
ATOM      9  C   UNL A   1      31.940  22.362  25.314  1.00  0.00     0.225 C 
ATOM     10  C   UNL A   1      30.772  23.170  25.898  1.00  0.00     0.226 C 
ATOM     11  O   UNL A   1      31.148  23.592  27.214  1.00  0.00    -0.374 OA
ATOM     12  C   UNL A   1      32.576  23.497  27.325  1.00  0.00     0.180 C 
BRANCH   9  13
ATOM     13  N   UNL A   1      31.996  20.898  25.515  1.00  0.00    -0.329 N 
ATOM     14  C   UNL A   1      34.546  18.837  24.504  1.00  0.00     0.020 C 
ATOM     15  C   UNL A   1      33.245  19.241  25.163  1.00  0.00     0.096 C 
ATOM     16  C   UNL A   1      33.290  20.471  26.100  1.00  0.00     0.271 C 
ATOM     17  C   UNL A   1      32.280  20.095  24.307  1.00  0.00     0.271 C 
ATOM     18  H   UNL A   1      31.109  20.760  25.998  1.00  0.00     0.348 HD
ENDBRANCH   9  13
ENDBRANCH   5   8
ENDBRANCH   3   4
ENDBRANCH   2   3
ENDBRANCH   1   2
BRANCH   1  19
ATOM     19  N   UNL A   1      37.628  20.929  25.486  1.00  0.00    -0.352 N 
ATOM     20  C   UNL A   1      38.934  20.989  25.911  1.00  0.00     0.251 C 
ATOM     21  H   UNL A   1      37.314  20.030  25.234  1.00  0.00     0.163 HD
ATOM     22  O   UNL A   1      39.655  20.001  25.798  1.00  0.00    -0.269 OA
BRANCH  20  23
ATOM     23  C   UNL A   1      39.481  22.242  26.475  1.00  0.00     0.039 A 
ATOM     24  C   UNL A   1      40.537  22.168  27.388  1.00  0.00     0.014 A 
ATOM     25  C   UNL A   1      38.961  23.485  26.108  1.00  0.00     0.014 A 
ATOM     26  C   UNL A   1      41.129  23.342  27.861  1.00  0.00     0.010 A 
ATOM     27  C   UNL A   1      39.599  24.652  26.521  1.00  0.00     0.010 A 
ATOM     28  C   UNL A   1      40.696  24.594  27.393  1.00  0.00    -0.014 A 
BRANCH  28  29
ATOM     29  C   UNL A   1      41.400  25.850  27.763  1.00  0.00     0.031 A 
ATOM     30  C   UNL A   1      40.681  26.934  28.516  1.00  0.00     0.074 A 
ATOM     31  C   UNL A   1      42.658  26.057  27.322  1.00  0.00     0.049 A 
ATOM     32  N   UNL A   1      41.100  28.131  28.839  1.00  0.00    -0.248 NA
ATOM     33  C   UNL A   1      39.303  26.645  28.943  1.00  0.00     0.031 C 
ATOM     34  C   UNL A   1      43.444  25.109  26.529  1.00  0.00     0.029 A 
ATOM     35  N   UNL A   1      43.486  27.145  27.452  1.00  0.00    -0.354 N 
ATOM     36  C   UNL A   1      40.030  28.749  29.476  1.00  0.00     0.074 A 
ATOM     37  C   UNL A   1      38.932  27.806  29.464  1.00  0.00     0.031 C 
ATOM     38  C   UNL A   1      44.637  25.654  26.247  1.00  0.00     0.029 A 
ATOM     39  C   UNL A   1      44.690  27.003  26.801  1.00  0.00     0.049 A 
ATOM     40  H   UNL A   1      43.242  27.949  27.964  1.00  0.00     0.167 HD
ATOM     41  C   UNL A   1      39.974  29.978  30.044  1.00  0.00     0.034 A 
ATOM     42  C   UNL A   1      45.715  27.865  26.653  1.00  0.00     0.034 A 
ATOM     43  C   UNL A   1      41.076  30.901  30.078  1.00  0.00     0.049 A 
ATOM     44  C   UNL A   1      45.624  29.228  27.285  1.00  0.00     0.074 A 
ATOM     45  C   UNL A   1      41.143  32.137  30.699  1.00  0.00     0.029 A 
ATOM     46  N   UNL A   1      42.299  30.700  29.457  1.00  0.00    -0.354 N 
ATOM     47  N   UNL A   1      44.661  29.735  28.014  1.00  0.00    -0.248 NA
ATOM     48  C   UNL A   1      46.772  30.126  27.095  1.00  0.00     0.031 C 
ATOM     49  C   UNL A   1      42.397  32.695  30.427  1.00  0.00     0.029 A 
ATOM     50  C   UNL A   1      43.122  31.795  29.662  1.00  0.00     0.049 A 
ATOM     51  H   UNL A   1      42.546  29.896  28.945  1.00  0.00     0.167 HD
ATOM     52  C   UNL A   1      45.098  30.998  28.399  1.00  0.00     0.074 A 
ATOM     53  C   UNL A   1      46.424  31.169  27.837  1.00  0.00     0.031 C 
ATOM     54  C   UNL A   1      44.456  31.935  29.138  1.00  0.00     0.034 A 
BRANCH  41  55
ATOM     55  C   UNL A   1      38.685  30.375  30.718  1.00  0.00     0.023 A 
ATOM     56  C   UNL A   1      38.477  30.037  32.071  1.00  0.00     0.012 A 
ATOM     57  C   UNL A   1      37.704  31.118  30.034  1.00  0.00     0.148 A 
ATOM     58  C   UNL A   1      37.296  30.393  32.720  1.00  0.00     0.002 A 
ATOM     59  C   UNL A   1      36.547  31.510  30.702  1.00  0.00     0.091 A 
ATOM     60  F   UNL A   1      37.908  31.415  28.743  1.00  0.00    -0.205 F 
ATOM     61  C   UNL A   1      36.337  31.137  32.039  1.00  0.00     0.022 A 
BRANCH  59  62
ATOM     62  S   UNL A   1      35.288  32.536  29.936  1.00  0.00     0.127 S 
ATOM     63  O   UNL A   1      34.787  31.652  28.885  1.00  0.00    -0.237 OA
ATOM     64  O   UNL A   1      34.355  32.756  31.042  1.00  0.00    -0.237 OA
ATOM     65  O   UNL A   1      35.975  33.734  29.475  1.00  0.00    -0.744 OA
ENDBRANCH  59  62
ENDBRANCH  41  55
BRANCH  42  66
ATOM     66  C   UNL A   1      46.943  27.444  25.919  1.00  0.00     0.023 A 
ATOM     67  C   UNL A   1      47.914  26.675  26.590  1.00  0.00     0.012 A 
ATOM     68  C   UNL A   1      47.142  27.769  24.563  1.00  0.00     0.148 A 
ATOM     69  C   UNL A   1      49.074  26.263  25.935  1.00  0.00     0.002 A 
ATOM     70  C   UNL A   1      48.274  27.309  23.900  1.00  0.00     0.091 A 
ATOM     71  F   UNL A   1      46.211  28.509  23.944  1.00  0.00    -0.205 F 
ATOM     72  C   UNL A   1      49.249  26.572  24.588  1.00  0.00     0.022 A 
BRANCH  70  73
ATOM     73  S   UNL A   1      48.524  27.545  22.137  1.00  0.00     0.127 S 
ATOM     74  O   UNL A   1      49.719  28.384  22.113  1.00  0.00    -0.237 OA
ATOM     75  O   UNL A   1      48.725  26.171  21.674  1.00  0.00    -0.237 OA
ATOM     76  O   UNL A   1      47.303  28.169  21.645  1.00  0.00    -0.744 OA
ENDBRANCH  70  73
ENDBRANCH  42  66
BRANCH  54  77
ATOM     77  C   UNL A   1      45.179  33.229  29.412  1.00  0.00     0.023 A 
ATOM     78  C   UNL A   1      46.023  33.335  30.535  1.00  0.00     0.012 A 
ATOM     79  C   UNL A   1      45.091  34.307  28.509  1.00  0.00     0.148 A 
ATOM     80  C   UNL A   1      46.749  34.503  30.769  1.00  0.00     0.002 A 
ATOM     81  C   UNL A   1      45.853  35.449  28.722  1.00  0.00     0.091 A 
ATOM     82  F   UNL A   1      44.270  34.192  27.455  1.00  0.00    -0.205 F 
ATOM     83  C   UNL A   1      46.674  35.553  29.858  1.00  0.00     0.022 A 
BRANCH  81  84
ATOM     84  S   UNL A   1      45.899  36.816  27.557  1.00  0.00     0.127 S 
ATOM     85  O   UNL A   1      46.762  37.770  28.251  1.00  0.00    -0.237 OA
ATOM     86  O   UNL A   1      46.500  36.196  26.377  1.00  0.00    -0.237 OA
ATOM     87  O   UNL A   1      44.517  37.242  27.382  1.00  0.00    -0.744 OA
ENDBRANCH  81  84
ENDBRANCH  54  77
ENDBRANCH  28  29
ENDBRANCH  20  23
ENDBRANCH   1  19
TORSDOF 14
ENDMDL
MODEL 2
REMARK VINA RESULT:     -11.7      6.480     11.391
REMARK SMILES CC1C[NH+]([C@H]2COC[C@@H]2C(=O)NCCCNC(=O)c2ccc(-c3c4nc(c(-c5cccc(S(=O)(=O)[O-])c5F)c5ccc([nH]5)c(-c5cccc(S(=O)(=O)[O-])c5F)c5nc(c(-c6cccc(S(=O)(=O)[O-])c6F)c6ccc3[nH]6)C=C5)C=C4)cc2)C1
REMARK SMILES IDX 15 1 14 2 13 3 12 4 10 5 11 6 9 8 5 9 6 10 7 11 8 12 4 13
REMARK SMILES IDX 1 14 2 15 3 16 82 17 16 19 17 20 18 22 19 23 20 24 81 25
REMARK SMILES IDX 21 26 80 27 22 28 23 29 24 30 74 31 25 32 79 33 73 34 75 35
REMARK SMILES IDX 26 36 78 37 72 38 71 39 27 41 59 42 39 43 58 44 40 45 43 46
REMARK SMILES IDX 57 47 76 48 41 49 42 50 56 52 77 53 44 54 28 55 29 56 37 57
REMARK SMILES IDX 30 58 32 59 38 60 31 61 33 62 34 63 35 64 36 65 60 66 61 67
REMARK SMILES IDX 69 68 62 69 64 70 70 71 63 72 65 73 66 74 67 75 68 76 45 77
REMARK SMILES IDX 46 78 54 79 47 80 49 81 55 82 48 83 50 84 51 85 52 86 53 87
REMARK H PARENT 12 7 4 18 16 21 75 40 43 51
REMARK Flexibility Score: inf
ROOT
ATOM      1  C   UNL A   1      32.962  32.069  27.259  1.00  0.00     0.118 C 
ENDROOT
BRANCH   1   2
ATOM      2  C   UNL A   1      31.788  31.259  26.717  1.00  0.00     0.042 C 
BRANCH   2   3
ATOM      3  C   UNL A   1      32.182  30.141  25.757  1.00  0.00     0.117 C 
BRANCH   3   4
ATOM      4  N   UNL A   1      31.898  28.821  26.298  1.00  0.00    -0.356 N 
ATOM      5  C   UNL A   1      31.420  27.705  25.671  1.00  0.00     0.231 C 
ATOM      6  O   UNL A   1      31.286  26.686  26.346  1.00  0.00    -0.274 OA
ATOM      7  H   UNL A   1      32.079  28.715  27.259  1.00  0.00     0.163 HD
BRANCH   5   8
ATOM      8  C   UNL A   1      31.094  27.771  24.188  1.00  0.00     0.164 C 
ATOM      9  C   UNL A   1      29.598  27.597  23.950  1.00  0.00     0.225 C 
ATOM     10  C   UNL A   1      29.489  26.072  23.801  1.00  0.00     0.226 C 
ATOM     11  O   UNL A   1      30.716  25.600  23.232  1.00  0.00    -0.374 OA
ATOM     12  C   UNL A   1      31.716  26.612  23.421  1.00  0.00     0.180 C 
BRANCH   9  13
ATOM     13  N   UNL A   1      29.155  28.479  22.848  1.00  0.00    -0.329 N 
ATOM     14  C   UNL A   1      27.671  31.550  23.219  1.00  0.00     0.020 C 
ATOM     15  C   UNL A   1      28.279  30.360  22.506  1.00  0.00     0.096 C 
ATOM     16  C   UNL A   1      29.651  29.865  23.020  1.00  0.00     0.271 C 
ATOM     17  C   UNL A   1      27.764  28.967  22.938  1.00  0.00     0.271 C 
ATOM     18  H   UNL A   1      29.422  27.900  22.052  1.00  0.00     0.348 HD
ENDBRANCH   9  13
ENDBRANCH   5   8
ENDBRANCH   3   4
ENDBRANCH   2   3
ENDBRANCH   1   2
BRANCH   1  19
ATOM     19  N   UNL A   1      32.621  33.459  27.531  1.00  0.00    -0.352 N 
ATOM     20  C   UNL A   1      33.136  34.332  28.460  1.00  0.00     0.251 C 
ATOM     21  H   UNL A   1      31.910  33.833  26.960  1.00  0.00     0.163 HD
ATOM     22  O   UNL A   1      32.595  35.420  28.636  1.00  0.00    -0.269 OA
BRANCH  20  23
ATOM     23  C   UNL A   1      34.318  33.955  29.266  1.00  0.00     0.039 A 
ATOM     24  C   UNL A   1      34.131  33.201  30.428  1.00  0.00     0.014 A 
ATOM     25  C   UNL A   1      35.604  34.337  28.881  1.00  0.00     0.014 A 
ATOM     26  C   UNL A   1      35.240  32.755  31.153  1.00  0.00     0.010 A 
ATOM     27  C   UNL A   1      36.709  33.830  29.560  1.00  0.00     0.010 A 
ATOM     28  C   UNL A   1      36.540  33.026  30.697  1.00  0.00    -0.014 A 
BRANCH  28  29
ATOM     29  C   UNL A   1      37.736  32.442  31.361  1.00  0.00     0.031 A 
ATOM     30  C   UNL A   1      38.460  31.278  30.742  1.00  0.00     0.074 A 
ATOM     31  C   UNL A   1      38.102  32.893  32.578  1.00  0.00     0.049 A 
ATOM     32  N   UNL A   1      39.456  30.579  31.221  1.00  0.00    -0.248 NA
ATOM     33  C   UNL A   1      37.987  30.827  29.424  1.00  0.00     0.031 C 
ATOM     34  C   UNL A   1      37.443  33.974  33.313  1.00  0.00     0.029 A 
ATOM     35  N   UNL A   1      39.100  32.477  33.425  1.00  0.00    -0.354 N 
ATOM     36  C   UNL A   1      39.710  29.586  30.281  1.00  0.00     0.074 A 
ATOM     37  C   UNL A   1      38.739  29.754  29.220  1.00  0.00     0.031 C 
ATOM     38  C   UNL A   1      38.055  34.139  34.496  1.00  0.00     0.029 A 
ATOM     39  C   UNL A   1      39.121  33.151  34.625  1.00  0.00     0.049 A 
ATOM     40  H   UNL A   1      39.739  31.765  33.196  1.00  0.00     0.167 HD
ATOM     41  C   UNL A   1      40.678  28.639  30.286  1.00  0.00     0.034 A 
ATOM     42  C   UNL A   1      39.899  32.983  35.712  1.00  0.00     0.034 A 
ATOM     43  C   UNL A   1      41.659  28.493  31.328  1.00  0.00     0.049 A 
ATOM     44  C   UNL A   1      40.962  31.918  35.696  1.00  0.00     0.074 A 
ATOM     45  C   UNL A   1      42.728  27.616  31.386  1.00  0.00     0.029 A 
ATOM     46  N   UNL A   1      41.684  29.230  32.501  1.00  0.00    -0.354 N 
ATOM     47  N   UNL A   1      41.283  31.088  34.733  1.00  0.00    -0.248 NA
ATOM     48  C   UNL A   1      41.785  31.782  36.906  1.00  0.00     0.031 C 
ATOM     49  C   UNL A   1      43.382  27.804  32.608  1.00  0.00     0.029 A 
ATOM     50  C   UNL A   1      42.738  28.818  33.300  1.00  0.00     0.049 A 
ATOM     51  H   UNL A   1      41.046  29.944  32.734  1.00  0.00     0.167 HD
ATOM     52  C   UNL A   1      42.366  30.356  35.206  1.00  0.00     0.074 A 
ATOM     53  C   UNL A   1      42.657  30.854  36.536  1.00  0.00     0.031 C 
ATOM     54  C   UNL A   1      43.048  29.353  34.601  1.00  0.00     0.034 A 
BRANCH  41  55
ATOM     55  C   UNL A   1      40.752  27.713  29.098  1.00  0.00     0.023 A 
ATOM     56  C   UNL A   1      39.903  26.590  29.039  1.00  0.00     0.012 A 
ATOM     57  C   UNL A   1      41.624  27.976  28.023  1.00  0.00     0.148 A 
ATOM     58  C   UNL A   1      39.949  25.718  27.953  1.00  0.00     0.002 A 
ATOM     59  C   UNL A   1      41.631  27.127  26.921  1.00  0.00     0.091 A 
ATOM     60  F   UNL A   1      42.438  29.038  28.103  1.00  0.00    -0.205 F 
ATOM     61  C   UNL A   1      40.805  25.993  26.890  1.00  0.00     0.022 A 
BRANCH  59  62
ATOM     62  S   UNL A   1      42.640  27.437  25.468  1.00  0.00     0.127 S 
ATOM     63  O   UNL A   1      42.389  26.236  24.673  1.00  0.00    -0.237 OA
ATOM     64  O   UNL A   1      42.042  28.660  24.930  1.00  0.00    -0.237 OA
ATOM     65  O   UNL A   1      44.004  27.594  25.954  1.00  0.00    -0.744 OA
ENDBRANCH  59  62
ENDBRANCH  41  55
BRANCH  42  66
ATOM     66  C   UNL A   1      39.741  33.886  36.889  1.00  0.00     0.023 A 
ATOM     67  C   UNL A   1      40.184  35.220  36.794  1.00  0.00     0.012 A 
ATOM     68  C   UNL A   1      39.131  33.447  38.080  1.00  0.00     0.148 A 
ATOM     69  C   UNL A   1      40.050  36.092  37.875  1.00  0.00     0.002 A 
ATOM     70  C   UNL A   1      38.952  34.337  39.133  1.00  0.00     0.091 A 
ATOM     71  F   UNL A   1      38.725  32.172  38.154  1.00  0.00    -0.205 F 
ATOM     72  C   UNL A   1      39.427  35.654  39.040  1.00  0.00     0.022 A 
BRANCH  70  73
ATOM     73  S   UNL A   1      38.046  33.900  40.622  1.00  0.00     0.127 S 
ATOM     74  O   UNL A   1      38.971  32.980  41.277  1.00  0.00    -0.237 OA
ATOM     75  O   UNL A   1      37.901  35.200  41.278  1.00  0.00    -0.237 OA
ATOM     76  O   UNL A   1      36.791  33.318  40.164  1.00  0.00    -0.744 OA
ENDBRANCH  70  73
ENDBRANCH  42  66
BRANCH  54  77
ATOM     77  C   UNL A   1      44.198  28.734  35.352  1.00  0.00     0.023 A 
ATOM     78  C   UNL A   1      45.503  29.229  35.165  1.00  0.00     0.012 A 
ATOM     79  C   UNL A   1      43.972  27.721  36.307  1.00  0.00     0.148 A 
ATOM     80  C   UNL A   1      46.571  28.710  35.899  1.00  0.00     0.002 A 
ATOM     81  C   UNL A   1      45.031  27.243  37.069  1.00  0.00     0.091 A 
ATOM     82  F   UNL A   1      42.725  27.253  36.458  1.00  0.00    -0.205 F 
ATOM     83  C   UNL A   1      46.334  27.728  36.857  1.00  0.00     0.022 A 
BRANCH  81  84
ATOM     84  S   UNL A   1      44.812  26.049  38.393  1.00  0.00     0.127 S 
ATOM     85  O   UNL A   1      44.266  24.901  37.670  1.00  0.00    -0.237 OA
ATOM     86  O   UNL A   1      46.181  25.870  38.875  1.00  0.00    -0.237 OA
ATOM     87  O   UNL A   1      43.905  26.669  39.349  1.00  0.00    -0.744 OA
ENDBRANCH  81  84
ENDBRANCH  54  77
ENDBRANCH  28  29
ENDBRANCH  20  23
ENDBRANCH   1  19
TORSDOF 14
ENDMDL
MODEL 3
REMARK VINA RESULT:     -11.6      6.317     11.288
REMARK SMILES CC1C[NH+]([C@H]2COC[C@@H]2C(=O)NCCCNC(=O)c2ccc(-c3c4nc(c(-c5cccc(S(=O)(=O)[O-])c5F)c5ccc([nH]5)c(-c5cccc(S(=O)(=O)[O-])c5F)c5nc(c(-c6cccc(S(=O)(=O)[O-])c6F)c6ccc3[nH]6)C=C5)C=C4)cc2)C1
REMARK SMILES IDX 15 1 14 2 13 3 12 4 10 5 11 6 9 8 5 9 6 10 7 11 8 12 4 13
REMARK SMILES IDX 1 14 2 15 3 16 82 17 16 19 17 20 18 22 19 23 20 24 81 25
REMARK SMILES IDX 21 26 80 27 22 28 23 29 24 30 74 31 25 32 79 33 73 34 75 35
REMARK SMILES IDX 26 36 78 37 72 38 71 39 27 41 59 42 39 43 58 44 40 45 43 46
REMARK SMILES IDX 57 47 76 48 41 49 42 50 56 52 77 53 44 54 28 55 29 56 37 57
REMARK SMILES IDX 30 58 32 59 38 60 31 61 33 62 34 63 35 64 36 65 60 66 61 67
REMARK SMILES IDX 69 68 62 69 64 70 70 71 63 72 65 73 66 74 67 75 68 76 45 77
REMARK SMILES IDX 46 78 54 79 47 80 49 81 55 82 48 83 50 84 51 85 52 86 53 87
REMARK H PARENT 12 7 4 18 16 21 75 40 43 51
REMARK Flexibility Score: inf
ROOT
ATOM      1  C   UNL A   1      32.924  32.459  27.297  1.00  0.00     0.118 C 
ENDROOT
BRANCH   1   2
ATOM      2  C   UNL A   1      31.733  31.648  26.795  1.00  0.00     0.042 C 
BRANCH   2   3
ATOM      3  C   UNL A   1      32.032  30.173  26.548  1.00  0.00     0.117 C 
BRANCH   3   4
ATOM      4  N   UNL A   1      32.774  29.956  25.315  1.00  0.00    -0.356 N 
ATOM      5  C   UNL A   1      32.451  29.200  24.225  1.00  0.00     0.231 C 
ATOM      6  O   UNL A   1      33.240  29.195  23.281  1.00  0.00    -0.274 OA
ATOM      7  H   UNL A   1      33.636  30.426  25.258  1.00  0.00     0.163 HD
BRANCH   5   8
ATOM      8  C   UNL A   1      31.145  28.422  24.223  1.00  0.00     0.164 C 
ATOM      9  C   UNL A   1      31.381  26.961  23.854  1.00  0.00     0.225 C 
ATOM     10  C   UNL A   1      31.238  27.005  22.326  1.00  0.00     0.226 C 
ATOM     11  O   UNL A   1      30.304  28.043  22.005  1.00  0.00    -0.374 OA
ATOM     12  C   UNL A   1      30.196  28.915  23.140  1.00  0.00     0.180 C 
BRANCH   9  13
ATOM     13  N   UNL A   1      30.494  26.089  24.653  1.00  0.00    -0.329 N 
ATOM     14  C   UNL A   1      31.523  23.627  26.810  1.00  0.00     0.020 C 
ATOM     15  C   UNL A   1      30.564  24.540  26.075  1.00  0.00     0.096 C 
ATOM     16  C   UNL A   1      30.898  26.050  26.079  1.00  0.00     0.271 C 
ATOM     17  C   UNL A   1      30.752  24.638  24.543  1.00  0.00     0.271 C 
ATOM     18  H   UNL A   1      29.588  26.450  24.354  1.00  0.00     0.348 HD
ENDBRANCH   9  13
ENDBRANCH   5   8
ENDBRANCH   3   4
ENDBRANCH   2   3
ENDBRANCH   1   2
BRANCH   1  19
ATOM     19  N   UNL A   1      32.584  33.841  27.608  1.00  0.00    -0.352 N 
ATOM     20  C   UNL A   1      33.094  34.684  28.566  1.00  0.00     0.251 C 
ATOM     21  H   UNL A   1      31.878  34.234  27.043  1.00  0.00     0.163 HD
ATOM     22  O   UNL A   1      32.555  35.769  28.771  1.00  0.00    -0.269 OA
BRANCH  20  23
ATOM     23  C   UNL A   1      34.269  34.280  29.369  1.00  0.00     0.039 A 
ATOM     24  C   UNL A   1      34.067  33.535  30.535  1.00  0.00     0.014 A 
ATOM     25  C   UNL A   1      35.563  34.629  28.979  1.00  0.00     0.014 A 
ATOM     26  C   UNL A   1      35.167  33.064  31.257  1.00  0.00     0.010 A 
ATOM     27  C   UNL A   1      36.658  34.096  29.656  1.00  0.00     0.010 A 
ATOM     28  C   UNL A   1      36.472  33.300  30.796  1.00  0.00    -0.014 A 
BRANCH  28  29
ATOM     29  C   UNL A   1      37.655  32.689  31.458  1.00  0.00     0.031 A 
ATOM     30  C   UNL A   1      38.361  31.520  30.829  1.00  0.00     0.074 A 
ATOM     31  C   UNL A   1      38.024  33.120  32.681  1.00  0.00     0.049 A 
ATOM     32  N   UNL A   1      39.344  30.798  31.303  1.00  0.00    -0.248 NA
ATOM     33  C   UNL A   1      37.886  31.091  29.504  1.00  0.00     0.031 C 
ATOM     34  C   UNL A   1      37.381  34.204  33.427  1.00  0.00     0.029 A 
ATOM     35  N   UNL A   1      39.011  32.677  33.528  1.00  0.00    -0.354 N 
ATOM     36  C   UNL A   1      39.584  29.812  30.353  1.00  0.00     0.074 A 
ATOM     37  C   UNL A   1      38.621  30.008  29.290  1.00  0.00     0.031 C 
ATOM     38  C   UNL A   1      37.991  34.344  34.614  1.00  0.00     0.029 A 
ATOM     39  C   UNL A   1      39.039  33.337  34.735  1.00  0.00     0.049 A 
ATOM     40  H   UNL A   1      39.639  31.957  33.293  1.00  0.00     0.167 HD
ATOM     41  C   UNL A   1      40.536  28.848  30.351  1.00  0.00     0.034 A 
ATOM     42  C   UNL A   1      39.810  33.143  35.823  1.00  0.00     0.034 A 
ATOM     43  C   UNL A   1      41.510  28.674  31.395  1.00  0.00     0.049 A 
ATOM     44  C   UNL A   1      40.854  32.060  35.799  1.00  0.00     0.074 A 
ATOM     45  C   UNL A   1      42.564  27.778  31.447  1.00  0.00     0.029 A 
ATOM     46  N   UNL A   1      41.543  29.397  32.577  1.00  0.00    -0.354 N 
ATOM     47  N   UNL A   1      41.165  31.236  34.828  1.00  0.00    -0.248 NA
ATOM     48  C   UNL A   1      41.670  31.896  37.011  1.00  0.00     0.031 C 
ATOM     49  C   UNL A   1      43.216  27.941  32.674  1.00  0.00     0.029 A 
ATOM     50  C   UNL A   1      42.586  28.958  33.374  1.00  0.00     0.049 A 
ATOM     51  H   UNL A   1      40.916  30.119  32.815  1.00  0.00     0.167 HD
ATOM     52  C   UNL A   1      42.234  30.480  35.297  1.00  0.00     0.074 A 
ATOM     53  C   UNL A   1      42.528  30.958  36.634  1.00  0.00     0.031 C 
ATOM     54  C   UNL A   1      42.900  29.473  34.683  1.00  0.00     0.034 A 
BRANCH  41  55
ATOM     55  C   UNL A   1      40.599  27.935  29.153  1.00  0.00     0.023 A 
ATOM     56  C   UNL A   1      39.719  26.837  29.070  1.00  0.00     0.012 A 
ATOM     57  C   UNL A   1      41.492  28.185  28.093  1.00  0.00     0.148 A 
ATOM     58  C   UNL A   1      39.754  25.978  27.973  1.00  0.00     0.002 A 
ATOM     59  C   UNL A   1      41.489  27.350  26.980  1.00  0.00     0.091 A 
ATOM     60  F   UNL A   1      42.335  29.222  28.195  1.00  0.00    -0.205 F 
ATOM     61  C   UNL A   1      40.632  26.240  26.924  1.00  0.00     0.022 A 
BRANCH  59  62
ATOM     62  S   UNL A   1      42.526  27.647  25.544  1.00  0.00     0.127 S 
ATOM     63  O   UNL A   1      41.965  28.896  25.029  1.00  0.00    -0.237 OA
ATOM     64  O   UNL A   1      43.855  27.778  26.144  1.00  0.00    -0.237 OA
ATOM     65  O   UNL A   1      42.362  26.484  24.684  1.00  0.00    -0.744 OA
ENDBRANCH  59  62
ENDBRANCH  41  55
BRANCH  42  66
ATOM     66  C   UNL A   1      39.662  34.035  37.009  1.00  0.00     0.023 A 
ATOM     67  C   UNL A   1      40.092  35.374  36.919  1.00  0.00     0.012 A 
ATOM     68  C   UNL A   1      39.076  33.582  38.207  1.00  0.00     0.148 A 
ATOM     69  C   UNL A   1      39.967  36.236  38.008  1.00  0.00     0.002 A 
ATOM     70  C   UNL A   1      38.906  34.461  39.270  1.00  0.00     0.091 A 
ATOM     71  F   UNL A   1      38.682  32.302  38.277  1.00  0.00    -0.205 F 
ATOM     72  C   UNL A   1      39.366  35.783  39.179  1.00  0.00     0.022 A 
BRANCH  70  73
ATOM     73  S   UNL A   1      38.027  34.005  40.769  1.00  0.00     0.127 S 
ATOM     74  O   UNL A   1      39.011  33.168  41.450  1.00  0.00    -0.237 OA
ATOM     75  O   UNL A   1      37.791  35.310  41.389  1.00  0.00    -0.237 OA
ATOM     76  O   UNL A   1      36.817  33.326  40.327  1.00  0.00    -0.744 OA
ENDBRANCH  70  73
ENDBRANCH  42  66
BRANCH  54  77
ATOM     77  C   UNL A   1      44.037  28.825  35.431  1.00  0.00     0.023 A 
ATOM     78  C   UNL A   1      45.336  29.359  35.329  1.00  0.00     0.012 A 
ATOM     79  C   UNL A   1      43.800  27.743  36.304  1.00  0.00     0.148 A 
ATOM     80  C   UNL A   1      46.388  28.811  36.063  1.00  0.00     0.002 A 
ATOM     81  C   UNL A   1      44.842  27.234  37.069  1.00  0.00     0.091 A 
ATOM     82  F   UNL A   1      42.560  27.240  36.374  1.00  0.00    -0.205 F 
ATOM     83  C   UNL A   1      46.139  27.759  36.941  1.00  0.00     0.022 A 
BRANCH  81  84
ATOM     84  S   UNL A   1      44.603  25.944  38.296  1.00  0.00     0.127 S 
ATOM     85  O   UNL A   1      43.643  26.571  39.204  1.00  0.00    -0.237 OA
ATOM     86  O   UNL A   1      44.057  24.851  37.492  1.00  0.00    -0.237 OA
ATOM     87  O   UNL A   1      45.918  25.682  38.867  1.00  0.00    -0.744 OA
ENDBRANCH  81  84
ENDBRANCH  54  77
ENDBRANCH  28  29
ENDBRANCH  20  23
ENDBRANCH   1  19
TORSDOF 14
ENDMDL
