MODEL 1
REMARK VINA RESULT:     -12.6      0.000      0.000
REMARK SMILES O=C(Cc1cccn1-c1ccc2c(c1)OCCO2)NCCCNC(=O)c1ccc(-c2c3nc(c(-c4cccc(S(=O)(=O)[O-])c4F)c4ccc([nH]4)c(-c4cccc(S(=O)(=O)[O-])c4F)c4nc(c(-c5cccc(S(=O)(=O)[O-])c5F)c5ccc2[nH]5)C=C4)C=C3)cc1
REMARK SMILES IDX 21 1 20 2 19 3 1 4 2 5 3 7 4 8 5 9 8 10 6 11 7 12 9 13 10 14
REMARK SMILES IDX 14 15 11 16 13 17 12 18 15 19 18 20 16 21 17 22 22 23 23 24
REMARK SMILES IDX 24 25 25 27 26 28 27 29 88 30 28 31 87 32 29 33 30 34 31 35
REMARK SMILES IDX 81 36 32 37 86 38 80 39 82 40 33 41 85 42 79 43 78 44 34 46
REMARK SMILES IDX 66 47 46 48 65 49 47 50 50 51 64 52 83 53 48 54 49 55 63 57
REMARK SMILES IDX 84 58 51 59 35 60 36 61 44 62 37 63 39 64 45 65 38 66 40 67
REMARK SMILES IDX 41 68 42 69 43 70 67 71 68 72 76 73 69 74 71 75 77 76 70 77
REMARK SMILES IDX 72 78 73 79 74 80 75 81 52 82 53 83 61 84 54 85 56 86 62 87
REMARK SMILES IDX 55 88 57 89 58 90 59 91 60 92
REMARK H PARENT 19 6 23 26 82 45 50 56
REMARK Flexibility Score: inf
ROOT
ATOM      1  C   UNL A   1      33.390  29.361  27.221  1.00  0.00     0.042 C 
ENDROOT
BRANCH   1   2
ATOM      2  C   UNL A   1      32.844  28.112  26.543  1.00  0.00     0.117 C 
BRANCH   2   3
ATOM      3  N   UNL A   1      32.065  28.327  25.343  1.00  0.00    -0.356 N 
ATOM      4  O   UNL A   1      33.771  27.705  23.932  1.00  0.00    -0.275 OA
ATOM      5  C   UNL A   1      32.588  27.999  24.106  1.00  0.00     0.225 C 
ATOM      6  H   UNL A   1      31.159  28.707  25.408  1.00  0.00     0.163 HD
BRANCH   5   7
ATOM      7  C   UNL A   1      31.601  28.038  22.960  1.00  0.00     0.154 C 
BRANCH   7   8
ATOM      8  C   UNL A   1      30.151  27.788  23.304  1.00  0.00     0.032 A 
ATOM      9  C   UNL A   1      29.123  28.708  23.124  1.00  0.00     0.024 A 
ATOM     10  N   UNL A   1      29.556  26.603  23.729  1.00  0.00    -0.320 N 
ATOM     11  C   UNL A   1      27.895  28.070  23.392  1.00  0.00     0.020 A 
ATOM     12  C   UNL A   1      28.187  26.774  23.737  1.00  0.00     0.091 A 
BRANCH  10  13
ATOM     13  C   UNL A   1      30.163  25.402  24.136  1.00  0.00     0.049 A 
ATOM     14  C   UNL A   1      30.545  24.460  23.177  1.00  0.00     0.031 A 
ATOM     15  C   UNL A   1      30.365  25.172  25.498  1.00  0.00     0.077 A 
ATOM     16  C   UNL A   1      31.225  23.309  23.586  1.00  0.00     0.052 A 
ATOM     17  C   UNL A   1      31.083  24.043  25.887  1.00  0.00     0.163 A 
ATOM     18  C   UNL A   1      31.520  23.113  24.936  1.00  0.00     0.161 A 
ATOM     19  O   UNL A   1      31.395  23.930  27.220  1.00  0.00    -0.486 OA
ATOM     20  O   UNL A   1      32.283  22.016  25.251  1.00  0.00    -0.486 OA
ATOM     21  C   UNL A   1      32.641  23.237  27.347  1.00  0.00     0.271 C 
ATOM     22  C   UNL A   1      32.533  21.889  26.657  1.00  0.00     0.271 C 
ENDBRANCH  10  13
ENDBRANCH   7   8
ENDBRANCH   5   7
ENDBRANCH   2   3
ENDBRANCH   1   2
BRANCH   1  23
ATOM     23  C   UNL A   1      34.917  29.430  27.236  1.00  0.00     0.118 C 
BRANCH  23  24
ATOM     24  N   UNL A   1      35.427  30.731  27.658  1.00  0.00    -0.352 N 
ATOM     25  C   UNL A   1      36.613  31.010  28.308  1.00  0.00     0.251 C 
ATOM     26  H   UNL A   1      34.855  31.506  27.453  1.00  0.00     0.163 HD
ATOM     27  O   UNL A   1      36.785  32.097  28.836  1.00  0.00    -0.269 OA
BRANCH  25  28
ATOM     28  C   UNL A   1      37.660  29.968  28.397  1.00  0.00     0.039 A 
ATOM     29  C   UNL A   1      38.546  29.816  27.324  1.00  0.00     0.014 A 
ATOM     30  C   UNL A   1      37.768  29.153  29.528  1.00  0.00     0.014 A 
ATOM     31  C   UNL A   1      39.614  28.927  27.440  1.00  0.00     0.010 A 
ATOM     32  C   UNL A   1      38.840  28.274  29.650  1.00  0.00     0.010 A 
ATOM     33  C   UNL A   1      39.792  28.196  28.625  1.00  0.00    -0.014 A 
BRANCH  33  34
ATOM     34  C   UNL A   1      41.117  27.572  28.883  1.00  0.00     0.031 A 
ATOM     35  C   UNL A   1      41.131  26.089  28.422  1.00  0.00     0.074 A 
ATOM     36  C   UNL A   1      42.082  28.341  29.475  1.00  0.00     0.049 A 
ATOM     37  N   UNL A   1      41.764  25.061  28.906  1.00  0.00    -0.248 NA
ATOM     38  C   UNL A   1      40.207  25.665  27.331  1.00  0.00     0.031 C 
ATOM     39  C   UNL A   1      41.929  29.777  29.796  1.00  0.00     0.029 A 
ATOM     40  N   UNL A   1      43.373  28.105  29.921  1.00  0.00    -0.354 N 
ATOM     41  C   UNL A   1      41.510  23.963  28.038  1.00  0.00     0.074 A 
ATOM     42  C   UNL A   1      40.424  24.354  27.200  1.00  0.00     0.031 C 
ATOM     43  C   UNL A   1      43.020  30.253  30.439  1.00  0.00     0.029 A 
ATOM     44  C   UNL A   1      44.005  29.195  30.581  1.00  0.00     0.049 A 
ATOM     45  H   UNL A   1      43.823  27.239  29.790  1.00  0.00     0.167 HD
ATOM     46  C   UNL A   1      42.333  22.874  27.944  1.00  0.00     0.034 A 
ATOM     47  C   UNL A   1      45.218  29.246  31.222  1.00  0.00     0.034 A 
ATOM     48  C   UNL A   1      43.449  23.067  28.807  1.00  0.00     0.049 A 
ATOM     49  C   UNL A   1      45.893  27.984  30.905  1.00  0.00     0.074 A 
ATOM     50  C   UNL A   1      43.605  23.016  30.164  1.00  0.00     0.029 A 
ATOM     51  N   UNL A   1      44.518  23.713  28.234  1.00  0.00    -0.354 N 
ATOM     52  N   UNL A   1      46.418  27.707  29.749  1.00  0.00    -0.248 NA
ATOM     53  C   UNL A   1      45.918  26.910  31.908  1.00  0.00     0.031 C 
ATOM     54  C   UNL A   1      44.556  24.023  30.413  1.00  0.00     0.029 A 
ATOM     55  C   UNL A   1      45.085  24.492  29.202  1.00  0.00     0.049 A 
ATOM     56  H   UNL A   1      44.819  23.629  27.299  1.00  0.00     0.167 HD
ATOM     57  C   UNL A   1      46.459  26.336  29.786  1.00  0.00     0.074 A 
ATOM     58  C   UNL A   1      46.510  25.966  31.182  1.00  0.00     0.031 C 
ATOM     59  C   UNL A   1      45.863  25.635  28.785  1.00  0.00     0.034 A 
BRANCH  46  60
ATOM     60  C   UNL A   1      42.468  21.711  26.979  1.00  0.00     0.023 A 
ATOM     61  C   UNL A   1      41.705  20.552  27.317  1.00  0.00     0.012 A 
ATOM     62  C   UNL A   1      43.468  21.553  26.008  1.00  0.00     0.148 A 
ATOM     63  C   UNL A   1      42.011  19.280  26.835  1.00  0.00     0.002 A 
ATOM     64  C   UNL A   1      43.736  20.281  25.484  1.00  0.00     0.091 A 
ATOM     65  F   UNL A   1      44.215  22.603  25.653  1.00  0.00    -0.205 F 
ATOM     66  C   UNL A   1      43.042  19.143  25.928  1.00  0.00     0.022 A 
BRANCH  64  67
ATOM     67  S   UNL A   1      44.985  19.987  24.226  1.00  0.00     0.127 S 
ATOM     68  O   UNL A   1      44.575  20.908  23.169  1.00  0.00    -0.237 OA
ATOM     69  O   UNL A   1      46.214  20.375  24.924  1.00  0.00    -0.237 OA
ATOM     70  O   UNL A   1      44.904  18.567  23.917  1.00  0.00    -0.744 OA
ENDBRANCH  64  67
ENDBRANCH  46  60
BRANCH  47  71
ATOM     71  C   UNL A   1      45.960  30.187  32.154  1.00  0.00     0.023 A 
ATOM     72  C   UNL A   1      45.766  30.244  33.540  1.00  0.00     0.012 A 
ATOM     73  C   UNL A   1      46.991  31.040  31.644  1.00  0.00     0.148 A 
ATOM     74  C   UNL A   1      46.606  31.021  34.368  1.00  0.00     0.002 A 
ATOM     75  C   UNL A   1      47.892  31.707  32.465  1.00  0.00     0.091 A 
ATOM     76  F   UNL A   1      47.094  31.249  30.329  1.00  0.00    -0.205 F 
ATOM     77  C   UNL A   1      47.695  31.713  33.840  1.00  0.00     0.022 A 
BRANCH  75  78
ATOM     78  S   UNL A   1      49.401  32.454  31.810  1.00  0.00     0.127 S 
ATOM     79  O   UNL A   1      50.152  32.766  33.026  1.00  0.00    -0.237 OA
ATOM     80  O   UNL A   1      49.947  31.355  31.016  1.00  0.00    -0.237 OA
ATOM     81  O   UNL A   1      48.985  33.616  31.034  1.00  0.00    -0.744 OA
ENDBRANCH  75  78
ENDBRANCH  47  71
BRANCH  59  82
ATOM     82  C   UNL A   1      45.809  26.365  27.440  1.00  0.00     0.023 A 
ATOM     83  C   UNL A   1      44.541  26.805  27.002  1.00  0.00     0.012 A 
ATOM     84  C   UNL A   1      46.889  26.527  26.538  1.00  0.00     0.148 A 
ATOM     85  C   UNL A   1      44.343  27.346  25.728  1.00  0.00     0.002 A 
ATOM     86  C   UNL A   1      46.692  27.056  25.255  1.00  0.00     0.091 A 
ATOM     87  F   UNL A   1      48.106  26.156  26.927  1.00  0.00    -0.205 F 
ATOM     88  C   UNL A   1      45.415  27.467  24.853  1.00  0.00     0.022 A 
BRANCH  86  89
ATOM     89  S   UNL A   1      47.992  27.204  24.009  1.00  0.00     0.127 S 
ATOM     90  O   UNL A   1      48.268  25.807  23.669  1.00  0.00    -0.237 OA
ATOM     91  O   UNL A   1      47.324  27.952  22.947  1.00  0.00    -0.237 OA
ATOM     92  O   UNL A   1      49.110  27.893  24.643  1.00  0.00    -0.744 OA
ENDBRANCH  86  89
ENDBRANCH  59  82
ENDBRANCH  33  34
ENDBRANCH  25  28
ENDBRANCH  23  24
ENDBRANCH   1  23
TORSDOF 15
ENDMDL
MODEL 2
REMARK VINA RESULT:     -12.5      3.628      8.304
REMARK SMILES O=C(Cc1cccn1-c1ccc2c(c1)OCCO2)NCCCNC(=O)c1ccc(-c2c3nc(c(-c4cccc(S(=O)(=O)[O-])c4F)c4ccc([nH]4)c(-c4cccc(S(=O)(=O)[O-])c4F)c4nc(c(-c5cccc(S(=O)(=O)[O-])c5F)c5ccc2[nH]5)C=C4)C=C3)cc1
REMARK SMILES IDX 21 1 20 2 19 3 1 4 2 5 3 7 4 8 5 9 8 10 6 11 7 12 9 13 10 14
REMARK SMILES IDX 14 15 11 16 13 17 12 18 15 19 18 20 16 21 17 22 22 23 23 24
REMARK SMILES IDX 24 25 25 27 26 28 27 29 88 30 28 31 87 32 29 33 30 34 31 35
REMARK SMILES IDX 81 36 32 37 86 38 80 39 82 40 33 41 85 42 79 43 78 44 34 46
REMARK SMILES IDX 66 47 46 48 65 49 47 50 50 51 64 52 83 53 48 54 49 55 63 57
REMARK SMILES IDX 84 58 51 59 35 60 36 61 44 62 37 63 39 64 45 65 38 66 40 67
REMARK SMILES IDX 41 68 42 69 43 70 67 71 68 72 76 73 69 74 71 75 77 76 70 77
REMARK SMILES IDX 72 78 73 79 74 80 75 81 52 82 53 83 61 84 54 85 56 86 62 87
REMARK SMILES IDX 55 88 57 89 58 90 59 91 60 92
REMARK H PARENT 19 6 23 26 82 45 50 56
REMARK Flexibility Score: inf
ROOT
ATOM      1  C   UNL A   1      37.933  20.002  25.002  1.00  0.00     0.042 C 
ENDROOT
BRANCH   1   2
ATOM      2  C   UNL A   1      36.945  21.159  24.956  1.00  0.00     0.117 C 
BRANCH   2   3
ATOM      3  N   UNL A   1      35.873  21.121  25.927  1.00  0.00    -0.356 N 
ATOM      4  O   UNL A   1      35.759  23.409  26.127  1.00  0.00    -0.275 OA
ATOM      5  C   UNL A   1      35.292  22.296  26.367  1.00  0.00     0.225 C 
ATOM      6  H   UNL A   1      35.556  20.256  26.275  1.00  0.00     0.163 HD
BRANCH   5   7
ATOM      7  C   UNL A   1      34.031  22.122  27.186  1.00  0.00     0.154 C 
BRANCH   7   8
ATOM      8  C   UNL A   1      32.745  22.617  26.567  1.00  0.00     0.032 A 
ATOM      9  C   UNL A   1      32.100  23.799  26.914  1.00  0.00     0.024 A 
ATOM     10  N   UNL A   1      32.047  22.085  25.486  1.00  0.00    -0.320 N 
ATOM     11  C   UNL A   1      31.036  24.014  26.016  1.00  0.00     0.020 A 
ATOM     12  C   UNL A   1      31.040  22.961  25.135  1.00  0.00     0.091 A 
BRANCH  10  13
ATOM     13  C   UNL A   1      32.236  20.858  24.825  1.00  0.00     0.049 A 
ATOM     14  C   UNL A   1      32.165  20.806  23.430  1.00  0.00     0.031 A 
ATOM     15  C   UNL A   1      32.484  19.711  25.582  1.00  0.00     0.077 A 
ATOM     16  C   UNL A   1      32.440  19.600  22.779  1.00  0.00     0.052 A 
ATOM     17  C   UNL A   1      32.799  18.527  24.918  1.00  0.00     0.163 A 
ATOM     18  C   UNL A   1      32.785  18.468  23.520  1.00  0.00     0.161 A 
ATOM     19  O   UNL A   1      33.187  17.462  25.693  1.00  0.00    -0.486 OA
ATOM     20  O   UNL A   1      33.145  17.349  22.809  1.00  0.00    -0.486 OA
ATOM     21  C   UNL A   1      34.120  16.666  24.954  1.00  0.00     0.271 C 
ATOM     22  C   UNL A   1      33.479  16.234  23.647  1.00  0.00     0.271 C 
ENDBRANCH  10  13
ENDBRANCH   7   8
ENDBRANCH   5   7
ENDBRANCH   2   3
ENDBRANCH   1   2
BRANCH   1  23
ATOM     23  C   UNL A   1      39.221  20.329  25.758  1.00  0.00     0.118 C 
BRANCH  23  24
ATOM     24  N   UNL A   1      40.106  19.176  25.906  1.00  0.00    -0.352 N 
ATOM     25  C   UNL A   1      41.475  19.172  26.088  1.00  0.00     0.251 C 
ATOM     26  H   UNL A   1      39.672  18.293  25.871  1.00  0.00     0.163 HD
ATOM     27  O   UNL A   1      42.115  18.145  25.927  1.00  0.00    -0.269 OA
BRANCH  25  28
ATOM     28  C   UNL A   1      42.168  20.431  26.443  1.00  0.00     0.039 A 
ATOM     29  C   UNL A   1      42.798  21.158  25.427  1.00  0.00     0.014 A 
ATOM     30  C   UNL A   1      42.192  20.889  27.764  1.00  0.00     0.014 A 
ATOM     31  C   UNL A   1      43.348  22.405  25.719  1.00  0.00     0.010 A 
ATOM     32  C   UNL A   1      42.729  22.140  28.054  1.00  0.00     0.010 A 
ATOM     33  C   UNL A   1      43.264  22.920  27.022  1.00  0.00    -0.014 A 
BRANCH  33  34
ATOM     34  C   UNL A   1      43.489  24.377  27.226  1.00  0.00     0.031 A 
ATOM     35  C   UNL A   1      42.149  25.112  27.498  1.00  0.00     0.074 A 
ATOM     36  C   UNL A   1      44.773  24.845  27.134  1.00  0.00     0.049 A 
ATOM     37  N   UNL A   1      41.771  26.317  27.187  1.00  0.00    -0.248 NA
ATOM     38  C   UNL A   1      41.018  24.350  28.101  1.00  0.00     0.031 C 
ATOM     39  C   UNL A   1      45.963  23.991  26.933  1.00  0.00     0.029 A 
ATOM     40  N   UNL A   1      45.353  26.102  27.194  1.00  0.00    -0.354 N 
ATOM     41  C   UNL A   1      40.489  26.519  27.770  1.00  0.00     0.074 A 
ATOM     42  C   UNL A   1      40.017  25.232  28.165  1.00  0.00     0.031 C 
ATOM     43  C   UNL A   1      47.084  24.737  26.811  1.00  0.00     0.029 A 
ATOM     44  C   UNL A   1      46.753  26.145  26.946  1.00  0.00     0.049 A 
ATOM     45  H   UNL A   1      44.831  26.912  27.394  1.00  0.00     0.167 HD
ATOM     46  C   UNL A   1      39.980  27.757  28.056  1.00  0.00     0.034 A 
ATOM     47  C   UNL A   1      47.588  27.228  26.827  1.00  0.00     0.034 A 
ATOM     48  C   UNL A   1      40.949  28.741  27.712  1.00  0.00     0.049 A 
ATOM     49  C   UNL A   1      46.798  28.391  27.243  1.00  0.00     0.074 A 
ATOM     50  C   UNL A   1      41.393  29.245  26.521  1.00  0.00     0.029 A 
ATOM     51  N   UNL A   1      41.833  29.058  28.716  1.00  0.00    -0.354 N 
ATOM     52  N   UNL A   1      46.485  28.658  28.476  1.00  0.00    -0.248 NA
ATOM     53  C   UNL A   1      46.237  29.282  26.219  1.00  0.00     0.031 C 
ATOM     54  C   UNL A   1      42.760  29.477  26.764  1.00  0.00     0.029 A 
ATOM     55  C   UNL A   1      43.040  29.308  28.127  1.00  0.00     0.049 A 
ATOM     56  H   UNL A   1      41.633  29.098  29.680  1.00  0.00     0.167 HD
ATOM     57  C   UNL A   1      45.399  29.481  28.312  1.00  0.00     0.074 A 
ATOM     58  C   UNL A   1      45.542  30.094  27.012  1.00  0.00     0.031 C 
ATOM     59  C   UNL A   1      44.231  29.155  28.929  1.00  0.00     0.034 A 
BRANCH  46  60
ATOM     60  C   UNL A   1      38.809  28.274  28.870  1.00  0.00     0.023 A 
ATOM     61  C   UNL A   1      37.795  28.940  28.117  1.00  0.00     0.012 A 
ATOM     62  C   UNL A   1      38.778  28.439  30.263  1.00  0.00     0.148 A 
ATOM     63  C   UNL A   1      36.894  29.836  28.690  1.00  0.00     0.002 A 
ATOM     64  C   UNL A   1      37.834  29.298  30.842  1.00  0.00     0.091 A 
ATOM     65  F   UNL A   1      39.702  27.840  31.019  1.00  0.00    -0.205 F 
ATOM     66  C   UNL A   1      36.926  30.027  30.057  1.00  0.00     0.022 A 
BRANCH  64  67
ATOM     67  S   UNL A   1      37.709  29.557  32.617  1.00  0.00     0.127 S 
ATOM     68  O   UNL A   1      36.607  30.511  32.707  1.00  0.00    -0.237 OA
ATOM     69  O   UNL A   1      37.386  28.211  33.096  1.00  0.00    -0.237 OA
ATOM     70  O   UNL A   1      39.018  30.036  33.035  1.00  0.00    -0.744 OA
ENDBRANCH  64  67
ENDBRANCH  46  60
BRANCH  47  71
ATOM     71  C   UNL A   1      49.002  27.513  26.356  1.00  0.00     0.023 A 
ATOM     72  C   UNL A   1      50.128  27.521  27.191  1.00  0.00     0.012 A 
ATOM     73  C   UNL A   1      49.270  27.720  24.965  1.00  0.00     0.148 A 
ATOM     74  C   UNL A   1      51.434  27.628  26.662  1.00  0.00     0.002 A 
ATOM     75  C   UNL A   1      50.554  27.703  24.433  1.00  0.00     0.091 A 
ATOM     76  F   UNL A   1      48.265  27.977  24.123  1.00  0.00    -0.205 F 
ATOM     77  C   UNL A   1      51.651  27.670  25.285  1.00  0.00     0.022 A 
BRANCH  75  78
ATOM     78  S   UNL A   1      50.844  27.578  22.655  1.00  0.00     0.127 S 
ATOM     79  O   UNL A   1      50.584  28.942  22.196  1.00  0.00    -0.237 OA
ATOM     80  O   UNL A   1      52.249  27.175  22.618  1.00  0.00    -0.237 OA
ATOM     81  O   UNL A   1      49.912  26.576  22.152  1.00  0.00    -0.744 OA
ENDBRANCH  75  78
ENDBRANCH  47  71
BRANCH  59  82
ATOM     82  C   UNL A   1      44.395  28.348  30.219  1.00  0.00     0.023 A 
ATOM     83  C   UNL A   1      44.125  26.965  30.147  1.00  0.00     0.012 A 
ATOM     84  C   UNL A   1      44.669  28.880  31.503  1.00  0.00     0.148 A 
ATOM     85  C   UNL A   1      44.092  26.155  31.286  1.00  0.00     0.002 A 
ATOM     86  C   UNL A   1      44.625  28.074  32.649  1.00  0.00     0.091 A 
ATOM     87  F   UNL A   1      44.964  30.173  31.609  1.00  0.00    -0.205 F 
ATOM     88  C   UNL A   1      44.336  26.708  32.537  1.00  0.00     0.022 A 
BRANCH  86  89
ATOM     89  S   UNL A   1      44.862  28.689  34.331  1.00  0.00     0.127 S 
ATOM     90  O   UNL A   1      43.765  29.649  34.477  1.00  0.00    -0.237 OA
ATOM     91  O   UNL A   1      44.701  27.479  35.133  1.00  0.00    -0.237 OA
ATOM     92  O   UNL A   1      46.188  29.293  34.379  1.00  0.00    -0.744 OA
ENDBRANCH  86  89
ENDBRANCH  59  82
ENDBRANCH  33  34
ENDBRANCH  25  28
ENDBRANCH  23  24
ENDBRANCH   1  23
TORSDOF 15
ENDMDL
MODEL 3
REMARK VINA RESULT:     -12.5      1.915      2.500
REMARK SMILES O=C(Cc1cccn1-c1ccc2c(c1)OCCO2)NCCCNC(=O)c1ccc(-c2c3nc(c(-c4cccc(S(=O)(=O)[O-])c4F)c4ccc([nH]4)c(-c4cccc(S(=O)(=O)[O-])c4F)c4nc(c(-c5cccc(S(=O)(=O)[O-])c5F)c5ccc2[nH]5)C=C4)C=C3)cc1
REMARK SMILES IDX 21 1 20 2 19 3 1 4 2 5 3 7 4 8 5 9 8 10 6 11 7 12 9 13 10 14
REMARK SMILES IDX 14 15 11 16 13 17 12 18 15 19 18 20 16 21 17 22 22 23 23 24
REMARK SMILES IDX 24 25 25 27 26 28 27 29 88 30 28 31 87 32 29 33 30 34 31 35
REMARK SMILES IDX 81 36 32 37 86 38 80 39 82 40 33 41 85 42 79 43 78 44 34 46
REMARK SMILES IDX 66 47 46 48 65 49 47 50 50 51 64 52 83 53 48 54 49 55 63 57
REMARK SMILES IDX 84 58 51 59 35 60 36 61 44 62 37 63 39 64 45 65 38 66 40 67
REMARK SMILES IDX 41 68 42 69 43 70 67 71 68 72 76 73 69 74 71 75 77 76 70 77
REMARK SMILES IDX 72 78 73 79 74 80 75 81 52 82 53 83 61 84 54 85 56 86 62 87
REMARK SMILES IDX 55 88 57 89 58 90 59 91 60 92
REMARK H PARENT 19 6 23 26 82 45 50 56
REMARK Flexibility Score: inf
ROOT
ATOM      1  C   UNL A   1      33.273  29.411  27.028  1.00  0.00     0.042 C 
ENDROOT
BRANCH   1   2
ATOM      2  C   UNL A   1      32.463  28.214  27.506  1.00  0.00     0.117 C 
BRANCH   2   3
ATOM      3  N   UNL A   1      31.756  27.473  26.484  1.00  0.00    -0.356 N 
ATOM      4  O   UNL A   1      33.547  26.113  26.005  1.00  0.00    -0.275 OA
ATOM      5  C   UNL A   1      32.354  26.387  25.872  1.00  0.00     0.225 C 
ATOM      6  H   UNL A   1      30.845  27.743  26.224  1.00  0.00     0.163 HD
BRANCH   5   7
ATOM      7  C   UNL A   1      31.437  25.552  25.005  1.00  0.00     0.154 C 
BRANCH   7   8
ATOM      8  C   UNL A   1      31.733  25.535  23.524  1.00  0.00     0.032 A 
ATOM      9  C   UNL A   1      31.304  26.500  22.618  1.00  0.00     0.024 A 
ATOM     10  N   UNL A   1      32.561  24.666  22.818  1.00  0.00    -0.320 N 
ATOM     11  C   UNL A   1      31.909  26.248  21.370  1.00  0.00     0.020 A 
ATOM     12  C   UNL A   1      32.694  25.132  21.526  1.00  0.00     0.091 A 
BRANCH  10  13
ATOM     13  C   UNL A   1      33.171  23.475  23.251  1.00  0.00     0.049 A 
ATOM     14  C   UNL A   1      34.466  23.512  23.774  1.00  0.00     0.031 A 
ATOM     15  C   UNL A   1      32.468  22.274  23.139  1.00  0.00     0.077 A 
ATOM     16  C   UNL A   1      35.029  22.337  24.281  1.00  0.00     0.052 A 
ATOM     17  C   UNL A   1      33.024  21.120  23.688  1.00  0.00     0.163 A 
ATOM     18  C   UNL A   1      34.299  21.147  24.263  1.00  0.00     0.161 A 
ATOM     19  O   UNL A   1      32.240  19.992  23.696  1.00  0.00    -0.486 OA
ATOM     20  O   UNL A   1      34.874  20.059  24.874  1.00  0.00    -0.486 OA
ATOM     21  C   UNL A   1      32.576  19.202  24.842  1.00  0.00     0.271 C 
ATOM     22  C   UNL A   1      34.059  18.881  24.806  1.00  0.00     0.271 C 
ENDBRANCH  10  13
ENDBRANCH   7   8
ENDBRANCH   5   7
ENDBRANCH   2   3
ENDBRANCH   1   2
BRANCH   1  23
ATOM     23  C   UNL A   1      34.738  29.369  27.462  1.00  0.00     0.118 C 
BRANCH  23  24
ATOM     24  N   UNL A   1      35.258  30.678  27.849  1.00  0.00    -0.352 N 
ATOM     25  C   UNL A   1      36.467  30.970  28.448  1.00  0.00     0.251 C 
ATOM     26  H   UNL A   1      34.674  31.447  27.657  1.00  0.00     0.163 HD
ATOM     27  O   UNL A   1      36.655  32.063  28.956  1.00  0.00    -0.269 OA
BRANCH  25  28
ATOM     28  C   UNL A   1      37.522  29.933  28.507  1.00  0.00     0.039 A 
ATOM     29  C   UNL A   1      38.424  29.833  27.442  1.00  0.00     0.014 A 
ATOM     30  C   UNL A   1      37.622  29.072  29.604  1.00  0.00     0.014 A 
ATOM     31  C   UNL A   1      39.498  28.949  27.535  1.00  0.00     0.010 A 
ATOM     32  C   UNL A   1      38.700  28.197  29.704  1.00  0.00     0.010 A 
ATOM     33  C   UNL A   1      39.666  28.170  28.691  1.00  0.00    -0.014 A 
BRANCH  33  34
ATOM     34  C   UNL A   1      40.993  27.546  28.941  1.00  0.00     0.031 A 
ATOM     35  C   UNL A   1      41.007  26.066  28.473  1.00  0.00     0.074 A 
ATOM     36  C   UNL A   1      41.960  28.314  29.532  1.00  0.00     0.049 A 
ATOM     37  N   UNL A   1      41.643  25.036  28.951  1.00  0.00    -0.248 NA
ATOM     38  C   UNL A   1      40.078  25.645  27.384  1.00  0.00     0.031 C 
ATOM     39  C   UNL A   1      41.807  29.748  29.859  1.00  0.00     0.029 A 
ATOM     40  N   UNL A   1      43.252  28.077  29.971  1.00  0.00    -0.354 N 
ATOM     41  C   UNL A   1      41.387  23.942  28.080  1.00  0.00     0.074 A 
ATOM     42  C   UNL A   1      40.296  24.335  27.248  1.00  0.00     0.031 C 
ATOM     43  C   UNL A   1      42.900  30.223  30.499  1.00  0.00     0.029 A 
ATOM     44  C   UNL A   1      43.886  29.165  30.633  1.00  0.00     0.049 A 
ATOM     45  H   UNL A   1      43.703  27.213  29.835  1.00  0.00     0.167 HD
ATOM     46  C   UNL A   1      42.210  22.853  27.978  1.00  0.00     0.034 A 
ATOM     47  C   UNL A   1      45.102  29.215  31.269  1.00  0.00     0.034 A 
ATOM     48  C   UNL A   1      43.329  23.044  28.836  1.00  0.00     0.049 A 
ATOM     49  C   UNL A   1      45.777  27.955  30.944  1.00  0.00     0.074 A 
ATOM     50  C   UNL A   1      43.491  22.988  30.193  1.00  0.00     0.029 A 
ATOM     51  N   UNL A   1      44.395  23.694  28.261  1.00  0.00    -0.354 N 
ATOM     52  N   UNL A   1      46.297  27.683  29.784  1.00  0.00    -0.248 NA
ATOM     53  C   UNL A   1      45.807  26.878  31.942  1.00  0.00     0.031 C 
ATOM     54  C   UNL A   1      44.442  23.995  30.441  1.00  0.00     0.029 A 
ATOM     55  C   UNL A   1      44.965  24.470  29.230  1.00  0.00     0.049 A 
ATOM     56  H   UNL A   1      44.692  23.614  27.325  1.00  0.00     0.167 HD
ATOM     57  C   UNL A   1      46.340  26.312  29.816  1.00  0.00     0.074 A 
ATOM     58  C   UNL A   1      46.397  25.937  31.210  1.00  0.00     0.031 C 
ATOM     59  C   UNL A   1      45.740  25.615  28.814  1.00  0.00     0.034 A 
BRANCH  46  60
ATOM     60  C   UNL A   1      42.342  21.695  27.008  1.00  0.00     0.023 A 
ATOM     61  C   UNL A   1      41.526  20.561  27.304  1.00  0.00     0.012 A 
ATOM     62  C   UNL A   1      43.374  21.510  26.074  1.00  0.00     0.148 A 
ATOM     63  C   UNL A   1      41.806  19.283  26.822  1.00  0.00     0.002 A 
ATOM     64  C   UNL A   1      43.617  20.233  25.549  1.00  0.00     0.091 A 
ATOM     65  F   UNL A   1      44.170  22.535  25.759  1.00  0.00    -0.205 F 
ATOM     66  C   UNL A   1      42.867  19.117  25.954  1.00  0.00     0.022 A 
BRANCH  64  67
ATOM     67  S   UNL A   1      44.904  19.906  24.338  1.00  0.00     0.127 S 
ATOM     68  O   UNL A   1      46.112  20.270  25.073  1.00  0.00    -0.237 OA
ATOM     69  O   UNL A   1      44.745  18.467  24.109  1.00  0.00    -0.237 OA
ATOM     70  O   UNL A   1      44.574  20.729  23.183  1.00  0.00    -0.744 OA
ENDBRANCH  64  67
ENDBRANCH  46  60
BRANCH  47  71
ATOM     71  C   UNL A   1      45.847  30.153  32.201  1.00  0.00     0.023 A 
ATOM     72  C   UNL A   1      46.860  31.032  31.796  1.00  0.00     0.012 A 
ATOM     73  C   UNL A   1      45.479  30.238  33.582  1.00  0.00     0.148 A 
ATOM     74  C   UNL A   1      47.395  31.994  32.680  1.00  0.00     0.002 A 
ATOM     75  C   UNL A   1      45.915  31.260  34.417  1.00  0.00     0.091 A 
ATOM     76  F   UNL A   1      44.711  29.291  34.128  1.00  0.00    -0.205 F 
ATOM     77  C   UNL A   1      46.892  32.141  33.973  1.00  0.00     0.022 A 
BRANCH  75  78
ATOM     78  S   UNL A   1      45.146  31.569  36.022  1.00  0.00     0.127 S 
ATOM     79  O   UNL A   1      45.767  32.828  36.432  1.00  0.00    -0.237 OA
ATOM     80  O   UNL A   1      43.735  31.671  35.653  1.00  0.00    -0.237 OA
ATOM     81  O   UNL A   1      45.471  30.424  36.865  1.00  0.00    -0.744 OA
ENDBRANCH  75  78
ENDBRANCH  47  71
BRANCH  59  82
ATOM     82  C   UNL A   1      45.680  26.350  27.472  1.00  0.00     0.023 A 
ATOM     83  C   UNL A   1      44.410  26.793  27.043  1.00  0.00     0.012 A 
ATOM     84  C   UNL A   1      46.755  26.515  26.566  1.00  0.00     0.148 A 
ATOM     85  C   UNL A   1      44.206  27.339  25.772  1.00  0.00     0.002 A 
ATOM     86  C   UNL A   1      46.552  27.050  25.286  1.00  0.00     0.091 A 
ATOM     87  F   UNL A   1      47.974  26.142  26.947  1.00  0.00    -0.205 F 
ATOM     88  C   UNL A   1      45.273  27.463  24.892  1.00  0.00     0.022 A 
BRANCH  86  89
ATOM     89  S   UNL A   1      47.846  27.202  24.034  1.00  0.00     0.127 S 
ATOM     90  O   UNL A   1      48.898  27.926  24.749  1.00  0.00    -0.237 OA
ATOM     91  O   UNL A   1      48.173  25.806  23.751  1.00  0.00    -0.237 OA
ATOM     92  O   UNL A   1      47.271  27.942  22.917  1.00  0.00    -0.744 OA
ENDBRANCH  86  89
ENDBRANCH  59  82
ENDBRANCH  33  34
ENDBRANCH  25  28
ENDBRANCH  23  24
ENDBRANCH   1  23
TORSDOF 15
ENDMDL
