MODEL 1
REMARK VINA RESULT:     -13.3      0.000      0.000
REMARK SMILES Cc1cccc(NC(=O)[C@H]2C=C[C@@H]([NH3+])C2)c1C(=O)NCCCNC(=O)c1ccc(-c2c3nc(c(-c4cccc(S(=O)(=O)[O-])c4F)c4ccc([nH]4)c(-c4cccc(S(=O)(=O)[O-])c4F)c4nc(c(-c5cccc(S(=O)(=O)[O-])c5F)c5ccc2[nH]5)C=C4)C=C3)cc1
REMARK SMILES IDX 21 1 20 2 19 3 17 4 18 5 16 7 1 8 2 9 3 10 4 11 6 12 5 13
REMARK SMILES IDX 7 14 8 15 9 17 10 18 11 19 15 20 12 21 13 22 14 23 22 27
REMARK SMILES IDX 23 28 24 29 25 31 26 32 27 33 88 34 28 35 87 36 29 37 30 38
REMARK SMILES IDX 31 39 81 40 32 41 86 42 80 43 82 44 33 45 85 46 79 47 78 48
REMARK SMILES IDX 34 50 66 51 46 52 65 53 47 54 50 55 64 56 83 57 48 58 49 59
REMARK SMILES IDX 63 61 84 62 51 63 35 64 36 65 44 66 37 67 39 68 45 69 38 70
REMARK SMILES IDX 40 71 41 72 42 73 43 74 67 75 68 76 76 77 69 78 71 79 77 80
REMARK SMILES IDX 70 81 72 82 73 83 74 84 75 85 52 86 53 87 61 88 54 89 56 90
REMARK SMILES IDX 62 91 55 92 57 93 58 94 59 95 60 96
REMARK H PARENT 19 6 7 16 14 24 14 25 14 26 23 30 82 49 50 60
REMARK Flexibility Score: inf
ROOT
ATOM      1  C   UNL A   1      33.220  31.478  27.283  1.00  0.00     0.042 C 
ENDROOT
BRANCH   1   2
ATOM      2  C   UNL A   1      32.212  30.719  26.428  1.00  0.00     0.118 C 
BRANCH   2   3
ATOM      3  N   UNL A   1      32.829  30.137  25.255  1.00  0.00    -0.352 N 
ATOM      4  C   UNL A   1      32.532  29.200  24.303  1.00  0.00     0.253 C 
ATOM      5  O   UNL A   1      33.431  29.109  23.454  1.00  0.00    -0.269 OA
ATOM      6  H   UNL A   1      33.718  30.528  25.097  1.00  0.00     0.163 HD
BRANCH   4   7
ATOM      7  C   UNL A   1      31.304  28.310  24.126  1.00  0.00     0.066 A 
ATOM      8  C   UNL A   1      29.596  29.899  22.926  1.00  0.00     0.045 C 
ATOM      9  C   UNL A   1      30.088  28.590  23.440  1.00  0.00    -0.036 A 
ATOM     10  C   UNL A   1      29.079  27.612  23.328  1.00  0.00     0.004 A 
ATOM     11  C   UNL A   1      29.084  26.520  24.150  1.00  0.00     0.002 A 
ATOM     12  C   UNL A   1      31.341  27.057  24.834  1.00  0.00     0.054 A 
ATOM     13  C   UNL A   1      30.170  26.332  24.976  1.00  0.00     0.027 A 
BRANCH  12  14
ATOM     14  N   UNL A   1      32.526  26.531  25.405  1.00  0.00    -0.325 N 
ATOM     15  C   UNL A   1      33.582  25.779  24.991  1.00  0.00     0.231 C 
ATOM     16  H   UNL A   1      32.608  26.776  26.355  1.00  0.00     0.169 HD
ATOM     17  O   UNL A   1      34.439  25.552  25.867  1.00  0.00    -0.274 OA
BRANCH  15  18
ATOM     18  C   UNL A   1      33.841  25.125  23.613  1.00  0.00     0.107 C 
ATOM     19  C   UNL A   1      34.741  23.929  23.727  1.00  0.00    -0.012 C 
ATOM     20  C   UNL A   1      32.749  24.686  22.625  1.00  0.00     0.087 C 
ATOM     21  C   UNL A   1      34.400  22.957  22.875  1.00  0.00     0.033 C 
ATOM     22  C   UNL A   1      33.214  23.322  22.044  1.00  0.00     0.205 C 
BRANCH  22  23
ATOM     23  N   UNL A   1      32.208  22.268  22.091  1.00  0.00    -0.352 N 
ATOM     24  H   UNL A   1      31.283  22.675  21.952  1.00  0.00     0.345 HD
ATOM     25  H   UNL A   1      32.244  21.804  22.998  1.00  0.00     0.345 HD
ATOM     26  H   UNL A   1      32.393  21.588  21.353  1.00  0.00     0.345 HD
ENDBRANCH  22  23
ENDBRANCH  15  18
ENDBRANCH  12  14
ENDBRANCH   4   7
ENDBRANCH   2   3
ENDBRANCH   1   2
BRANCH   1  27
ATOM     27  C   UNL A   1      34.324  30.672  27.935  1.00  0.00     0.118 C 
BRANCH  27  28
ATOM     28  N   UNL A   1      35.365  31.589  28.429  1.00  0.00    -0.352 N 
ATOM     29  C   UNL A   1      36.690  31.347  28.740  1.00  0.00     0.251 C 
ATOM     30  H   UNL A   1      35.071  32.520  28.558  1.00  0.00     0.163 HD
ATOM     31  O   UNL A   1      37.411  32.217  29.188  1.00  0.00    -0.269 OA
BRANCH  29  32
ATOM     32  C   UNL A   1      37.185  29.997  28.427  1.00  0.00     0.039 A 
ATOM     33  C   UNL A   1      37.340  29.147  29.524  1.00  0.00     0.014 A 
ATOM     34  C   UNL A   1      37.924  29.844  27.255  1.00  0.00     0.014 A 
ATOM     35  C   UNL A   1      38.439  28.306  29.560  1.00  0.00     0.010 A 
ATOM     36  C   UNL A   1      39.048  29.043  27.316  1.00  0.00     0.010 A 
ATOM     37  C   UNL A   1      39.348  28.357  28.503  1.00  0.00    -0.014 A 
BRANCH  37  38
ATOM     38  C   UNL A   1      40.647  27.710  28.558  1.00  0.00     0.031 A 
ATOM     39  C   UNL A   1      40.700  26.252  28.400  1.00  0.00     0.074 A 
ATOM     40  C   UNL A   1      41.786  28.407  28.766  1.00  0.00     0.049 A 
ATOM     41  N   UNL A   1      41.657  25.509  28.835  1.00  0.00    -0.248 NA
ATOM     42  C   UNL A   1      39.601  25.514  27.798  1.00  0.00     0.031 C 
ATOM     43  C   UNL A   1      43.152  27.930  28.579  1.00  0.00     0.029 A 
ATOM     44  N   UNL A   1      41.934  29.619  29.444  1.00  0.00    -0.354 N 
ATOM     45  C   UNL A   1      41.446  24.245  28.331  1.00  0.00     0.074 A 
ATOM     46  C   UNL A   1      40.107  24.280  27.794  1.00  0.00     0.031 C 
ATOM     47  C   UNL A   1      43.972  28.658  29.351  1.00  0.00     0.029 A 
ATOM     48  C   UNL A   1      43.140  29.523  30.168  1.00  0.00     0.049 A 
ATOM     49  H   UNL A   1      41.319  30.388  29.420  1.00  0.00     0.167 HD
ATOM     50  C   UNL A   1      42.495  23.377  28.288  1.00  0.00     0.034 A 
ATOM     51  C   UNL A   1      43.238  29.686  31.520  1.00  0.00     0.034 A 
ATOM     52  C   UNL A   1      43.668  23.918  29.000  1.00  0.00     0.049 A 
ATOM     53  C   UNL A   1      43.859  28.494  32.237  1.00  0.00     0.074 A 
ATOM     54  C   UNL A   1      44.845  24.531  28.601  1.00  0.00     0.029 A 
ATOM     55  N   UNL A   1      43.590  24.109  30.374  1.00  0.00    -0.354 N 
ATOM     56  N   UNL A   1      44.306  27.413  31.658  1.00  0.00    -0.248 NA
ATOM     57  C   UNL A   1      43.884  28.391  33.694  1.00  0.00     0.031 C 
ATOM     58  C   UNL A   1      45.469  25.100  29.750  1.00  0.00     0.029 A 
ATOM     59  C   UNL A   1      44.684  24.819  30.852  1.00  0.00     0.049 A 
ATOM     60  H   UNL A   1      42.852  23.782  30.937  1.00  0.00     0.167 HD
ATOM     61  C   UNL A   1      44.487  26.430  32.605  1.00  0.00     0.074 A 
ATOM     62  C   UNL A   1      44.221  27.104  33.865  1.00  0.00     0.031 C 
ATOM     63  C   UNL A   1      44.753  25.122  32.279  1.00  0.00     0.034 A 
BRANCH  50  64
ATOM     64  C   UNL A   1      42.569  22.188  27.337  1.00  0.00     0.023 A 
ATOM     65  C   UNL A   1      41.691  21.109  27.582  1.00  0.00     0.012 A 
ATOM     66  C   UNL A   1      43.493  21.994  26.284  1.00  0.00     0.148 A 
ATOM     67  C   UNL A   1      41.803  19.881  26.919  1.00  0.00     0.002 A 
ATOM     68  C   UNL A   1      43.663  20.745  25.679  1.00  0.00     0.091 A 
ATOM     69  F   UNL A   1      44.152  23.033  25.772  1.00  0.00    -0.205 F 
ATOM     70  C   UNL A   1      42.820  19.683  25.998  1.00  0.00     0.022 A 
BRANCH  68  71
ATOM     71  S   UNL A   1      45.016  20.408  24.535  1.00  0.00     0.127 S 
ATOM     72  O   UNL A   1      44.887  18.964  24.325  1.00  0.00    -0.237 OA
ATOM     73  O   UNL A   1      44.661  21.223  23.376  1.00  0.00    -0.237 OA
ATOM     74  O   UNL A   1      46.241  20.797  25.225  1.00  0.00    -0.744 OA
ENDBRANCH  68  71
ENDBRANCH  50  64
BRANCH  51  75
ATOM     75  C   UNL A   1      42.150  30.538  32.090  1.00  0.00     0.023 A 
ATOM     76  C   UNL A   1      42.087  31.887  31.662  1.00  0.00     0.012 A 
ATOM     77  C   UNL A   1      41.013  29.962  32.677  1.00  0.00     0.148 A 
ATOM     78  C   UNL A   1      40.873  32.576  31.660  1.00  0.00     0.002 A 
ATOM     79  C   UNL A   1      39.812  30.663  32.685  1.00  0.00     0.091 A 
ATOM     80  F   UNL A   1      41.084  28.712  33.149  1.00  0.00    -0.205 F 
ATOM     81  C   UNL A   1      39.726  31.946  32.129  1.00  0.00     0.022 A 
BRANCH  79  82
ATOM     82  S   UNL A   1      38.322  29.877  33.304  1.00  0.00     0.127 S 
ATOM     83  O   UNL A   1      38.510  28.502  32.851  1.00  0.00    -0.237 OA
ATOM     84  O   UNL A   1      38.435  30.072  34.748  1.00  0.00    -0.237 OA
ATOM     85  O   UNL A   1      37.241  30.629  32.684  1.00  0.00    -0.744 OA
ENDBRANCH  79  82
ENDBRANCH  51  75
BRANCH  63  86
ATOM     86  C   UNL A   1      45.019  23.994  33.279  1.00  0.00     0.023 A 
ATOM     87  C   UNL A   1      44.001  23.134  33.734  1.00  0.00     0.012 A 
ATOM     88  C   UNL A   1      46.299  23.797  33.873  1.00  0.00     0.148 A 
ATOM     89  C   UNL A   1      44.252  22.050  34.585  1.00  0.00     0.002 A 
ATOM     90  C   UNL A   1      46.543  22.740  34.749  1.00  0.00     0.091 A 
ATOM     91  F   UNL A   1      47.284  24.670  33.641  1.00  0.00    -0.205 F 
ATOM     92  C   UNL A   1      45.529  21.841  35.077  1.00  0.00     0.022 A 
BRANCH  90  93
ATOM     93  S   UNL A   1      48.140  22.485  35.538  1.00  0.00     0.127 S 
ATOM     94  O   UNL A   1      47.806  21.491  36.557  1.00  0.00    -0.237 OA
ATOM     95  O   UNL A   1      48.948  21.974  34.431  1.00  0.00    -0.237 OA
ATOM     96  O   UNL A   1      48.557  23.784  36.046  1.00  0.00    -0.744 OA
ENDBRANCH  90  93
ENDBRANCH  63  86
ENDBRANCH  37  38
ENDBRANCH  29  32
ENDBRANCH  27  28
ENDBRANCH   1  27
TORSDOF 16
ENDMDL
MODEL 2
REMARK VINA RESULT:     -13.0      1.850      2.229
REMARK SMILES Cc1cccc(NC(=O)[C@H]2C=C[C@@H]([NH3+])C2)c1C(=O)NCCCNC(=O)c1ccc(-c2c3nc(c(-c4cccc(S(=O)(=O)[O-])c4F)c4ccc([nH]4)c(-c4cccc(S(=O)(=O)[O-])c4F)c4nc(c(-c5cccc(S(=O)(=O)[O-])c5F)c5ccc2[nH]5)C=C4)C=C3)cc1
REMARK SMILES IDX 21 1 20 2 19 3 17 4 18 5 16 7 1 8 2 9 3 10 4 11 6 12 5 13
REMARK SMILES IDX 7 14 8 15 9 17 10 18 11 19 15 20 12 21 13 22 14 23 22 27
REMARK SMILES IDX 23 28 24 29 25 31 26 32 27 33 88 34 28 35 87 36 29 37 30 38
REMARK SMILES IDX 31 39 81 40 32 41 86 42 80 43 82 44 33 45 85 46 79 47 78 48
REMARK SMILES IDX 34 50 66 51 46 52 65 53 47 54 50 55 64 56 83 57 48 58 49 59
REMARK SMILES IDX 63 61 84 62 51 63 35 64 36 65 44 66 37 67 39 68 45 69 38 70
REMARK SMILES IDX 40 71 41 72 42 73 43 74 67 75 68 76 76 77 69 78 71 79 77 80
REMARK SMILES IDX 70 81 72 82 73 83 74 84 75 85 52 86 53 87 61 88 54 89 56 90
REMARK SMILES IDX 62 91 55 92 57 93 58 94 59 95 60 96
REMARK H PARENT 19 6 7 16 14 24 14 25 14 26 23 30 82 49 50 60
REMARK Flexibility Score: inf
ROOT
ATOM      1  C   UNL A   1      34.638  30.214  26.699  1.00  0.00     0.042 C 
ENDROOT
BRANCH   1   2
ATOM      2  C   UNL A   1      34.248  28.767  26.423  1.00  0.00     0.118 C 
BRANCH   2   3
ATOM      3  N   UNL A   1      33.104  28.357  27.210  1.00  0.00    -0.352 N 
ATOM      4  C   UNL A   1      31.838  27.882  27.002  1.00  0.00     0.253 C 
ATOM      5  O   UNL A   1      31.260  27.636  28.070  1.00  0.00    -0.269 OA
ATOM      6  H   UNL A   1      33.291  28.446  28.172  1.00  0.00     0.163 HD
BRANCH   4   7
ATOM      7  C   UNL A   1      31.078  27.598  25.709  1.00  0.00     0.066 A 
ATOM      8  C   UNL A   1      30.987  29.950  24.552  1.00  0.00     0.045 C 
ATOM      9  C   UNL A   1      30.811  28.473  24.617  1.00  0.00    -0.036 A 
ATOM     10  C   UNL A   1      30.138  28.010  23.467  1.00  0.00     0.004 A 
ATOM     11  C   UNL A   1      29.429  26.841  23.508  1.00  0.00     0.002 A 
ATOM     12  C   UNL A   1      30.461  26.299  25.627  1.00  0.00     0.054 A 
ATOM     13  C   UNL A   1      29.515  26.067  24.643  1.00  0.00     0.027 A 
BRANCH  12  14
ATOM     14  N   UNL A   1      30.771  25.243  26.519  1.00  0.00    -0.325 N 
ATOM     15  C   UNL A   1      31.723  24.277  26.625  1.00  0.00     0.231 C 
ATOM     16  H   UNL A   1      30.124  25.195  27.259  1.00  0.00     0.169 HD
ATOM     17  O   UNL A   1      31.609  23.536  27.620  1.00  0.00    -0.274 OA
BRANCH  15  18
ATOM     18  C   UNL A   1      32.888  23.938  25.665  1.00  0.00     0.107 C 
ATOM     19  C   UNL A   1      33.993  24.951  25.754  1.00  0.00    -0.012 C 
ATOM     20  C   UNL A   1      33.617  22.586  25.605  1.00  0.00     0.087 C 
ATOM     21  C   UNL A   1      35.201  24.394  25.626  1.00  0.00     0.033 C 
ATOM     22  C   UNL A   1      35.127  22.915  25.432  1.00  0.00     0.205 C 
BRANCH  22  23
ATOM     23  N   UNL A   1      36.008  22.227  26.367  1.00  0.00    -0.352 N 
ATOM     24  H   UNL A   1      36.056  22.754  27.239  1.00  0.00     0.345 HD
ATOM     25  H   UNL A   1      36.941  22.153  25.962  1.00  0.00     0.345 HD
ATOM     26  H   UNL A   1      35.643  21.293  26.553  1.00  0.00     0.345 HD
ENDBRANCH  22  23
ENDBRANCH  15  18
ENDBRANCH  12  14
ENDBRANCH   4   7
ENDBRANCH   2   3
ENDBRANCH   1   2
BRANCH   1  27
ATOM     27  C   UNL A   1      34.485  30.718  28.119  1.00  0.00     0.118 C 
BRANCH  27  28
ATOM     28  N   UNL A   1      35.573  31.663  28.417  1.00  0.00    -0.352 N 
ATOM     29  C   UNL A   1      36.924  31.434  28.601  1.00  0.00     0.251 C 
ATOM     30  H   UNL A   1      35.296  32.604  28.499  1.00  0.00     0.163 HD
ATOM     31  O   UNL A   1      37.691  32.332  28.893  1.00  0.00    -0.269 OA
BRANCH  29  32
ATOM     32  C   UNL A   1      37.381  30.058  28.351  1.00  0.00     0.039 A 
ATOM     33  C   UNL A   1      37.537  29.263  29.488  1.00  0.00     0.014 A 
ATOM     34  C   UNL A   1      38.095  29.826  27.176  1.00  0.00     0.014 A 
ATOM     35  C   UNL A   1      38.616  28.398  29.549  1.00  0.00     0.010 A 
ATOM     36  C   UNL A   1      39.200  29.003  27.260  1.00  0.00     0.010 A 
ATOM     37  C   UNL A   1      39.506  28.372  28.476  1.00  0.00    -0.014 A 
BRANCH  37  38
ATOM     38  C   UNL A   1      40.790  27.697  28.541  1.00  0.00     0.031 A 
ATOM     39  C   UNL A   1      40.812  26.237  28.390  1.00  0.00     0.074 A 
ATOM     40  C   UNL A   1      41.943  28.370  28.753  1.00  0.00     0.049 A 
ATOM     41  N   UNL A   1      41.750  25.475  28.834  1.00  0.00    -0.248 NA
ATOM     42  C   UNL A   1      39.701  25.520  27.784  1.00  0.00     0.031 C 
ATOM     43  C   UNL A   1      43.299  27.862  28.577  1.00  0.00     0.029 A 
ATOM     44  N   UNL A   1      42.113  29.581  29.426  1.00  0.00    -0.354 N 
ATOM     45  C   UNL A   1      41.514  24.214  28.335  1.00  0.00     0.074 A 
ATOM     46  C   UNL A   1      40.180  24.276  27.789  1.00  0.00     0.031 C 
ATOM     47  C   UNL A   1      44.130  28.575  29.351  1.00  0.00     0.029 A 
ATOM     48  C   UNL A   1      43.313  29.462  30.159  1.00  0.00     0.049 A 
ATOM     49  H   UNL A   1      41.515  30.363  29.396  1.00  0.00     0.167 HD
ATOM     50  C   UNL A   1      42.544  23.323  28.301  1.00  0.00     0.034 A 
ATOM     51  C   UNL A   1      43.405  29.628  31.511  1.00  0.00     0.034 A 
ATOM     52  C   UNL A   1      43.724  23.842  29.019  1.00  0.00     0.049 A 
ATOM     53  C   UNL A   1      43.996  28.427  32.237  1.00  0.00     0.074 A 
ATOM     54  C   UNL A   1      44.917  24.427  28.624  1.00  0.00     0.029 A 
ATOM     55  N   UNL A   1      43.642  24.040  30.391  1.00  0.00    -0.354 N 
ATOM     56  N   UNL A   1      44.422  27.334  31.665  1.00  0.00    -0.248 NA
ATOM     57  C   UNL A   1      44.009  28.329  33.695  1.00  0.00     0.031 C 
ATOM     58  C   UNL A   1      45.546  24.987  29.775  1.00  0.00     0.029 A 
ATOM     59  C   UNL A   1      44.748  24.728  30.873  1.00  0.00     0.049 A 
ATOM     60  H   UNL A   1      42.893  23.732  30.951  1.00  0.00     0.167 HD
ATOM     61  C   UNL A   1      44.576  26.351  32.618  1.00  0.00     0.074 A 
ATOM     62  C   UNL A   1      44.317  27.037  33.874  1.00  0.00     0.031 C 
ATOM     63  C   UNL A   1      44.815  25.036  32.299  1.00  0.00     0.034 A 
BRANCH  50  64
ATOM     64  C   UNL A   1      42.598  22.128  27.357  1.00  0.00     0.023 A 
ATOM     65  C   UNL A   1      41.724  21.052  27.625  1.00  0.00     0.012 A 
ATOM     66  C   UNL A   1      43.501  21.927  26.287  1.00  0.00     0.148 A 
ATOM     67  C   UNL A   1      41.821  19.820  26.967  1.00  0.00     0.002 A 
ATOM     68  C   UNL A   1      43.658  20.674  25.686  1.00  0.00     0.091 A 
ATOM     69  F   UNL A   1      44.151  22.962  25.756  1.00  0.00    -0.205 F 
ATOM     70  C   UNL A   1      42.819  19.615  26.027  1.00  0.00     0.022 A 
BRANCH  68  71
ATOM     71  S   UNL A   1      44.988  20.328  24.518  1.00  0.00     0.127 S 
ATOM     72  O   UNL A   1      44.645  21.202  23.394  1.00  0.00    -0.237 OA
ATOM     73  O   UNL A   1      46.176  20.735  25.263  1.00  0.00    -0.237 OA
ATOM     74  O   UNL A   1      44.899  18.905  24.208  1.00  0.00    -0.744 OA
ENDBRANCH  68  71
ENDBRANCH  50  64
BRANCH  51  75
ATOM     75  C   UNL A   1      42.333  30.507  32.070  1.00  0.00     0.023 A 
ATOM     76  C   UNL A   1      41.141  29.882  32.512  1.00  0.00     0.012 A 
ATOM     77  C   UNL A   1      42.623  31.803  32.524  1.00  0.00     0.148 A 
ATOM     78  C   UNL A   1      40.363  30.464  33.513  1.00  0.00     0.002 A 
ATOM     79  C   UNL A   1      41.832  32.381  33.509  1.00  0.00     0.091 A 
ATOM     80  F   UNL A   1      43.709  32.430  32.057  1.00  0.00    -0.205 F 
ATOM     81  C   UNL A   1      40.735  31.693  34.045  1.00  0.00     0.022 A 
BRANCH  79  82
ATOM     82  S   UNL A   1      42.282  33.977  34.197  1.00  0.00     0.127 S 
ATOM     83  O   UNL A   1      43.617  33.701  34.718  1.00  0.00    -0.237 OA
ATOM     84  O   UNL A   1      42.245  34.850  33.025  1.00  0.00    -0.237 OA
ATOM     85  O   UNL A   1      41.239  34.248  35.175  1.00  0.00    -0.744 OA
ENDBRANCH  79  82
ENDBRANCH  51  75
BRANCH  63  86
ATOM     86  C   UNL A   1      45.050  23.907  33.306  1.00  0.00     0.023 A 
ATOM     87  C   UNL A   1      44.007  23.083  33.771  1.00  0.00     0.012 A 
ATOM     88  C   UNL A   1      46.326  23.673  33.896  1.00  0.00     0.148 A 
ATOM     89  C   UNL A   1      44.228  21.997  34.629  1.00  0.00     0.002 A 
ATOM     90  C   UNL A   1      46.541  22.616  34.778  1.00  0.00     0.091 A 
ATOM     91  F   UNL A   1      47.336  24.513  33.653  1.00  0.00    -0.205 F 
ATOM     92  C   UNL A   1      45.500  21.751  35.117  1.00  0.00     0.022 A 
BRANCH  90  93
ATOM     93  S   UNL A   1      48.133  22.315  35.561  1.00  0.00     0.127 S 
ATOM     94  O   UNL A   1      48.167  23.377  36.568  1.00  0.00    -0.237 OA
ATOM     95  O   UNL A   1      47.956  20.969  36.104  1.00  0.00    -0.237 OA
ATOM     96  O   UNL A   1      49.132  22.421  34.508  1.00  0.00    -0.744 OA
ENDBRANCH  90  93
ENDBRANCH  63  86
ENDBRANCH  37  38
ENDBRANCH  29  32
ENDBRANCH  27  28
ENDBRANCH   1  27
TORSDOF 16
ENDMDL
MODEL 3
REMARK VINA RESULT:     -12.9      4.411     10.735
REMARK SMILES Cc1cccc(NC(=O)[C@H]2C=C[C@@H]([NH3+])C2)c1C(=O)NCCCNC(=O)c1ccc(-c2c3nc(c(-c4cccc(S(=O)(=O)[O-])c4F)c4ccc([nH]4)c(-c4cccc(S(=O)(=O)[O-])c4F)c4nc(c(-c5cccc(S(=O)(=O)[O-])c5F)c5ccc2[nH]5)C=C4)C=C3)cc1
REMARK SMILES IDX 21 1 20 2 19 3 17 4 18 5 16 7 1 8 2 9 3 10 4 11 6 12 5 13
REMARK SMILES IDX 7 14 8 15 9 17 10 18 11 19 15 20 12 21 13 22 14 23 22 27
REMARK SMILES IDX 23 28 24 29 25 31 26 32 27 33 88 34 28 35 87 36 29 37 30 38
REMARK SMILES IDX 31 39 81 40 32 41 86 42 80 43 82 44 33 45 85 46 79 47 78 48
REMARK SMILES IDX 34 50 66 51 46 52 65 53 47 54 50 55 64 56 83 57 48 58 49 59
REMARK SMILES IDX 63 61 84 62 51 63 35 64 36 65 44 66 37 67 39 68 45 69 38 70
REMARK SMILES IDX 40 71 41 72 42 73 43 74 67 75 68 76 76 77 69 78 71 79 77 80
REMARK SMILES IDX 70 81 72 82 73 83 74 84 75 85 52 86 53 87 61 88 54 89 56 90
REMARK SMILES IDX 62 91 55 92 57 93 58 94 59 95 60 96
REMARK H PARENT 19 6 7 16 14 24 14 25 14 26 23 30 82 49 50 60
REMARK Flexibility Score: inf
ROOT
ATOM      1  C   UNL A   1      38.598  21.430  25.708  1.00  0.00     0.042 C 
ENDROOT
BRANCH   1   2
ATOM      2  C   UNL A   1      37.228  21.046  25.163  1.00  0.00     0.118 C 
BRANCH   2   3
ATOM      3  N   UNL A   1      36.157  21.510  26.020  1.00  0.00    -0.352 N 
ATOM      4  C   UNL A   1      34.806  21.716  25.946  1.00  0.00     0.253 C 
ATOM      5  O   UNL A   1      34.342  22.099  27.030  1.00  0.00    -0.269 OA
ATOM      6  H   UNL A   1      36.499  21.744  26.912  1.00  0.00     0.163 HD
BRANCH   4   7
ATOM      7  C   UNL A   1      33.828  21.529  24.789  1.00  0.00     0.066 A 
ATOM      8  C   UNL A   1      33.590  18.922  24.638  1.00  0.00     0.045 C 
ATOM      9  C   UNL A   1      33.234  20.329  24.305  1.00  0.00    -0.036 A 
ATOM     10  C   UNL A   1      32.296  20.360  23.252  1.00  0.00     0.004 A 
ATOM     11  C   UNL A   1      32.197  21.463  22.450  1.00  0.00     0.002 A 
ATOM     12  C   UNL A   1      33.549  22.713  24.017  1.00  0.00     0.054 A 
ATOM     13  C   UNL A   1      32.924  22.581  22.789  1.00  0.00     0.027 A 
BRANCH  12  14
ATOM     14  N   UNL A   1      33.895  24.015  24.456  1.00  0.00    -0.325 N 
ATOM     15  C   UNL A   1      33.307  25.242  24.491  1.00  0.00     0.231 C 
ATOM     16  H   UNL A   1      34.803  24.039  24.835  1.00  0.00     0.169 HD
ATOM     17  O   UNL A   1      34.006  26.143  24.993  1.00  0.00    -0.274 OA
BRANCH  15  18
ATOM     18  C   UNL A   1      31.926  25.685  23.953  1.00  0.00     0.107 C 
ATOM     19  C   UNL A   1      31.279  26.699  24.853  1.00  0.00    -0.012 C 
ATOM     20  C   UNL A   1      31.658  26.212  22.535  1.00  0.00     0.087 C 
ATOM     21  C   UNL A   1      30.597  27.621  24.167  1.00  0.00     0.033 C 
ATOM     22  C   UNL A   1      30.664  27.396  22.692  1.00  0.00     0.205 C 
BRANCH  22  23
ATOM     23  N   UNL A   1      31.061  28.617  22.002  1.00  0.00    -0.352 N 
ATOM     24  H   UNL A   1      31.787  29.090  22.540  1.00  0.00     0.345 HD
ATOM     25  H   UNL A   1      30.253  29.231  21.906  1.00  0.00     0.345 HD
ATOM     26  H   UNL A   1      31.423  28.383  21.077  1.00  0.00     0.345 HD
ENDBRANCH  22  23
ENDBRANCH  15  18
ENDBRANCH  12  14
ENDBRANCH   4   7
ENDBRANCH   2   3
ENDBRANCH   1   2
BRANCH   1  27
ATOM     27  C   UNL A   1      38.834  22.890  26.032  1.00  0.00     0.118 C 
BRANCH  27  28
ATOM     28  N   UNL A   1      40.083  23.020  26.801  1.00  0.00    -0.352 N 
ATOM     29  C   UNL A   1      40.593  24.102  27.493  1.00  0.00     0.251 C 
ATOM     30  H   UNL A   1      40.641  22.209  26.827  1.00  0.00     0.163 HD
ATOM     31  O   UNL A   1      41.677  24.057  28.042  1.00  0.00    -0.269 OA
BRANCH  29  32
ATOM     32  C   UNL A   1      39.714  25.279  27.581  1.00  0.00     0.039 A 
ATOM     33  C   UNL A   1      40.097  26.372  26.799  1.00  0.00     0.014 A 
ATOM     34  C   UNL A   1      38.953  25.422  28.740  1.00  0.00     0.014 A 
ATOM     35  C   UNL A   1      39.955  27.645  27.326  1.00  0.00     0.010 A 
ATOM     36  C   UNL A   1      38.862  26.688  29.285  1.00  0.00     0.010 A 
ATOM     37  C   UNL A   1      39.450  27.774  28.619  1.00  0.00    -0.014 A 
BRANCH  37  38
ATOM     38  C   UNL A   1      39.494  29.026  29.354  1.00  0.00     0.031 A 
ATOM     39  C   UNL A   1      38.556  30.087  28.968  1.00  0.00     0.074 A 
ATOM     40  C   UNL A   1      40.377  29.239  30.354  1.00  0.00     0.049 A 
ATOM     41  N   UNL A   1      38.740  31.339  29.201  1.00  0.00    -0.248 NA
ATOM     42  C   UNL A   1      37.356  29.796  28.198  1.00  0.00     0.031 C 
ATOM     43  C   UNL A   1      40.352  30.323  31.330  1.00  0.00     0.029 A 
ATOM     44  N   UNL A   1      41.634  28.652  30.523  1.00  0.00    -0.354 N 
ATOM     45  C   UNL A   1      37.571  31.987  28.871  1.00  0.00     0.074 A 
ATOM     46  C   UNL A   1      36.794  31.004  28.154  1.00  0.00     0.031 C 
ATOM     47  C   UNL A   1      41.597  30.517  31.791  1.00  0.00     0.029 A 
ATOM     48  C   UNL A   1      42.481  29.666  31.016  1.00  0.00     0.049 A 
ATOM     49  H   UNL A   1      41.878  27.717  30.336  1.00  0.00     0.167 HD
ATOM     50  C   UNL A   1      37.341  33.225  29.390  1.00  0.00     0.034 A 
ATOM     51  C   UNL A   1      43.643  30.055  30.412  1.00  0.00     0.034 A 
ATOM     52  C   UNL A   1      38.534  33.742  30.088  1.00  0.00     0.049 A 
ATOM     53  C   UNL A   1      43.692  31.540  30.079  1.00  0.00     0.074 A 
ATOM     54  C   UNL A   1      38.914  33.836  31.417  1.00  0.00     0.029 A 
ATOM     55  N   UNL A   1      39.678  34.016  29.349  1.00  0.00    -0.354 N 
ATOM     56  N   UNL A   1      42.757  32.407  30.355  1.00  0.00    -0.248 NA
ATOM     57  C   UNL A   1      44.762  32.119  29.270  1.00  0.00     0.031 C 
ATOM     58  C   UNL A   1      40.301  34.161  31.468  1.00  0.00     0.029 A 
ATOM     59  C   UNL A   1      40.765  34.283  30.172  1.00  0.00     0.049 A 
ATOM     60  H   UNL A   1      39.714  34.019  28.365  1.00  0.00     0.167 HD
ATOM     61  C   UNL A   1      42.977  33.560  29.634  1.00  0.00     0.074 A 
ATOM     62  C   UNL A   1      44.256  33.328  28.983  1.00  0.00     0.031 C 
ATOM     63  C   UNL A   1      42.056  34.576  29.555  1.00  0.00     0.034 A 
BRANCH  50  64
ATOM     64  C   UNL A   1      35.953  33.833  29.546  1.00  0.00     0.023 A 
ATOM     65  C   UNL A   1      35.281  34.222  28.367  1.00  0.00     0.012 A 
ATOM     66  C   UNL A   1      35.290  34.146  30.756  1.00  0.00     0.148 A 
ATOM     67  C   UNL A   1      34.103  34.978  28.384  1.00  0.00     0.002 A 
ATOM     68  C   UNL A   1      34.160  34.970  30.781  1.00  0.00     0.091 A 
ATOM     69  F   UNL A   1      35.670  33.570  31.896  1.00  0.00    -0.205 F 
ATOM     70  C   UNL A   1      33.565  35.392  29.593  1.00  0.00     0.022 A 
BRANCH  68  71
ATOM     71  S   UNL A   1      33.467  35.605  32.320  1.00  0.00     0.127 S 
ATOM     72  O   UNL A   1      32.892  34.398  32.918  1.00  0.00    -0.237 OA
ATOM     73  O   UNL A   1      34.647  36.120  33.009  1.00  0.00    -0.237 OA
ATOM     74  O   UNL A   1      32.476  36.605  31.940  1.00  0.00    -0.744 OA
ENDBRANCH  68  71
ENDBRANCH  50  64
BRANCH  51  75
ATOM     75  C   UNL A   1      44.256  28.982  29.572  1.00  0.00     0.023 A 
ATOM     76  C   UNL A   1      44.694  27.807  30.231  1.00  0.00     0.012 A 
ATOM     77  C   UNL A   1      44.043  28.938  28.186  1.00  0.00     0.148 A 
ATOM     78  C   UNL A   1      44.740  26.587  29.554  1.00  0.00     0.002 A 
ATOM     79  C   UNL A   1      44.108  27.721  27.517  1.00  0.00     0.091 A 
ATOM     80  F   UNL A   1      43.699  30.059  27.542  1.00  0.00    -0.205 F 
ATOM     81  C   UNL A   1      44.401  26.537  28.207  1.00  0.00     0.022 A 
BRANCH  79  82
ATOM     82  S   UNL A   1      43.693  27.635  25.773  1.00  0.00     0.127 S 
ATOM     83  O   UNL A   1      43.258  26.249  25.646  1.00  0.00    -0.237 OA
ATOM     84  O   UNL A   1      42.630  28.631  25.650  1.00  0.00    -0.237 OA
ATOM     85  O   UNL A   1      44.930  27.999  25.097  1.00  0.00    -0.744 OA
ENDBRANCH  79  82
ENDBRANCH  51  75
BRANCH  63  86
ATOM     86  C   UNL A   1      42.258  35.904  28.819  1.00  0.00     0.023 A 
ATOM     87  C   UNL A   1      41.809  36.109  27.500  1.00  0.00     0.012 A 
ATOM     88  C   UNL A   1      42.984  36.984  29.396  1.00  0.00     0.148 A 
ATOM     89  C   UNL A   1      41.918  37.346  26.850  1.00  0.00     0.002 A 
ATOM     90  C   UNL A   1      43.126  38.205  28.736  1.00  0.00     0.091 A 
ATOM     91  F   UNL A   1      43.600  36.823  30.571  1.00  0.00    -0.205 F 
ATOM     92  C   UNL A   1      42.559  38.401  27.477  1.00  0.00     0.022 A 
BRANCH  90  93
ATOM     93  S   UNL A   1      44.064  39.576  29.427  1.00  0.00     0.127 S 
ATOM     94  O   UNL A   1      43.898  40.594  28.389  1.00  0.00    -0.237 OA
ATOM     95  O   UNL A   1      43.337  39.848  30.666  1.00  0.00    -0.237 OA
ATOM     96  O   UNL A   1      45.423  39.090  29.612  1.00  0.00    -0.744 OA
ENDBRANCH  90  93
ENDBRANCH  63  86
ENDBRANCH  37  38
ENDBRANCH  29  32
ENDBRANCH  27  28
ENDBRANCH   1  27
TORSDOF 16
ENDMDL
