MODEL 1
REMARK VINA RESULT:     -11.9      0.000      0.000
REMARK SMILES O=C(NCCCNC(=O)[C@H]1/C(=C/CO)O[C@@H]2CC(=O)N21)c1ccc(-c2c3nc(c(-c4cccc(S(=O)(=O)[O-])c4F)c4ccc([nH]4)c(-c4cccc(S(=O)(=O)[O-])c4F)c4nc(c(-c5cccc(S(=O)(=O)[O-])c5F)c5ccc2[nH]5)C=C4)C=C3)cc1
REMARK SMILES IDX 4 1 3 2 1 3 2 4 21 6 22 7 83 8 23 9 82 10 24 11 25 12 26 13
REMARK SMILES IDX 76 14 27 15 81 16 75 17 77 18 28 19 80 20 74 21 73 22 29 24
REMARK SMILES IDX 61 25 41 26 60 27 42 28 45 29 59 30 78 31 43 32 44 33 58 35
REMARK SMILES IDX 79 36 46 37 30 38 31 39 39 40 32 41 34 42 40 43 33 44 35 45
REMARK SMILES IDX 36 46 37 47 38 48 62 49 63 50 71 51 64 52 66 53 72 54 65 55
REMARK SMILES IDX 67 56 68 57 69 58 70 59 47 60 48 61 56 62 49 63 51 64 57 65
REMARK SMILES IDX 50 66 52 67 53 68 54 69 55 70 5 71 6 72 7 73 8 74 9 76 10 77
REMARK SMILES IDX 11 78 20 79 12 80 15 81 16 82 18 83 17 84 19 85 13 86 14 87
REMARK H PARENT 3 5 77 23 45 34 7 75 14 88
REMARK Flexibility Score: inf
ROOT
ATOM      1  C   UNL A   1      33.362  28.912  24.989  1.00  0.00     0.118 C 
ENDROOT
BRANCH   1   2
ATOM      2  N   UNL A   1      32.738  30.107  25.544  1.00  0.00    -0.352 N 
ATOM      3  O   UNL A   1      32.297  31.716  27.049  1.00  0.00    -0.269 OA
ATOM      4  C   UNL A   1      33.078  30.860  26.644  1.00  0.00     0.251 C 
ATOM      5  H   UNL A   1      31.946  30.426  25.054  1.00  0.00     0.163 HD
BRANCH   4   6
ATOM      6  C   UNL A   1      34.359  30.623  27.348  1.00  0.00     0.039 A 
ATOM      7  C   UNL A   1      34.740  29.333  27.716  1.00  0.00     0.014 A 
ATOM      8  C   UNL A   1      35.206  31.701  27.627  1.00  0.00     0.014 A 
ATOM      9  C   UNL A   1      35.855  29.142  28.521  1.00  0.00     0.010 A 
ATOM     10  C   UNL A   1      36.396  31.490  28.333  1.00  0.00     0.010 A 
ATOM     11  C   UNL A   1      36.713  30.213  28.818  1.00  0.00    -0.014 A 
BRANCH  11  12
ATOM     12  C   UNL A   1      37.974  29.929  29.552  1.00  0.00     0.031 A 
ATOM     13  C   UNL A   1      38.226  30.467  30.933  1.00  0.00     0.074 A 
ATOM     14  C   UNL A   1      38.884  29.130  28.959  1.00  0.00     0.049 A 
ATOM     15  N   UNL A   1      39.241  30.237  31.727  1.00  0.00    -0.248 NA
ATOM     16  C   UNL A   1      37.225  31.387  31.498  1.00  0.00     0.031 C 
ATOM     17  C   UNL A   1      38.771  28.595  27.599  1.00  0.00     0.029 A 
ATOM     18  N   UNL A   1      40.065  28.609  29.420  1.00  0.00    -0.354 N 
ATOM     19  C   UNL A   1      39.024  31.005  32.863  1.00  0.00     0.074 A 
ATOM     20  C   UNL A   1      37.781  31.717  32.657  1.00  0.00     0.031 C 
ATOM     21  C   UNL A   1      39.807  27.782  27.355  1.00  0.00     0.029 A 
ATOM     22  C   UNL A   1      40.688  27.779  28.516  1.00  0.00     0.049 A 
ATOM     23  H   UNL A   1      40.433  28.809  30.311  1.00  0.00     0.167 HD
ATOM     24  C   UNL A   1      39.782  31.092  33.983  1.00  0.00     0.034 A 
ATOM     25  C   UNL A   1      41.844  27.094  28.604  1.00  0.00     0.034 A 
ATOM     26  C   UNL A   1      40.995  30.346  34.200  1.00  0.00     0.049 A 
ATOM     27  C   UNL A   1      42.631  27.172  29.879  1.00  0.00     0.074 A 
ATOM     28  C   UNL A   1      41.806  30.329  35.322  1.00  0.00     0.029 A 
ATOM     29  N   UNL A   1      41.571  29.483  33.280  1.00  0.00    -0.354 N 
ATOM     30  N   UNL A   1      42.341  27.810  30.987  1.00  0.00    -0.248 NA
ATOM     31  C   UNL A   1      43.892  26.418  29.926  1.00  0.00     0.031 C 
ATOM     32  C   UNL A   1      42.875  29.461  35.077  1.00  0.00     0.029 A 
ATOM     33  C   UNL A   1      42.727  28.931  33.806  1.00  0.00     0.049 A 
ATOM     34  H   UNL A   1      41.211  29.291  32.383  1.00  0.00     0.167 HD
ATOM     35  C   UNL A   1      43.380  27.530  31.866  1.00  0.00     0.074 A 
ATOM     36  C   UNL A   1      44.281  26.629  31.176  1.00  0.00     0.031 C 
ATOM     37  C   UNL A   1      43.587  28.003  33.119  1.00  0.00     0.034 A 
BRANCH  24  38
ATOM     38  C   UNL A   1      39.300  31.986  35.095  1.00  0.00     0.023 A 
ATOM     39  C   UNL A   1      39.407  33.383  34.951  1.00  0.00     0.012 A 
ATOM     40  C   UNL A   1      38.659  31.455  36.233  1.00  0.00     0.148 A 
ATOM     41  C   UNL A   1      38.899  34.240  35.928  1.00  0.00     0.002 A 
ATOM     42  C   UNL A   1      38.125  32.316  37.187  1.00  0.00     0.091 A 
ATOM     43  F   UNL A   1      38.584  30.122  36.361  1.00  0.00    -0.205 F 
ATOM     44  C   UNL A   1      38.251  33.707  37.039  1.00  0.00     0.022 A 
BRANCH  42  45
ATOM     45  S   UNL A   1      37.211  31.732  38.619  1.00  0.00     0.127 S 
ATOM     46  O   UNL A   1      38.169  31.972  39.698  1.00  0.00    -0.237 OA
ATOM     47  O   UNL A   1      36.049  32.620  38.628  1.00  0.00    -0.237 OA
ATOM     48  O   UNL A   1      36.905  30.333  38.357  1.00  0.00    -0.744 OA
ENDBRANCH  42  45
ENDBRANCH  24  38
BRANCH  25  49
ATOM     49  C   UNL A   1      42.285  26.241  27.467  1.00  0.00     0.023 A 
ATOM     50  C   UNL A   1      43.149  26.777  26.492  1.00  0.00     0.012 A 
ATOM     51  C   UNL A   1      41.906  24.889  27.378  1.00  0.00     0.148 A 
ATOM     52  C   UNL A   1      43.608  25.985  25.438  1.00  0.00     0.002 A 
ATOM     53  C   UNL A   1      42.418  24.090  26.362  1.00  0.00     0.091 A 
ATOM     54  F   UNL A   1      41.064  24.399  28.299  1.00  0.00    -0.205 F 
ATOM     55  C   UNL A   1      43.255  24.639  25.381  1.00  0.00     0.022 A 
BRANCH  53  56
ATOM     56  S   UNL A   1      42.130  22.317  26.339  1.00  0.00     0.127 S 
ATOM     57  O   UNL A   1      40.682  22.247  26.165  1.00  0.00    -0.237 OA
ATOM     58  O   UNL A   1      42.911  21.885  25.179  1.00  0.00    -0.237 OA
ATOM     59  O   UNL A   1      42.652  21.838  27.613  1.00  0.00    -0.744 OA
ENDBRANCH  53  56
ENDBRANCH  25  49
BRANCH  37  60
ATOM     60  C   UNL A   1      44.841  27.554  33.818  1.00  0.00     0.023 A 
ATOM     61  C   UNL A   1      46.010  28.330  33.699  1.00  0.00     0.012 A 
ATOM     62  C   UNL A   1      44.853  26.399  34.622  1.00  0.00     0.148 A 
ATOM     63  C   UNL A   1      47.185  27.945  34.344  1.00  0.00     0.002 A 
ATOM     64  C   UNL A   1      46.017  26.044  35.294  1.00  0.00     0.091 A 
ATOM     65  F   UNL A   1      43.737  25.659  34.703  1.00  0.00    -0.205 F 
ATOM     66  C   UNL A   1      47.185  26.809  35.148  1.00  0.00     0.022 A 
BRANCH  64  67
ATOM     67  S   UNL A   1      46.076  24.639  36.413  1.00  0.00     0.127 S 
ATOM     68  O   UNL A   1      45.384  25.163  37.588  1.00  0.00    -0.237 OA
ATOM     69  O   UNL A   1      45.337  23.614  35.676  1.00  0.00    -0.237 OA
ATOM     70  O   UNL A   1      47.492  24.343  36.593  1.00  0.00    -0.744 OA
ENDBRANCH  64  67
ENDBRANCH  37  60
ENDBRANCH  11  12
ENDBRANCH   4   6
ENDBRANCH   1   2
BRANCH   1  71
ATOM     71  C   UNL A   1      33.424  28.934  23.471  1.00  0.00     0.042 C 
BRANCH  71  72
ATOM     72  C   UNL A   1      32.286  28.181  22.807  1.00  0.00     0.117 C 
BRANCH  72  73
ATOM     73  N   UNL A   1      32.741  27.268  21.780  1.00  0.00    -0.354 N 
ATOM     74  C   UNL A   1      32.966  25.923  21.849  1.00  0.00     0.250 C 
ATOM     75  H   UNL A   1      32.913  27.678  20.901  1.00  0.00     0.163 HD
ATOM     76  O   UNL A   1      33.279  25.356  20.795  1.00  0.00    -0.272 OA
BRANCH  74  77
ATOM     77  C   UNL A   1      32.786  25.167  23.188  1.00  0.00     0.243 C 
ATOM     78  C   UNL A   1      32.876  23.659  22.950  1.00  0.00     0.130 C 
ATOM     79  N   UNL A   1      33.984  25.330  23.974  1.00  0.00    -0.287 N 
ATOM     80  C   UNL A   1      31.832  22.824  22.823  1.00  0.00     0.045 C 
ATOM     81  O   UNL A   1      34.185  23.151  23.069  1.00  0.00    -0.472 OA
ATOM     82  C   UNL A   1      34.921  24.251  23.671  1.00  0.00     0.283 C 
ATOM     83  C   UNL A   1      34.036  25.146  25.316  1.00  0.00     0.232 C 
ATOM     84  C   UNL A   1      35.230  24.187  25.177  1.00  0.00     0.169 C 
ATOM     85  O   UNL A   1      33.275  25.477  26.198  1.00  0.00    -0.275 OA
BRANCH  80  86
ATOM     86  C   UNL A   1      31.902  21.349  22.638  1.00  0.00     0.187 C 
BRANCH  86  87
ATOM     87  O   UNL A   1      31.774  21.073  21.252  1.00  0.00    -0.392 OA
ATOM     88  H   UNL A   1      32.242  21.752  20.743  1.00  0.00     0.211 HD
ENDBRANCH  86  87
ENDBRANCH  80  86
ENDBRANCH  74  77
ENDBRANCH  72  73
ENDBRANCH  71  72
ENDBRANCH   1  71
TORSDOF 15
ENDMDL
MODEL 2
REMARK VINA RESULT:     -11.9      5.389      9.976
REMARK SMILES O=C(NCCCNC(=O)[C@H]1/C(=C/CO)O[C@@H]2CC(=O)N21)c1ccc(-c2c3nc(c(-c4cccc(S(=O)(=O)[O-])c4F)c4ccc([nH]4)c(-c4cccc(S(=O)(=O)[O-])c4F)c4nc(c(-c5cccc(S(=O)(=O)[O-])c5F)c5ccc2[nH]5)C=C4)C=C3)cc1
REMARK SMILES IDX 4 1 3 2 1 3 2 4 21 6 22 7 83 8 23 9 82 10 24 11 25 12 26 13
REMARK SMILES IDX 76 14 27 15 81 16 75 17 77 18 28 19 80 20 74 21 73 22 29 24
REMARK SMILES IDX 61 25 41 26 60 27 42 28 45 29 59 30 78 31 43 32 44 33 58 35
REMARK SMILES IDX 79 36 46 37 30 38 31 39 39 40 32 41 34 42 40 43 33 44 35 45
REMARK SMILES IDX 36 46 37 47 38 48 62 49 63 50 71 51 64 52 66 53 72 54 65 55
REMARK SMILES IDX 67 56 68 57 69 58 70 59 47 60 48 61 56 62 49 63 51 64 57 65
REMARK SMILES IDX 50 66 52 67 53 68 54 69 55 70 5 71 6 72 7 73 8 74 9 76 10 77
REMARK SMILES IDX 11 78 20 79 12 80 15 81 16 82 18 83 17 84 19 85 13 86 14 87
REMARK H PARENT 3 5 77 23 45 34 7 75 14 88
REMARK Flexibility Score: inf
ROOT
ATOM      1  C   UNL A   1      35.608  22.449  26.132  1.00  0.00     0.118 C 
ENDROOT
BRANCH   1   2
ATOM      2  N   UNL A   1      36.556  21.390  25.810  1.00  0.00    -0.352 N 
ATOM      3  O   UNL A   1      38.524  20.453  25.266  1.00  0.00    -0.269 OA
ATOM      4  C   UNL A   1      37.930  21.412  25.751  1.00  0.00     0.251 C 
ATOM      5  H   UNL A   1      36.148  20.519  25.601  1.00  0.00     0.163 HD
BRANCH   4   6
ATOM      6  C   UNL A   1      38.683  22.589  26.241  1.00  0.00     0.039 A 
ATOM      7  C   UNL A   1      38.322  23.878  25.851  1.00  0.00     0.014 A 
ATOM      8  C   UNL A   1      39.754  22.407  27.122  1.00  0.00     0.014 A 
ATOM      9  C   UNL A   1      39.134  24.955  26.178  1.00  0.00     0.010 A 
ATOM     10  C   UNL A   1      40.499  23.512  27.553  1.00  0.00     0.010 A 
ATOM     11  C   UNL A   1      40.218  24.792  27.055  1.00  0.00    -0.014 A 
BRANCH  11  12
ATOM     12  C   UNL A   1      40.960  26.001  27.496  1.00  0.00     0.031 A 
ATOM     13  C   UNL A   1      42.379  26.259  27.071  1.00  0.00     0.074 A 
ATOM     14  C   UNL A   1      40.309  26.897  28.266  1.00  0.00     0.049 A 
ATOM     15  N   UNL A   1      43.125  27.308  27.310  1.00  0.00    -0.248 NA
ATOM     16  C   UNL A   1      43.056  25.212  26.288  1.00  0.00     0.031 C 
ATOM     17  C   UNL A   1      38.950  26.725  28.786  1.00  0.00     0.029 A 
ATOM     18  N   UNL A   1      40.684  28.133  28.727  1.00  0.00    -0.354 N 
ATOM     19  C   UNL A   1      44.364  27.036  26.743  1.00  0.00     0.074 A 
ATOM     20  C   UNL A   1      44.275  25.718  26.151  1.00  0.00     0.031 C 
ATOM     21  C   UNL A   1      38.585  27.831  29.447  1.00  0.00     0.029 A 
ATOM     22  C   UNL A   1      39.700  28.770  29.448  1.00  0.00     0.049 A 
ATOM     23  H   UNL A   1      41.571  28.526  28.560  1.00  0.00     0.167 HD
ATOM     24  C   UNL A   1      45.467  27.823  26.704  1.00  0.00     0.034 A 
ATOM     25  C   UNL A   1      39.693  29.974  30.050  1.00  0.00     0.034 A 
ATOM     26  C   UNL A   1      45.535  29.151  27.256  1.00  0.00     0.049 A 
ATOM     27  C   UNL A   1      40.913  30.840  29.941  1.00  0.00     0.074 A 
ATOM     28  C   UNL A   1      46.591  30.044  27.221  1.00  0.00     0.029 A 
ATOM     29  N   UNL A   1      44.505  29.779  27.939  1.00  0.00    -0.354 N 
ATOM     30  N   UNL A   1      42.030  30.611  29.294  1.00  0.00    -0.248 NA
ATOM     31  C   UNL A   1      40.865  32.140  30.624  1.00  0.00     0.031 C 
ATOM     32  C   UNL A   1      46.203  31.210  27.890  1.00  0.00     0.029 A 
ATOM     33  C   UNL A   1      44.900  31.046  28.334  1.00  0.00     0.049 A 
ATOM     34  H   UNL A   1      43.621  29.383  28.118  1.00  0.00     0.167 HD
ATOM     35  C   UNL A   1      42.816  31.739  29.486  1.00  0.00     0.074 A 
ATOM     36  C   UNL A   1      42.029  32.669  30.272  1.00  0.00     0.031 C 
ATOM     37  C   UNL A   1      44.087  31.973  29.078  1.00  0.00     0.034 A 
BRANCH  24  38
ATOM     38  C   UNL A   1      46.685  27.296  25.990  1.00  0.00     0.023 A 
ATOM     39  C   UNL A   1      46.805  27.486  24.600  1.00  0.00     0.012 A 
ATOM     40  C   UNL A   1      47.747  26.701  26.702  1.00  0.00     0.148 A 
ATOM     41  C   UNL A   1      47.956  27.079  23.924  1.00  0.00     0.002 A 
ATOM     42  C   UNL A   1      48.905  26.328  26.026  1.00  0.00     0.091 A 
ATOM     43  F   UNL A   1      47.606  26.511  28.022  1.00  0.00    -0.205 F 
ATOM     44  C   UNL A   1      49.007  26.511  24.637  1.00  0.00     0.022 A 
BRANCH  42  45
ATOM     45  S   UNL A   1      50.342  25.651  26.864  1.00  0.00     0.127 S 
ATOM     46  O   UNL A   1      49.783  24.452  27.487  1.00  0.00    -0.237 OA
ATOM     47  O   UNL A   1      51.254  25.388  25.750  1.00  0.00    -0.237 OA
ATOM     48  O   UNL A   1      50.793  26.683  27.786  1.00  0.00    -0.744 OA
ENDBRANCH  42  45
ENDBRANCH  24  38
BRANCH  25  49
ATOM     49  C   UNL A   1      38.469  30.437  30.760  1.00  0.00     0.023 A 
ATOM     50  C   UNL A   1      38.344  30.216  32.145  1.00  0.00     0.012 A 
ATOM     51  C   UNL A   1      37.459  31.149  30.086  1.00  0.00     0.148 A 
ATOM     52  C   UNL A   1      37.224  30.677  32.839  1.00  0.00     0.002 A 
ATOM     53  C   UNL A   1      36.379  31.659  30.794  1.00  0.00     0.091 A 
ATOM     54  F   UNL A   1      37.580  31.331  28.762  1.00  0.00    -0.205 F 
ATOM     55  C   UNL A   1      36.249  31.411  32.167  1.00  0.00     0.022 A 
BRANCH  53  56
ATOM     56  S   UNL A   1      35.185  32.751  30.012  1.00  0.00     0.127 S 
ATOM     57  O   UNL A   1      34.602  31.882  28.994  1.00  0.00    -0.237 OA
ATOM     58  O   UNL A   1      34.290  33.087  31.121  1.00  0.00    -0.237 OA
ATOM     59  O   UNL A   1      35.972  33.877  29.526  1.00  0.00    -0.744 OA
ENDBRANCH  53  56
ENDBRANCH  25  49
BRANCH  37  60
ATOM     60  C   UNL A   1      44.703  33.284  29.481  1.00  0.00     0.023 A 
ATOM     61  C   UNL A   1      45.445  33.358  30.676  1.00  0.00     0.012 A 
ATOM     62  C   UNL A   1      44.586  34.425  28.665  1.00  0.00     0.148 A 
ATOM     63  C   UNL A   1      46.036  34.557  31.071  1.00  0.00     0.002 A 
ATOM     64  C   UNL A   1      45.212  35.607  29.045  1.00  0.00     0.091 A 
ATOM     65  F   UNL A   1      43.854  34.343  27.545  1.00  0.00    -0.205 F 
ATOM     66  C   UNL A   1      45.928  35.677  30.252  1.00  0.00     0.022 A 
BRANCH  64  67
ATOM     67  S   UNL A   1      45.186  37.072  28.006  1.00  0.00     0.127 S 
ATOM     68  O   UNL A   1      45.947  38.025  28.813  1.00  0.00    -0.237 OA
ATOM     69  O   UNL A   1      45.871  36.615  26.796  1.00  0.00    -0.237 OA
ATOM     70  O   UNL A   1      43.778  37.390  27.813  1.00  0.00    -0.744 OA
ENDBRANCH  64  67
ENDBRANCH  37  60
ENDBRANCH  11  12
ENDBRANCH   4   6
ENDBRANCH   1   2
BRANCH   1  71
ATOM     71  C   UNL A   1      34.464  21.968  27.008  1.00  0.00     0.042 C 
BRANCH  71  72
ATOM     72  C   UNL A   1      33.177  21.723  26.244  1.00  0.00     0.117 C 
BRANCH  72  73
ATOM     73  N   UNL A   1      32.021  22.313  26.886  1.00  0.00    -0.354 N 
ATOM     74  C   UNL A   1      31.358  23.469  26.591  1.00  0.00     0.250 C 
ATOM     75  H   UNL A   1      31.661  21.804  27.649  1.00  0.00     0.163 HD
ATOM     76  O   UNL A   1      30.340  23.710  27.251  1.00  0.00    -0.272 OA
BRANCH  74  77
ATOM     77  C   UNL A   1      31.857  24.388  25.450  1.00  0.00     0.243 C 
ATOM     78  C   UNL A   1      30.830  25.490  25.182  1.00  0.00     0.130 C 
ATOM     79  N   UNL A   1      32.926  25.213  25.956  1.00  0.00    -0.287 N 
ATOM     80  C   UNL A   1      29.910  25.481  24.204  1.00  0.00     0.045 C 
ATOM     81  O   UNL A   1      31.048  26.654  25.946  1.00  0.00    -0.472 OA
ATOM     82  C   UNL A   1      32.376  26.452  26.502  1.00  0.00     0.283 C 
ATOM     83  C   UNL A   1      33.837  25.836  25.168  1.00  0.00     0.232 C 
ATOM     84  C   UNL A   1      33.561  27.186  25.851  1.00  0.00     0.169 C 
ATOM     85  O   UNL A   1      34.439  25.456  24.189  1.00  0.00    -0.275 OA
BRANCH  80  86
ATOM     86  C   UNL A   1      28.935  26.564  23.902  1.00  0.00     0.187 C 
BRANCH  86  87
ATOM     87  O   UNL A   1      27.637  25.993  23.876  1.00  0.00    -0.392 OA
ATOM     88  H   UNL A   1      27.556  25.411  23.105  1.00  0.00     0.211 HD
ENDBRANCH  86  87
ENDBRANCH  80  86
ENDBRANCH  74  77
ENDBRANCH  72  73
ENDBRANCH  71  72
ENDBRANCH   1  71
TORSDOF 15
ENDMDL
MODEL 3
REMARK VINA RESULT:     -11.6      1.555      2.028
REMARK SMILES O=C(NCCCNC(=O)[C@H]1/C(=C/CO)O[C@@H]2CC(=O)N21)c1ccc(-c2c3nc(c(-c4cccc(S(=O)(=O)[O-])c4F)c4ccc([nH]4)c(-c4cccc(S(=O)(=O)[O-])c4F)c4nc(c(-c5cccc(S(=O)(=O)[O-])c5F)c5ccc2[nH]5)C=C4)C=C3)cc1
REMARK SMILES IDX 4 1 3 2 1 3 2 4 21 6 22 7 83 8 23 9 82 10 24 11 25 12 26 13
REMARK SMILES IDX 76 14 27 15 81 16 75 17 77 18 28 19 80 20 74 21 73 22 29 24
REMARK SMILES IDX 61 25 41 26 60 27 42 28 45 29 59 30 78 31 43 32 44 33 58 35
REMARK SMILES IDX 79 36 46 37 30 38 31 39 39 40 32 41 34 42 40 43 33 44 35 45
REMARK SMILES IDX 36 46 37 47 38 48 62 49 63 50 71 51 64 52 66 53 72 54 65 55
REMARK SMILES IDX 67 56 68 57 69 58 70 59 47 60 48 61 56 62 49 63 51 64 57 65
REMARK SMILES IDX 50 66 52 67 53 68 54 69 55 70 5 71 6 72 7 73 8 74 9 76 10 77
REMARK SMILES IDX 11 78 20 79 12 80 15 81 16 82 18 83 17 84 19 85 13 86 14 87
REMARK H PARENT 3 5 77 23 45 34 7 75 14 88
REMARK Flexibility Score: inf
ROOT
ATOM      1  C   UNL A   1      33.119  29.272  25.214  1.00  0.00     0.118 C 
ENDROOT
BRANCH   1   2
ATOM      2  N   UNL A   1      32.548  30.497  25.761  1.00  0.00    -0.352 N 
ATOM      3  O   UNL A   1      32.194  32.146  27.245  1.00  0.00    -0.269 OA
ATOM      4  C   UNL A   1      32.937  31.257  26.839  1.00  0.00     0.251 C 
ATOM      5  H   UNL A   1      31.757  30.834  25.282  1.00  0.00     0.163 HD
BRANCH   4   6
ATOM      6  C   UNL A   1      34.225  30.988  27.520  1.00  0.00     0.039 A 
ATOM      7  C   UNL A   1      34.545  29.703  27.955  1.00  0.00     0.014 A 
ATOM      8  C   UNL A   1      35.138  32.031  27.709  1.00  0.00     0.014 A 
ATOM      9  C   UNL A   1      35.672  29.496  28.739  1.00  0.00     0.010 A 
ATOM     10  C   UNL A   1      36.337  31.794  28.394  1.00  0.00     0.010 A 
ATOM     11  C   UNL A   1      36.597  30.532  28.946  1.00  0.00    -0.014 A 
BRANCH  11  12
ATOM     12  C   UNL A   1      37.862  30.219  29.660  1.00  0.00     0.031 A 
ATOM     13  C   UNL A   1      38.126  30.709  31.057  1.00  0.00     0.074 A 
ATOM     14  C   UNL A   1      38.766  29.439  29.033  1.00  0.00     0.049 A 
ATOM     15  N   UNL A   1      39.147  30.449  31.835  1.00  0.00    -0.248 NA
ATOM     16  C   UNL A   1      37.132  31.612  31.660  1.00  0.00     0.031 C 
ATOM     17  C   UNL A   1      38.641  28.951  27.656  1.00  0.00     0.029 A 
ATOM     18  N   UNL A   1      39.949  28.899  29.468  1.00  0.00    -0.354 N 
ATOM     19  C   UNL A   1      38.940  31.179  32.998  1.00  0.00     0.074 A 
ATOM     20  C   UNL A   1      37.697  31.901  32.826  1.00  0.00     0.031 C 
ATOM     21  C   UNL A   1      39.674  28.145  27.377  1.00  0.00     0.029 A 
ATOM     22  C   UNL A   1      40.563  28.100  28.531  1.00  0.00     0.049 A 
ATOM     23  H   UNL A   1      40.324  29.068  30.362  1.00  0.00     0.167 HD
ATOM     24  C   UNL A   1      39.707  31.225  34.115  1.00  0.00     0.034 A 
ATOM     25  C   UNL A   1      41.717  27.409  28.587  1.00  0.00     0.034 A 
ATOM     26  C   UNL A   1      40.919  30.469  34.297  1.00  0.00     0.049 A 
ATOM     27  C   UNL A   1      42.514  27.441  29.857  1.00  0.00     0.074 A 
ATOM     28  C   UNL A   1      41.738  30.412  35.411  1.00  0.00     0.029 A 
ATOM     29  N   UNL A   1      41.485  29.637  33.344  1.00  0.00    -0.354 N 
ATOM     30  N   UNL A   1      42.235  28.041  30.989  1.00  0.00    -0.248 NA
ATOM     31  C   UNL A   1      43.773  26.683  29.869  1.00  0.00     0.031 C 
ATOM     32  C   UNL A   1      42.803  29.550  35.129  1.00  0.00     0.029 A 
ATOM     33  C   UNL A   1      42.644  29.064  33.842  1.00  0.00     0.049 A 
ATOM     34  H   UNL A   1      41.118  29.477  32.444  1.00  0.00     0.167 HD
ATOM     35  C   UNL A   1      43.278  27.729  31.850  1.00  0.00     0.074 A 
ATOM     36  C   UNL A   1      44.172  26.850  31.122  1.00  0.00     0.031 C 
ATOM     37  C   UNL A   1      43.496  28.158  33.117  1.00  0.00     0.034 A 
BRANCH  24  38
ATOM     38  C   UNL A   1      39.235  32.082  35.261  1.00  0.00     0.023 A 
ATOM     39  C   UNL A   1      38.357  31.532  36.215  1.00  0.00     0.012 A 
ATOM     40  C   UNL A   1      39.728  33.389  35.446  1.00  0.00     0.148 A 
ATOM     41  C   UNL A   1      37.963  32.274  37.330  1.00  0.00     0.002 A 
ATOM     42  C   UNL A   1      39.357  34.111  36.577  1.00  0.00     0.091 A 
ATOM     43  F   UNL A   1      40.547  33.902  34.517  1.00  0.00    -0.205 F 
ATOM     44  C   UNL A   1      38.470  33.557  37.514  1.00  0.00     0.022 A 
BRANCH  42  45
ATOM     45  S   UNL A   1      40.008  35.745  36.942  1.00  0.00     0.127 S 
ATOM     46  O   UNL A   1      41.445  35.479  37.018  1.00  0.00    -0.237 OA
ATOM     47  O   UNL A   1      39.592  36.513  35.769  1.00  0.00    -0.237 OA
ATOM     48  O   UNL A   1      39.383  36.156  38.191  1.00  0.00    -0.744 OA
ENDBRANCH  42  45
ENDBRANCH  24  38
BRANCH  25  49
ATOM     49  C   UNL A   1      42.148  26.595  27.417  1.00  0.00     0.023 A 
ATOM     50  C   UNL A   1      42.938  27.187  26.412  1.00  0.00     0.012 A 
ATOM     51  C   UNL A   1      41.834  25.226  27.325  1.00  0.00     0.148 A 
ATOM     52  C   UNL A   1      43.387  26.433  25.327  1.00  0.00     0.002 A 
ATOM     53  C   UNL A   1      42.338  24.468  26.275  1.00  0.00     0.091 A 
ATOM     54  F   UNL A   1      41.061  24.682  28.276  1.00  0.00    -0.205 F 
ATOM     55  C   UNL A   1      43.100  25.071  25.265  1.00  0.00     0.022 A 
BRANCH  53  56
ATOM     56  S   UNL A   1      42.139  22.683  26.238  1.00  0.00     0.127 S 
ATOM     57  O   UNL A   1      42.785  22.332  24.977  1.00  0.00    -0.237 OA
ATOM     58  O   UNL A   1      42.861  22.260  27.439  1.00  0.00    -0.237 OA
ATOM     59  O   UNL A   1      40.699  22.466  26.309  1.00  0.00    -0.744 OA
ENDBRANCH  53  56
ENDBRANCH  25  49
BRANCH  37  60
ATOM     60  C   UNL A   1      44.754  27.682  33.791  1.00  0.00     0.023 A 
ATOM     61  C   UNL A   1      45.924  28.460  33.691  1.00  0.00     0.012 A 
ATOM     62  C   UNL A   1      44.770  26.499  34.553  1.00  0.00     0.148 A 
ATOM     63  C   UNL A   1      47.102  28.050  34.314  1.00  0.00     0.002 A 
ATOM     64  C   UNL A   1      45.937  26.118  35.204  1.00  0.00     0.091 A 
ATOM     65  F   UNL A   1      43.653  25.759  34.615  1.00  0.00    -0.205 F 
ATOM     66  C   UNL A   1      47.106  26.887  35.077  1.00  0.00     0.022 A 
BRANCH  64  67
ATOM     67  S   UNL A   1      46.002  24.675  36.271  1.00  0.00     0.127 S 
ATOM     68  O   UNL A   1      45.707  23.595  35.332  1.00  0.00    -0.237 OA
ATOM     69  O   UNL A   1      47.382  24.700  36.757  1.00  0.00    -0.237 OA
ATOM     70  O   UNL A   1      45.000  24.907  37.303  1.00  0.00    -0.744 OA
ENDBRANCH  64  67
ENDBRANCH  37  60
ENDBRANCH  11  12
ENDBRANCH   4   6
ENDBRANCH   1   2
BRANCH   1  71
ATOM     71  C   UNL A   1      32.786  29.074  23.745  1.00  0.00     0.042 C 
BRANCH  71  72
ATOM     72  C   UNL A   1      33.982  28.680  22.900  1.00  0.00     0.117 C 
BRANCH  72  73
ATOM     73  N   UNL A   1      33.663  27.674  21.909  1.00  0.00    -0.354 N 
ATOM     74  C   UNL A   1      33.511  26.325  22.056  1.00  0.00     0.250 C 
ATOM     75  H   UNL A   1      33.538  28.013  20.992  1.00  0.00     0.163 HD
ATOM     76  O   UNL A   1      33.156  25.692  21.054  1.00  0.00    -0.272 OA
BRANCH  74  77
ATOM     77  C   UNL A   1      33.736  25.658  23.435  1.00  0.00     0.243 C 
ATOM     78  C   UNL A   1      32.410  25.116  23.973  1.00  0.00     0.130 C 
ATOM     79  N   UNL A   1      34.413  24.401  23.234  1.00  0.00    -0.287 N 
ATOM     80  C   UNL A   1      31.621  25.730  24.869  1.00  0.00     0.045 C 
ATOM     81  O   UNL A   1      32.156  23.783  23.593  1.00  0.00    -0.472 OA
ATOM     82  C   UNL A   1      33.430  23.335  23.054  1.00  0.00     0.283 C 
ATOM     83  C   UNL A   1      35.101  23.751  24.205  1.00  0.00     0.232 C 
ATOM     84  C   UNL A   1      34.326  22.450  23.937  1.00  0.00     0.169 C 
ATOM     85  O   UNL A   1      35.864  24.158  25.053  1.00  0.00    -0.275 OA
BRANCH  80  86
ATOM     86  C   UNL A   1      30.352  25.196  25.436  1.00  0.00     0.187 C 
BRANCH  86  87
ATOM     87  O   UNL A   1      29.275  25.927  24.871  1.00  0.00    -0.392 OA
ATOM     88  H   UNL A   1      29.500  26.870  24.850  1.00  0.00     0.211 HD
ENDBRANCH  86  87
ENDBRANCH  80  86
ENDBRANCH  74  77
ENDBRANCH  72  73
ENDBRANCH  71  72
ENDBRANCH   1  71
TORSDOF 15
ENDMDL
