MODEL 1
REMARK VINA RESULT:     -13.4      0.000      0.000
REMARK SMILES C[C@H]1CS(=O)(=O)N(c2cccc(C(=O)Nc3ccc(O)c(C(=O)NCCCNC(=O)c4ccc(-c5c6nc(c(-c7cccc(S(=O)(=O)[O-])c7F)c7ccc([nH]7)c(-c7cccc(S(=O)(=O)[O-])c7F)c7nc(c(-c8cccc(S(=O)(=O)[O-])c8F)c8ccc5[nH]8)C=C7)C=C6)cc4)c3)c2)C1=O
REMARK SMILES IDX 26 1 25 2 24 3 22 4 23 5 21 7 16 8 17 9 94 10 18 11 19 12
REMARK SMILES IDX 15 13 13 14 14 15 12 17 8 18 9 19 95 20 10 21 11 22 7 23
REMARK SMILES IDX 1 24 2 25 3 26 96 27 4 28 97 29 5 30 6 31 20 32 27 34 28 35
REMARK SMILES IDX 29 36 30 38 31 39 32 40 93 41 33 42 92 43 34 44 35 45 36 46
REMARK SMILES IDX 86 47 37 48 91 49 85 50 87 51 38 52 90 53 84 54 83 55 39 57
REMARK SMILES IDX 71 58 51 59 70 60 52 61 55 62 69 63 88 64 53 65 54 66 68 68
REMARK SMILES IDX 89 69 56 70 40 71 41 72 49 73 42 74 44 75 50 76 43 77 45 78
REMARK SMILES IDX 46 79 47 80 48 81 72 82 73 83 81 84 74 85 76 86 82 87 75 88
REMARK SMILES IDX 77 89 78 90 79 91 80 92 57 93 58 94 66 95 59 96 61 97 67 98
REMARK SMILES IDX 60 99 62 100 63 101 64 102 65 103
REMARK H PARENT 24 6 15 16 20 33 28 37 87 56 55 67
REMARK Flexibility Score: inf
ROOT
ATOM      1  C   UNL A   1      31.831  31.702  26.761  1.00  0.00     0.042 C 
ENDROOT
BRANCH   1   2
ATOM      2  C   UNL A   1      32.175  30.238  26.603  1.00  0.00     0.118 C 
BRANCH   2   3
ATOM      3  N   UNL A   1      32.849  30.007  25.320  1.00  0.00    -0.352 N 
ATOM      4  C   UNL A   1      32.707  29.220  24.212  1.00  0.00     0.255 C 
ATOM      5  O   UNL A   1      33.504  29.424  23.289  1.00  0.00    -0.269 OA
ATOM      6  H   UNL A   1      33.635  30.593  25.231  1.00  0.00     0.163 HD
BRANCH   4   7
ATOM      7  C   UNL A   1      31.603  28.263  23.975  1.00  0.00     0.083 A 
ATOM      8  C   UNL A   1      30.321  26.440  24.848  1.00  0.00     0.042 A 
ATOM      9  C   UNL A   1      29.240  26.748  24.031  1.00  0.00     0.030 A 
ATOM     10  C   UNL A   1      31.544  27.056  24.649  1.00  0.00     0.043 A 
ATOM     11  C   UNL A   1      29.334  27.851  23.186  1.00  0.00     0.049 A 
ATOM     12  C   UNL A   1      30.483  28.644  23.215  1.00  0.00     0.128 A 
BRANCH   8  13
ATOM     13  N   UNL A   1      30.140  25.600  25.945  1.00  0.00    -0.322 N 
ATOM     14  C   UNL A   1      30.449  24.256  26.093  1.00  0.00     0.255 C 
ATOM     15  O   UNL A   1      29.966  23.683  27.074  1.00  0.00    -0.269 OA
ATOM     16  H   UNL A   1      29.731  26.024  26.734  1.00  0.00     0.170 HD
BRANCH  14  17
ATOM     17  C   UNL A   1      31.405  23.465  25.213  1.00  0.00     0.042 A 
ATOM     18  C   UNL A   1      33.514  22.323  24.626  1.00  0.00     0.061 A 
ATOM     19  C   UNL A   1      32.998  22.032  23.362  1.00  0.00     0.027 A 
ATOM     20  C   UNL A   1      32.678  22.969  25.567  1.00  0.00     0.041 A 
ATOM     21  C   UNL A   1      31.712  22.437  23.015  1.00  0.00     0.003 A 
ATOM     22  C   UNL A   1      30.940  23.169  23.920  1.00  0.00     0.014 A 
BRANCH  18  23
ATOM     23  N   UNL A   1      34.913  22.092  24.863  1.00  0.00    -0.207 N 
ATOM     24  C   UNL A   1      37.516  19.497  24.692  1.00  0.00     0.019 C 
ATOM     25  C   UNL A   1      36.927  20.784  25.275  1.00  0.00     0.094 C 
ATOM     26  C   UNL A   1      37.426  22.035  24.549  1.00  0.00     0.173 C 
ATOM     27  C   UNL A   1      35.403  20.812  25.232  1.00  0.00     0.244 C 
ATOM     28  S   UNL A   1      36.105  23.228  24.582  1.00  0.00     0.242 S 
ATOM     29  O   UNL A   1      34.715  19.843  25.531  1.00  0.00    -0.273 OA
ATOM     30  O   UNL A   1      36.250  24.044  25.765  1.00  0.00    -0.206 OA
ATOM     31  O   UNL A   1      35.966  23.802  23.262  1.00  0.00    -0.206 OA
ENDBRANCH  18  23
ENDBRANCH  14  17
ENDBRANCH   8  13
BRANCH  12  32
ATOM     32  O   UNL A   1      30.418  29.817  22.506  1.00  0.00    -0.507 OA
ATOM     33  H   UNL A   1      30.452  30.638  22.955  1.00  0.00     0.293 HD
ENDBRANCH  12  32
ENDBRANCH   4   7
ENDBRANCH   2   3
ENDBRANCH   1   2
BRANCH   1  34
ATOM     34  C   UNL A   1      33.013  32.488  27.311  1.00  0.00     0.118 C 
BRANCH  34  35
ATOM     35  N   UNL A   1      32.681  33.884  27.573  1.00  0.00    -0.352 N 
ATOM     36  C   UNL A   1      33.123  34.705  28.584  1.00  0.00     0.251 C 
ATOM     37  H   UNL A   1      32.052  34.296  26.937  1.00  0.00     0.163 HD
ATOM     38  O   UNL A   1      32.570  35.780  28.803  1.00  0.00    -0.269 OA
BRANCH  36  39
ATOM     39  C   UNL A   1      34.263  34.270  29.418  1.00  0.00     0.039 A 
ATOM     40  C   UNL A   1      34.030  33.518  30.569  1.00  0.00     0.014 A 
ATOM     41  C   UNL A   1      35.570  34.586  29.039  1.00  0.00     0.014 A 
ATOM     42  C   UNL A   1      35.116  33.015  31.292  1.00  0.00     0.010 A 
ATOM     43  C   UNL A   1      36.641  33.984  29.685  1.00  0.00     0.010 A 
ATOM     44  C   UNL A   1      36.429  33.204  30.830  1.00  0.00    -0.014 A 
BRANCH  44  45
ATOM     45  C   UNL A   1      37.596  32.599  31.522  1.00  0.00     0.031 A 
ATOM     46  C   UNL A   1      38.343  31.455  30.887  1.00  0.00     0.074 A 
ATOM     47  C   UNL A   1      37.926  33.013  32.763  1.00  0.00     0.049 A 
ATOM     48  N   UNL A   1      39.339  30.755  31.365  1.00  0.00    -0.248 NA
ATOM     49  C   UNL A   1      37.893  31.019  29.554  1.00  0.00     0.031 C 
ATOM     50  C   UNL A   1      37.229  34.051  33.524  1.00  0.00     0.029 A 
ATOM     51  N   UNL A   1      38.917  32.590  33.614  1.00  0.00    -0.354 N 
ATOM     52  C   UNL A   1      39.605  29.776  30.415  1.00  0.00     0.074 A 
ATOM     53  C   UNL A   1      38.641  29.945  29.351  1.00  0.00     0.031 C 
ATOM     54  C   UNL A   1      37.819  34.192  34.722  1.00  0.00     0.029 A 
ATOM     55  C   UNL A   1      38.908  33.229  34.832  1.00  0.00     0.049 A 
ATOM     56  H   UNL A   1      39.571  31.894  33.375  1.00  0.00     0.167 HD
ATOM     57  C   UNL A   1      40.583  28.838  30.411  1.00  0.00     0.034 A 
ATOM     58  C   UNL A   1      39.682  33.051  35.921  1.00  0.00     0.034 A 
ATOM     59  C   UNL A   1      41.565  28.698  31.450  1.00  0.00     0.049 A 
ATOM     60  C   UNL A   1      40.782  32.026  35.877  1.00  0.00     0.074 A 
ATOM     61  C   UNL A   1      42.651  27.844  31.495  1.00  0.00     0.029 A 
ATOM     62  N   UNL A   1      41.574  29.420  32.634  1.00  0.00    -0.354 N 
ATOM     63  N   UNL A   1      41.118  31.217  34.902  1.00  0.00    -0.248 NA
ATOM     64  C   UNL A   1      41.634  31.913  37.071  1.00  0.00     0.031 C 
ATOM     65  C   UNL A   1      43.296  28.021  32.724  1.00  0.00     0.029 A 
ATOM     66  C   UNL A   1      42.637  29.019  33.424  1.00  0.00     0.049 A 
ATOM     67  H   UNL A   1      40.921  30.115  32.875  1.00  0.00     0.167 HD
ATOM     68  C   UNL A   1      42.240  30.528  35.348  1.00  0.00     0.074 A 
ATOM     69  C   UNL A   1      42.538  31.030  36.674  1.00  0.00     0.031 C 
ATOM     70  C   UNL A   1      42.952  29.559  34.721  1.00  0.00     0.034 A 
BRANCH  57  71
ATOM     71  C   UNL A   1      40.663  27.913  29.223  1.00  0.00     0.023 A 
ATOM     72  C   UNL A   1      39.793  26.807  29.136  1.00  0.00     0.012 A 
ATOM     73  C   UNL A   1      41.555  28.174  28.164  1.00  0.00     0.148 A 
ATOM     74  C   UNL A   1      39.837  25.951  28.036  1.00  0.00     0.002 A 
ATOM     75  C   UNL A   1      41.558  27.346  27.049  1.00  0.00     0.091 A 
ATOM     76  F   UNL A   1      42.388  29.219  28.273  1.00  0.00    -0.205 F 
ATOM     77  C   UNL A   1      40.711  26.228  26.988  1.00  0.00     0.022 A 
BRANCH  75  78
ATOM     78  S   UNL A   1      42.585  27.663  25.609  1.00  0.00     0.127 S 
ATOM     79  O   UNL A   1      41.986  28.891  25.086  1.00  0.00    -0.237 OA
ATOM     80  O   UNL A   1      43.907  27.837  26.208  1.00  0.00    -0.237 OA
ATOM     81  O   UNL A   1      42.452  26.492  24.753  1.00  0.00    -0.744 OA
ENDBRANCH  75  78
ENDBRANCH  57  71
BRANCH  58  82
ATOM     82  C   UNL A   1      39.474  33.899  37.131  1.00  0.00     0.023 A 
ATOM     83  C   UNL A   1      39.896  35.243  37.118  1.00  0.00     0.012 A 
ATOM     84  C   UNL A   1      38.846  33.386  38.281  1.00  0.00     0.148 A 
ATOM     85  C   UNL A   1      39.729  36.051  38.244  1.00  0.00     0.002 A 
ATOM     86  C   UNL A   1      38.630  34.212  39.378  1.00  0.00     0.091 A 
ATOM     87  F   UNL A   1      38.458  32.103  38.275  1.00  0.00    -0.205 F 
ATOM     88  C   UNL A   1      39.088  35.539  39.369  1.00  0.00     0.022 A 
BRANCH  86  89
ATOM     89  S   UNL A   1      37.699  33.680  40.817  1.00  0.00     0.127 S 
ATOM     90  O   UNL A   1      37.565  34.926  41.566  1.00  0.00    -0.237 OA
ATOM     91  O   UNL A   1      36.462  33.188  40.209  1.00  0.00    -0.237 OA
ATOM     92  O   UNL A   1      38.509  32.647  41.450  1.00  0.00    -0.744 OA
ENDBRANCH  86  89
ENDBRANCH  58  82
BRANCH  70  93
ATOM     93  C   UNL A   1      44.158  29.003  35.434  1.00  0.00     0.023 A 
ATOM     94  C   UNL A   1      45.425  29.588  35.243  1.00  0.00     0.012 A 
ATOM     95  C   UNL A   1      44.016  27.944  36.352  1.00  0.00     0.148 A 
ATOM     96  C   UNL A   1      46.539  29.102  35.927  1.00  0.00     0.002 A 
ATOM     97  C   UNL A   1      45.120  27.502  37.071  1.00  0.00     0.091 A 
ATOM     98  F   UNL A   1      42.804  27.390  36.508  1.00  0.00    -0.205 F 
ATOM     99  C   UNL A   1      46.384  28.069  36.849  1.00  0.00     0.022 A 
BRANCH  97 100
ATOM    100  S   UNL A   1      44.997  26.247  38.350  1.00  0.00     0.127 S 
ATOM    101  O   UNL A   1      44.770  27.060  39.544  1.00  0.00    -0.237 OA
ATOM    102  O   UNL A   1      43.837  25.471  37.910  1.00  0.00    -0.237 OA
ATOM    103  O   UNL A   1      46.258  25.519  38.324  1.00  0.00    -0.744 OA
ENDBRANCH  97 100
ENDBRANCH  70  93
ENDBRANCH  44  45
ENDBRANCH  36  39
ENDBRANCH  34  35
ENDBRANCH   1  34
TORSDOF 17
ENDMDL
MODEL 2
REMARK VINA RESULT:     -13.2      5.436     10.148
REMARK SMILES C[C@H]1CS(=O)(=O)N(c2cccc(C(=O)Nc3ccc(O)c(C(=O)NCCCNC(=O)c4ccc(-c5c6nc(c(-c7cccc(S(=O)(=O)[O-])c7F)c7ccc([nH]7)c(-c7cccc(S(=O)(=O)[O-])c7F)c7nc(c(-c8cccc(S(=O)(=O)[O-])c8F)c8ccc5[nH]8)C=C7)C=C6)cc4)c3)c2)C1=O
REMARK SMILES IDX 26 1 25 2 24 3 22 4 23 5 21 7 16 8 17 9 94 10 18 11 19 12
REMARK SMILES IDX 15 13 13 14 14 15 12 17 8 18 9 19 95 20 10 21 11 22 7 23
REMARK SMILES IDX 1 24 2 25 3 26 96 27 4 28 97 29 5 30 6 31 20 32 27 34 28 35
REMARK SMILES IDX 29 36 30 38 31 39 32 40 93 41 33 42 92 43 34 44 35 45 36 46
REMARK SMILES IDX 86 47 37 48 91 49 85 50 87 51 38 52 90 53 84 54 83 55 39 57
REMARK SMILES IDX 71 58 51 59 70 60 52 61 55 62 69 63 88 64 53 65 54 66 68 68
REMARK SMILES IDX 89 69 56 70 40 71 41 72 49 73 42 74 44 75 50 76 43 77 45 78
REMARK SMILES IDX 46 79 47 80 48 81 72 82 73 83 81 84 74 85 76 86 82 87 75 88
REMARK SMILES IDX 77 89 78 90 79 91 80 92 57 93 58 94 66 95 59 96 61 97 67 98
REMARK SMILES IDX 60 99 62 100 63 101 64 102 65 103
REMARK H PARENT 24 6 15 16 20 33 28 37 87 56 55 67
REMARK Flexibility Score: inf
ROOT
ATOM      1  C   UNL A   1      38.094  19.893  25.127  1.00  0.00     0.042 C 
ENDROOT
BRANCH   1   2
ATOM      2  C   UNL A   1      37.158  21.052  24.861  1.00  0.00     0.118 C 
BRANCH   2   3
ATOM      3  N   UNL A   1      36.253  21.248  25.998  1.00  0.00    -0.352 N 
ATOM      4  C   UNL A   1      34.919  21.431  26.230  1.00  0.00     0.255 C 
ATOM      5  O   UNL A   1      34.569  21.480  27.415  1.00  0.00    -0.269 OA
ATOM      6  H   UNL A   1      36.755  21.248  26.846  1.00  0.00     0.163 HD
BRANCH   4   7
ATOM      7  C   UNL A   1      33.860  21.427  25.195  1.00  0.00     0.083 A 
ATOM      8  C   UNL A   1      33.080  22.362  23.135  1.00  0.00     0.042 A 
ATOM      9  C   UNL A   1      32.335  21.226  22.847  1.00  0.00     0.030 A 
ATOM     10  C   UNL A   1      33.642  22.529  24.388  1.00  0.00     0.043 A 
ATOM     11  C   UNL A   1      32.372  20.158  23.741  1.00  0.00     0.049 A 
ATOM     12  C   UNL A   1      33.189  20.235  24.870  1.00  0.00     0.128 A 
BRANCH   8  13
ATOM     13  N   UNL A   1      33.364  23.276  22.122  1.00  0.00    -0.322 N 
ATOM     14  C   UNL A   1      32.770  24.498  21.838  1.00  0.00     0.255 C 
ATOM     15  O   UNL A   1      33.038  25.001  20.744  1.00  0.00    -0.269 OA
ATOM     16  H   UNL A   1      34.095  23.016  21.516  1.00  0.00     0.170 HD
BRANCH  14  17
ATOM     17  C   UNL A   1      31.909  25.306  22.796  1.00  0.00     0.042 A 
ATOM     18  C   UNL A   1      31.381  27.148  24.355  1.00  0.00     0.061 A 
ATOM     19  C   UNL A   1      30.115  26.598  24.567  1.00  0.00     0.027 A 
ATOM     20  C   UNL A   1      32.235  26.536  23.407  1.00  0.00     0.041 A 
ATOM     21  C   UNL A   1      29.735  25.429  23.912  1.00  0.00     0.003 A 
ATOM     22  C   UNL A   1      30.633  24.779  23.062  1.00  0.00     0.014 A 
BRANCH  18  23
ATOM     23  N   UNL A   1      31.815  28.215  25.213  1.00  0.00    -0.207 N 
ATOM     24  C   UNL A   1      30.993  31.647  26.254  1.00  0.00     0.019 C 
ATOM     25  C   UNL A   1      31.988  30.506  26.025  1.00  0.00     0.094 C 
ATOM     26  C   UNL A   1      32.183  29.643  27.273  1.00  0.00     0.173 C 
ATOM     27  C   UNL A   1      31.571  29.576  24.891  1.00  0.00     0.244 C 
ATOM     28  S   UNL A   1      32.492  27.979  26.723  1.00  0.00     0.242 S 
ATOM     29  O   UNL A   1      31.128  29.988  23.826  1.00  0.00    -0.273 OA
ATOM     30  O   UNL A   1      33.917  27.802  26.564  1.00  0.00    -0.206 OA
ATOM     31  O   UNL A   1      31.685  27.073  27.510  1.00  0.00    -0.206 OA
ENDBRANCH  18  23
ENDBRANCH  14  17
ENDBRANCH   8  13
BRANCH  12  32
ATOM     32  O   UNL A   1      33.325  19.074  25.590  1.00  0.00    -0.507 OA
ATOM     33  H   UNL A   1      32.722  18.878  26.279  1.00  0.00     0.293 HD
ENDBRANCH  12  32
ENDBRANCH   4   7
ENDBRANCH   2   3
ENDBRANCH   1   2
BRANCH   1  34
ATOM     34  C   UNL A   1      39.352  20.358  25.848  1.00  0.00     0.118 C 
BRANCH  34  35
ATOM     35  N   UNL A   1      40.351  19.301  25.963  1.00  0.00    -0.352 N 
ATOM     36  C   UNL A   1      41.719  19.407  26.055  1.00  0.00     0.251 C 
ATOM     37  H   UNL A   1      39.995  18.382  25.977  1.00  0.00     0.163 HD
ATOM     38  O   UNL A   1      42.434  18.419  25.909  1.00  0.00    -0.269 OA
BRANCH  36  39
ATOM     39  C   UNL A   1      42.323  20.731  26.316  1.00  0.00     0.039 A 
ATOM     40  C   UNL A   1      42.728  21.529  25.246  1.00  0.00     0.014 A 
ATOM     41  C   UNL A   1      42.458  21.194  27.626  1.00  0.00     0.014 A 
ATOM     42  C   UNL A   1      43.193  22.823  25.492  1.00  0.00     0.010 A 
ATOM     43  C   UNL A   1      42.803  22.519  27.859  1.00  0.00     0.010 A 
ATOM     44  C   UNL A   1      43.190  23.346  26.797  1.00  0.00    -0.014 A 
BRANCH  44  45
ATOM     45  C   UNL A   1      43.586  24.750  27.077  1.00  0.00     0.031 A 
ATOM     46  C   UNL A   1      45.029  25.167  26.960  1.00  0.00     0.074 A 
ATOM     47  C   UNL A   1      42.666  25.627  27.530  1.00  0.00     0.049 A 
ATOM     48  N   UNL A   1      45.577  26.324  27.228  1.00  0.00    -0.248 NA
ATOM     49  C   UNL A   1      45.988  24.142  26.513  1.00  0.00     0.031 C 
ATOM     50  C   UNL A   1      41.254  25.326  27.770  1.00  0.00     0.029 A 
ATOM     51  N   UNL A   1      42.789  26.945  27.895  1.00  0.00    -0.354 N 
ATOM     52  C   UNL A   1      46.941  26.155  27.024  1.00  0.00     0.074 A 
ATOM     53  C   UNL A   1      47.145  24.773  26.648  1.00  0.00     0.031 C 
ATOM     54  C   UNL A   1      40.639  26.427  28.231  1.00  0.00     0.029 A 
ATOM     55  C   UNL A   1      41.618  27.501  28.357  1.00  0.00     0.049 A 
ATOM     56  H   UNL A   1      43.634  27.445  27.831  1.00  0.00     0.167 HD
ATOM     57  C   UNL A   1      47.934  27.072  27.109  1.00  0.00     0.034 A 
ATOM     58  C   UNL A   1      41.364  28.732  28.843  1.00  0.00     0.034 A 
ATOM     59  C   UNL A   1      47.724  28.454  27.443  1.00  0.00     0.049 A 
ATOM     60  C   UNL A   1      42.478  29.742  28.895  1.00  0.00     0.074 A 
ATOM     61  C   UNL A   1      48.649  29.482  27.465  1.00  0.00     0.029 A 
ATOM     62  N   UNL A   1      46.509  28.999  27.828  1.00  0.00    -0.354 N 
ATOM     63  N   UNL A   1      43.733  29.604  28.544  1.00  0.00    -0.248 NA
ATOM     64  C   UNL A   1      42.134  31.087  29.378  1.00  0.00     0.031 C 
ATOM     65  C   UNL A   1      48.001  30.642  27.900  1.00  0.00     0.029 A 
ATOM     66  C   UNL A   1      46.663  30.346  28.105  1.00  0.00     0.049 A 
ATOM     67  H   UNL A   1      45.662  28.502  27.892  1.00  0.00     0.167 HD
ATOM     68  C   UNL A   1      44.319  30.852  28.726  1.00  0.00     0.074 A 
ATOM     69  C   UNL A   1      43.275  31.737  29.200  1.00  0.00     0.031 C 
ATOM     70  C   UNL A   1      45.606  31.228  28.530  1.00  0.00     0.034 A 
BRANCH  57  71
ATOM     71  C   UNL A   1      49.338  26.618  26.798  1.00  0.00     0.023 A 
ATOM     72  C   UNL A   1      50.002  25.741  27.680  1.00  0.00     0.012 A 
ATOM     73  C   UNL A   1      49.974  27.009  25.604  1.00  0.00     0.148 A 
ATOM     74  C   UNL A   1      51.293  25.292  27.399  1.00  0.00     0.002 A 
ATOM     75  C   UNL A   1      51.240  26.518  25.307  1.00  0.00     0.091 A 
ATOM     76  F   UNL A   1      49.335  27.858  24.787  1.00  0.00    -0.205 F 
ATOM     77  C   UNL A   1      51.906  25.672  26.208  1.00  0.00     0.022 A 
BRANCH  75  78
ATOM     78  S   UNL A   1      52.081  26.878  23.761  1.00  0.00     0.127 S 
ATOM     79  O   UNL A   1      52.594  28.225  24.013  1.00  0.00    -0.237 OA
ATOM     80  O   UNL A   1      53.105  25.835  23.720  1.00  0.00    -0.237 OA
ATOM     81  O   UNL A   1      51.069  26.782  22.719  1.00  0.00    -0.744 OA
ENDBRANCH  75  78
ENDBRANCH  57  71
BRANCH  58  82
ATOM     82  C   UNL A   1      39.982  29.095  29.271  1.00  0.00     0.023 A 
ATOM     83  C   UNL A   1      39.024  29.447  28.301  1.00  0.00     0.012 A 
ATOM     84  C   UNL A   1      39.611  29.072  30.629  1.00  0.00     0.148 A 
ATOM     85  C   UNL A   1      37.729  29.808  28.680  1.00  0.00     0.002 A 
ATOM     86  C   UNL A   1      38.305  29.376  30.994  1.00  0.00     0.091 A 
ATOM     87  F   UNL A   1      40.541  28.740  31.536  1.00  0.00    -0.205 F 
ATOM     88  C   UNL A   1      37.368  29.763  30.024  1.00  0.00     0.022 A 
BRANCH  86  89
ATOM     89  S   UNL A   1      37.715  29.218  32.682  1.00  0.00     0.127 S 
ATOM     90  O   UNL A   1      38.661  30.058  33.410  1.00  0.00    -0.237 OA
ATOM     91  O   UNL A   1      36.360  29.761  32.578  1.00  0.00    -0.237 OA
ATOM     92  O   UNL A   1      37.770  27.795  32.988  1.00  0.00    -0.744 OA
ENDBRANCH  86  89
ENDBRANCH  58  82
BRANCH  70  93
ATOM     93  C   UNL A   1      45.961  32.672  28.779  1.00  0.00     0.023 A 
ATOM     94  C   UNL A   1      46.564  33.053  29.994  1.00  0.00     0.012 A 
ATOM     95  C   UNL A   1      45.760  33.638  27.773  1.00  0.00     0.148 A 
ATOM     96  C   UNL A   1      46.928  34.381  30.217  1.00  0.00     0.002 A 
ATOM     97  C   UNL A   1      46.175  34.947  27.981  1.00  0.00     0.091 A 
ATOM     98  F   UNL A   1      45.169  33.258  26.630  1.00  0.00    -0.205 F 
ATOM     99  C   UNL A   1      46.746  35.324  29.207  1.00  0.00     0.022 A 
BRANCH  97 100
ATOM    100  S   UNL A   1      46.073  36.205  26.704  1.00  0.00     0.127 S 
ATOM    101  O   UNL A   1      44.688  36.655  26.840  1.00  0.00    -0.237 OA
ATOM    102  O   UNL A   1      47.076  37.175  27.146  1.00  0.00    -0.237 OA
ATOM    103  O   UNL A   1      46.390  35.535  25.450  1.00  0.00    -0.744 OA
ENDBRANCH  97 100
ENDBRANCH  70  93
ENDBRANCH  44  45
ENDBRANCH  36  39
ENDBRANCH  34  35
ENDBRANCH   1  34
TORSDOF 17
ENDMDL
MODEL 3
REMARK VINA RESULT:     -13.2      6.149     11.508
REMARK SMILES C[C@H]1CS(=O)(=O)N(c2cccc(C(=O)Nc3ccc(O)c(C(=O)NCCCNC(=O)c4ccc(-c5c6nc(c(-c7cccc(S(=O)(=O)[O-])c7F)c7ccc([nH]7)c(-c7cccc(S(=O)(=O)[O-])c7F)c7nc(c(-c8cccc(S(=O)(=O)[O-])c8F)c8ccc5[nH]8)C=C7)C=C6)cc4)c3)c2)C1=O
REMARK SMILES IDX 26 1 25 2 24 3 22 4 23 5 21 7 16 8 17 9 94 10 18 11 19 12
REMARK SMILES IDX 15 13 13 14 14 15 12 17 8 18 9 19 95 20 10 21 11 22 7 23
REMARK SMILES IDX 1 24 2 25 3 26 96 27 4 28 97 29 5 30 6 31 20 32 27 34 28 35
REMARK SMILES IDX 29 36 30 38 31 39 32 40 93 41 33 42 92 43 34 44 35 45 36 46
REMARK SMILES IDX 86 47 37 48 91 49 85 50 87 51 38 52 90 53 84 54 83 55 39 57
REMARK SMILES IDX 71 58 51 59 70 60 52 61 55 62 69 63 88 64 53 65 54 66 68 68
REMARK SMILES IDX 89 69 56 70 40 71 41 72 49 73 42 74 44 75 50 76 43 77 45 78
REMARK SMILES IDX 46 79 47 80 48 81 72 82 73 83 81 84 74 85 76 86 82 87 75 88
REMARK SMILES IDX 77 89 78 90 79 91 80 92 57 93 58 94 66 95 59 96 61 97 67 98
REMARK SMILES IDX 60 99 62 100 63 101 64 102 65 103
REMARK H PARENT 24 6 15 16 20 33 28 37 87 56 55 67
REMARK Flexibility Score: inf
ROOT
ATOM      1  C   UNL A   1      37.552  20.160  25.067  1.00  0.00     0.042 C 
ENDROOT
BRANCH   1   2
ATOM      2  C   UNL A   1      36.579  21.316  24.979  1.00  0.00     0.118 C 
BRANCH   2   3
ATOM      3  N   UNL A   1      35.497  21.148  25.954  1.00  0.00    -0.352 N 
ATOM      4  C   UNL A   1      34.131  21.105  25.976  1.00  0.00     0.255 C 
ATOM      5  O   UNL A   1      33.608  20.854  27.068  1.00  0.00    -0.269 OA
ATOM      6  H   UNL A   1      35.862  21.030  26.861  1.00  0.00     0.163 HD
BRANCH   4   7
ATOM      7  C   UNL A   1      33.251  21.188  24.788  1.00  0.00     0.083 A 
ATOM      8  C   UNL A   1      32.780  22.311  22.728  1.00  0.00     0.042 A 
ATOM      9  C   UNL A   1      32.124  21.198  22.218  1.00  0.00     0.030 A 
ATOM     10  C   UNL A   1      33.131  22.361  24.066  1.00  0.00     0.043 A 
ATOM     11  C   UNL A   1      32.051  20.048  23.000  1.00  0.00     0.049 A 
ATOM     12  C   UNL A   1      32.676  20.024  24.248  1.00  0.00     0.128 A 
BRANCH   8  13
ATOM     13  N   UNL A   1      33.194  23.325  21.866  1.00  0.00    -0.322 N 
ATOM     14  C   UNL A   1      32.718  24.621  21.728  1.00  0.00     0.255 C 
ATOM     15  O   UNL A   1      33.087  25.241  20.727  1.00  0.00    -0.269 OA
ATOM     16  H   UNL A   1      33.935  23.086  21.263  1.00  0.00     0.170 HD
BRANCH  14  17
ATOM     17  C   UNL A   1      31.871  25.366  22.749  1.00  0.00     0.042 A 
ATOM     18  C   UNL A   1      31.340  27.147  24.375  1.00  0.00     0.061 A 
ATOM     19  C   UNL A   1      30.117  26.529  24.644  1.00  0.00     0.027 A 
ATOM     20  C   UNL A   1      32.169  26.599  23.368  1.00  0.00     0.041 A 
ATOM     21  C   UNL A   1      29.760  25.355  23.985  1.00  0.00     0.003 A 
ATOM     22  C   UNL A   1      30.640  24.768  23.073  1.00  0.00     0.014 A 
BRANCH  18  23
ATOM     23  N   UNL A   1      31.767  28.219  25.232  1.00  0.00    -0.207 N 
ATOM     24  C   UNL A   1      30.996  31.690  26.176  1.00  0.00     0.019 C 
ATOM     25  C   UNL A   1      31.967  30.519  26.009  1.00  0.00     0.094 C 
ATOM     26  C   UNL A   1      32.089  29.675  27.279  1.00  0.00     0.173 C 
ATOM     27  C   UNL A   1      31.573  29.579  24.875  1.00  0.00     0.244 C 
ATOM     28  S   UNL A   1      32.375  27.993  26.772  1.00  0.00     0.242 S 
ATOM     29  O   UNL A   1      31.184  29.983  23.785  1.00  0.00    -0.273 OA
ATOM     30  O   UNL A   1      33.799  27.776  26.676  1.00  0.00    -0.206 OA
ATOM     31  O   UNL A   1      31.512  27.124  27.541  1.00  0.00    -0.206 OA
ENDBRANCH  18  23
ENDBRANCH  14  17
ENDBRANCH   8  13
BRANCH  12  32
ATOM     32  O   UNL A   1      32.730  18.800  24.866  1.00  0.00    -0.507 OA
ATOM     33  H   UNL A   1      32.922  18.746  25.781  1.00  0.00     0.293 HD
ENDBRANCH  12  32
ENDBRANCH   4   7
ENDBRANCH   2   3
ENDBRANCH   1   2
BRANCH   1  34
ATOM     34  C   UNL A   1      38.871  20.601  25.687  1.00  0.00     0.118 C 
BRANCH  34  35
ATOM     35  N   UNL A   1      39.795  19.487  25.881  1.00  0.00    -0.352 N 
ATOM     36  C   UNL A   1      41.155  19.514  26.082  1.00  0.00     0.251 C 
ATOM     37  H   UNL A   1      39.386  18.591  25.866  1.00  0.00     0.163 HD
ATOM     38  O   UNL A   1      41.820  18.486  25.992  1.00  0.00    -0.269 OA
BRANCH  36  39
ATOM     39  C   UNL A   1      41.812  20.802  26.390  1.00  0.00     0.039 A 
ATOM     40  C   UNL A   1      42.194  21.649  25.350  1.00  0.00     0.014 A 
ATOM     41  C   UNL A   1      42.022  21.182  27.718  1.00  0.00     0.014 A 
ATOM     42  C   UNL A   1      42.712  22.912  25.649  1.00  0.00     0.010 A 
ATOM     43  C   UNL A   1      42.418  22.480  28.010  1.00  0.00     0.010 A 
ATOM     44  C   UNL A   1      42.784  23.357  26.981  1.00  0.00    -0.014 A 
BRANCH  44  45
ATOM     45  C   UNL A   1      43.238  24.729  27.324  1.00  0.00     0.031 A 
ATOM     46  C   UNL A   1      42.273  25.715  27.931  1.00  0.00     0.074 A 
ATOM     47  C   UNL A   1      44.488  25.120  27.002  1.00  0.00     0.049 A 
ATOM     48  N   UNL A   1      42.463  26.973  28.234  1.00  0.00    -0.248 NA
ATOM     49  C   UNL A   1      40.908  25.234  28.205  1.00  0.00     0.031 C 
ATOM     50  C   UNL A   1      45.490  24.290  26.331  1.00  0.00     0.029 A 
ATOM     51  N   UNL A   1      45.120  26.328  27.170  1.00  0.00    -0.354 N 
ATOM     52  C   UNL A   1      41.238  27.442  28.692  1.00  0.00     0.074 A 
ATOM     53  C   UNL A   1      40.300  26.346  28.591  1.00  0.00     0.031 C 
ATOM     54  C   UNL A   1      46.612  25.006  26.156  1.00  0.00     0.029 A 
ATOM     55  C   UNL A   1      46.398  26.357  26.663  1.00  0.00     0.049 A 
ATOM     56  H   UNL A   1      44.697  27.099  27.612  1.00  0.00     0.167 HD
ATOM     57  C   UNL A   1      40.925  28.665  29.184  1.00  0.00     0.034 A 
ATOM     58  C   UNL A   1      47.294  27.362  26.601  1.00  0.00     0.034 A 
ATOM     59  C   UNL A   1      41.870  29.739  29.322  1.00  0.00     0.049 A 
ATOM     60  C   UNL A   1      46.933  28.701  27.185  1.00  0.00     0.074 A 
ATOM     61  C   UNL A   1      41.676  30.984  29.894  1.00  0.00     0.029 A 
ATOM     62  N   UNL A   1      43.180  29.705  28.871  1.00  0.00    -0.354 N 
ATOM     63  N   UNL A   1      45.817  29.076  27.760  1.00  0.00    -0.248 NA
ATOM     64  C   UNL A   1      47.967  29.745  27.142  1.00  0.00     0.031 C 
ATOM     65  C   UNL A   1      42.859  31.717  29.755  1.00  0.00     0.029 A 
ATOM     66  C   UNL A   1      43.802  30.912  29.137  1.00  0.00     0.049 A 
ATOM     67  H   UNL A   1      43.605  28.936  28.429  1.00  0.00     0.167 HD
ATOM     68  C   UNL A   1      46.026  30.384  28.182  1.00  0.00     0.074 A 
ATOM     69  C   UNL A   1      47.384  30.728  27.813  1.00  0.00     0.031 C 
ATOM     70  C   UNL A   1      45.169  31.227  28.808  1.00  0.00     0.034 A 
BRANCH  57  71
ATOM     71  C   UNL A   1      39.509  28.894  29.648  1.00  0.00     0.023 A 
ATOM     72  C   UNL A   1      39.101  28.422  30.912  1.00  0.00     0.012 A 
ATOM     73  C   UNL A   1      38.602  29.628  28.859  1.00  0.00     0.148 A 
ATOM     74  C   UNL A   1      37.801  28.642  31.368  1.00  0.00     0.002 A 
ATOM     75  C   UNL A   1      37.325  29.886  29.342  1.00  0.00     0.091 A 
ATOM     76  F   UNL A   1      39.002  30.052  27.652  1.00  0.00    -0.205 F 
ATOM     77  C   UNL A   1      36.918  29.383  30.588  1.00  0.00     0.022 A 
BRANCH  75  78
ATOM     78  S   UNL A   1      36.140  30.902  28.454  1.00  0.00     0.127 S 
ATOM     79  O   UNL A   1      36.880  32.155  28.304  1.00  0.00    -0.237 OA
ATOM     80  O   UNL A   1      35.960  30.149  27.213  1.00  0.00    -0.237 OA
ATOM     81  O   UNL A   1      34.957  30.976  29.300  1.00  0.00    -0.744 OA
ENDBRANCH  75  78
ENDBRANCH  57  71
BRANCH  58  82
ATOM     82  C   UNL A   1      48.640  27.126  26.004  1.00  0.00     0.023 A 
ATOM     83  C   UNL A   1      49.665  26.574  26.798  1.00  0.00     0.012 A 
ATOM     84  C   UNL A   1      48.902  27.427  24.654  1.00  0.00     0.148 A 
ATOM     85  C   UNL A   1      50.938  26.361  26.267  1.00  0.00     0.002 A 
ATOM     86  C   UNL A   1      50.155  27.158  24.116  1.00  0.00     0.091 A 
ATOM     87  F   UNL A   1      47.915  27.958  23.919  1.00  0.00    -0.205 F 
ATOM     88  C   UNL A   1      51.180  26.643  24.925  1.00  0.00     0.022 A 
BRANCH  86  89
ATOM     89  S   UNL A   1      50.519  27.366  22.370  1.00  0.00     0.127 S 
ATOM     90  O   UNL A   1      51.885  26.858  22.286  1.00  0.00    -0.237 OA
ATOM     91  O   UNL A   1      49.504  26.515  21.748  1.00  0.00    -0.237 OA
ATOM     92  O   UNL A   1      50.357  28.789  22.101  1.00  0.00    -0.744 OA
ENDBRANCH  86  89
ENDBRANCH  58  82
BRANCH  70  93
ATOM     93  C   UNL A   1      45.679  32.595  29.183  1.00  0.00     0.023 A 
ATOM     94  C   UNL A   1      46.381  32.781  30.390  1.00  0.00     0.012 A 
ATOM     95  C   UNL A   1      45.524  33.680  28.298  1.00  0.00     0.148 A 
ATOM     96  C   UNL A   1      46.889  34.036  30.727  1.00  0.00     0.002 A 
ATOM     97  C   UNL A   1      46.079  34.913  28.615  1.00  0.00     0.091 A 
ATOM     98  F   UNL A   1      44.838  33.486  27.161  1.00  0.00    -0.205 F 
ATOM     99  C   UNL A   1      46.749  35.097  29.835  1.00  0.00     0.022 A 
BRANCH  97 100
ATOM    100  S   UNL A   1      46.037  36.308  27.485  1.00  0.00     0.127 S 
ATOM    101  O   UNL A   1      47.164  37.111  27.960  1.00  0.00    -0.237 OA
ATOM    102  O   UNL A   1      46.251  35.662  26.189  1.00  0.00    -0.237 OA
ATOM    103  O   UNL A   1      44.725  36.920  27.647  1.00  0.00    -0.744 OA
ENDBRANCH  97 100
ENDBRANCH  70  93
ENDBRANCH  44  45
ENDBRANCH  36  39
ENDBRANCH  34  35
ENDBRANCH   1  34
TORSDOF 17
ENDMDL
