MODEL 1
REMARK VINA RESULT:     -12.8      0.000      0.000
REMARK SMILES Cc1cc(=O)c(Oc2ccc(C(=O)NCCCNC(=O)c3ccc(-c4c5nc(c(-c6cccc(S(=O)(=O)[O-])c6F)c6ccc([nH]6)c(-c6cccc(S(=O)(=O)[O-])c6F)c6nc(c(-c7cccc(S(=O)(=O)[O-])c7F)c7ccc4[nH]7)C=C6)C=C5)cc3)cc2)c(-c2ccc(S(C)(=O)=O)cc2)o1
REMARK SMILES IDX 15 1 14 2 12 3 13 4 11 6 8 7 9 8 85 9 10 10 84 11 7 12 6 13
REMARK SMILES IDX 1 14 2 15 3 16 97 17 4 18 86 19 5 20 87 21 88 22 96 23 89 24
REMARK SMILES IDX 95 25 90 26 91 27 92 28 93 29 94 30 16 31 17 32 18 33 19 34
REMARK SMILES IDX 20 36 21 37 22 38 83 39 23 40 82 41 24 42 25 43 26 44 76 45
REMARK SMILES IDX 27 46 81 47 75 48 77 49 28 50 80 51 74 52 73 53 29 55 61 56
REMARK SMILES IDX 41 57 60 58 42 59 45 60 59 61 78 62 43 63 44 64 58 66 79 67
REMARK SMILES IDX 46 68 30 69 31 70 39 71 32 72 34 73 40 74 33 75 35 76 36 77
REMARK SMILES IDX 37 78 38 79 62 80 63 81 71 82 64 83 66 84 72 85 65 86 67 87
REMARK SMILES IDX 68 88 69 89 70 90 47 91 48 92 56 93 49 94 51 95 57 96 50 97
REMARK SMILES IDX 52 98 53 99 54 100 55 101
REMARK H PARENT 14 5 18 35 77 54 45 65
REMARK Flexibility Score: inf
ROOT
ATOM      1  C   UNL A   1      32.312  30.024  25.789  1.00  0.00     0.118 C 
ENDROOT
BRANCH   1   2
ATOM      2  N   UNL A   1      31.231  29.327  25.109  1.00  0.00    -0.352 N 
ATOM      3  C   UNL A   1      31.136  28.061  24.577  1.00  0.00     0.251 C 
ATOM      4  O   UNL A   1      30.029  27.655  24.223  1.00  0.00    -0.269 OA
ATOM      5  H   UNL A   1      30.411  29.863  25.011  1.00  0.00     0.163 HD
BRANCH   3   6
ATOM      6  C   UNL A   1      32.330  27.225  24.287  1.00  0.00     0.040 A 
ATOM      7  C   UNL A   1      34.043  25.104  23.762  1.00  0.00     0.127 A 
ATOM      8  C   UNL A   1      33.732  25.406  25.081  1.00  0.00     0.048 A 
ATOM      9  C   UNL A   1      33.725  26.004  22.748  1.00  0.00     0.048 A 
ATOM     10  C   UNL A   1      32.833  26.443  25.340  1.00  0.00     0.017 A 
ATOM     11  C   UNL A   1      32.907  27.098  23.026  1.00  0.00     0.017 A 
BRANCH   7  12
ATOM     12  O   UNL A   1      34.725  23.981  23.404  1.00  0.00    -0.449 OA
BRANCH  12  13
ATOM     13  C   UNL A   1      34.362  22.701  23.810  1.00  0.00     0.217 A 
ATOM     14  C   UNL A   1      32.795  18.760  24.656  1.00  0.00     0.088 C 
ATOM     15  C   UNL A   1      33.222  20.159  24.348  1.00  0.00     0.105 A 
ATOM     16  C   UNL A   1      32.409  21.055  23.787  1.00  0.00     0.098 A 
ATOM     17  O   UNL A   1      34.516  20.457  24.709  1.00  0.00    -0.457 OA
ATOM     18  C   UNL A   1      32.934  22.391  23.475  1.00  0.00     0.228 A 
ATOM     19  C   UNL A   1      35.045  21.723  24.466  1.00  0.00     0.180 A 
ATOM     20  O   UNL A   1      32.190  23.214  22.947  1.00  0.00    -0.285 OA
BRANCH  19  21
ATOM     21  C   UNL A   1      36.415  21.778  25.011  1.00  0.00     0.021 A 
ATOM     22  C   UNL A   1      37.220  20.625  24.999  1.00  0.00     0.013 A 
ATOM     23  C   UNL A   1      36.913  22.951  25.597  1.00  0.00     0.013 A 
ATOM     24  C   UNL A   1      38.528  20.664  25.493  1.00  0.00     0.021 A 
ATOM     25  C   UNL A   1      38.214  22.989  26.109  1.00  0.00     0.021 A 
ATOM     26  C   UNL A   1      39.019  21.850  26.044  1.00  0.00     0.067 A 
BRANCH  26  27
ATOM     27  S   UNL A   1      40.708  21.915  26.599  1.00  0.00     0.175 S 
ATOM     28  C   UNL A   1      41.315  20.284  26.266  1.00  0.00     0.163 C 
ATOM     29  O   UNL A   1      41.414  22.833  25.728  1.00  0.00    -0.224 OA
ATOM     30  O   UNL A   1      40.698  22.099  28.041  1.00  0.00    -0.224 OA
ENDBRANCH  26  27
ENDBRANCH  19  21
ENDBRANCH  12  13
ENDBRANCH   7  12
ENDBRANCH   3   6
ENDBRANCH   1   2
BRANCH   1  31
ATOM     31  C   UNL A   1      31.921  31.297  26.520  1.00  0.00     0.042 C 
BRANCH  31  32
ATOM     32  C   UNL A   1      33.047  32.026  27.230  1.00  0.00     0.118 C 
BRANCH  32  33
ATOM     33  N   UNL A   1      32.724  33.407  27.570  1.00  0.00    -0.352 N 
ATOM     34  C   UNL A   1      33.244  34.267  28.514  1.00  0.00     0.251 C 
ATOM     35  H   UNL A   1      32.002  33.797  27.027  1.00  0.00     0.163 HD
ATOM     36  O   UNL A   1      32.698  35.353  28.693  1.00  0.00    -0.269 OA
BRANCH  34  37
ATOM     37  C   UNL A   1      34.409  33.881  29.345  1.00  0.00     0.039 A 
ATOM     38  C   UNL A   1      35.701  34.268  29.006  1.00  0.00     0.014 A 
ATOM     39  C   UNL A   1      34.207  33.108  30.494  1.00  0.00     0.014 A 
ATOM     40  C   UNL A   1      36.789  33.684  29.641  1.00  0.00     0.010 A 
ATOM     41  C   UNL A   1      35.306  32.628  31.220  1.00  0.00     0.010 A 
ATOM     42  C   UNL A   1      36.610  32.850  30.756  1.00  0.00    -0.014 A 
BRANCH  42  43
ATOM     43  C   UNL A   1      37.801  32.236  31.407  1.00  0.00     0.031 A 
ATOM     44  C   UNL A   1      38.267  32.693  32.768  1.00  0.00     0.074 A 
ATOM     45  C   UNL A   1      38.440  31.220  30.791  1.00  0.00     0.049 A 
ATOM     46  N   UNL A   1      39.271  32.249  33.480  1.00  0.00    -0.248 NA
ATOM     47  C   UNL A   1      37.517  33.782  33.418  1.00  0.00     0.031 C 
ATOM     48  C   UNL A   1      38.106  30.694  29.465  1.00  0.00     0.029 A 
ATOM     49  N   UNL A   1      39.493  30.439  31.198  1.00  0.00    -0.354 N 
ATOM     50  C   UNL A   1      39.304  33.029  34.630  1.00  0.00     0.074 A 
ATOM     51  C   UNL A   1      38.218  33.979  34.528  1.00  0.00     0.031 C 
ATOM     52  C   UNL A   1      38.907  29.658  29.185  1.00  0.00     0.029 A 
ATOM     53  C   UNL A   1      39.859  29.487  30.277  1.00  0.00     0.049 A 
ATOM     54  H   UNL A   1      39.944  30.551  32.066  1.00  0.00     0.167 HD
ATOM     55  C   UNL A   1      40.150  32.951  35.684  1.00  0.00     0.034 A 
ATOM     56  C   UNL A   1      40.862  28.587  30.285  1.00  0.00     0.034 A 
ATOM     57  C   UNL A   1      41.194  31.973  35.816  1.00  0.00     0.049 A 
ATOM     58  C   UNL A   1      41.779  28.519  31.468  1.00  0.00     0.074 A 
ATOM     59  C   UNL A   1      42.060  31.789  36.880  1.00  0.00     0.029 A 
ATOM     60  N   UNL A   1      41.518  31.022  34.863  1.00  0.00    -0.354 N 
ATOM     61  N   UNL A   1      41.740  29.218  32.575  1.00  0.00    -0.248 NA
ATOM     62  C   UNL A   1      42.870  27.534  31.414  1.00  0.00     0.031 C 
ATOM     63  C   UNL A   1      42.921  30.736  36.563  1.00  0.00     0.029 A 
ATOM     64  C   UNL A   1      42.575  30.252  35.313  1.00  0.00     0.049 A 
ATOM     65  H   UNL A   1      41.064  30.910  33.997  1.00  0.00     0.167 HD
ATOM     66  C   UNL A   1      42.789  28.751  33.356  1.00  0.00     0.074 A 
ATOM     67  C   UNL A   1      43.436  27.696  32.604  1.00  0.00     0.031 C 
ATOM     68  C   UNL A   1      43.184  29.175  34.579  1.00  0.00     0.034 A 
BRANCH  55  69
ATOM     69  C   UNL A   1      39.972  33.915  36.824  1.00  0.00     0.023 A 
ATOM     70  C   UNL A   1      40.270  35.278  36.629  1.00  0.00     0.012 A 
ATOM     71  C   UNL A   1      39.365  33.500  38.026  1.00  0.00     0.148 A 
ATOM     72  C   UNL A   1      39.963  36.216  37.614  1.00  0.00     0.002 A 
ATOM     73  C   UNL A   1      39.037  34.444  38.991  1.00  0.00     0.091 A 
ATOM     74  F   UNL A   1      39.096  32.197  38.186  1.00  0.00    -0.205 F 
ATOM     75  C   UNL A   1      39.336  35.803  38.787  1.00  0.00     0.022 A 
BRANCH  73  76
ATOM     76  S   UNL A   1      38.177  34.028  40.512  1.00  0.00     0.127 S 
ATOM     77  O   UNL A   1      36.990  33.344  40.000  1.00  0.00    -0.237 OA
ATOM     78  O   UNL A   1      39.142  33.157  41.180  1.00  0.00    -0.237 OA
ATOM     79  O   UNL A   1      37.915  35.291  41.188  1.00  0.00    -0.744 OA
ENDBRANCH  73  76
ENDBRANCH  55  69
BRANCH  56  80
ATOM     80  C   UNL A   1      41.027  27.678  29.120  1.00  0.00     0.023 A 
ATOM     81  C   UNL A   1      40.285  26.485  29.056  1.00  0.00     0.012 A 
ATOM     82  C   UNL A   1      41.854  28.040  28.038  1.00  0.00     0.148 A 
ATOM     83  C   UNL A   1      40.366  25.663  27.931  1.00  0.00     0.002 A 
ATOM     84  C   UNL A   1      41.897  27.240  26.904  1.00  0.00     0.091 A 
ATOM     85  F   UNL A   1      42.549  29.182  28.129  1.00  0.00    -0.205 F 
ATOM     86  C   UNL A   1      41.161  26.046  26.852  1.00  0.00     0.022 A 
BRANCH  84  87
ATOM     87  S   UNL A   1      42.805  27.705  25.426  1.00  0.00     0.127 S 
ATOM     88  O   UNL A   1      42.683  26.497  24.613  1.00  0.00    -0.237 OA
ATOM     89  O   UNL A   1      42.030  28.851  24.950  1.00  0.00    -0.237 OA
ATOM     90  O   UNL A   1      44.152  28.026  25.872  1.00  0.00    -0.744 OA
ENDBRANCH  84  87
ENDBRANCH  56  80
BRANCH  68  91
ATOM     91  C   UNL A   1      44.364  28.498  35.219  1.00  0.00     0.023 A 
ATOM     92  C   UNL A   1      45.665  28.931  34.904  1.00  0.00     0.012 A 
ATOM     93  C   UNL A   1      44.171  27.538  36.231  1.00  0.00     0.148 A 
ATOM     94  C   UNL A   1      46.763  28.415  35.589  1.00  0.00     0.002 A 
ATOM     95  C   UNL A   1      45.267  27.054  36.934  1.00  0.00     0.091 A 
ATOM     96  F   UNL A   1      42.920  27.142  36.506  1.00  0.00    -0.205 F 
ATOM     97  C   UNL A   1      46.563  27.489  36.611  1.00  0.00     0.022 A 
BRANCH  95  98
ATOM     98  S   UNL A   1      45.108  25.914  38.312  1.00  0.00     0.127 S 
ATOM     99  O   UNL A   1      44.609  24.711  37.647  1.00  0.00    -0.237 OA
ATOM    100  O   UNL A   1      46.485  25.819  38.795  1.00  0.00    -0.237 OA
ATOM    101  O   UNL A   1      44.175  26.532  39.245  1.00  0.00    -0.744 OA
ENDBRANCH  95  98
ENDBRANCH  68  91
ENDBRANCH  42  43
ENDBRANCH  34  37
ENDBRANCH  32  33
ENDBRANCH  31  32
ENDBRANCH   1  31
TORSDOF 17
ENDMDL
MODEL 2
REMARK VINA RESULT:     -12.7      2.038      2.844
REMARK SMILES Cc1cc(=O)c(Oc2ccc(C(=O)NCCCNC(=O)c3ccc(-c4c5nc(c(-c6cccc(S(=O)(=O)[O-])c6F)c6ccc([nH]6)c(-c6cccc(S(=O)(=O)[O-])c6F)c6nc(c(-c7cccc(S(=O)(=O)[O-])c7F)c7ccc4[nH]7)C=C6)C=C5)cc3)cc2)c(-c2ccc(S(C)(=O)=O)cc2)o1
REMARK SMILES IDX 15 1 14 2 12 3 13 4 11 6 8 7 9 8 85 9 10 10 84 11 7 12 6 13
REMARK SMILES IDX 1 14 2 15 3 16 97 17 4 18 86 19 5 20 87 21 88 22 96 23 89 24
REMARK SMILES IDX 95 25 90 26 91 27 92 28 93 29 94 30 16 31 17 32 18 33 19 34
REMARK SMILES IDX 20 36 21 37 22 38 83 39 23 40 82 41 24 42 25 43 26 44 76 45
REMARK SMILES IDX 27 46 81 47 75 48 77 49 28 50 80 51 74 52 73 53 29 55 61 56
REMARK SMILES IDX 41 57 60 58 42 59 45 60 59 61 78 62 43 63 44 64 58 66 79 67
REMARK SMILES IDX 46 68 30 69 31 70 39 71 32 72 34 73 40 74 33 75 35 76 36 77
REMARK SMILES IDX 37 78 38 79 62 80 63 81 71 82 64 83 66 84 72 85 65 86 67 87
REMARK SMILES IDX 68 88 69 89 70 90 47 91 48 92 56 93 49 94 51 95 57 96 50 97
REMARK SMILES IDX 52 98 53 99 54 100 55 101
REMARK H PARENT 14 5 18 35 77 54 45 65
REMARK Flexibility Score: inf
ROOT
ATOM      1  C   UNL A   1      33.803  27.764  23.434  1.00  0.00     0.118 C 
ENDROOT
BRANCH   1   2
ATOM      2  N   UNL A   1      33.040  27.411  22.247  1.00  0.00    -0.352 N 
ATOM      3  C   UNL A   1      32.261  26.320  21.939  1.00  0.00     0.251 C 
ATOM      4  O   UNL A   1      31.565  26.363  20.924  1.00  0.00    -0.269 OA
ATOM      5  H   UNL A   1      33.089  28.082  21.528  1.00  0.00     0.163 HD
BRANCH   3   6
ATOM      6  C   UNL A   1      32.333  25.046  22.702  1.00  0.00     0.040 A 
ATOM      7  C   UNL A   1      33.141  22.954  24.341  1.00  0.00     0.127 A 
ATOM      8  C   UNL A   1      33.567  22.978  23.020  1.00  0.00     0.048 A 
ATOM      9  C   UNL A   1      32.119  23.805  24.757  1.00  0.00     0.048 A 
ATOM     10  C   UNL A   1      33.198  24.055  22.211  1.00  0.00     0.017 A 
ATOM     11  C   UNL A   1      31.679  24.822  23.912  1.00  0.00     0.017 A 
BRANCH   7  12
ATOM     12  O   UNL A   1      33.627  22.073  25.258  1.00  0.00    -0.449 OA
BRANCH  12  13
ATOM     13  C   UNL A   1      33.957  20.756  24.955  1.00  0.00     0.217 A 
ATOM     14  C   UNL A   1      34.450  16.639  23.728  1.00  0.00     0.088 C 
ATOM     15  C   UNL A   1      34.162  18.037  24.170  1.00  0.00     0.105 A 
ATOM     16  C   UNL A   1      32.924  18.528  24.254  1.00  0.00     0.098 A 
ATOM     17  O   UNL A   1      35.275  18.775  24.503  1.00  0.00    -0.457 OA
ATOM     18  C   UNL A   1      32.743  19.930  24.650  1.00  0.00     0.228 A 
ATOM     19  C   UNL A   1      35.148  20.099  24.919  1.00  0.00     0.180 A 
ATOM     20  O   UNL A   1      31.604  20.388  24.717  1.00  0.00    -0.285 OA
BRANCH  19  21
ATOM     21  C   UNL A   1      36.484  20.616  25.271  1.00  0.00     0.021 A 
ATOM     22  C   UNL A   1      36.627  21.942  25.716  1.00  0.00     0.013 A 
ATOM     23  C   UNL A   1      37.630  19.823  25.114  1.00  0.00     0.013 A 
ATOM     24  C   UNL A   1      37.883  22.443  26.074  1.00  0.00     0.021 A 
ATOM     25  C   UNL A   1      38.891  20.326  25.452  1.00  0.00     0.021 A 
ATOM     26  C   UNL A   1      39.010  21.629  25.941  1.00  0.00     0.067 A 
BRANCH  26  27
ATOM     27  S   UNL A   1      40.593  22.245  26.470  1.00  0.00     0.175 S 
ATOM     28  C   UNL A   1      40.358  24.000  26.518  1.00  0.00     0.163 C 
ATOM     29  O   UNL A   1      40.800  21.793  27.832  1.00  0.00    -0.224 OA
ATOM     30  O   UNL A   1      41.559  21.954  25.423  1.00  0.00    -0.224 OA
ENDBRANCH  26  27
ENDBRANCH  19  21
ENDBRANCH  12  13
ENDBRANCH   7  12
ENDBRANCH   3   6
ENDBRANCH   1   2
BRANCH   1  31
ATOM     31  C   UNL A   1      33.160  28.791  24.352  1.00  0.00     0.042 C 
BRANCH  31  32
ATOM     32  C   UNL A   1      33.965  29.181  25.578  1.00  0.00     0.118 C 
BRANCH  32  33
ATOM     33  N   UNL A   1      33.505  30.411  26.212  1.00  0.00    -0.352 N 
ATOM     34  C   UNL A   1      34.002  31.143  27.268  1.00  0.00     0.251 C 
ATOM     35  H   UNL A   1      32.687  30.787  25.814  1.00  0.00     0.163 HD
ATOM     36  O   UNL A   1      33.342  32.084  27.703  1.00  0.00    -0.269 OA
BRANCH  34  37
ATOM     37  C   UNL A   1      35.286  30.782  27.915  1.00  0.00     0.039 A 
ATOM     38  C   UNL A   1      35.474  29.536  28.504  1.00  0.00     0.014 A 
ATOM     39  C   UNL A   1      36.330  31.713  27.939  1.00  0.00     0.014 A 
ATOM     40  C   UNL A   1      36.574  29.316  29.325  1.00  0.00     0.010 A 
ATOM     41  C   UNL A   1      37.502  31.437  28.656  1.00  0.00     0.010 A 
ATOM     42  C   UNL A   1      37.604  30.265  29.418  1.00  0.00    -0.014 A 
BRANCH  42  43
ATOM     43  C   UNL A   1      38.764  29.997  30.313  1.00  0.00     0.031 A 
ATOM     44  C   UNL A   1      38.850  30.620  31.685  1.00  0.00     0.074 A 
ATOM     45  C   UNL A   1      39.727  29.143  29.908  1.00  0.00     0.049 A 
ATOM     46  N   UNL A   1      39.781  30.474  32.593  1.00  0.00    -0.248 NA
ATOM     47  C   UNL A   1      37.758  31.519  32.098  1.00  0.00     0.031 C 
ATOM     48  C   UNL A   1      39.777  28.488  28.599  1.00  0.00     0.029 A 
ATOM     49  N   UNL A   1      40.841  28.668  30.556  1.00  0.00    -0.354 N 
ATOM     50  C   UNL A   1      39.416  31.292  33.656  1.00  0.00     0.074 A 
ATOM     51  C   UNL A   1      38.176  31.936  33.287  1.00  0.00     0.031 C 
ATOM     52  C   UNL A   1      40.837  27.670  28.554  1.00  0.00     0.029 A 
ATOM     53  C   UNL A   1      41.584  27.793  29.800  1.00  0.00     0.049 A 
ATOM     54  H   UNL A   1      41.085  28.930  31.473  1.00  0.00     0.167 HD
ATOM     55  C   UNL A   1      40.048  31.477  34.839  1.00  0.00     0.034 A 
ATOM     56  C   UNL A   1      42.752  27.172  30.058  1.00  0.00     0.034 A 
ATOM     57  C   UNL A   1      41.250  30.796  35.232  1.00  0.00     0.049 A 
ATOM     58  C   UNL A   1      43.425  27.390  31.379  1.00  0.00     0.074 A 
ATOM     59  C   UNL A   1      41.923  30.884  36.439  1.00  0.00     0.029 A 
ATOM     60  N   UNL A   1      41.959  29.910  34.439  1.00  0.00    -0.354 N 
ATOM     61  N   UNL A   1      43.018  28.110  32.396  1.00  0.00    -0.248 NA
ATOM     62  C   UNL A   1      44.707  26.705  31.599  1.00  0.00     0.031 C 
ATOM     63  C   UNL A   1      43.051  30.064  36.369  1.00  0.00     0.029 A 
ATOM     64  C   UNL A   1      43.066  29.450  35.128  1.00  0.00     0.049 A 
ATOM     65  H   UNL A   1      41.712  29.648  33.523  1.00  0.00     0.167 HD
ATOM     66  C   UNL A   1      43.985  27.957  33.380  1.00  0.00     0.074 A 
ATOM     67  C   UNL A   1      44.990  27.060  32.847  1.00  0.00     0.031 C 
ATOM     68  C   UNL A   1      44.037  28.523  34.608  1.00  0.00     0.034 A 
BRANCH  55  69
ATOM     69  C   UNL A   1      39.440  32.421  35.840  1.00  0.00     0.023 A 
ATOM     70  C   UNL A   1      38.527  31.925  36.791  1.00  0.00     0.012 A 
ATOM     71  C   UNL A   1      39.891  33.752  35.935  1.00  0.00     0.148 A 
ATOM     72  C   UNL A   1      38.074  32.740  37.827  1.00  0.00     0.002 A 
ATOM     73  C   UNL A   1      39.457  34.550  36.986  1.00  0.00     0.091 A 
ATOM     74  F   UNL A   1      40.757  34.199  35.014  1.00  0.00    -0.205 F 
ATOM     75  C   UNL A   1      38.547  34.046  37.932  1.00  0.00     0.022 A 
BRANCH  73  76
ATOM     76  S   UNL A   1      40.047  36.226  37.249  1.00  0.00     0.127 S 
ATOM     77  O   UNL A   1      41.448  35.993  37.597  1.00  0.00    -0.237 OA
ATOM     78  O   UNL A   1      39.838  36.833  35.935  1.00  0.00    -0.237 OA
ATOM     79  O   UNL A   1      39.231  36.780  38.320  1.00  0.00    -0.744 OA
ENDBRANCH  73  76
ENDBRANCH  55  69
BRANCH  56  80
ATOM     80  C   UNL A   1      43.339  26.278  29.026  1.00  0.00     0.023 A 
ATOM     81  C   UNL A   1      43.020  24.908  29.028  1.00  0.00     0.012 A 
ATOM     82  C   UNL A   1      44.141  26.802  27.993  1.00  0.00     0.148 A 
ATOM     83  C   UNL A   1      43.496  24.071  28.016  1.00  0.00     0.002 A 
ATOM     84  C   UNL A   1      44.575  25.974  26.967  1.00  0.00     0.091 A 
ATOM     85  F   UNL A   1      44.428  28.111  28.019  1.00  0.00    -0.205 F 
ATOM     86  C   UNL A   1      44.262  24.605  26.982  1.00  0.00     0.022 A 
BRANCH  84  87
ATOM     87  S   UNL A   1      45.472  26.590  25.539  1.00  0.00     0.127 S 
ATOM     88  O   UNL A   1      46.742  26.995  26.139  1.00  0.00    -0.237 OA
ATOM     89  O   UNL A   1      45.541  25.397  24.695  1.00  0.00    -0.237 OA
ATOM     90  O   UNL A   1      44.663  27.672  24.998  1.00  0.00    -0.744 OA
ENDBRANCH  84  87
ENDBRANCH  56  80
BRANCH  68  91
ATOM     91  C   UNL A   1      45.203  28.191  35.495  1.00  0.00     0.023 A 
ATOM     92  C   UNL A   1      46.339  29.021  35.484  1.00  0.00     0.012 A 
ATOM     93  C   UNL A   1      45.109  27.147  36.435  1.00  0.00     0.148 A 
ATOM     94  C   UNL A   1      47.371  28.815  36.398  1.00  0.00     0.002 A 
ATOM     95  C   UNL A   1      46.124  26.969  37.365  1.00  0.00     0.091 A 
ATOM     96  F   UNL A   1      44.016  26.370  36.419  1.00  0.00    -0.205 F 
ATOM     97  C   UNL A   1      47.257  27.799  37.346  1.00  0.00     0.022 A 
BRANCH  95  98
ATOM     98  S   UNL A   1      46.040  25.735  38.668  1.00  0.00     0.127 S 
ATOM     99  O   UNL A   1      44.785  26.088  39.331  1.00  0.00    -0.237 OA
ATOM    100  O   UNL A   1      46.000  24.486  37.908  1.00  0.00    -0.237 OA
ATOM    101  O   UNL A   1      47.237  25.919  39.478  1.00  0.00    -0.744 OA
ENDBRANCH  95  98
ENDBRANCH  68  91
ENDBRANCH  42  43
ENDBRANCH  34  37
ENDBRANCH  32  33
ENDBRANCH  31  32
ENDBRANCH   1  31
TORSDOF 17
ENDMDL
MODEL 3
REMARK VINA RESULT:     -12.5      0.259      7.409
REMARK SMILES Cc1cc(=O)c(Oc2ccc(C(=O)NCCCNC(=O)c3ccc(-c4c5nc(c(-c6cccc(S(=O)(=O)[O-])c6F)c6ccc([nH]6)c(-c6cccc(S(=O)(=O)[O-])c6F)c6nc(c(-c7cccc(S(=O)(=O)[O-])c7F)c7ccc4[nH]7)C=C6)C=C5)cc3)cc2)c(-c2ccc(S(C)(=O)=O)cc2)o1
REMARK SMILES IDX 15 1 14 2 12 3 13 4 11 6 8 7 9 8 85 9 10 10 84 11 7 12 6 13
REMARK SMILES IDX 1 14 2 15 3 16 97 17 4 18 86 19 5 20 87 21 88 22 96 23 89 24
REMARK SMILES IDX 95 25 90 26 91 27 92 28 93 29 94 30 16 31 17 32 18 33 19 34
REMARK SMILES IDX 20 36 21 37 22 38 83 39 23 40 82 41 24 42 25 43 26 44 76 45
REMARK SMILES IDX 27 46 81 47 75 48 77 49 28 50 80 51 74 52 73 53 29 55 61 56
REMARK SMILES IDX 41 57 60 58 42 59 45 60 59 61 78 62 43 63 44 64 58 66 79 67
REMARK SMILES IDX 46 68 30 69 31 70 39 71 32 72 34 73 40 74 33 75 35 76 36 77
REMARK SMILES IDX 37 78 38 79 62 80 63 81 71 82 64 83 66 84 72 85 65 86 67 87
REMARK SMILES IDX 68 88 69 89 70 90 47 91 48 92 56 93 49 94 51 95 57 96 50 97
REMARK SMILES IDX 52 98 53 99 54 100 55 101
REMARK H PARENT 14 5 18 35 77 54 45 65
REMARK Flexibility Score: inf
ROOT
ATOM      1  C   UNL A   1      32.179  29.973  25.970  1.00  0.00     0.118 C 
ENDROOT
BRANCH   1   2
ATOM      2  N   UNL A   1      31.159  29.346  25.144  1.00  0.00    -0.352 N 
ATOM      3  C   UNL A   1      31.110  28.132  24.498  1.00  0.00     0.251 C 
ATOM      4  O   UNL A   1      30.037  27.765  24.018  1.00  0.00    -0.269 OA
ATOM      5  H   UNL A   1      30.350  29.894  25.024  1.00  0.00     0.163 HD
BRANCH   3   6
ATOM      6  C   UNL A   1      32.324  27.315  24.238  1.00  0.00     0.040 A 
ATOM      7  C   UNL A   1      34.084  25.224  23.747  1.00  0.00     0.127 A 
ATOM      8  C   UNL A   1      33.728  25.510  25.058  1.00  0.00     0.048 A 
ATOM      9  C   UNL A   1      33.784  26.129  22.732  1.00  0.00     0.048 A 
ATOM     10  C   UNL A   1      32.807  26.532  25.298  1.00  0.00     0.017 A 
ATOM     11  C   UNL A   1      32.942  27.208  22.993  1.00  0.00     0.017 A 
BRANCH   7  12
ATOM     12  O   UNL A   1      34.794  24.114  23.401  1.00  0.00    -0.449 OA
BRANCH  12  13
ATOM     13  C   UNL A   1      34.430  22.825  23.774  1.00  0.00     0.217 A 
ATOM     14  C   UNL A   1      32.870  18.858  24.510  1.00  0.00     0.088 C 
ATOM     15  C   UNL A   1      33.295  20.266  24.238  1.00  0.00     0.105 A 
ATOM     16  C   UNL A   1      32.488  21.169  23.678  1.00  0.00     0.098 A 
ATOM     17  O   UNL A   1      34.579  20.564  24.631  1.00  0.00    -0.457 OA
ATOM     18  C   UNL A   1      33.010  22.513  23.404  1.00  0.00     0.228 A 
ATOM     19  C   UNL A   1      35.105  21.838  24.424  1.00  0.00     0.180 A 
ATOM     20  O   UNL A   1      32.273  23.342  22.877  1.00  0.00    -0.285 OA
BRANCH  19  21
ATOM     21  C   UNL A   1      36.463  21.889  24.998  1.00  0.00     0.021 A 
ATOM     22  C   UNL A   1      37.291  20.754  24.942  1.00  0.00     0.013 A 
ATOM     23  C   UNL A   1      36.927  23.039  25.655  1.00  0.00     0.013 A 
ATOM     24  C   UNL A   1      38.589  20.791  25.462  1.00  0.00     0.021 A 
ATOM     25  C   UNL A   1      38.217  23.074  26.193  1.00  0.00     0.021 A 
ATOM     26  C   UNL A   1      39.046  21.955  26.084  1.00  0.00     0.067 A 
BRANCH  26  27
ATOM     27  S   UNL A   1      40.723  22.023  26.675  1.00  0.00     0.175 S 
ATOM     28  C   UNL A   1      41.281  20.348  26.525  1.00  0.00     0.163 C 
ATOM     29  O   UNL A   1      41.480  22.824  25.734  1.00  0.00    -0.224 OA
ATOM     30  O   UNL A   1      40.686  22.354  28.090  1.00  0.00    -0.224 OA
ENDBRANCH  26  27
ENDBRANCH  19  21
ENDBRANCH  12  13
ENDBRANCH   7  12
ENDBRANCH   3   6
ENDBRANCH   1   2
BRANCH   1  31
ATOM     31  C   UNL A   1      31.919  31.421  26.355  1.00  0.00     0.042 C 
BRANCH  31  32
ATOM     32  C   UNL A   1      32.937  32.051  27.288  1.00  0.00     0.118 C 
BRANCH  32  33
ATOM     33  N   UNL A   1      32.691  33.464  27.550  1.00  0.00    -0.352 N 
ATOM     34  C   UNL A   1      33.248  34.342  28.455  1.00  0.00     0.251 C 
ATOM     35  H   UNL A   1      32.000  33.866  26.975  1.00  0.00     0.163 HD
ATOM     36  O   UNL A   1      32.763  35.465  28.568  1.00  0.00    -0.269 OA
BRANCH  34  37
ATOM     37  C   UNL A   1      34.377  33.935  29.323  1.00  0.00     0.039 A 
ATOM     38  C   UNL A   1      35.690  34.266  29.006  1.00  0.00     0.014 A 
ATOM     39  C   UNL A   1      34.120  33.199  30.486  1.00  0.00     0.014 A 
ATOM     40  C   UNL A   1      36.741  33.658  29.682  1.00  0.00     0.010 A 
ATOM     41  C   UNL A   1      35.183  32.697  31.249  1.00  0.00     0.010 A 
ATOM     42  C   UNL A   1      36.505  32.860  30.812  1.00  0.00    -0.014 A 
BRANCH  42  43
ATOM     43  C   UNL A   1      37.656  32.219  31.507  1.00  0.00     0.031 A 
ATOM     44  C   UNL A   1      38.435  31.101  30.858  1.00  0.00     0.074 A 
ATOM     45  C   UNL A   1      38.040  32.683  32.715  1.00  0.00     0.049 A 
ATOM     46  N   UNL A   1      39.472  30.451  31.320  1.00  0.00    -0.248 NA
ATOM     47  C   UNL A   1      38.001  30.650  29.524  1.00  0.00     0.031 C 
ATOM     48  C   UNL A   1      37.363  33.745  33.464  1.00  0.00     0.029 A 
ATOM     49  N   UNL A   1      39.095  32.333  33.521  1.00  0.00    -0.354 N 
ATOM     50  C   UNL A   1      39.784  29.491  30.364  1.00  0.00     0.074 A 
ATOM     51  C   UNL A   1      38.827  29.639  29.290  1.00  0.00     0.031 C 
ATOM     52  C   UNL A   1      38.038  33.987  34.595  1.00  0.00     0.029 A 
ATOM     53  C   UNL A   1      39.154  33.053  34.691  1.00  0.00     0.049 A 
ATOM     54  H   UNL A   1      39.745  31.633  33.285  1.00  0.00     0.167 HD
ATOM     55  C   UNL A   1      40.786  28.582  30.371  1.00  0.00     0.034 A 
ATOM     56  C   UNL A   1      39.991  32.964  35.744  1.00  0.00     0.034 A 
ATOM     57  C   UNL A   1      41.773  28.469  31.409  1.00  0.00     0.049 A 
ATOM     58  C   UNL A   1      41.096  31.952  35.721  1.00  0.00     0.074 A 
ATOM     59  C   UNL A   1      42.858  27.611  31.465  1.00  0.00     0.029 A 
ATOM     60  N   UNL A   1      41.800  29.228  32.567  1.00  0.00    -0.354 N 
ATOM     61  N   UNL A   1      41.414  31.108  34.770  1.00  0.00    -0.248 NA
ATOM     62  C   UNL A   1      41.965  31.883  36.904  1.00  0.00     0.031 C 
ATOM     63  C   UNL A   1      43.531  27.838  32.667  1.00  0.00     0.029 A 
ATOM     64  C   UNL A   1      42.878  28.852  33.347  1.00  0.00     0.049 A 
ATOM     65  H   UNL A   1      41.149  29.929  32.800  1.00  0.00     0.167 HD
ATOM     66  C   UNL A   1      42.526  30.417  35.232  1.00  0.00     0.074 A 
ATOM     67  C   UNL A   1      42.840  30.952  36.540  1.00  0.00     0.031 C 
ATOM     68  C   UNL A   1      43.211  29.420  34.627  1.00  0.00     0.034 A 
BRANCH  55  69
ATOM     69  C   UNL A   1      40.919  27.647  29.200  1.00  0.00     0.023 A 
ATOM     70  C   UNL A   1      40.069  26.528  29.110  1.00  0.00     0.012 A 
ATOM     71  C   UNL A   1      41.771  27.964  28.123  1.00  0.00     0.148 A 
ATOM     72  C   UNL A   1      40.061  25.738  27.961  1.00  0.00     0.002 A 
ATOM     73  C   UNL A   1      41.737  27.188  26.971  1.00  0.00     0.091 A 
ATOM     74  F   UNL A   1      42.572  29.032  28.238  1.00  0.00    -0.205 F 
ATOM     75  C   UNL A   1      40.883  26.075  26.889  1.00  0.00     0.022 A 
BRANCH  73  76
ATOM     76  S   UNL A   1      42.712  27.567  25.511  1.00  0.00     0.127 S 
ATOM     77  O   UNL A   1      44.063  27.632  26.068  1.00  0.00    -0.237 OA
ATOM     78  O   UNL A   1      42.457  26.402  24.663  1.00  0.00    -0.237 OA
ATOM     79  O   UNL A   1      42.198  28.828  24.995  1.00  0.00    -0.744 OA
ENDBRANCH  73  76
ENDBRANCH  55  69
BRANCH  56  80
ATOM     80  C   UNL A   1      39.800  33.881  36.898  1.00  0.00     0.023 A 
ATOM     81  C   UNL A   1      40.130  35.242  36.769  1.00  0.00     0.012 A 
ATOM     82  C   UNL A   1      39.213  33.419  38.092  1.00  0.00     0.148 A 
ATOM     83  C   UNL A   1      39.879  36.131  37.815  1.00  0.00     0.002 A 
ATOM     84  C   UNL A   1      38.926  34.316  39.112  1.00  0.00     0.091 A 
ATOM     85  F   UNL A   1      38.911  32.117  38.186  1.00  0.00    -0.205 F 
ATOM     86  C   UNL A   1      39.267  35.671  38.980  1.00  0.00     0.022 A 
BRANCH  84  87
ATOM     87  S   UNL A   1      38.043  33.838  40.601  1.00  0.00     0.127 S 
ATOM     88  O   UNL A   1      36.837  33.228  40.048  1.00  0.00    -0.237 OA
ATOM     89  O   UNL A   1      38.984  32.900  41.215  1.00  0.00    -0.237 OA
ATOM     90  O   UNL A   1      37.835  35.068  41.352  1.00  0.00    -0.744 OA
ENDBRANCH  84  87
ENDBRANCH  56  80
BRANCH  68  91
ATOM     91  C   UNL A   1      44.392  28.831  35.345  1.00  0.00     0.023 A 
ATOM     92  C   UNL A   1      45.678  29.347  35.099  1.00  0.00     0.012 A 
ATOM     93  C   UNL A   1      44.205  27.873  36.360  1.00  0.00     0.148 A 
ATOM     94  C   UNL A   1      46.766  28.914  35.856  1.00  0.00     0.002 A 
ATOM     95  C   UNL A   1      45.286  27.473  37.132  1.00  0.00     0.091 A 
ATOM     96  F   UNL A   1      42.968  27.398  36.568  1.00  0.00    -0.205 F 
ATOM     97  C   UNL A   1      46.568  27.990  36.879  1.00  0.00     0.022 A 
BRANCH  95  98
ATOM     98  S   UNL A   1      45.122  26.341  38.517  1.00  0.00     0.127 S 
ATOM     99  O   UNL A   1      43.768  26.636  38.984  1.00  0.00    -0.237 OA
ATOM    100  O   UNL A   1      45.276  25.038  37.871  1.00  0.00    -0.237 OA
ATOM    101  O   UNL A   1      46.185  26.688  39.452  1.00  0.00    -0.744 OA
ENDBRANCH  95  98
ENDBRANCH  68  91
ENDBRANCH  42  43
ENDBRANCH  34  37
ENDBRANCH  32  33
ENDBRANCH  31  32
ENDBRANCH   1  31
TORSDOF 17
ENDMDL
