MODEL 1
REMARK VINA RESULT:     -13.9      0.000      0.000
REMARK SMILES Cc1cccc(C(=O)Nc2ccc(C(=O)NNC(=O)c3ccccc3C(=O)NCCCNC(=O)c3ccc(-c4c5nc(c(-c6cccc(S(=O)(=O)[O-])c6F)c6ccc([nH]6)c(-c6cccc(S(=O)(=O)[O-])c6F)c6nc(c(-c7cccc(S(=O)(=O)[O-])c7F)c7ccc4[nH]7)C=C6)C=C5)cc3)cc2)c1
REMARK SMILES IDX 29 1 28 2 26 3 27 4 25 6 20 7 21 8 22 9 24 10 23 11 18 12
REMARK SMILES IDX 17 13 19 15 16 16 14 17 15 18 13 20 10 21 11 22 99 23 12 24
REMARK SMILES IDX 98 25 9 26 7 27 8 28 6 30 1 31 2 32 3 33 100 34 4 35 5 36
REMARK SMILES IDX 30 37 31 38 32 39 33 40 34 42 35 43 36 44 97 45 37 46 96 47
REMARK SMILES IDX 38 48 39 49 40 50 90 51 41 52 95 53 89 54 91 55 42 56 94 57
REMARK SMILES IDX 88 58 87 59 43 61 75 62 55 63 74 64 56 65 59 66 73 67 92 68
REMARK SMILES IDX 57 69 58 70 72 72 93 73 60 74 44 75 45 76 53 77 46 78 48 79
REMARK SMILES IDX 54 80 47 81 49 82 50 83 51 84 52 85 76 86 77 87 85 88 78 89
REMARK SMILES IDX 80 90 86 91 79 92 81 93 82 94 83 95 84 96 61 97 62 98 70 99
REMARK SMILES IDX 63 100 65 101 71 102 64 103 66 104 67 105 68 106 69 107
REMARK H PARENT 28 5 17 14 16 19 9 29 32 41 91 60 59 71
REMARK Flexibility Score: inf
ROOT
ATOM      1  C   UNL A   1      31.794  29.763  25.949  1.00  0.00     0.118 C 
ENDROOT
BRANCH   1   2
ATOM      2  N   UNL A   1      31.378  28.345  25.880  1.00  0.00    -0.352 N 
ATOM      3  C   UNL A   1      30.754  27.607  24.884  1.00  0.00     0.252 C 
ATOM      4  O   UNL A   1      30.805  26.376  24.883  1.00  0.00    -0.269 OA
ATOM      5  H   UNL A   1      31.581  27.829  26.693  1.00  0.00     0.163 HD
BRANCH   3   6
ATOM      6  C   UNL A   1      29.967  28.226  23.797  1.00  0.00     0.052 A 
ATOM      7  C   UNL A   1      30.568  28.899  22.736  1.00  0.00     0.054 A 
ATOM      8  C   UNL A   1      29.806  29.806  21.993  1.00  0.00     0.015 A 
ATOM      9  C   UNL A   1      28.414  29.824  22.144  1.00  0.00     0.001 A 
ATOM     10  C   UNL A   1      28.571  28.107  23.825  1.00  0.00     0.014 A 
ATOM     11  C   UNL A   1      27.792  28.896  22.982  1.00  0.00     0.001 A 
BRANCH   7  12
ATOM     12  C   UNL A   1      31.960  28.542  22.369  1.00  0.00     0.270 C 
ATOM     13  N   UNL A   1      32.061  27.413  21.577  1.00  0.00    -0.263 N 
ATOM     14  H   UNL A   1      31.282  27.139  21.040  1.00  0.00     0.191 HD
ATOM     15  O   UNL A   1      32.909  29.226  22.783  1.00  0.00    -0.267 OA
BRANCH  13  16
ATOM     16  N   UNL A   1      33.243  26.636  21.509  1.00  0.00    -0.263 N 
ATOM     17  C   UNL A   1      33.067  25.289  21.191  1.00  0.00     0.269 C 
ATOM     18  O   UNL A   1      33.235  24.903  20.036  1.00  0.00    -0.267 OA
ATOM     19  H   UNL A   1      34.133  27.023  21.675  1.00  0.00     0.191 HD
BRANCH  17  20
ATOM     20  C   UNL A   1      32.739  24.304  22.278  1.00  0.00     0.041 A 
ATOM     21  C   UNL A   1      32.544  22.312  24.313  1.00  0.00     0.041 A 
ATOM     22  C   UNL A   1      32.831  23.633  24.624  1.00  0.00     0.027 A 
ATOM     23  C   UNL A   1      32.338  21.988  22.976  1.00  0.00     0.027 A 
ATOM     24  C   UNL A   1      32.945  24.611  23.618  1.00  0.00     0.016 A 
ATOM     25  C   UNL A   1      32.424  22.975  21.967  1.00  0.00     0.016 A 
BRANCH  21  26
ATOM     26  N   UNL A   1      32.562  21.302  25.302  1.00  0.00    -0.322 N 
ATOM     27  C   UNL A   1      33.460  20.257  25.463  1.00  0.00     0.255 C 
ATOM     28  O   UNL A   1      33.090  19.129  25.779  1.00  0.00    -0.269 OA
ATOM     29  H   UNL A   1      31.838  21.347  25.967  1.00  0.00     0.170 HD
BRANCH  27  30
ATOM     30  C   UNL A   1      34.926  20.514  25.365  1.00  0.00     0.040 A 
ATOM     31  C   UNL A   1      37.317  23.390  25.882  1.00  0.00     0.044 C 
ATOM     32  C   UNL A   1      36.832  22.007  25.589  1.00  0.00    -0.050 A 
ATOM     33  C   UNL A   1      37.679  21.002  25.126  1.00  0.00     0.003 A 
ATOM     34  C   UNL A   1      35.483  21.720  25.784  1.00  0.00     0.017 A 
ATOM     35  C   UNL A   1      37.161  19.743  24.819  1.00  0.00     0.001 A 
ATOM     36  C   UNL A   1      35.785  19.505  24.909  1.00  0.00     0.014 A 
ENDBRANCH  27  30
ENDBRANCH  21  26
ENDBRANCH  17  20
ENDBRANCH  13  16
ENDBRANCH   7  12
ENDBRANCH   3   6
ENDBRANCH   1   2
BRANCH   1  37
ATOM     37  C   UNL A   1      33.273  30.051  26.264  1.00  0.00     0.042 C 
BRANCH  37  38
ATOM     38  C   UNL A   1      33.740  30.667  27.609  1.00  0.00     0.118 C 
BRANCH  38  39
ATOM     39  N   UNL A   1      34.948  31.492  27.627  1.00  0.00    -0.352 N 
ATOM     40  C   UNL A   1      35.928  31.257  28.620  1.00  0.00     0.251 C 
ATOM     41  H   UNL A   1      35.077  32.202  26.957  1.00  0.00     0.163 HD
ATOM     42  O   UNL A   1      35.979  31.966  29.623  1.00  0.00    -0.269 OA
BRANCH  40  43
ATOM     43  C   UNL A   1      36.916  30.178  28.346  1.00  0.00     0.039 A 
ATOM     44  C   UNL A   1      37.652  29.957  27.174  1.00  0.00     0.014 A 
ATOM     45  C   UNL A   1      37.115  29.324  29.396  1.00  0.00     0.014 A 
ATOM     46  C   UNL A   1      38.754  29.048  27.167  1.00  0.00     0.010 A 
ATOM     47  C   UNL A   1      38.230  28.514  29.388  1.00  0.00     0.010 A 
ATOM     48  C   UNL A   1      39.155  28.403  28.340  1.00  0.00    -0.014 A 
BRANCH  48  49
ATOM     49  C   UNL A   1      40.495  27.762  28.647  1.00  0.00     0.031 A 
ATOM     50  C   UNL A   1      40.864  26.330  28.298  1.00  0.00     0.074 A 
ATOM     51  C   UNL A   1      41.517  28.557  29.099  1.00  0.00     0.049 A 
ATOM     52  N   UNL A   1      42.022  25.814  28.581  1.00  0.00    -0.248 NA
ATOM     53  C   UNL A   1      40.056  25.372  27.542  1.00  0.00     0.031 C 
ATOM     54  C   UNL A   1      42.964  28.321  29.199  1.00  0.00     0.029 A 
ATOM     55  N   UNL A   1      41.432  29.842  29.665  1.00  0.00    -0.354 N 
ATOM     56  C   UNL A   1      42.194  24.609  27.924  1.00  0.00     0.074 A 
ATOM     57  C   UNL A   1      40.918  24.366  27.312  1.00  0.00     0.031 C 
ATOM     58  C   UNL A   1      43.511  29.214  30.050  1.00  0.00     0.029 A 
ATOM     59  C   UNL A   1      42.399  29.915  30.662  1.00  0.00     0.049 A 
ATOM     60  H   UNL A   1      40.806  30.556  29.405  1.00  0.00     0.167 HD
ATOM     61  C   UNL A   1      43.440  24.041  27.918  1.00  0.00     0.034 A 
ATOM     62  C   UNL A   1      41.998  29.892  31.966  1.00  0.00     0.034 A 
ATOM     63  C   UNL A   1      44.287  24.699  28.929  1.00  0.00     0.049 A 
ATOM     64  C   UNL A   1      42.636  28.724  32.662  1.00  0.00     0.074 A 
ATOM     65  C   UNL A   1      45.330  25.606  28.871  1.00  0.00     0.029 A 
ATOM     66  N   UNL A   1      43.915  24.607  30.269  1.00  0.00    -0.354 N 
ATOM     67  N   UNL A   1      43.047  27.657  32.033  1.00  0.00    -0.248 NA
ATOM     68  C   UNL A   1      42.993  28.714  34.072  1.00  0.00     0.031 C 
ATOM     69  C   UNL A   1      45.486  26.161  30.176  1.00  0.00     0.029 A 
ATOM     70  C   UNL A   1      44.575  25.555  31.031  1.00  0.00     0.049 A 
ATOM     71  H   UNL A   1      43.270  23.954  30.626  1.00  0.00     0.167 HD
ATOM     72  C   UNL A   1      43.744  26.855  32.880  1.00  0.00     0.074 A 
ATOM     73  C   UNL A   1      43.679  27.559  34.153  1.00  0.00     0.031 C 
ATOM     74  C   UNL A   1      44.311  25.683  32.464  1.00  0.00     0.034 A 
BRANCH  61  75
ATOM     75  C   UNL A   1      44.025  22.988  26.961  1.00  0.00     0.023 A 
ATOM     76  C   UNL A   1      45.149  23.385  26.184  1.00  0.00     0.012 A 
ATOM     77  C   UNL A   1      43.530  21.690  26.677  1.00  0.00     0.148 A 
ATOM     78  C   UNL A   1      45.710  22.592  25.171  1.00  0.00     0.002 A 
ATOM     79  C   UNL A   1      44.108  20.881  25.679  1.00  0.00     0.091 A 
ATOM     80  F   UNL A   1      42.476  21.223  27.346  1.00  0.00    -0.205 F 
ATOM     81  C   UNL A   1      45.187  21.338  24.916  1.00  0.00     0.022 A 
BRANCH  79  82
ATOM     82  S   UNL A   1      43.521  19.220  25.272  1.00  0.00     0.127 S 
ATOM     83  O   UNL A   1      42.069  19.406  25.246  1.00  0.00    -0.237 OA
ATOM     84  O   UNL A   1      44.120  18.987  23.957  1.00  0.00    -0.237 OA
ATOM     85  O   UNL A   1      44.009  18.341  26.326  1.00  0.00    -0.744 OA
ENDBRANCH  79  82
ENDBRANCH  61  75
BRANCH  62  86
ATOM     86  C   UNL A   1      40.600  30.444  32.129  1.00  0.00     0.023 A 
ATOM     87  C   UNL A   1      39.619  29.535  32.621  1.00  0.00     0.012 A 
ATOM     88  C   UNL A   1      40.354  31.823  32.274  1.00  0.00     0.148 A 
ATOM     89  C   UNL A   1      38.535  29.975  33.388  1.00  0.00     0.002 A 
ATOM     90  C   UNL A   1      39.248  32.256  33.020  1.00  0.00     0.091 A 
ATOM     91  F   UNL A   1      41.217  32.693  31.736  1.00  0.00    -0.205 F 
ATOM     92  C   UNL A   1      38.368  31.335  33.613  1.00  0.00     0.022 A 
BRANCH  90  93
ATOM     93  S   UNL A   1      38.957  34.004  33.337  1.00  0.00     0.127 S 
ATOM     94  O   UNL A   1      38.576  34.481  32.008  1.00  0.00    -0.237 OA
ATOM     95  O   UNL A   1      37.857  33.992  34.306  1.00  0.00    -0.237 OA
ATOM     96  O   UNL A   1      40.215  34.508  33.866  1.00  0.00    -0.744 OA
ENDBRANCH  90  93
ENDBRANCH  62  86
BRANCH  74  97
ATOM     97  C   UNL A   1      44.672  24.559  33.407  1.00  0.00     0.023 A 
ATOM     98  C   UNL A   1      43.852  23.420  33.537  1.00  0.00     0.012 A 
ATOM     99  C   UNL A   1      45.935  24.512  34.044  1.00  0.00     0.148 A 
ATOM    100  C   UNL A   1      44.217  22.326  34.321  1.00  0.00     0.002 A 
ATOM    101  C   UNL A   1      46.347  23.366  34.717  1.00  0.00     0.091 A 
ATOM    102  F   UNL A   1      46.748  25.576  34.008  1.00  0.00    -0.205 F 
ATOM    103  C   UNL A   1      45.477  22.288  34.892  1.00  0.00     0.022 A 
BRANCH 101 104
ATOM    104  S   UNL A   1      48.058  23.150  35.225  1.00  0.00     0.127 S 
ATOM    105  O   UNL A   1      48.185  24.150  36.282  1.00  0.00    -0.237 OA
ATOM    106  O   UNL A   1      48.070  21.762  35.693  1.00  0.00    -0.237 OA
ATOM    107  O   UNL A   1      48.846  23.381  34.023  1.00  0.00    -0.744 OA
ENDBRANCH 101 104
ENDBRANCH  74  97
ENDBRANCH  48  49
ENDBRANCH  40  43
ENDBRANCH  38  39
ENDBRANCH  37  38
ENDBRANCH   1  37
TORSDOF 18
ENDMDL
MODEL 2
REMARK VINA RESULT:     -13.5      2.317      3.396
REMARK SMILES Cc1cccc(C(=O)Nc2ccc(C(=O)NNC(=O)c3ccccc3C(=O)NCCCNC(=O)c3ccc(-c4c5nc(c(-c6cccc(S(=O)(=O)[O-])c6F)c6ccc([nH]6)c(-c6cccc(S(=O)(=O)[O-])c6F)c6nc(c(-c7cccc(S(=O)(=O)[O-])c7F)c7ccc4[nH]7)C=C6)C=C5)cc3)cc2)c1
REMARK SMILES IDX 29 1 28 2 26 3 27 4 25 6 20 7 21 8 22 9 24 10 23 11 18 12
REMARK SMILES IDX 17 13 19 15 16 16 14 17 15 18 13 20 10 21 11 22 99 23 12 24
REMARK SMILES IDX 98 25 9 26 7 27 8 28 6 30 1 31 2 32 3 33 100 34 4 35 5 36
REMARK SMILES IDX 30 37 31 38 32 39 33 40 34 42 35 43 36 44 97 45 37 46 96 47
REMARK SMILES IDX 38 48 39 49 40 50 90 51 41 52 95 53 89 54 91 55 42 56 94 57
REMARK SMILES IDX 88 58 87 59 43 61 75 62 55 63 74 64 56 65 59 66 73 67 92 68
REMARK SMILES IDX 57 69 58 70 72 72 93 73 60 74 44 75 45 76 53 77 46 78 48 79
REMARK SMILES IDX 54 80 47 81 49 82 50 83 51 84 52 85 76 86 77 87 85 88 78 89
REMARK SMILES IDX 80 90 86 91 79 92 81 93 82 94 83 95 84 96 61 97 62 98 70 99
REMARK SMILES IDX 63 100 65 101 71 102 64 103 66 104 67 105 68 106 69 107
REMARK H PARENT 28 5 17 14 16 19 9 29 32 41 91 60 59 71
REMARK Flexibility Score: inf
ROOT
ATOM      1  C   UNL A   1      32.243  28.912  27.011  1.00  0.00     0.118 C 
ENDROOT
BRANCH   1   2
ATOM      2  N   UNL A   1      32.766  28.094  25.896  1.00  0.00    -0.352 N 
ATOM      3  C   UNL A   1      32.300  27.872  24.608  1.00  0.00     0.252 C 
ATOM      4  O   UNL A   1      33.049  27.442  23.728  1.00  0.00    -0.269 OA
ATOM      5  H   UNL A   1      33.602  27.618  26.107  1.00  0.00     0.163 HD
BRANCH   3   6
ATOM      6  C   UNL A   1      30.893  28.091  24.212  1.00  0.00     0.052 A 
ATOM      7  C   UNL A   1      29.940  27.077  24.262  1.00  0.00     0.054 A 
ATOM      8  C   UNL A   1      28.775  27.205  23.499  1.00  0.00     0.015 A 
ATOM      9  C   UNL A   1      28.461  28.442  22.923  1.00  0.00     0.001 A 
ATOM     10  C   UNL A   1      30.504  29.372  23.797  1.00  0.00     0.014 A 
ATOM     11  C   UNL A   1      29.274  29.551  23.167  1.00  0.00     0.001 A 
BRANCH   7  12
ATOM     12  C   UNL A   1      30.151  25.955  25.210  1.00  0.00     0.270 C 
ATOM     13  N   UNL A   1      30.530  24.771  24.604  1.00  0.00    -0.263 N 
ATOM     14  H   UNL A   1      30.959  24.808  23.718  1.00  0.00     0.191 HD
ATOM     15  O   UNL A   1      29.969  26.123  26.426  1.00  0.00    -0.267 OA
BRANCH  13  16
ATOM     16  N   UNL A   1      30.324  23.508  25.210  1.00  0.00    -0.263 N 
ATOM     17  C   UNL A   1      31.150  23.213  26.295  1.00  0.00     0.269 C 
ATOM     18  O   UNL A   1      30.738  23.374  27.442  1.00  0.00    -0.267 OA
ATOM     19  H   UNL A   1      29.640  22.878  24.886  1.00  0.00     0.191 HD
BRANCH  17  20
ATOM     20  C   UNL A   1      32.517  22.634  26.055  1.00  0.00     0.041 A 
ATOM     21  C   UNL A   1      34.909  21.139  25.625  1.00  0.00     0.041 A 
ATOM     22  C   UNL A   1      34.136  21.580  24.562  1.00  0.00     0.027 A 
ATOM     23  C   UNL A   1      34.492  21.462  26.912  1.00  0.00     0.027 A 
ATOM     24  C   UNL A   1      32.946  22.301  24.776  1.00  0.00     0.016 A 
ATOM     25  C   UNL A   1      33.312  22.211  27.127  1.00  0.00     0.016 A 
BRANCH  21  26
ATOM     26  N   UNL A   1      36.029  20.301  25.423  1.00  0.00    -0.322 N 
ATOM     27  C   UNL A   1      37.312  20.642  25.021  1.00  0.00     0.255 C 
ATOM     28  O   UNL A   1      37.945  19.955  24.223  1.00  0.00    -0.269 OA
ATOM     29  H   UNL A   1      35.878  19.342  25.592  1.00  0.00     0.170 HD
BRANCH  27  30
ATOM     30  C   UNL A   1      38.002  21.807  25.646  1.00  0.00     0.040 A 
ATOM     31  C   UNL A   1      41.155  22.485  27.611  1.00  0.00     0.044 C 
ATOM     32  C   UNL A   1      39.876  22.743  26.882  1.00  0.00    -0.050 A 
ATOM     33  C   UNL A   1      39.266  23.996  26.867  1.00  0.00     0.003 A 
ATOM     34  C   UNL A   1      39.277  21.689  26.197  1.00  0.00     0.017 A 
ATOM     35  C   UNL A   1      38.045  24.167  26.212  1.00  0.00     0.001 A 
ATOM     36  C   UNL A   1      37.399  23.071  25.628  1.00  0.00     0.014 A 
ENDBRANCH  27  30
ENDBRANCH  21  26
ENDBRANCH  17  20
ENDBRANCH  13  16
ENDBRANCH   7  12
ENDBRANCH   3   6
ENDBRANCH   1   2
BRANCH   1  37
ATOM     37  C   UNL A   1      32.887  30.291  27.240  1.00  0.00     0.042 C 
BRANCH  37  38
ATOM     38  C   UNL A   1      34.401  30.474  27.522  1.00  0.00     0.118 C 
BRANCH  38  39
ATOM     39  N   UNL A   1      34.896  31.799  27.897  1.00  0.00    -0.352 N 
ATOM     40  C   UNL A   1      34.973  32.144  29.267  1.00  0.00     0.251 C 
ATOM     41  H   UNL A   1      35.171  32.442  27.204  1.00  0.00     0.163 HD
ATOM     42  O   UNL A   1      34.093  32.828  29.787  1.00  0.00    -0.269 OA
BRANCH  40  43
ATOM     43  C   UNL A   1      36.191  31.706  30.002  1.00  0.00     0.039 A 
ATOM     44  C   UNL A   1      36.276  30.808  31.076  1.00  0.00     0.014 A 
ATOM     45  C   UNL A   1      37.353  32.256  29.537  1.00  0.00     0.014 A 
ATOM     46  C   UNL A   1      37.540  30.285  31.488  1.00  0.00     0.010 A 
ATOM     47  C   UNL A   1      38.550  31.678  29.898  1.00  0.00     0.010 A 
ATOM     48  C   UNL A   1      38.709  30.615  30.797  1.00  0.00    -0.014 A 
BRANCH  48  49
ATOM     49  C   UNL A   1      40.034  29.876  30.789  1.00  0.00     0.031 A 
ATOM     50  C   UNL A   1      40.315  28.621  29.981  1.00  0.00     0.074 A 
ATOM     51  C   UNL A   1      41.117  30.462  31.394  1.00  0.00     0.049 A 
ATOM     52  N   UNL A   1      41.463  28.014  30.004  1.00  0.00    -0.248 NA
ATOM     53  C   UNL A   1      39.420  27.973  29.022  1.00  0.00     0.031 C 
ATOM     54  C   UNL A   1      42.555  30.170  31.311  1.00  0.00     0.029 A 
ATOM     55  N   UNL A   1      41.125  31.503  32.341  1.00  0.00    -0.354 N 
ATOM     56  C   UNL A   1      41.540  27.076  28.990  1.00  0.00     0.074 A 
ATOM     57  C   UNL A   1      40.220  27.070  28.426  1.00  0.00     0.031 C 
ATOM     58  C   UNL A   1      43.193  30.733  32.358  1.00  0.00     0.029 A 
ATOM     59  C   UNL A   1      42.153  31.231  33.238  1.00  0.00     0.049 A 
ATOM     60  H   UNL A   1      40.519  32.278  32.364  1.00  0.00     0.167 HD
ATOM     61  C   UNL A   1      42.756  26.508  28.716  1.00  0.00     0.034 A 
ATOM     62  C   UNL A   1      41.830  30.806  34.493  1.00  0.00     0.034 A 
ATOM     63  C   UNL A   1      43.691  26.790  29.820  1.00  0.00     0.049 A 
ATOM     64  C   UNL A   1      42.454  29.461  34.738  1.00  0.00     0.074 A 
ATOM     65  C   UNL A   1      44.769  27.643  29.976  1.00  0.00     0.029 A 
ATOM     66  N   UNL A   1      43.397  26.287  31.086  1.00  0.00    -0.354 N 
ATOM     67  N   UNL A   1      42.777  28.640  33.778  1.00  0.00    -0.248 NA
ATOM     68  C   UNL A   1      42.894  28.996  36.044  1.00  0.00     0.031 C 
ATOM     69  C   UNL A   1      45.029  27.751  31.375  1.00  0.00     0.029 A 
ATOM     70  C   UNL A   1      44.144  26.927  32.059  1.00  0.00     0.049 A 
ATOM     71  H   UNL A   1      42.745  25.570  31.265  1.00  0.00     0.167 HD
ATOM     72  C   UNL A   1      43.486  27.593  34.278  1.00  0.00     0.074 A 
ATOM     73  C   UNL A   1      43.530  27.858  35.709  1.00  0.00     0.031 C 
ATOM     74  C   UNL A   1      43.973  26.601  33.474  1.00  0.00     0.034 A 
BRANCH  61  75
ATOM     75  C   UNL A   1      43.233  25.799  27.437  1.00  0.00     0.023 A 
ATOM     76  C   UNL A   1      42.393  25.908  26.295  1.00  0.00     0.012 A 
ATOM     77  C   UNL A   1      44.365  24.961  27.270  1.00  0.00     0.148 A 
ATOM     78  C   UNL A   1      42.615  25.208  25.099  1.00  0.00     0.002 A 
ATOM     79  C   UNL A   1      44.605  24.278  26.061  1.00  0.00     0.091 A 
ATOM     80  F   UNL A   1      45.215  24.786  28.282  1.00  0.00    -0.205 F 
ATOM     81  C   UNL A   1      43.723  24.389  24.982  1.00  0.00     0.022 A 
BRANCH  79  82
ATOM     82  S   UNL A   1      46.029  23.197  25.788  1.00  0.00     0.127 S 
ATOM     83  O   UNL A   1      47.107  23.938  26.445  1.00  0.00    -0.237 OA
ATOM     84  O   UNL A   1      45.632  21.972  26.482  1.00  0.00    -0.237 OA
ATOM     85  O   UNL A   1      46.170  23.059  24.345  1.00  0.00    -0.744 OA
ENDBRANCH  79  82
ENDBRANCH  61  75
BRANCH  62  86
ATOM     86  C   UNL A   1      40.472  31.312  34.922  1.00  0.00     0.023 A 
ATOM     87  C   UNL A   1      39.357  30.502  34.558  1.00  0.00     0.012 A 
ATOM     88  C   UNL A   1      40.313  32.209  35.995  1.00  0.00     0.148 A 
ATOM     89  C   UNL A   1      38.200  30.456  35.344  1.00  0.00     0.002 A 
ATOM     90  C   UNL A   1      39.139  32.176  36.760  1.00  0.00     0.091 A 
ATOM     91  F   UNL A   1      41.317  33.044  36.293  1.00  0.00    -0.205 F 
ATOM     92  C   UNL A   1      38.106  31.271  36.464  1.00  0.00     0.022 A 
BRANCH  90  93
ATOM     93  S   UNL A   1      38.937  33.218  38.215  1.00  0.00     0.127 S 
ATOM     94  O   UNL A   1      37.565  32.903  38.610  1.00  0.00    -0.237 OA
ATOM     95  O   UNL A   1      39.957  32.709  39.137  1.00  0.00    -0.237 OA
ATOM     96  O   UNL A   1      39.177  34.574  37.746  1.00  0.00    -0.744 OA
ENDBRANCH  90  93
ENDBRANCH  62  86
BRANCH  74  97
ATOM     97  C   UNL A   1      44.337  25.227  33.986  1.00  0.00     0.023 A 
ATOM     98  C   UNL A   1      43.514  24.110  33.739  1.00  0.00     0.012 A 
ATOM     99  C   UNL A   1      45.606  24.969  34.559  1.00  0.00     0.148 A 
ATOM    100  C   UNL A   1      43.881  22.817  34.112  1.00  0.00     0.002 A 
ATOM    101  C   UNL A   1      46.020  23.664  34.809  1.00  0.00     0.091 A 
ATOM    102  F   UNL A   1      46.424  25.984  34.870  1.00  0.00    -0.205 F 
ATOM    103  C   UNL A   1      45.146  22.590  34.625  1.00  0.00     0.022 A 
BRANCH 101 104
ATOM    104  S   UNL A   1      47.734  23.290  35.199  1.00  0.00     0.127 S 
ATOM    105  O   UNL A   1      47.695  21.838  35.359  1.00  0.00    -0.237 OA
ATOM    106  O   UNL A   1      48.433  23.753  33.997  1.00  0.00    -0.237 OA
ATOM    107  O   UNL A   1      48.032  24.063  36.396  1.00  0.00    -0.744 OA
ENDBRANCH 101 104
ENDBRANCH  74  97
ENDBRANCH  48  49
ENDBRANCH  40  43
ENDBRANCH  38  39
ENDBRANCH  37  38
ENDBRANCH   1  37
TORSDOF 18
ENDMDL
MODEL 3
REMARK VINA RESULT:     -13.4      1.788      2.481
REMARK SMILES Cc1cccc(C(=O)Nc2ccc(C(=O)NNC(=O)c3ccccc3C(=O)NCCCNC(=O)c3ccc(-c4c5nc(c(-c6cccc(S(=O)(=O)[O-])c6F)c6ccc([nH]6)c(-c6cccc(S(=O)(=O)[O-])c6F)c6nc(c(-c7cccc(S(=O)(=O)[O-])c7F)c7ccc4[nH]7)C=C6)C=C5)cc3)cc2)c1
REMARK SMILES IDX 29 1 28 2 26 3 27 4 25 6 20 7 21 8 22 9 24 10 23 11 18 12
REMARK SMILES IDX 17 13 19 15 16 16 14 17 15 18 13 20 10 21 11 22 99 23 12 24
REMARK SMILES IDX 98 25 9 26 7 27 8 28 6 30 1 31 2 32 3 33 100 34 4 35 5 36
REMARK SMILES IDX 30 37 31 38 32 39 33 40 34 42 35 43 36 44 97 45 37 46 96 47
REMARK SMILES IDX 38 48 39 49 40 50 90 51 41 52 95 53 89 54 91 55 42 56 94 57
REMARK SMILES IDX 88 58 87 59 43 61 75 62 55 63 74 64 56 65 59 66 73 67 92 68
REMARK SMILES IDX 57 69 58 70 72 72 93 73 60 74 44 75 45 76 53 77 46 78 48 79
REMARK SMILES IDX 54 80 47 81 49 82 50 83 51 84 52 85 76 86 77 87 85 88 78 89
REMARK SMILES IDX 80 90 86 91 79 92 81 93 82 94 83 95 84 96 61 97 62 98 70 99
REMARK SMILES IDX 63 100 65 101 71 102 64 103 66 104 67 105 68 106 69 107
REMARK H PARENT 28 5 17 14 16 19 9 29 32 41 91 60 59 71
REMARK Flexibility Score: inf
ROOT
ATOM      1  C   UNL A   1      32.665  30.889  27.009  1.00  0.00     0.118 C 
ENDROOT
BRANCH   1   2
ATOM      2  N   UNL A   1      31.795  29.725  27.278  1.00  0.00    -0.352 N 
ATOM      3  C   UNL A   1      31.525  28.577  26.546  1.00  0.00     0.252 C 
ATOM      4  O   UNL A   1      31.050  27.577  27.087  1.00  0.00    -0.269 OA
ATOM      5  H   UNL A   1      31.317  29.772  28.137  1.00  0.00     0.163 HD
BRANCH   3   6
ATOM      6  C   UNL A   1      31.746  28.482  25.088  1.00  0.00     0.052 A 
ATOM      7  C   UNL A   1      32.972  28.104  24.545  1.00  0.00     0.054 A 
ATOM      8  C   UNL A   1      33.255  28.436  23.217  1.00  0.00     0.015 A 
ATOM      9  C   UNL A   1      32.224  28.889  22.385  1.00  0.00     0.001 A 
ATOM     10  C   UNL A   1      30.677  28.759  24.226  1.00  0.00     0.014 A 
ATOM     11  C   UNL A   1      30.914  28.945  22.865  1.00  0.00     0.001 A 
BRANCH   7  12
ATOM     12  C   UNL A   1      33.881  27.267  25.367  1.00  0.00     0.270 C 
ATOM     13  N   UNL A   1      34.061  25.986  24.878  1.00  0.00    -0.263 N 
ATOM     14  H   UNL A   1      33.900  25.816  23.921  1.00  0.00     0.191 HD
ATOM     15  O   UNL A   1      34.389  27.728  26.401  1.00  0.00    -0.267 OA
BRANCH  13  16
ATOM     16  N   UNL A   1      34.468  24.909  25.702  1.00  0.00    -0.263 N 
ATOM     17  C   UNL A   1      34.935  23.776  25.035  1.00  0.00     0.269 C 
ATOM     18  O   UNL A   1      36.144  23.596  24.902  1.00  0.00    -0.267 OA
ATOM     19  H   UNL A   1      34.424  24.957  26.684  1.00  0.00     0.191 HD
BRANCH  17  20
ATOM     20  C   UNL A   1      33.957  22.747  24.540  1.00  0.00     0.041 A 
ATOM     21  C   UNL A   1      32.449  20.618  23.383  1.00  0.00     0.041 A 
ATOM     22  C   UNL A   1      33.033  20.488  24.633  1.00  0.00     0.027 A 
ATOM     23  C   UNL A   1      32.606  21.828  22.713  1.00  0.00     0.027 A 
ATOM     24  C   UNL A   1      33.793  21.532  25.195  1.00  0.00     0.016 A 
ATOM     25  C   UNL A   1      33.345  22.887  23.289  1.00  0.00     0.016 A 
BRANCH  21  26
ATOM     26  N   UNL A   1      31.801  19.530  22.755  1.00  0.00    -0.322 N 
ATOM     27  C   UNL A   1      32.301  18.269  22.462  1.00  0.00     0.255 C 
ATOM     28  O   UNL A   1      32.049  17.703  21.402  1.00  0.00    -0.269 OA
ATOM     29  H   UNL A   1      30.866  19.688  22.490  1.00  0.00     0.170 HD
BRANCH  27  30
ATOM     30  C   UNL A   1      33.075  17.518  23.493  1.00  0.00     0.040 A 
ATOM     31  C   UNL A   1      32.396  15.079  26.294  1.00  0.00     0.044 C 
ATOM     32  C   UNL A   1      33.160  15.943  25.344  1.00  0.00    -0.050 A 
ATOM     33  C   UNL A   1      34.533  16.152  25.463  1.00  0.00     0.003 A 
ATOM     34  C   UNL A   1      32.468  16.563  24.306  1.00  0.00     0.017 A 
ATOM     35  C   UNL A   1      35.186  17.011  24.578  1.00  0.00     0.001 A 
ATOM     36  C   UNL A   1      34.457  17.715  23.614  1.00  0.00     0.014 A 
ENDBRANCH  27  30
ENDBRANCH  21  26
ENDBRANCH  17  20
ENDBRANCH  13  16
ENDBRANCH   7  12
ENDBRANCH   3   6
ENDBRANCH   1   2
BRANCH   1  37
ATOM     37  C   UNL A   1      33.961  31.010  27.831  1.00  0.00     0.042 C 
BRANCH  37  38
ATOM     38  C   UNL A   1      34.781  32.323  27.918  1.00  0.00     0.118 C 
BRANCH  38  39
ATOM     39  N   UNL A   1      35.788  32.460  28.972  1.00  0.00    -0.352 N 
ATOM     40  C   UNL A   1      36.048  31.361  29.823  1.00  0.00     0.251 C 
ATOM     41  H   UNL A   1      36.276  33.307  29.087  1.00  0.00     0.163 HD
ATOM     42  O   UNL A   1      35.544  31.308  30.943  1.00  0.00    -0.269 OA
BRANCH  40  43
ATOM     43  C   UNL A   1      37.007  30.337  29.324  1.00  0.00     0.039 A 
ATOM     44  C   UNL A   1      37.777  30.373  28.153  1.00  0.00     0.014 A 
ATOM     45  C   UNL A   1      37.138  29.249  30.142  1.00  0.00     0.014 A 
ATOM     46  C   UNL A   1      38.846  29.446  27.957  1.00  0.00     0.010 A 
ATOM     47  C   UNL A   1      38.223  28.418  29.969  1.00  0.00     0.010 A 
ATOM     48  C   UNL A   1      39.181  28.522  28.951  1.00  0.00    -0.014 A 
BRANCH  48  49
ATOM     49  C   UNL A   1      40.485  27.769  29.130  1.00  0.00     0.031 A 
ATOM     50  C   UNL A   1      40.690  26.305  28.779  1.00  0.00     0.074 A 
ATOM     51  C   UNL A   1      41.615  28.477  29.451  1.00  0.00     0.049 A 
ATOM     52  N   UNL A   1      41.822  25.693  28.951  1.00  0.00    -0.248 NA
ATOM     53  C   UNL A   1      39.725  25.411  28.138  1.00  0.00     0.031 C 
ATOM     54  C   UNL A   1      43.039  28.115  29.403  1.00  0.00     0.029 A 
ATOM     55  N   UNL A   1      41.704  29.774  29.990  1.00  0.00    -0.354 N 
ATOM     56  C   UNL A   1      41.818  24.467  28.310  1.00  0.00     0.074 A 
ATOM     57  C   UNL A   1      40.467  24.328  27.843  1.00  0.00     0.031 C 
ATOM     58  C   UNL A   1      43.750  28.970  30.168  1.00  0.00     0.029 A 
ATOM     59  C   UNL A   1      42.775  29.776  30.877  1.00  0.00     0.049 A 
ATOM     60  H   UNL A   1      41.117  30.537  29.780  1.00  0.00     0.167 HD
ATOM     61  C   UNL A   1      43.002  23.791  28.186  1.00  0.00     0.034 A 
ATOM     62  C   UNL A   1      42.516  29.809  32.216  1.00  0.00     0.034 A 
ATOM     63  C   UNL A   1      44.007  24.387  29.085  1.00  0.00     0.049 A 
ATOM     64  C   UNL A   1      43.122  28.600  32.869  1.00  0.00     0.074 A 
ATOM     65  C   UNL A   1      45.112  25.197  28.894  1.00  0.00     0.029 A 
ATOM     66  N   UNL A   1      43.775  24.349  30.458  1.00  0.00    -0.354 N 
ATOM     67  N   UNL A   1      43.369  27.492  32.227  1.00  0.00    -0.248 NA
ATOM     68  C   UNL A   1      43.626  28.580  34.234  1.00  0.00     0.031 C 
ATOM     69  C   UNL A   1      45.455  25.756  30.161  1.00  0.00     0.029 A 
ATOM     70  C   UNL A   1      44.593  25.246  31.123  1.00  0.00     0.049 A 
ATOM     71  H   UNL A   1      43.118  23.762  30.899  1.00  0.00     0.167 HD
ATOM     72  C   UNL A   1      44.081  26.644  33.016  1.00  0.00     0.074 A 
ATOM     73  C   UNL A   1      44.215  27.371  34.271  1.00  0.00     0.031 C 
ATOM     74  C   UNL A   1      44.497  25.420  32.571  1.00  0.00     0.034 A 
BRANCH  61  75
ATOM     75  C   UNL A   1      43.387  22.675  27.199  1.00  0.00     0.023 A 
ATOM     76  C   UNL A   1      44.287  23.028  26.156  1.00  0.00     0.012 A 
ATOM     77  C   UNL A   1      42.885  21.350  27.134  1.00  0.00     0.148 A 
ATOM     78  C   UNL A   1      44.627  22.166  25.101  1.00  0.00     0.002 A 
ATOM     79  C   UNL A   1      43.244  20.475  26.091  1.00  0.00     0.091 A 
ATOM     80  F   UNL A   1      42.029  20.920  28.062  1.00  0.00    -0.205 F 
ATOM     81  C   UNL A   1      44.103  20.887  25.067  1.00  0.00     0.022 A 
BRANCH  79  82
ATOM     82  S   UNL A   1      42.637  18.777  25.953  1.00  0.00     0.127 S 
ATOM     83  O   UNL A   1      43.395  18.273  24.807  1.00  0.00    -0.237 OA
ATOM     84  O   UNL A   1      43.032  18.196  27.236  1.00  0.00    -0.237 OA
ATOM     85  O   UNL A   1      41.199  18.870  25.745  1.00  0.00    -0.744 OA
ENDBRANCH  79  82
ENDBRANCH  61  75
BRANCH  62  86
ATOM     86  C   UNL A   1      41.198  30.486  32.512  1.00  0.00     0.023 A 
ATOM     87  C   UNL A   1      40.082  29.623  32.719  1.00  0.00     0.012 A 
ATOM     88  C   UNL A   1      41.128  31.791  33.037  1.00  0.00     0.148 A 
ATOM     89  C   UNL A   1      39.028  29.982  33.566  1.00  0.00     0.002 A 
ATOM     90  C   UNL A   1      40.053  32.151  33.861  1.00  0.00     0.091 A 
ATOM     91  F   UNL A   1      42.125  32.645  32.775  1.00  0.00    -0.205 F 
ATOM     92  C   UNL A   1      39.031  31.236  34.162  1.00  0.00     0.022 A 
BRANCH  90  93
ATOM     93  S   UNL A   1      39.980  33.767  34.654  1.00  0.00     0.127 S 
ATOM     94  O   UNL A   1      39.937  34.657  33.496  1.00  0.00    -0.237 OA
ATOM     95  O   UNL A   1      38.728  33.712  35.414  1.00  0.00    -0.237 OA
ATOM     96  O   UNL A   1      41.178  33.840  35.478  1.00  0.00    -0.744 OA
ENDBRANCH  90  93
ENDBRANCH  62  86
BRANCH  74  97
ATOM     97  C   UNL A   1      44.858  24.283  33.499  1.00  0.00     0.023 A 
ATOM     98  C   UNL A   1      44.036  23.145  33.618  1.00  0.00     0.012 A 
ATOM     99  C   UNL A   1      46.124  24.224  34.131  1.00  0.00     0.148 A 
ATOM    100  C   UNL A   1      44.400  22.040  34.387  1.00  0.00     0.002 A 
ATOM    101  C   UNL A   1      46.536  23.069  34.787  1.00  0.00     0.091 A 
ATOM    102  F   UNL A   1      46.940  25.287  34.105  1.00  0.00    -0.205 F 
ATOM    103  C   UNL A   1      45.663  21.991  34.952  1.00  0.00     0.022 A 
BRANCH 101 104
ATOM    104  S   UNL A   1      48.247  22.843  35.285  1.00  0.00     0.127 S 
ATOM    105  O   UNL A   1      48.393  23.855  36.328  1.00  0.00    -0.237 OA
ATOM    106  O   UNL A   1      48.249  21.461  35.772  1.00  0.00    -0.237 OA
ATOM    107  O   UNL A   1      49.029  23.048  34.074  1.00  0.00    -0.744 OA
ENDBRANCH 101 104
ENDBRANCH  74  97
ENDBRANCH  48  49
ENDBRANCH  40  43
ENDBRANCH  38  39
ENDBRANCH  37  38
ENDBRANCH   1  37
TORSDOF 18
ENDMDL
