MODEL 1
REMARK VINA RESULT:     -12.0      0.000      0.000
REMARK SMILES CC[C@@](C)([NH3+])C(=O)N1CC[NH+]([C@H](C)C(=O)NCCCNC(=O)c2ccc(-c3c4nc(c(-c5cccc(S(=O)(=O)[O-])c5F)c5ccc([nH]5)c(-c5cccc(S(=O)(=O)[O-])c5F)c5nc(c(-c6cccc(S(=O)(=O)[O-])c6F)c6ccc3[nH]6)C=C5)C=C4)cc2)CC1
REMARK SMILES IDX 18 1 17 2 16 3 14 4 15 5 12 7 13 8 11 9 6 10 7 11 8 12 9 13
REMARK SMILES IDX 87 14 10 15 86 16 3 18 4 19 2 20 1 21 5 22 19 26 20 27 21 28
REMARK SMILES IDX 22 30 23 31 24 32 85 33 25 34 84 35 26 36 27 37 28 38 78 39
REMARK SMILES IDX 29 40 83 41 77 42 79 43 30 44 82 45 76 46 75 47 31 49 63 50
REMARK SMILES IDX 43 51 62 52 44 53 47 54 61 55 80 56 45 57 46 58 60 60 81 61
REMARK SMILES IDX 48 62 32 63 33 64 41 65 34 66 36 67 42 68 35 69 37 70 38 71
REMARK SMILES IDX 39 72 40 73 64 74 65 75 73 76 66 77 68 78 74 79 67 80 69 81
REMARK SMILES IDX 70 82 71 83 72 84 49 85 50 86 58 87 51 88 53 89 59 90 52 91
REMARK SMILES IDX 54 92 55 93 56 94 57 95
REMARK H PARENT 16 6 11 17 5 23 5 24 5 25 20 29 79 48 47 59
REMARK Flexibility Score: inf
ROOT
ATOM      1  C   UNL A   1      36.316  19.853  24.949  1.00  0.00     0.042 C 
ENDROOT
BRANCH   1   2
ATOM      2  C   UNL A   1      35.049  20.687  24.980  1.00  0.00     0.118 C 
BRANCH   2   3
ATOM      3  N   UNL A   1      34.708  21.207  26.293  1.00  0.00    -0.351 N 
ATOM      4  C   UNL A   1      34.324  22.457  26.687  1.00  0.00     0.278 C 
ATOM      5  O   UNL A   1      33.865  22.557  27.831  1.00  0.00    -0.268 OA
ATOM      6  H   UNL A   1      34.764  20.547  27.022  1.00  0.00     0.163 HD
BRANCH   4   7
ATOM      7  C   UNL A   1      34.458  23.705  25.779  1.00  0.00     0.271 C 
ATOM      8  C   UNL A   1      35.915  24.146  25.586  1.00  0.00     0.086 C 
BRANCH   7   9
ATOM      9  N   UNL A   1      33.564  23.678  24.581  1.00  0.00    -0.322 N 
ATOM     10  C   UNL A   1      30.902  26.146  22.693  1.00  0.00     0.283 C 
ATOM     11  O   UNL A   1      31.147  26.738  21.633  1.00  0.00    -0.268 OA
ATOM     12  N   UNL A   1      31.533  24.933  22.931  1.00  0.00    -0.326 N 
ATOM     13  C   UNL A   1      32.866  24.734  22.380  1.00  0.00     0.181 C 
ATOM     14  C   UNL A   1      31.142  23.826  23.797  1.00  0.00     0.181 C 
ATOM     15  C   UNL A   1      33.856  24.704  23.561  1.00  0.00     0.284 C 
ATOM     16  C   UNL A   1      32.132  23.658  24.967  1.00  0.00     0.284 C 
ATOM     17  H   UNL A   1      33.778  22.797  24.113  1.00  0.00     0.348 HD
BRANCH  10  18
ATOM     18  C   UNL A   1      30.075  26.880  23.820  1.00  0.00     0.171 C 
ATOM     19  C   UNL A   1      31.002  27.194  25.005  1.00  0.00     0.090 C 
BRANCH  18  20
ATOM     20  C   UNL A   1      29.450  28.195  23.259  1.00  0.00     0.075 C 
ATOM     21  C   UNL A   1      30.166  29.496  23.623  1.00  0.00     0.011 C 
ENDBRANCH  18  20
BRANCH  18  22
ATOM     22  N   UNL A   1      28.940  26.046  24.298  1.00  0.00    -0.345 N 
ATOM     23  H   UNL A   1      28.519  25.559  23.506  1.00  0.00     0.345 HD
ATOM     24  H   UNL A   1      28.241  26.644  24.739  1.00  0.00     0.345 HD
ATOM     25  H   UNL A   1      29.281  25.365  24.974  1.00  0.00     0.345 HD
ENDBRANCH  18  22
ENDBRANCH  10  18
ENDBRANCH   7   9
ENDBRANCH   4   7
ENDBRANCH   2   3
ENDBRANCH   1   2
BRANCH   1  26
ATOM     26  C   UNL A   1      37.577  20.624  25.309  1.00  0.00     0.118 C 
BRANCH  26  27
ATOM     27  N   UNL A   1      38.738  19.769  25.538  1.00  0.00    -0.352 N 
ATOM     28  C   UNL A   1      39.996  20.049  26.028  1.00  0.00     0.251 C 
ATOM     29  H   UNL A   1      38.598  18.824  25.300  1.00  0.00     0.163 HD
ATOM     30  O   UNL A   1      40.860  19.183  25.995  1.00  0.00    -0.269 OA
BRANCH  28  31
ATOM     31  C   UNL A   1      40.318  21.396  26.553  1.00  0.00     0.039 A 
ATOM     32  C   UNL A   1      41.092  21.507  27.713  1.00  0.00     0.014 A 
ATOM     33  C   UNL A   1      39.873  22.547  25.906  1.00  0.00     0.014 A 
ATOM     34  C   UNL A   1      41.517  22.767  28.146  1.00  0.00     0.010 A 
ATOM     35  C   UNL A   1      40.393  23.785  26.266  1.00  0.00     0.010 A 
ATOM     36  C   UNL A   1      41.229  23.911  27.384  1.00  0.00    -0.014 A 
BRANCH  36  37
ATOM     37  C   UNL A   1      41.825  25.237  27.696  1.00  0.00     0.031 A 
ATOM     38  C   UNL A   1      41.013  26.290  28.404  1.00  0.00     0.074 A 
ATOM     39  C   UNL A   1      43.049  25.542  27.218  1.00  0.00     0.049 A 
ATOM     40  N   UNL A   1      41.314  27.539  28.644  1.00  0.00    -0.248 NA
ATOM     41  C   UNL A   1      39.671  25.899  28.869  1.00  0.00     0.031 C 
ATOM     42  C   UNL A   1      43.899  24.644  26.432  1.00  0.00     0.029 A 
ATOM     43  N   UNL A   1      43.779  26.703  27.291  1.00  0.00    -0.354 N 
ATOM     44  C   UNL A   1      40.188  28.094  29.240  1.00  0.00     0.074 A 
ATOM     45  C   UNL A   1      39.183  27.055  29.294  1.00  0.00     0.031 C 
ATOM     46  C   UNL A   1      45.033  25.282  26.103  1.00  0.00     0.029 A 
ATOM     47  C   UNL A   1      44.978  26.646  26.618  1.00  0.00     0.049 A 
ATOM     48  H   UNL A   1      43.473  27.502  27.779  1.00  0.00     0.167 HD
ATOM     49  C   UNL A   1      40.015  29.345  29.730  1.00  0.00     0.034 A 
ATOM     50  C   UNL A   1      45.924  27.585  26.424  1.00  0.00     0.034 A 
ATOM     51  C   UNL A   1      41.038  30.355  29.736  1.00  0.00     0.049 A 
ATOM     52  C   UNL A   1      45.729  28.950  27.027  1.00  0.00     0.074 A 
ATOM     53  C   UNL A   1      41.002  31.612  30.314  1.00  0.00     0.029 A 
ATOM     54  N   UNL A   1      42.279  30.227  29.132  1.00  0.00    -0.354 N 
ATOM     55  N   UNL A   1      44.725  29.400  27.741  1.00  0.00    -0.248 NA
ATOM     56  C   UNL A   1      46.810  29.926  26.827  1.00  0.00     0.031 C 
ATOM     57  C   UNL A   1      42.217  32.250  30.044  1.00  0.00     0.029 A 
ATOM     58  C   UNL A   1      43.015  31.385  29.311  1.00  0.00     0.049 A 
ATOM     59  H   UNL A   1      42.591  29.429  28.648  1.00  0.00     0.167 HD
ATOM     60  C   UNL A   1      45.062  30.701  28.093  1.00  0.00     0.074 A 
ATOM     61  C   UNL A   1      46.376  30.957  27.541  1.00  0.00     0.031 C 
ATOM     62  C   UNL A   1      44.340  31.609  28.794  1.00  0.00     0.034 A 
BRANCH  49  63
ATOM     63  C   UNL A   1      38.690  29.670  30.370  1.00  0.00     0.023 A 
ATOM     64  C   UNL A   1      38.385  29.139  31.640  1.00  0.00     0.012 A 
ATOM     65  C   UNL A   1      37.772  30.538  29.746  1.00  0.00     0.148 A 
ATOM     66  C   UNL A   1      37.176  29.439  32.265  1.00  0.00     0.002 A 
ATOM     67  C   UNL A   1      36.587  30.866  30.394  1.00  0.00     0.091 A 
ATOM     68  F   UNL A   1      38.069  31.015  28.529  1.00  0.00    -0.205 F 
ATOM     69  C   UNL A   1      36.283  30.310  31.648  1.00  0.00     0.022 A 
BRANCH  67  70
ATOM     70  S   UNL A   1      35.405  32.038  29.718  1.00  0.00     0.127 S 
ATOM     71  O   UNL A   1      34.771  31.244  28.667  1.00  0.00    -0.237 OA
ATOM     72  O   UNL A   1      34.549  32.314  30.873  1.00  0.00    -0.237 OA
ATOM     73  O   UNL A   1      36.188  33.176  29.258  1.00  0.00    -0.744 OA
ENDBRANCH  67  70
ENDBRANCH  49  63
BRANCH  50  74
ATOM     74  C   UNL A   1      47.170  27.245  25.680  1.00  0.00     0.023 A 
ATOM     75  C   UNL A   1      48.164  26.480  26.321  1.00  0.00     0.012 A 
ATOM     76  C   UNL A   1      47.360  27.632  24.339  1.00  0.00     0.148 A 
ATOM     77  C   UNL A   1      49.337  26.131  25.651  1.00  0.00     0.002 A 
ATOM     78  C   UNL A   1      48.505  27.232  23.658  1.00  0.00     0.091 A 
ATOM     79  F   UNL A   1      46.409  28.370  23.749  1.00  0.00    -0.205 F 
ATOM     80  C   UNL A   1      49.502  26.496  24.317  1.00  0.00     0.022 A 
BRANCH  78  81
ATOM     81  S   UNL A   1      48.733  27.538  21.903  1.00  0.00     0.127 S 
ATOM     82  O   UNL A   1      48.969  26.192  21.390  1.00  0.00    -0.237 OA
ATOM     83  O   UNL A   1      47.445  28.125  21.526  1.00  0.00    -0.237 OA
ATOM     84  O   UNL A   1      49.856  28.462  21.809  1.00  0.00    -0.744 OA
ENDBRANCH  78  81
ENDBRANCH  50  74
BRANCH  62  85
ATOM     85  C   UNL A   1      44.954  32.965  29.016  1.00  0.00     0.023 A 
ATOM     86  C   UNL A   1      45.733  33.194  30.168  1.00  0.00     0.012 A 
ATOM     87  C   UNL A   1      44.827  33.985  28.053  1.00  0.00     0.148 A 
ATOM     88  C   UNL A   1      46.354  34.426  30.370  1.00  0.00     0.002 A 
ATOM     89  C   UNL A   1      45.485  35.195  28.240  1.00  0.00     0.091 A 
ATOM     90  F   UNL A   1      44.065  33.754  26.973  1.00  0.00    -0.205 F 
ATOM     91  C   UNL A   1      46.240  35.420  29.402  1.00  0.00     0.022 A 
BRANCH  89  92
ATOM     92  S   UNL A   1      45.472  36.500  27.005  1.00  0.00     0.127 S 
ATOM     93  O   UNL A   1      46.328  37.507  27.628  1.00  0.00    -0.237 OA
ATOM     94  O   UNL A   1      46.059  35.833  25.842  1.00  0.00    -0.237 OA
ATOM     95  O   UNL A   1      44.075  36.880  26.839  1.00  0.00    -0.744 OA
ENDBRANCH  89  92
ENDBRANCH  62  85
ENDBRANCH  36  37
ENDBRANCH  28  31
ENDBRANCH  26  27
ENDBRANCH   1  26
TORSDOF 17
ENDMDL
MODEL 2
REMARK VINA RESULT:     -11.9      5.327     10.728
REMARK SMILES CC[C@@](C)([NH3+])C(=O)N1CC[NH+]([C@H](C)C(=O)NCCCNC(=O)c2ccc(-c3c4nc(c(-c5cccc(S(=O)(=O)[O-])c5F)c5ccc([nH]5)c(-c5cccc(S(=O)(=O)[O-])c5F)c5nc(c(-c6cccc(S(=O)(=O)[O-])c6F)c6ccc3[nH]6)C=C5)C=C4)cc2)CC1
REMARK SMILES IDX 18 1 17 2 16 3 14 4 15 5 12 7 13 8 11 9 6 10 7 11 8 12 9 13
REMARK SMILES IDX 87 14 10 15 86 16 3 18 4 19 2 20 1 21 5 22 19 26 20 27 21 28
REMARK SMILES IDX 22 30 23 31 24 32 85 33 25 34 84 35 26 36 27 37 28 38 78 39
REMARK SMILES IDX 29 40 83 41 77 42 79 43 30 44 82 45 76 46 75 47 31 49 63 50
REMARK SMILES IDX 43 51 62 52 44 53 47 54 61 55 80 56 45 57 46 58 60 60 81 61
REMARK SMILES IDX 48 62 32 63 33 64 41 65 34 66 36 67 42 68 35 69 37 70 38 71
REMARK SMILES IDX 39 72 40 73 64 74 65 75 73 76 66 77 68 78 74 79 67 80 69 81
REMARK SMILES IDX 70 82 71 83 72 84 49 85 50 86 58 87 51 88 53 89 59 90 52 91
REMARK SMILES IDX 54 92 55 93 56 94 57 95
REMARK H PARENT 16 6 11 17 5 23 5 24 5 25 20 29 79 48 47 59
REMARK Flexibility Score: inf
ROOT
ATOM      1  C   UNL A   1      32.443  29.577  25.301  1.00  0.00     0.042 C 
ENDROOT
BRANCH   1   2
ATOM      2  C   UNL A   1      33.622  28.633  25.166  1.00  0.00     0.118 C 
BRANCH   2   3
ATOM      3  N   UNL A   1      33.898  28.211  23.803  1.00  0.00    -0.351 N 
ATOM      4  C   UNL A   1      33.536  27.081  23.127  1.00  0.00     0.278 C 
ATOM      5  O   UNL A   1      33.707  27.093  21.903  1.00  0.00    -0.268 OA
ATOM      6  H   UNL A   1      34.437  28.847  23.279  1.00  0.00     0.163 HD
BRANCH   4   7
ATOM      7  C   UNL A   1      32.956  25.828  23.830  1.00  0.00     0.271 C 
ATOM      8  C   UNL A   1      31.930  25.082  22.965  1.00  0.00     0.086 C 
BRANCH   7   9
ATOM      9  N   UNL A   1      33.979  25.021  24.565  1.00  0.00    -0.322 N 
ATOM     10  C   UNL A   1      34.909  21.084  25.175  1.00  0.00     0.283 C 
ATOM     11  O   UNL A   1      35.862  20.511  24.629  1.00  0.00    -0.268 OA
ATOM     12  N   UNL A   1      35.012  22.446  25.417  1.00  0.00    -0.326 N 
ATOM     13  C   UNL A   1      35.797  23.251  24.491  1.00  0.00     0.181 C 
ATOM     14  C   UNL A   1      34.323  23.280  26.396  1.00  0.00     0.181 C 
ATOM     15  C   UNL A   1      34.817  24.153  23.715  1.00  0.00     0.284 C 
ATOM     16  C   UNL A   1      33.379  24.286  25.705  1.00  0.00     0.284 C 
ATOM     17  H   UNL A   1      34.634  25.707  24.940  1.00  0.00     0.348 HD
BRANCH  10  18
ATOM     18  C   UNL A   1      33.546  20.312  25.368  1.00  0.00     0.171 C 
ATOM     19  C   UNL A   1      32.398  21.165  24.805  1.00  0.00     0.090 C 
BRANCH  18  20
ATOM     20  C   UNL A   1      33.601  18.932  24.643  1.00  0.00     0.075 C 
ATOM     21  C   UNL A   1      32.550  18.693  23.559  1.00  0.00     0.011 C 
ENDBRANCH  18  20
BRANCH  18  22
ATOM     22  N   UNL A   1      33.279  20.023  26.802  1.00  0.00    -0.345 N 
ATOM     23  H   UNL A   1      32.310  20.256  27.021  1.00  0.00     0.345 HD
ATOM     24  H   UNL A   1      33.903  20.582  27.384  1.00  0.00     0.345 HD
ATOM     25  H   UNL A   1      33.440  19.034  26.985  1.00  0.00     0.345 HD
ENDBRANCH  18  22
ENDBRANCH  10  18
ENDBRANCH   7   9
ENDBRANCH   4   7
ENDBRANCH   2   3
ENDBRANCH   1   2
BRANCH   1  26
ATOM     26  C   UNL A   1      32.174  30.035  26.726  1.00  0.00     0.118 C 
BRANCH  26  27
ATOM     27  N   UNL A   1      32.159  31.486  26.880  1.00  0.00    -0.352 N 
ATOM     28  C   UNL A   1      33.078  32.357  27.426  1.00  0.00     0.251 C 
ATOM     29  H   UNL A   1      31.347  31.922  26.532  1.00  0.00     0.163 HD
ATOM     30  O   UNL A   1      32.777  33.534  27.573  1.00  0.00    -0.269 OA
BRANCH  28  31
ATOM     31  C   UNL A   1      34.404  31.871  27.871  1.00  0.00     0.039 A 
ATOM     32  C   UNL A   1      35.456  32.784  27.998  1.00  0.00     0.014 A 
ATOM     33  C   UNL A   1      34.615  30.528  28.175  1.00  0.00     0.014 A 
ATOM     34  C   UNL A   1      36.674  32.369  28.544  1.00  0.00     0.010 A 
ATOM     35  C   UNL A   1      35.781  30.143  28.826  1.00  0.00     0.010 A 
ATOM     36  C   UNL A   1      36.821  31.059  29.029  1.00  0.00    -0.014 A 
BRANCH  36  37
ATOM     37  C   UNL A   1      38.023  30.631  29.793  1.00  0.00     0.031 A 
ATOM     38  C   UNL A   1      38.980  29.624  29.210  1.00  0.00     0.074 A 
ATOM     39  C   UNL A   1      38.178  31.044  31.068  1.00  0.00     0.049 A 
ATOM     40  N   UNL A   1      40.003  29.037  29.773  1.00  0.00    -0.248 NA
ATOM     41  C   UNL A   1      38.732  29.192  27.823  1.00  0.00     0.031 C 
ATOM     42  C   UNL A   1      37.268  31.942  31.785  1.00  0.00     0.029 A 
ATOM     43  N   UNL A   1      39.136  30.735  32.003  1.00  0.00    -0.354 N 
ATOM     44  C   UNL A   1      40.488  28.134  28.834  1.00  0.00     0.074 A 
ATOM     45  C   UNL A   1      39.626  28.225  27.676  1.00  0.00     0.031 C 
ATOM     46  C   UNL A   1      37.714  32.116  33.038  1.00  0.00     0.029 A 
ATOM     47  C   UNL A   1      38.918  31.315  33.231  1.00  0.00     0.049 A 
ATOM     48  H   UNL A   1      39.907  30.153  31.812  1.00  0.00     0.167 HD
ATOM     49  C   UNL A   1      41.573  27.326  28.913  1.00  0.00     0.034 A 
ATOM     50  C   UNL A   1      39.599  31.207  34.388  1.00  0.00     0.034 A 
ATOM     51  C   UNL A   1      42.466  27.287  30.039  1.00  0.00     0.049 A 
ATOM     52  C   UNL A   1      40.831  30.346  34.431  1.00  0.00     0.074 A 
ATOM     53  C   UNL A   1      43.655  26.593  30.168  1.00  0.00     0.029 A 
ATOM     54  N   UNL A   1      42.266  27.966  31.230  1.00  0.00    -0.354 N 
ATOM     55  N   UNL A   1      41.372  29.633  33.472  1.00  0.00    -0.248 NA
ATOM     56  C   UNL A   1      41.565  30.297  35.703  1.00  0.00     0.031 C 
ATOM     57  C   UNL A   1      44.167  26.839  31.447  1.00  0.00     0.029 A 
ATOM     58  C   UNL A   1      43.303  27.699  32.107  1.00  0.00     0.049 A 
ATOM     59  H   UNL A   1      41.500  28.553  31.424  1.00  0.00     0.167 HD
ATOM     60  C   UNL A   1      42.520  29.071  34.017  1.00  0.00     0.074 A 
ATOM     61  C   UNL A   1      42.613  29.550  35.381  1.00  0.00     0.031 C 
ATOM     62  C   UNL A   1      43.406  28.219  33.446  1.00  0.00     0.034 A 
BRANCH  49  63
ATOM     63  C   UNL A   1      41.896  26.469  27.716  1.00  0.00     0.023 A 
ATOM     64  C   UNL A   1      42.605  27.030  26.634  1.00  0.00     0.012 A 
ATOM     65  C   UNL A   1      41.551  25.104  27.682  1.00  0.00     0.148 A 
ATOM     66  C   UNL A   1      42.937  26.257  25.523  1.00  0.00     0.002 A 
ATOM     67  C   UNL A   1      41.923  24.329  26.590  1.00  0.00     0.091 A 
ATOM     68  F   UNL A   1      40.858  24.594  28.710  1.00  0.00    -0.205 F 
ATOM     69  C   UNL A   1      42.606  24.905  25.506  1.00  0.00     0.022 A 
BRANCH  67  70
ATOM     70  S   UNL A   1      41.610  22.562  26.504  1.00  0.00     0.127 S 
ATOM     71  O   UNL A   1      42.288  22.202  25.260  1.00  0.00    -0.237 OA
ATOM     72  O   UNL A   1      42.265  22.072  27.718  1.00  0.00    -0.237 OA
ATOM     73  O   UNL A   1      40.161  22.412  26.495  1.00  0.00    -0.744 OA
ENDBRANCH  67  70
ENDBRANCH  49  63
BRANCH  50  74
ATOM     74  C   UNL A   1      39.166  31.989  35.582  1.00  0.00     0.023 A 
ATOM     75  C   UNL A   1      39.454  33.367  35.641  1.00  0.00     0.012 A 
ATOM     76  C   UNL A   1      38.440  31.394  36.632  1.00  0.00     0.148 A 
ATOM     77  C   UNL A   1      39.052  34.132  36.736  1.00  0.00     0.002 A 
ATOM     78  C   UNL A   1      37.992  32.175  37.694  1.00  0.00     0.091 A 
ATOM     79  F   UNL A   1      38.186  30.080  36.565  1.00  0.00    -0.205 F 
ATOM     80  C   UNL A   1      38.312  33.540  37.755  1.00  0.00     0.022 A 
BRANCH  78  81
ATOM     81  S   UNL A   1      36.915  31.523  38.975  1.00  0.00     0.127 S 
ATOM     82  O   UNL A   1      35.767  32.420  38.889  1.00  0.00    -0.237 OA
ATOM     83  O   UNL A   1      36.669  30.159  38.502  1.00  0.00    -0.237 OA
ATOM     84  O   UNL A   1      37.688  31.592  40.209  1.00  0.00    -0.744 OA
ENDBRANCH  78  81
ENDBRANCH  50  74
BRANCH  62  85
ATOM     85  C   UNL A   1      44.564  27.752  34.287  1.00  0.00     0.023 A 
ATOM     86  C   UNL A   1      45.722  28.549  34.377  1.00  0.00     0.012 A 
ATOM     87  C   UNL A   1      44.477  26.570  35.047  1.00  0.00     0.148 A 
ATOM     88  C   UNL A   1      46.787  28.163  35.189  1.00  0.00     0.002 A 
ATOM     89  C   UNL A   1      45.524  26.214  35.890  1.00  0.00     0.091 A 
ATOM     90  F   UNL A   1      43.374  25.815  34.934  1.00  0.00    -0.205 F 
ATOM     91  C   UNL A   1      46.683  27.003  35.954  1.00  0.00     0.022 A 
BRANCH  89  92
ATOM     92  S   UNL A   1      45.441  24.789  36.981  1.00  0.00     0.127 S 
ATOM     93  O   UNL A   1      46.680  24.928  37.745  1.00  0.00    -0.237 OA
ATOM     94  O   UNL A   1      44.220  25.051  37.743  1.00  0.00    -0.237 OA
ATOM     95  O   UNL A   1      45.369  23.622  36.110  1.00  0.00    -0.744 OA
ENDBRANCH  89  92
ENDBRANCH  62  85
ENDBRANCH  36  37
ENDBRANCH  28  31
ENDBRANCH  26  27
ENDBRANCH   1  26
TORSDOF 17
ENDMDL
MODEL 3
REMARK VINA RESULT:     -11.9      1.845      2.389
REMARK SMILES CC[C@@](C)([NH3+])C(=O)N1CC[NH+]([C@H](C)C(=O)NCCCNC(=O)c2ccc(-c3c4nc(c(-c5cccc(S(=O)(=O)[O-])c5F)c5ccc([nH]5)c(-c5cccc(S(=O)(=O)[O-])c5F)c5nc(c(-c6cccc(S(=O)(=O)[O-])c6F)c6ccc3[nH]6)C=C5)C=C4)cc2)CC1
REMARK SMILES IDX 18 1 17 2 16 3 14 4 15 5 12 7 13 8 11 9 6 10 7 11 8 12 9 13
REMARK SMILES IDX 87 14 10 15 86 16 3 18 4 19 2 20 1 21 5 22 19 26 20 27 21 28
REMARK SMILES IDX 22 30 23 31 24 32 85 33 25 34 84 35 26 36 27 37 28 38 78 39
REMARK SMILES IDX 29 40 83 41 77 42 79 43 30 44 82 45 76 46 75 47 31 49 63 50
REMARK SMILES IDX 43 51 62 52 44 53 47 54 61 55 80 56 45 57 46 58 60 60 81 61
REMARK SMILES IDX 48 62 32 63 33 64 41 65 34 66 36 67 42 68 35 69 37 70 38 71
REMARK SMILES IDX 39 72 40 73 64 74 65 75 73 76 66 77 68 78 74 79 67 80 69 81
REMARK SMILES IDX 70 82 71 83 72 84 49 85 50 86 58 87 51 88 53 89 59 90 52 91
REMARK SMILES IDX 54 92 55 93 56 94 57 95
REMARK H PARENT 16 6 11 17 5 23 5 24 5 25 20 29 79 48 47 59
REMARK Flexibility Score: inf
ROOT
ATOM      1  C   UNL A   1      35.550  20.784  24.965  1.00  0.00     0.042 C 
ENDROOT
BRANCH   1   2
ATOM      2  C   UNL A   1      34.338  21.682  25.123  1.00  0.00     0.118 C 
BRANCH   2   3
ATOM      3  N   UNL A   1      33.964  21.945  26.503  1.00  0.00    -0.351 N 
ATOM      4  C   UNL A   1      32.935  22.675  27.026  1.00  0.00     0.278 C 
ATOM      5  O   UNL A   1      32.717  22.531  28.235  1.00  0.00    -0.268 OA
ATOM      6  H   UNL A   1      34.551  21.527  27.173  1.00  0.00     0.163 HD
BRANCH   4   7
ATOM      7  C   UNL A   1      32.080  23.653  26.181  1.00  0.00     0.271 C 
ATOM      8  C   UNL A   1      30.614  23.215  26.067  1.00  0.00     0.086 C 
BRANCH   7   9
ATOM      9  N   UNL A   1      32.367  25.095  26.455  1.00  0.00    -0.322 N 
ATOM     10  C   UNL A   1      32.044  28.696  24.540  1.00  0.00     0.283 C 
ATOM     11  O   UNL A   1      31.174  29.537  24.802  1.00  0.00    -0.268 OA
ATOM     12  N   UNL A   1      32.471  27.852  25.555  1.00  0.00    -0.326 N 
ATOM     13  C   UNL A   1      31.513  27.482  26.587  1.00  0.00     0.181 C 
ATOM     14  C   UNL A   1      33.723  27.118  25.701  1.00  0.00     0.181 C 
ATOM     15  C   UNL A   1      31.192  25.986  26.406  1.00  0.00     0.284 C 
ATOM     16  C   UNL A   1      33.489  25.596  25.624  1.00  0.00     0.284 C 
ATOM     17  H   UNL A   1      32.660  25.124  27.431  1.00  0.00     0.348 HD
BRANCH  10  18
ATOM     18  C   UNL A   1      32.468  28.460  23.038  1.00  0.00     0.171 C 
ATOM     19  C   UNL A   1      33.985  28.666  22.903  1.00  0.00     0.090 C 
BRANCH  18  20
ATOM     20  C   UNL A   1      32.077  27.018  22.588  1.00  0.00     0.075 C 
ATOM     21  C   UNL A   1      33.111  26.264  21.752  1.00  0.00     0.011 C 
ENDBRANCH  18  20
BRANCH  18  22
ATOM     22  N   UNL A   1      31.767  29.392  22.117  1.00  0.00    -0.345 N 
ATOM     23  H   UNL A   1      30.850  29.624  22.500  1.00  0.00     0.345 HD
ATOM     24  H   UNL A   1      31.652  28.949  21.205  1.00  0.00     0.345 HD
ATOM     25  H   UNL A   1      32.316  30.244  22.012  1.00  0.00     0.345 HD
ENDBRANCH  18  22
ENDBRANCH  10  18
ENDBRANCH   7   9
ENDBRANCH   4   7
ENDBRANCH   2   3
ENDBRANCH   1   2
BRANCH   1  26
ATOM     26  C   UNL A   1      36.858  21.424  25.402  1.00  0.00     0.118 C 
BRANCH  26  27
ATOM     27  N   UNL A   1      37.959  20.474  25.530  1.00  0.00    -0.352 N 
ATOM     28  C   UNL A   1      39.251  20.627  25.988  1.00  0.00     0.251 C 
ATOM     29  H   UNL A   1      37.741  19.560  25.236  1.00  0.00     0.163 HD
ATOM     30  O   UNL A   1      40.046  19.705  25.865  1.00  0.00    -0.269 OA
BRANCH  28  31
ATOM     31  C   UNL A   1      39.690  21.909  26.586  1.00  0.00     0.039 A 
ATOM     32  C   UNL A   1      40.661  21.892  27.593  1.00  0.00     0.014 A 
ATOM     33  C   UNL A   1      39.164  23.124  26.155  1.00  0.00     0.014 A 
ATOM     34  C   UNL A   1      41.184  23.096  28.073  1.00  0.00     0.010 A 
ATOM     35  C   UNL A   1      39.766  24.315  26.545  1.00  0.00     0.010 A 
ATOM     36  C   UNL A   1      40.791  24.316  27.501  1.00  0.00    -0.014 A 
BRANCH  36  37
ATOM     37  C   UNL A   1      41.461  25.600  27.840  1.00  0.00     0.031 A 
ATOM     38  C   UNL A   1      40.706  26.692  28.551  1.00  0.00     0.074 A 
ATOM     39  C   UNL A   1      42.709  25.835  27.384  1.00  0.00     0.049 A 
ATOM     40  N   UNL A   1      41.079  27.917  28.812  1.00  0.00    -0.248 NA
ATOM     41  C   UNL A   1      39.335  26.377  28.991  1.00  0.00     0.031 C 
ATOM     42  C   UNL A   1      43.515  24.896  26.597  1.00  0.00     0.029 A 
ATOM     43  N   UNL A   1      43.508  26.948  27.483  1.00  0.00    -0.354 N 
ATOM     44  C   UNL A   1      39.980  28.532  29.400  1.00  0.00     0.074 A 
ATOM     45  C   UNL A   1      38.913  27.556  29.425  1.00  0.00     0.031 C 
ATOM     46  C   UNL A   1      44.690  25.468  26.293  1.00  0.00     0.029 A 
ATOM     47  C   UNL A   1      44.711  26.826  26.826  1.00  0.00     0.049 A 
ATOM     48  H   UNL A   1      43.244  27.758  27.977  1.00  0.00     0.167 HD
ATOM     49  C   UNL A   1      39.877  29.785  29.905  1.00  0.00     0.034 A 
ATOM     50  C   UNL A   1      45.715  27.708  26.659  1.00  0.00     0.034 A 
ATOM     51  C   UNL A   1      40.959  30.730  29.939  1.00  0.00     0.049 A 
ATOM     52  C   UNL A   1      45.596  29.074  27.278  1.00  0.00     0.074 A 
ATOM     53  C   UNL A   1      40.992  31.978  30.534  1.00  0.00     0.029 A 
ATOM     54  N   UNL A   1      42.199  30.533  29.351  1.00  0.00    -0.354 N 
ATOM     55  N   UNL A   1      44.611  29.576  27.983  1.00  0.00    -0.248 NA
ATOM     56  C   UNL A   1      46.737  29.984  27.107  1.00  0.00     0.031 C 
ATOM     57  C   UNL A   1      42.247  32.544  30.290  1.00  0.00     0.029 A 
ATOM     58  C   UNL A   1      43.002  31.642  29.557  1.00  0.00     0.049 A 
ATOM     59  H   UNL A   1      42.469  29.724  28.861  1.00  0.00     0.167 HD
ATOM     60  C   UNL A   1      45.021  30.848  28.359  1.00  0.00     0.074 A 
ATOM     61  C   UNL A   1      46.357  31.031  27.829  1.00  0.00     0.031 C 
ATOM     62  C   UNL A   1      44.346  31.791  29.062  1.00  0.00     0.034 A 
BRANCH  49  63
ATOM     63  C   UNL A   1      38.564  30.182  30.530  1.00  0.00     0.023 A 
ATOM     64  C   UNL A   1      38.310  29.850  31.877  1.00  0.00     0.012 A 
ATOM     65  C   UNL A   1      37.609  30.926  29.810  1.00  0.00     0.148 A 
ATOM     66  C   UNL A   1      37.114  30.223  32.487  1.00  0.00     0.002 A 
ATOM     67  C   UNL A   1      36.437  31.330  30.438  1.00  0.00     0.091 A 
ATOM     68  F   UNL A   1      37.858  31.212  28.524  1.00  0.00    -0.205 F 
ATOM     69  C   UNL A   1      36.183  30.971  31.773  1.00  0.00     0.022 A 
BRANCH  67  70
ATOM     70  S   UNL A   1      35.209  32.362  29.628  1.00  0.00     0.127 S 
ATOM     71  O   UNL A   1      34.267  32.610  30.719  1.00  0.00    -0.237 OA
ATOM     72  O   UNL A   1      35.998  33.527  29.228  1.00  0.00    -0.237 OA
ATOM     73  O   UNL A   1      34.691  31.570  28.520  1.00  0.00    -0.744 OA
ENDBRANCH  67  70
ENDBRANCH  49  63
BRANCH  50  74
ATOM     74  C   UNL A   1      46.949  27.301  25.928  1.00  0.00     0.023 A 
ATOM     75  C   UNL A   1      47.071  27.614  24.560  1.00  0.00     0.012 A 
ATOM     76  C   UNL A   1      48.014  26.649  26.581  1.00  0.00     0.148 A 
ATOM     77  C   UNL A   1      48.218  27.261  23.848  1.00  0.00     0.002 A 
ATOM     78  C   UNL A   1      49.178  26.351  25.879  1.00  0.00     0.091 A 
ATOM     79  F   UNL A   1      47.875  26.347  27.879  1.00  0.00    -0.205 F 
ATOM     80  C   UNL A   1      49.275  26.641  24.509  1.00  0.00     0.022 A 
BRANCH  78  81
ATOM     81  S   UNL A   1      50.638  25.681  26.684  1.00  0.00     0.127 S 
ATOM     82  O   UNL A   1      51.548  25.502  25.556  1.00  0.00    -0.237 OA
ATOM     83  O   UNL A   1      51.001  26.760  27.605  1.00  0.00    -0.237 OA
ATOM     84  O   UNL A   1      50.195  24.460  27.345  1.00  0.00    -0.744 OA
ENDBRANCH  78  81
ENDBRANCH  50  74
BRANCH  62  85
ATOM     85  C   UNL A   1      45.038  33.103  29.311  1.00  0.00     0.023 A 
ATOM     86  C   UNL A   1      45.868  33.247  30.441  1.00  0.00     0.012 A 
ATOM     87  C   UNL A   1      44.932  34.165  28.392  1.00  0.00     0.148 A 
ATOM     88  C   UNL A   1      46.560  34.435  30.666  1.00  0.00     0.002 A 
ATOM     89  C   UNL A   1      45.660  35.331  28.599  1.00  0.00     0.091 A 
ATOM     90  F   UNL A   1      44.122  34.016  27.333  1.00  0.00    -0.205 F 
ATOM     91  C   UNL A   1      46.465  35.472  29.740  1.00  0.00     0.022 A 
BRANCH  89  92
ATOM     92  S   UNL A   1      45.673  36.682  27.415  1.00  0.00     0.127 S 
ATOM     93  O   UNL A   1      46.450  36.108  26.317  1.00  0.00    -0.237 OA
ATOM     94  O   UNL A   1      44.249  36.858  27.128  1.00  0.00    -0.237 OA
ATOM     95  O   UNL A   1      46.293  37.809  28.099  1.00  0.00    -0.744 OA
ENDBRANCH  89  92
ENDBRANCH  62  85
ENDBRANCH  36  37
ENDBRANCH  28  31
ENDBRANCH  26  27
ENDBRANCH   1  26
TORSDOF 17
ENDMDL
