MODEL 1
REMARK VINA RESULT:     -12.7      0.000      0.000
REMARK SMILES COc1ccc2c(CC(=O)NCCCNC(=O)c3ccc(-c4c5nc(c(-c6cccc(S(=O)(=O)[O-])c6F)c6ccc([nH]6)c(-c6cccc(S(=O)(=O)[O-])c6F)c6nc(c(-c7cccc(S(=O)(=O)[O-])c7F)c7ccc4[nH]7)C=C6)C=C5)cc3)c(C(=O)c3cc(C)ccn3)[nH]c2c1
REMARK SMILES IDX 13 1 12 2 11 3 9 4 10 5 8 7 7 8 3 9 4 10 93 11 5 12 92 13
REMARK SMILES IDX 6 14 91 15 81 16 2 18 1 19 82 20 83 21 84 22 85 23 90 24
REMARK SMILES IDX 86 25 89 26 87 27 88 28 14 29 15 30 16 31 17 33 18 34 19 35
REMARK SMILES IDX 80 36 20 37 79 38 21 39 22 40 23 41 73 42 24 43 78 44 72 45
REMARK SMILES IDX 74 46 25 47 77 48 71 49 70 50 26 52 58 53 38 54 57 55 39 56
REMARK SMILES IDX 42 57 56 58 75 59 40 60 41 61 55 63 76 64 43 65 27 66 28 67
REMARK SMILES IDX 36 68 29 69 31 70 37 71 30 72 32 73 33 74 34 75 35 76 59 77
REMARK SMILES IDX 60 78 68 79 61 80 63 81 69 82 62 83 64 84 65 85 66 86 67 87
REMARK SMILES IDX 44 88 45 89 53 90 46 91 48 92 54 93 47 94 49 95 50 96 51 97
REMARK SMILES IDX 52 98
REMARK H PARENT 11 6 91 17 15 32 74 51 42 62
REMARK Flexibility Score: inf
ROOT
ATOM      1  C   UNL A   1      31.424  31.923  26.872  1.00  0.00     0.042 C 
ENDROOT
BRANCH   1   2
ATOM      2  C   UNL A   1      31.578  30.728  25.938  1.00  0.00     0.117 C 
BRANCH   2   3
ATOM      3  N   UNL A   1      32.793  29.975  26.167  1.00  0.00    -0.356 N 
ATOM      4  C   UNL A   1      32.967  28.634  26.360  1.00  0.00     0.224 C 
ATOM      5  O   UNL A   1      34.123  28.208  26.284  1.00  0.00    -0.275 OA
ATOM      6  H   UNL A   1      33.619  30.510  26.188  1.00  0.00     0.163 HD
BRANCH   4   7
ATOM      7  C   UNL A   1      31.779  27.690  26.509  1.00  0.00     0.138 C 
BRANCH   7   8
ATOM      8  C   UNL A   1      31.657  26.634  25.441  1.00  0.00    -0.002 A 
ATOM      9  C   UNL A   1      31.699  22.420  25.443  1.00  0.00     0.120 A 
ATOM     10  C   UNL A   1      31.779  23.014  26.700  1.00  0.00     0.047 A 
ATOM     11  C   UNL A   1      31.644  23.199  24.284  1.00  0.00     0.073 A 
ATOM     12  C   UNL A   1      31.764  24.408  26.827  1.00  0.00     0.014 A 
ATOM     13  C   UNL A   1      31.613  24.591  24.433  1.00  0.00     0.050 A 
ATOM     14  C   UNL A   1      31.674  25.217  25.673  1.00  0.00     0.004 A 
ATOM     15  N   UNL A   1      31.539  25.582  23.484  1.00  0.00    -0.351 N 
ATOM     16  C   UNL A   1      31.445  26.826  24.074  1.00  0.00     0.093 A 
ATOM     17  H   UNL A   1      31.553  25.424  22.511  1.00  0.00     0.167 HD
BRANCH   9  18
ATOM     18  O   UNL A   1      31.730  21.064  25.249  1.00  0.00    -0.497 OA
ATOM     19  C   UNL A   1      32.280  20.671  23.995  1.00  0.00     0.278 C 
ENDBRANCH   9  18
BRANCH  16  20
ATOM     20  C   UNL A   1      31.191  28.078  23.367  1.00  0.00     0.227 C 
ATOM     21  O   UNL A   1      32.087  28.752  22.856  1.00  0.00    -0.285 OA
BRANCH  20  22
ATOM     22  C   UNL A   1      29.810  28.625  23.317  1.00  0.00     0.113 A 
ATOM     23  C   UNL A   1      29.612  30.002  23.265  1.00  0.00     0.036 A 
ATOM     24  N   UNL A   1      28.806  27.713  23.285  1.00  0.00    -0.253 NA
ATOM     25  C   UNL A   1      28.303  30.480  23.183  1.00  0.00    -0.047 A 
ATOM     26  C   UNL A   1      27.553  28.202  23.193  1.00  0.00     0.112 A 
ATOM     27  C   UNL A   1      28.012  31.950  23.125  1.00  0.00     0.044 C 
ATOM     28  C   UNL A   1      27.256  29.557  23.140  1.00  0.00     0.023 A 
ENDBRANCH  20  22
ENDBRANCH  16  20
ENDBRANCH   7   8
ENDBRANCH   4   7
ENDBRANCH   2   3
ENDBRANCH   1   2
BRANCH   1  29
ATOM     29  C   UNL A   1      32.735  32.609  27.248  1.00  0.00     0.118 C 
BRANCH  29  30
ATOM     30  N   UNL A   1      32.556  33.999  27.648  1.00  0.00    -0.352 N 
ATOM     31  C   UNL A   1      33.177  34.735  28.625  1.00  0.00     0.251 C 
ATOM     32  H   UNL A   1      31.877  34.490  27.132  1.00  0.00     0.163 HD
ATOM     33  O   UNL A   1      32.742  35.852  28.898  1.00  0.00    -0.269 OA
BRANCH  31  34
ATOM     34  C   UNL A   1      34.349  34.204  29.360  1.00  0.00     0.039 A 
ATOM     35  C   UNL A   1      34.131  33.502  30.550  1.00  0.00     0.014 A 
ATOM     36  C   UNL A   1      35.654  34.433  28.919  1.00  0.00     0.014 A 
ATOM     37  C   UNL A   1      35.214  32.979  31.263  1.00  0.00     0.010 A 
ATOM     38  C   UNL A   1      36.729  33.855  29.594  1.00  0.00     0.010 A 
ATOM     39  C   UNL A   1      36.521  33.127  30.775  1.00  0.00    -0.014 A 
BRANCH  39  40
ATOM     40  C   UNL A   1      37.681  32.511  31.472  1.00  0.00     0.031 A 
ATOM     41  C   UNL A   1      38.422  31.358  30.849  1.00  0.00     0.074 A 
ATOM     42  C   UNL A   1      38.009  32.929  32.711  1.00  0.00     0.049 A 
ATOM     43  N   UNL A   1      39.408  30.652  31.340  1.00  0.00    -0.248 NA
ATOM     44  C   UNL A   1      37.981  30.924  29.514  1.00  0.00     0.031 C 
ATOM     45  C   UNL A   1      37.318  33.983  33.457  1.00  0.00     0.029 A 
ATOM     46  N   UNL A   1      38.984  32.497  33.574  1.00  0.00    -0.354 N 
ATOM     47  C   UNL A   1      39.679  29.669  30.395  1.00  0.00     0.074 A 
ATOM     48  C   UNL A   1      38.736  29.854  29.313  1.00  0.00     0.031 C 
ATOM     49  C   UNL A   1      37.888  34.113  34.666  1.00  0.00     0.029 A 
ATOM     50  C   UNL A   1      38.967  33.138  34.792  1.00  0.00     0.049 A 
ATOM     51  H   UNL A   1      39.635  31.796  33.344  1.00  0.00     0.167 HD
ATOM     52  C   UNL A   1      40.644  28.717  30.411  1.00  0.00     0.034 A 
ATOM     53  C   UNL A   1      39.729  32.958  35.888  1.00  0.00     0.034 A 
ATOM     54  C   UNL A   1      41.615  28.570  31.461  1.00  0.00     0.049 A 
ATOM     55  C   UNL A   1      40.831  31.936  35.856  1.00  0.00     0.074 A 
ATOM     56  C   UNL A   1      42.689  27.699  31.523  1.00  0.00     0.029 A 
ATOM     57  N   UNL A   1      41.633  29.310  32.633  1.00  0.00    -0.354 N 
ATOM     58  N   UNL A   1      41.177  31.126  34.884  1.00  0.00    -0.248 NA
ATOM     59  C   UNL A   1      41.675  31.827  37.056  1.00  0.00     0.031 C 
ATOM     60  C   UNL A   1      43.350  27.906  32.739  1.00  0.00     0.029 A 
ATOM     61  C   UNL A   1      42.695  28.914  33.427  1.00  0.00     0.049 A 
ATOM     62  H   UNL A   1      40.985  30.014  32.866  1.00  0.00     0.167 HD
ATOM     63  C   UNL A   1      42.294  30.436  35.341  1.00  0.00     0.074 A 
ATOM     64  C   UNL A   1      42.582  30.939  36.668  1.00  0.00     0.031 C 
ATOM     65  C   UNL A   1      43.005  29.462  34.722  1.00  0.00     0.034 A 
BRANCH  52  66
ATOM     66  C   UNL A   1      40.738  27.797  29.222  1.00  0.00     0.023 A 
ATOM     67  C   UNL A   1      39.904  26.663  29.159  1.00  0.00     0.012 A 
ATOM     68  C   UNL A   1      41.599  28.082  28.144  1.00  0.00     0.148 A 
ATOM     69  C   UNL A   1      39.945  25.809  28.058  1.00  0.00     0.002 A 
ATOM     70  C   UNL A   1      41.606  27.248  27.031  1.00  0.00     0.091 A 
ATOM     71  F   UNL A   1      42.401  29.153  28.230  1.00  0.00    -0.205 F 
ATOM     72  C   UNL A   1      40.788  26.106  26.991  1.00  0.00     0.022 A 
BRANCH  70  73
ATOM     73  S   UNL A   1      42.602  27.591  25.574  1.00  0.00     0.127 S 
ATOM     74  O   UNL A   1      43.951  27.623  26.140  1.00  0.00    -0.237 OA
ATOM     75  O   UNL A   1      42.326  26.426  24.729  1.00  0.00    -0.237 OA
ATOM     76  O   UNL A   1      42.112  28.852  25.044  1.00  0.00    -0.744 OA
ENDBRANCH  70  73
ENDBRANCH  52  66
BRANCH  53  77
ATOM     77  C   UNL A   1      39.522  33.826  37.082  1.00  0.00     0.023 A 
ATOM     78  C   UNL A   1      39.947  35.167  37.039  1.00  0.00     0.012 A 
ATOM     79  C   UNL A   1      38.877  33.347  38.238  1.00  0.00     0.148 A 
ATOM     80  C   UNL A   1      39.757  36.010  38.134  1.00  0.00     0.002 A 
ATOM     81  C   UNL A   1      38.643  34.205  39.307  1.00  0.00     0.091 A 
ATOM     82  F   UNL A   1      38.492  32.062  38.268  1.00  0.00    -0.205 F 
ATOM     83  C   UNL A   1      39.096  35.533  39.263  1.00  0.00     0.022 A 
BRANCH  81  84
ATOM     84  S   UNL A   1      37.687  33.707  40.744  1.00  0.00     0.127 S 
ATOM     85  O   UNL A   1      36.501  33.117  40.128  1.00  0.00    -0.237 OA
ATOM     86  O   UNL A   1      38.584  32.748  41.393  1.00  0.00    -0.237 OA
ATOM     87  O   UNL A   1      37.467  34.927  41.508  1.00  0.00    -0.744 OA
ENDBRANCH  81  84
ENDBRANCH  53  77
BRANCH  65  88
ATOM     88  C   UNL A   1      44.185  28.884  35.459  1.00  0.00     0.023 A 
ATOM     89  C   UNL A   1      45.461  29.455  35.285  1.00  0.00     0.012 A 
ATOM     90  C   UNL A   1      44.017  27.831  36.380  1.00  0.00     0.148 A 
ATOM     91  C   UNL A   1      46.558  28.970  35.997  1.00  0.00     0.002 A 
ATOM     92  C   UNL A   1      45.107  27.382  37.118  1.00  0.00     0.091 A 
ATOM     93  F   UNL A   1      42.800  27.287  36.516  1.00  0.00    -0.205 F 
ATOM     94  C   UNL A   1      46.379  27.943  36.921  1.00  0.00     0.022 A 
BRANCH  92  95
ATOM     95  S   UNL A   1      44.947  26.126  38.393  1.00  0.00     0.127 S 
ATOM     96  O   UNL A   1      43.966  26.734  39.290  1.00  0.00    -0.237 OA
ATOM     97  O   UNL A   1      44.450  24.975  37.637  1.00  0.00    -0.237 OA
ATOM     98  O   UNL A   1      46.282  25.949  38.946  1.00  0.00    -0.744 OA
ENDBRANCH  92  95
ENDBRANCH  65  88
ENDBRANCH  39  40
ENDBRANCH  31  34
ENDBRANCH  29  30
ENDBRANCH   1  29
TORSDOF 17
ENDMDL
MODEL 2
REMARK VINA RESULT:     -12.7      3.629      8.445
REMARK SMILES COc1ccc2c(CC(=O)NCCCNC(=O)c3ccc(-c4c5nc(c(-c6cccc(S(=O)(=O)[O-])c6F)c6ccc([nH]6)c(-c6cccc(S(=O)(=O)[O-])c6F)c6nc(c(-c7cccc(S(=O)(=O)[O-])c7F)c7ccc4[nH]7)C=C6)C=C5)cc3)c(C(=O)c3cc(C)ccn3)[nH]c2c1
REMARK SMILES IDX 13 1 12 2 11 3 9 4 10 5 8 7 7 8 3 9 4 10 93 11 5 12 92 13
REMARK SMILES IDX 6 14 91 15 81 16 2 18 1 19 82 20 83 21 84 22 85 23 90 24
REMARK SMILES IDX 86 25 89 26 87 27 88 28 14 29 15 30 16 31 17 33 18 34 19 35
REMARK SMILES IDX 80 36 20 37 79 38 21 39 22 40 23 41 73 42 24 43 78 44 72 45
REMARK SMILES IDX 74 46 25 47 77 48 71 49 70 50 26 52 58 53 38 54 57 55 39 56
REMARK SMILES IDX 42 57 56 58 75 59 40 60 41 61 55 63 76 64 43 65 27 66 28 67
REMARK SMILES IDX 36 68 29 69 31 70 37 71 30 72 32 73 33 74 34 75 35 76 59 77
REMARK SMILES IDX 60 78 68 79 61 80 63 81 69 82 62 83 64 84 65 85 66 86 67 87
REMARK SMILES IDX 44 88 45 89 53 90 46 91 48 92 54 93 47 94 49 95 50 96 51 97
REMARK SMILES IDX 52 98
REMARK H PARENT 11 6 91 17 15 32 74 51 42 62
REMARK Flexibility Score: inf
ROOT
ATOM      1  C   UNL A   1      32.792  28.253  27.034  1.00  0.00     0.042 C 
ENDROOT
BRANCH   1   2
ATOM      2  C   UNL A   1      31.743  27.589  26.149  1.00  0.00     0.117 C 
BRANCH   2   3
ATOM      3  N   UNL A   1      31.278  26.319  26.666  1.00  0.00    -0.356 N 
ATOM      4  C   UNL A   1      31.804  25.067  26.513  1.00  0.00     0.224 C 
ATOM      5  O   UNL A   1      31.365  24.186  27.258  1.00  0.00    -0.275 OA
ATOM      6  H   UNL A   1      30.459  26.363  27.211  1.00  0.00     0.163 HD
BRANCH   4   7
ATOM      7  C   UNL A   1      32.978  24.806  25.577  1.00  0.00     0.138 C 
BRANCH   7   8
ATOM      8  C   UNL A   1      32.697  23.861  24.438  1.00  0.00    -0.002 A 
ATOM      9  C   UNL A   1      32.417  19.671  24.083  1.00  0.00     0.120 A 
ATOM     10  C   UNL A   1      32.635  20.143  25.374  1.00  0.00     0.047 A 
ATOM     11  C   UNL A   1      32.337  20.553  23.001  1.00  0.00     0.073 A 
ATOM     12  C   UNL A   1      32.736  21.517  25.619  1.00  0.00     0.014 A 
ATOM     13  C   UNL A   1      32.423  21.925  23.269  1.00  0.00     0.050 A 
ATOM     14  C   UNL A   1      32.623  22.431  24.547  1.00  0.00     0.004 A 
ATOM     15  N   UNL A   1      32.355  22.999  22.415  1.00  0.00    -0.351 N 
ATOM     16  C   UNL A   1      32.400  24.189  23.113  1.00  0.00     0.093 A 
ATOM     17  H   UNL A   1      32.285  22.929  21.434  1.00  0.00     0.167 HD
BRANCH   9  18
ATOM     18  O   UNL A   1      32.330  18.340  23.773  1.00  0.00    -0.497 OA
ATOM     19  C   UNL A   1      32.425  17.474  24.900  1.00  0.00     0.278 C 
ENDBRANCH   9  18
BRANCH  16  20
ATOM     20  C   UNL A   1      32.191  25.514  22.536  1.00  0.00     0.227 C 
ATOM     21  O   UNL A   1      33.021  26.069  21.814  1.00  0.00    -0.285 OA
BRANCH  20  22
ATOM     22  C   UNL A   1      30.966  26.281  22.886  1.00  0.00     0.113 A 
ATOM     23  C   UNL A   1      30.822  27.593  22.445  1.00  0.00     0.036 A 
ATOM     24  N   UNL A   1      30.026  25.614  23.600  1.00  0.00    -0.253 NA
ATOM     25  C   UNL A   1      29.644  28.272  22.760  1.00  0.00    -0.047 A 
ATOM     26  C   UNL A   1      28.893  26.288  23.880  1.00  0.00     0.112 A 
ATOM     27  C   UNL A   1      29.418  29.688  22.321  1.00  0.00     0.044 C 
ATOM     28  C   UNL A   1      28.660  27.599  23.488  1.00  0.00     0.023 A 
ENDBRANCH  20  22
ENDBRANCH  16  20
ENDBRANCH   7   8
ENDBRANCH   4   7
ENDBRANCH   2   3
ENDBRANCH   1   2
BRANCH   1  29
ATOM     29  C   UNL A   1      33.801  29.119  26.282  1.00  0.00     0.118 C 
BRANCH  29  30
ATOM     30  N   UNL A   1      33.828  30.498  26.752  1.00  0.00    -0.352 N 
ATOM     31  C   UNL A   1      34.660  31.120  27.649  1.00  0.00     0.251 C 
ATOM     32  H   UNL A   1      33.135  31.078  26.363  1.00  0.00     0.163 HD
ATOM     33  O   UNL A   1      34.387  32.259  28.024  1.00  0.00    -0.269 OA
BRANCH  31  34
ATOM     34  C   UNL A   1      35.865  30.442  28.179  1.00  0.00     0.039 A 
ATOM     35  C   UNL A   1      37.052  30.514  27.443  1.00  0.00     0.014 A 
ATOM     36  C   UNL A   1      35.826  29.698  29.361  1.00  0.00     0.014 A 
ATOM     37  C   UNL A   1      38.210  29.892  27.921  1.00  0.00     0.010 A 
ATOM     38  C   UNL A   1      36.995  29.135  29.870  1.00  0.00     0.010 A 
ATOM     39  C   UNL A   1      38.199  29.222  29.153  1.00  0.00    -0.014 A 
BRANCH  39  40
ATOM     40  C   UNL A   1      39.436  28.623  29.720  1.00  0.00     0.031 A 
ATOM     41  C   UNL A   1      40.090  29.228  30.933  1.00  0.00     0.074 A 
ATOM     42  C   UNL A   1      40.025  27.591  29.084  1.00  0.00     0.049 A 
ATOM     43  N   UNL A   1      41.207  28.886  31.523  1.00  0.00    -0.248 NA
ATOM     44  C   UNL A   1      39.416  30.382  31.550  1.00  0.00     0.031 C 
ATOM     45  C   UNL A   1      39.535  26.967  27.853  1.00  0.00     0.029 A 
ATOM     46  N   UNL A   1      41.180  26.906  29.366  1.00  0.00    -0.354 N 
ATOM     47  C   UNL A   1      41.391  29.804  32.551  1.00  0.00     0.074 A 
ATOM     48  C   UNL A   1      40.282  30.733  32.489  1.00  0.00     0.031 C 
ATOM     49  C   UNL A   1      40.384  25.994  27.484  1.00  0.00     0.029 A 
ATOM     50  C   UNL A   1      41.490  25.941  28.436  1.00  0.00     0.049 A 
ATOM     51  H   UNL A   1      41.734  27.086  30.159  1.00  0.00     0.167 HD
ATOM     52  C   UNL A   1      42.375  29.853  33.481  1.00  0.00     0.034 A 
ATOM     53  C   UNL A   1      42.547  25.109  28.354  1.00  0.00     0.034 A 
ATOM     54  C   UNL A   1      43.445  28.897  33.576  1.00  0.00     0.049 A 
ATOM     55  C   UNL A   1      43.594  25.145  29.433  1.00  0.00     0.074 A 
ATOM     56  C   UNL A   1      44.435  28.806  34.538  1.00  0.00     0.029 A 
ATOM     57  N   UNL A   1      43.667  27.865  32.676  1.00  0.00    -0.354 N 
ATOM     58  N   UNL A   1      43.661  25.915  30.492  1.00  0.00    -0.248 NA
ATOM     59  C   UNL A   1      44.692  24.171  29.329  1.00  0.00     0.031 C 
ATOM     60  C   UNL A   1      45.262  27.724  34.214  1.00  0.00     0.029 A 
ATOM     61  C   UNL A   1      44.779  27.135  33.057  1.00  0.00     0.049 A 
ATOM     62  H   UNL A   1      43.114  27.680  31.883  1.00  0.00     0.167 HD
ATOM     63  C   UNL A   1      44.785  25.500  31.195  1.00  0.00     0.074 A 
ATOM     64  C   UNL A   1      45.357  24.395  30.454  1.00  0.00     0.031 C 
ATOM     65  C   UNL A   1      45.306  26.001  32.342  1.00  0.00     0.034 A 
BRANCH  52  66
ATOM     66  C   UNL A   1      42.305  30.944  34.517  1.00  0.00     0.023 A 
ATOM     67  C   UNL A   1      41.670  30.686  35.749  1.00  0.00     0.012 A 
ATOM     68  C   UNL A   1      42.917  32.195  34.304  1.00  0.00     0.148 A 
ATOM     69  C   UNL A   1      41.615  31.665  36.741  1.00  0.00     0.002 A 
ATOM     70  C   UNL A   1      42.894  33.152  35.312  1.00  0.00     0.091 A 
ATOM     71  F   UNL A   1      43.498  32.430  33.119  1.00  0.00    -0.205 F 
ATOM     72  C   UNL A   1      42.235  32.893  36.526  1.00  0.00     0.022 A 
BRANCH  70  73
ATOM     73  S   UNL A   1      43.730  34.735  35.159  1.00  0.00     0.127 S 
ATOM     74  O   UNL A   1      43.142  35.261  33.927  1.00  0.00    -0.237 OA
ATOM     75  O   UNL A   1      43.307  35.429  36.378  1.00  0.00    -0.237 OA
ATOM     76  O   UNL A   1      45.150  34.432  35.099  1.00  0.00    -0.744 OA
ENDBRANCH  70  73
ENDBRANCH  52  66
BRANCH  53  77
ATOM     77  C   UNL A   1      42.623  24.118  27.244  1.00  0.00     0.023 A 
ATOM     78  C   UNL A   1      43.339  24.446  26.076  1.00  0.00     0.012 A 
ATOM     79  C   UNL A   1      42.030  22.845  27.350  1.00  0.00     0.148 A 
ATOM     80  C   UNL A   1      43.441  23.536  25.024  1.00  0.00     0.002 A 
ATOM     81  C   UNL A   1      42.179  21.923  26.320  1.00  0.00     0.091 A 
ATOM     82  F   UNL A   1      41.340  22.555  28.463  1.00  0.00    -0.205 F 
ATOM     83  C   UNL A   1      42.871  22.272  25.149  1.00  0.00     0.022 A 
BRANCH  81  84
ATOM     84  S   UNL A   1      41.587  20.232  26.455  1.00  0.00     0.127 S 
ATOM     85  O   UNL A   1      40.145  20.405  26.300  1.00  0.00    -0.237 OA
ATOM     86  O   UNL A   1      42.253  19.582  25.326  1.00  0.00    -0.237 OA
ATOM     87  O   UNL A   1      42.034  19.765  27.760  1.00  0.00    -0.744 OA
ENDBRANCH  81  84
ENDBRANCH  53  77
BRANCH  65  88
ATOM     88  C   UNL A   1      46.548  25.348  32.890  1.00  0.00     0.023 A 
ATOM     89  C   UNL A   1      47.814  25.844  32.523  1.00  0.00     0.012 A 
ATOM     90  C   UNL A   1      46.460  24.298  33.825  1.00  0.00     0.148 A 
ATOM     91  C   UNL A   1      48.975  25.288  33.059  1.00  0.00     0.002 A 
ATOM     92  C   UNL A   1      47.620  23.777  34.387  1.00  0.00     0.091 A 
ATOM     93  F   UNL A   1      45.246  23.825  34.145  1.00  0.00    -0.205 F 
ATOM     94  C   UNL A   1      48.878  24.265  33.998  1.00  0.00     0.022 A 
BRANCH  92  95
ATOM     95  S   UNL A   1      47.582  22.520  35.670  1.00  0.00     0.127 S 
ATOM     96  O   UNL A   1      49.000  22.386  35.999  1.00  0.00    -0.237 OA
ATOM     97  O   UNL A   1      46.773  23.159  36.710  1.00  0.00    -0.237 OA
ATOM     98  O   UNL A   1      46.963  21.350  35.063  1.00  0.00    -0.744 OA
ENDBRANCH  92  95
ENDBRANCH  65  88
ENDBRANCH  39  40
ENDBRANCH  31  34
ENDBRANCH  29  30
ENDBRANCH   1  29
TORSDOF 17
ENDMDL
MODEL 3
REMARK VINA RESULT:     -12.7      2.457      3.403
REMARK SMILES COc1ccc2c(CC(=O)NCCCNC(=O)c3ccc(-c4c5nc(c(-c6cccc(S(=O)(=O)[O-])c6F)c6ccc([nH]6)c(-c6cccc(S(=O)(=O)[O-])c6F)c6nc(c(-c7cccc(S(=O)(=O)[O-])c7F)c7ccc4[nH]7)C=C6)C=C5)cc3)c(C(=O)c3cc(C)ccn3)[nH]c2c1
REMARK SMILES IDX 13 1 12 2 11 3 9 4 10 5 8 7 7 8 3 9 4 10 93 11 5 12 92 13
REMARK SMILES IDX 6 14 91 15 81 16 2 18 1 19 82 20 83 21 84 22 85 23 90 24
REMARK SMILES IDX 86 25 89 26 87 27 88 28 14 29 15 30 16 31 17 33 18 34 19 35
REMARK SMILES IDX 80 36 20 37 79 38 21 39 22 40 23 41 73 42 24 43 78 44 72 45
REMARK SMILES IDX 74 46 25 47 77 48 71 49 70 50 26 52 58 53 38 54 57 55 39 56
REMARK SMILES IDX 42 57 56 58 75 59 40 60 41 61 55 63 76 64 43 65 27 66 28 67
REMARK SMILES IDX 36 68 29 69 31 70 37 71 30 72 32 73 33 74 34 75 35 76 59 77
REMARK SMILES IDX 60 78 68 79 61 80 63 81 69 82 62 83 64 84 65 85 66 86 67 87
REMARK SMILES IDX 44 88 45 89 53 90 46 91 48 92 54 93 47 94 49 95 50 96 51 97
REMARK SMILES IDX 52 98
REMARK H PARENT 11 6 91 17 15 32 74 51 42 62
REMARK Flexibility Score: inf
ROOT
ATOM      1  C   UNL A   1      33.574  28.906  24.525  1.00  0.00     0.042 C 
ENDROOT
BRANCH   1   2
ATOM      2  C   UNL A   1      34.021  27.483  24.212  1.00  0.00     0.117 C 
BRANCH   2   3
ATOM      3  N   UNL A   1      33.752  26.549  25.286  1.00  0.00    -0.356 N 
ATOM      4  C   UNL A   1      34.043  25.217  25.380  1.00  0.00     0.224 C 
ATOM      5  O   UNL A   1      33.934  24.703  26.497  1.00  0.00    -0.275 OA
ATOM      6  H   UNL A   1      33.288  26.931  26.066  1.00  0.00     0.163 HD
BRANCH   4   7
ATOM      7  C   UNL A   1      34.620  24.443  24.200  1.00  0.00     0.138 C 
BRANCH   7   8
ATOM      8  C   UNL A   1      33.668  23.488  23.529  1.00  0.00    -0.002 A 
ATOM      9  C   UNL A   1      32.681  19.429  24.088  1.00  0.00     0.120 A 
ATOM     10  C   UNL A   1      33.594  19.948  25.002  1.00  0.00     0.047 A 
ATOM     11  C   UNL A   1      32.176  20.219  23.051  1.00  0.00     0.073 A 
ATOM     12  C   UNL A   1      33.990  21.288  24.924  1.00  0.00     0.014 A 
ATOM     13  C   UNL A   1      32.572  21.562  23.000  1.00  0.00     0.050 A 
ATOM     14  C   UNL A   1      33.468  22.116  23.907  1.00  0.00     0.004 A 
ATOM     15  N   UNL A   1      32.221  22.555  22.118  1.00  0.00    -0.351 N 
ATOM     16  C   UNL A   1      32.780  23.762  22.487  1.00  0.00     0.093 A 
ATOM     17  H   UNL A   1      31.648  22.422  21.328  1.00  0.00     0.167 HD
BRANCH   9  18
ATOM     18  O   UNL A   1      32.268  18.123  24.097  1.00  0.00    -0.497 OA
ATOM     19  C   UNL A   1      32.513  17.445  25.325  1.00  0.00     0.278 C 
ENDBRANCH   9  18
BRANCH  16  20
ATOM     20  C   UNL A   1      32.485  25.052  21.868  1.00  0.00     0.227 C 
ATOM     21  O   UNL A   1      33.122  25.496  20.911  1.00  0.00    -0.285 OA
BRANCH  20  22
ATOM     22  C   UNL A   1      31.429  25.920  22.450  1.00  0.00     0.113 A 
ATOM     23  C   UNL A   1      31.293  27.234  22.010  1.00  0.00     0.036 A 
ATOM     24  N   UNL A   1      30.618  25.341  23.370  1.00  0.00    -0.253 NA
ATOM     25  C   UNL A   1      30.268  28.011  22.552  1.00  0.00    -0.047 A 
ATOM     26  C   UNL A   1      29.628  26.109  23.867  1.00  0.00     0.112 A 
ATOM     27  C   UNL A   1      30.060  29.434  22.129  1.00  0.00     0.044 C 
ATOM     28  C   UNL A   1      29.417  27.430  23.495  1.00  0.00     0.023 A 
ENDBRANCH  20  22
ENDBRANCH  16  20
ENDBRANCH   7   8
ENDBRANCH   4   7
ENDBRANCH   2   3
ENDBRANCH   1   2
BRANCH   1  29
ATOM     29  C   UNL A   1      32.674  29.035  25.752  1.00  0.00     0.118 C 
BRANCH  29  30
ATOM     30  N   UNL A   1      32.356  30.419  26.081  1.00  0.00    -0.352 N 
ATOM     31  C   UNL A   1      32.963  31.293  26.947  1.00  0.00     0.251 C 
ATOM     32  H   UNL A   1      31.576  30.785  25.605  1.00  0.00     0.163 HD
ATOM     33  O   UNL A   1      32.416  32.366  27.193  1.00  0.00    -0.269 OA
BRANCH  31  34
ATOM     34  C   UNL A   1      34.253  30.962  27.595  1.00  0.00     0.039 A 
ATOM     35  C   UNL A   1      35.210  31.973  27.738  1.00  0.00     0.014 A 
ATOM     36  C   UNL A   1      34.550  29.663  28.015  1.00  0.00     0.014 A 
ATOM     37  C   UNL A   1      36.434  31.696  28.355  1.00  0.00     0.010 A 
ATOM     38  C   UNL A   1      35.742  29.403  28.689  1.00  0.00     0.010 A 
ATOM     39  C   UNL A   1      36.699  30.415  28.861  1.00  0.00    -0.014 A 
BRANCH  39  40
ATOM     40  C   UNL A   1      37.959  30.118  29.592  1.00  0.00     0.031 A 
ATOM     41  C   UNL A   1      38.956  29.141  29.028  1.00  0.00     0.074 A 
ATOM     42  C   UNL A   1      38.162  30.656  30.811  1.00  0.00     0.049 A 
ATOM     43  N   UNL A   1      40.072  28.706  29.555  1.00  0.00    -0.248 NA
ATOM     44  C   UNL A   1      38.648  28.557  27.712  1.00  0.00     0.031 C 
ATOM     45  C   UNL A   1      37.234  31.553  31.503  1.00  0.00     0.029 A 
ATOM     46  N   UNL A   1      39.198  30.501  31.698  1.00  0.00    -0.354 N 
ATOM     47  C   UNL A   1      40.577  27.771  28.659  1.00  0.00     0.074 A 
ATOM     48  C   UNL A   1      39.633  27.683  27.566  1.00  0.00     0.031 C 
ATOM     49  C   UNL A   1      37.741  31.866  32.707  1.00  0.00     0.029 A 
ATOM     50  C   UNL A   1      39.014  31.175  32.883  1.00  0.00     0.049 A 
ATOM     51  H   UNL A   1      39.997  29.961  31.504  1.00  0.00     0.167 HD
ATOM     52  C   UNL A   1      41.735  27.071  28.724  1.00  0.00     0.034 A 
ATOM     53  C   UNL A   1      39.781  31.227  33.990  1.00  0.00     0.034 A 
ATOM     54  C   UNL A   1      42.699  27.200  29.784  1.00  0.00     0.049 A 
ATOM     55  C   UNL A   1      41.090  30.488  34.011  1.00  0.00     0.074 A 
ATOM     56  C   UNL A   1      43.944  26.606  29.893  1.00  0.00     0.029 A 
ATOM     57  N   UNL A   1      42.527  27.976  30.920  1.00  0.00    -0.354 N 
ATOM     58  N   UNL A   1      41.628  29.737  33.080  1.00  0.00    -0.248 NA
ATOM     59  C   UNL A   1      41.918  30.632  35.219  1.00  0.00     0.031 C 
ATOM     60  C   UNL A   1      44.521  27.016  31.100  1.00  0.00     0.029 A 
ATOM     61  C   UNL A   1      43.640  27.875  31.737  1.00  0.00     0.049 A 
ATOM     62  H   UNL A   1      41.730  28.521  31.117  1.00  0.00     0.167 HD
ATOM     63  C   UNL A   1      42.868  29.347  33.574  1.00  0.00     0.074 A 
ATOM     64  C   UNL A   1      43.011  29.962  34.878  1.00  0.00     0.031 C 
ATOM     65  C   UNL A   1      43.795  28.537  33.006  1.00  0.00     0.034 A 
BRANCH  52  66
ATOM     66  C   UNL A   1      42.059  26.145  27.581  1.00  0.00     0.023 A 
ATOM     67  C   UNL A   1      42.785  26.638  26.478  1.00  0.00     0.012 A 
ATOM     68  C   UNL A   1      41.705  24.782  27.621  1.00  0.00     0.148 A 
ATOM     69  C   UNL A   1      43.127  25.799  25.418  1.00  0.00     0.002 A 
ATOM     70  C   UNL A   1      42.084  23.942  26.580  1.00  0.00     0.091 A 
ATOM     71  F   UNL A   1      40.996  24.335  28.668  1.00  0.00    -0.205 F 
ATOM     72  C   UNL A   1      42.786  24.451  25.474  1.00  0.00     0.022 A 
BRANCH  70  73
ATOM     73  S   UNL A   1      41.757  22.175  26.597  1.00  0.00     0.127 S 
ATOM     74  O   UNL A   1      42.423  21.740  25.369  1.00  0.00    -0.237 OA
ATOM     75  O   UNL A   1      42.422  21.749  27.832  1.00  0.00    -0.237 OA
ATOM     76  O   UNL A   1      40.311  22.037  26.612  1.00  0.00    -0.744 OA
ENDBRANCH  70  73
ENDBRANCH  52  66
BRANCH  53  77
ATOM     77  C   UNL A   1      39.361  32.076  35.141  1.00  0.00     0.023 A 
ATOM     78  C   UNL A   1      39.605  33.462  35.098  1.00  0.00     0.012 A 
ATOM     79  C   UNL A   1      38.690  31.531  36.253  1.00  0.00     0.148 A 
ATOM     80  C   UNL A   1      39.213  34.287  36.152  1.00  0.00     0.002 A 
ATOM     81  C   UNL A   1      38.255  32.365  37.276  1.00  0.00     0.091 A 
ATOM     82  F   UNL A   1      38.479  30.207  36.284  1.00  0.00    -0.205 F 
ATOM     83  C   UNL A   1      38.529  33.742  37.235  1.00  0.00     0.022 A 
BRANCH  81  84
ATOM     84  S   UNL A   1      37.257  31.763  38.644  1.00  0.00     0.127 S 
ATOM     85  O   UNL A   1      37.027  30.373  38.260  1.00  0.00    -0.237 OA
ATOM     86  O   UNL A   1      38.156  31.946  39.784  1.00  0.00    -0.237 OA
ATOM     87  O   UNL A   1      36.078  32.618  38.672  1.00  0.00    -0.744 OA
ENDBRANCH  81  84
ENDBRANCH  53  77
BRANCH  65  88
ATOM     88  C   UNL A   1      45.065  28.283  33.774  1.00  0.00     0.023 A 
ATOM     89  C   UNL A   1      46.149  29.173  33.639  1.00  0.00     0.012 A 
ATOM     90  C   UNL A   1      45.157  27.213  34.686  1.00  0.00     0.148 A 
ATOM     91  C   UNL A   1      47.316  28.985  34.381  1.00  0.00     0.002 A 
ATOM     92  C   UNL A   1      46.306  27.058  35.453  1.00  0.00     0.091 A 
ATOM     93  F   UNL A   1      44.123  26.365  34.784  1.00  0.00    -0.205 F 
ATOM     94  C   UNL A   1      47.389  27.938  35.295  1.00  0.00     0.022 A 
BRANCH  92  95
ATOM     95  S   UNL A   1      46.449  25.791  36.718  1.00  0.00     0.127 S 
ATOM     96  O   UNL A   1      46.267  24.568  35.938  1.00  0.00    -0.237 OA
ATOM     97  O   UNL A   1      47.810  25.998  37.217  1.00  0.00    -0.237 OA
ATOM     98  O   UNL A   1      45.404  26.079  37.690  1.00  0.00    -0.744 OA
ENDBRANCH  92  95
ENDBRANCH  65  88
ENDBRANCH  39  40
ENDBRANCH  31  34
ENDBRANCH  29  30
ENDBRANCH   1  29
TORSDOF 17
ENDMDL
