MODEL 1
REMARK VINA RESULT:     -12.7      0.000      0.000
REMARK SMILES Cc1occc1C(=O)N1CCC(C(=O)NCCCNC(=O)c2ccc(-c3c4nc(c(-c5cccc(S(=O)(=O)[O-])c5F)c5ccc([nH]5)c(-c5cccc(S(=O)(=O)[O-])c5F)c5nc(c(-c6cccc(S(=O)(=O)[O-])c6F)c6ccc3[nH]6)C=C5)C=C4)cc2)(n2cccn2)CC1
REMARK SMILES IDX 18 1 17 2 16 3 15 4 13 5 14 6 12 8 7 9 8 10 9 11 10 12 91 13
REMARK SMILES IDX 11 14 90 15 6 16 1 17 2 18 3 19 4 20 5 21 85 22 86 23 89 24
REMARK SMILES IDX 87 25 88 26 19 27 20 28 21 30 22 31 23 32 84 33 24 34 83 35
REMARK SMILES IDX 25 36 26 37 27 38 77 39 28 40 82 41 76 42 78 43 29 44 81 45
REMARK SMILES IDX 75 46 74 47 30 49 62 50 42 51 61 52 43 53 46 54 60 55 79 56
REMARK SMILES IDX 44 57 45 58 59 60 80 61 47 62 31 63 32 64 40 65 33 66 35 67
REMARK SMILES IDX 41 68 34 69 36 70 37 71 38 72 39 73 63 74 64 75 72 76 65 77
REMARK SMILES IDX 67 78 73 79 66 80 68 81 69 82 70 83 71 84 48 85 49 86 57 87
REMARK SMILES IDX 50 88 52 89 58 90 51 91 53 92 54 93 55 94 56 95
REMARK H PARENT 15 7 19 29 78 48 46 59
REMARK Flexibility Score: inf
ROOT
ATOM      1  C   UNL A   1      32.900  31.606  27.203  1.00  0.00     0.118 C 
ENDROOT
BRANCH   1   2
ATOM      2  C   UNL A   1      32.004  30.895  26.198  1.00  0.00     0.042 C 
BRANCH   2   3
ATOM      3  C   UNL A   1      32.484  29.504  25.798  1.00  0.00     0.117 C 
BRANCH   3   4
ATOM      4  N   UNL A   1      33.288  29.519  24.581  1.00  0.00    -0.354 N 
ATOM      5  C   UNL A   1      33.456  28.640  23.540  1.00  0.00     0.248 C 
ATOM      6  O   UNL A   1      34.374  28.964  22.783  1.00  0.00    -0.272 OA
ATOM      7  H   UNL A   1      33.829  30.338  24.485  1.00  0.00     0.163 HD
BRANCH   5   8
ATOM      8  C   UNL A   1      32.583  27.344  23.401  1.00  0.00     0.144 C 
ATOM      9  C   UNL A   1      33.988  23.355  23.142  1.00  0.00     0.257 C 
ATOM     10  O   UNL A   1      34.958  23.327  22.380  1.00  0.00    -0.269 OA
ATOM     11  N   UNL A   1      33.200  24.499  23.232  1.00  0.00    -0.338 N 
ATOM     12  C   UNL A   1      32.899  25.185  21.989  1.00  0.00     0.123 C 
ATOM     13  C   UNL A   1      32.580  24.983  24.454  1.00  0.00     0.123 C 
ATOM     14  C   UNL A   1      33.030  26.693  22.067  1.00  0.00     0.062 C 
ATOM     15  C   UNL A   1      32.804  26.474  24.668  1.00  0.00     0.062 C 
BRANCH   9  16
ATOM     16  C   UNL A   1      33.633  22.163  23.905  1.00  0.00     0.081 A 
ATOM     17  C   UNL A   1      35.135  22.158  26.096  1.00  0.00     0.088 C 
ATOM     18  C   UNL A   1      34.119  21.702  25.123  1.00  0.00     0.113 A 
ATOM     19  O   UNL A   1      33.423  20.598  25.525  1.00  0.00    -0.469 OA
ATOM     20  C   UNL A   1      32.447  20.380  24.614  1.00  0.00     0.196 A 
ATOM     21  C   UNL A   1      32.526  21.305  23.607  1.00  0.00     0.056 A 
ENDBRANCH   9  16
BRANCH   8  22
ATOM     22  N   UNL A   1      31.109  27.620  23.320  1.00  0.00    -0.257 N 
ATOM     23  C   UNL A   1      30.087  26.850  23.837  1.00  0.00     0.110 A 
ATOM     24  N   UNL A   1      30.624  28.783  22.841  1.00  0.00    -0.181 NA
ATOM     25  C   UNL A   1      28.905  27.469  23.510  1.00  0.00     0.042 A 
ATOM     26  C   UNL A   1      29.300  28.642  22.860  1.00  0.00     0.135 A 
ENDBRANCH   8  22
ENDBRANCH   5   8
ENDBRANCH   3   4
ENDBRANCH   2   3
ENDBRANCH   1   2
BRANCH   1  27
ATOM     27  N   UNL A   1      32.566  33.016  27.363  1.00  0.00    -0.352 N 
ATOM     28  C   UNL A   1      33.090  33.939  28.240  1.00  0.00     0.251 C 
ATOM     29  H   UNL A   1      31.867  33.357  26.760  1.00  0.00     0.163 HD
ATOM     30  O   UNL A   1      32.573  35.047  28.350  1.00  0.00    -0.269 OA
BRANCH  28  31
ATOM     31  C   UNL A   1      34.264  33.579  29.063  1.00  0.00     0.039 A 
ATOM     32  C   UNL A   1      34.093  32.764  30.185  1.00  0.00     0.014 A 
ATOM     33  C   UNL A   1      35.537  34.028  28.704  1.00  0.00     0.014 A 
ATOM     34  C   UNL A   1      35.213  32.329  30.900  1.00  0.00     0.010 A 
ATOM     35  C   UNL A   1      36.652  33.528  29.365  1.00  0.00     0.010 A 
ATOM     36  C   UNL A   1      36.503  32.673  30.468  1.00  0.00    -0.014 A 
BRANCH  36  37
ATOM     37  C   UNL A   1      37.730  32.173  31.139  1.00  0.00     0.031 A 
ATOM     38  C   UNL A   1      38.502  31.043  30.516  1.00  0.00     0.074 A 
ATOM     39  C   UNL A   1      38.065  32.630  32.362  1.00  0.00     0.049 A 
ATOM     40  N   UNL A   1      39.467  30.322  31.022  1.00  0.00    -0.248 NA
ATOM     41  C   UNL A   1      38.102  30.644  29.155  1.00  0.00     0.031 C 
ATOM     42  C   UNL A   1      37.368  33.688  33.094  1.00  0.00     0.029 A 
ATOM     43  N   UNL A   1      39.058  32.232  33.223  1.00  0.00    -0.354 N 
ATOM     44  C   UNL A   1      39.747  29.348  30.071  1.00  0.00     0.074 A 
ATOM     45  C   UNL A   1      38.835  29.556  28.968  1.00  0.00     0.031 C 
ATOM     46  C   UNL A   1      37.954  33.858  34.290  1.00  0.00     0.029 A 
ATOM     47  C   UNL A   1      39.041  32.893  34.429  1.00  0.00     0.049 A 
ATOM     48  H   UNL A   1      39.719  31.538  32.998  1.00  0.00     0.167 HD
ATOM     49  C   UNL A   1      40.696  28.382  30.100  1.00  0.00     0.034 A 
ATOM     50  C   UNL A   1      39.806  32.730  35.526  1.00  0.00     0.034 A 
ATOM     51  C   UNL A   1      41.647  28.226  31.167  1.00  0.00     0.049 A 
ATOM     52  C   UNL A   1      40.880  31.677  35.520  1.00  0.00     0.074 A 
ATOM     53  C   UNL A   1      42.705  27.340  31.253  1.00  0.00     0.029 A 
ATOM     54  N   UNL A   1      41.657  28.981  32.329  1.00  0.00    -0.354 N 
ATOM     55  N   UNL A   1      41.213  30.845  34.562  1.00  0.00    -0.248 NA
ATOM     56  C   UNL A   1      41.701  31.553  36.733  1.00  0.00     0.031 C 
ATOM     57  C   UNL A   1      43.355  27.558  32.472  1.00  0.00     0.029 A 
ATOM     58  C   UNL A   1      42.706  28.585  33.139  1.00  0.00     0.049 A 
ATOM     59  H   UNL A   1      41.014  29.693  32.547  1.00  0.00     0.167 HD
ATOM     60  C   UNL A   1      42.307  30.133  35.038  1.00  0.00     0.074 A 
ATOM     61  C   UNL A   1      42.585  30.633  36.369  1.00  0.00     0.031 C 
ATOM     62  C   UNL A   1      43.012  29.147  34.430  1.00  0.00     0.034 A 
BRANCH  49  63
ATOM     63  C   UNL A   1      40.785  27.461  28.913  1.00  0.00     0.023 A 
ATOM     64  C   UNL A   1      39.917  26.353  28.829  1.00  0.00     0.012 A 
ATOM     65  C   UNL A   1      41.704  27.697  27.872  1.00  0.00     0.148 A 
ATOM     66  C   UNL A   1      39.992  25.470  27.753  1.00  0.00     0.002 A 
ATOM     67  C   UNL A   1      41.743  26.835  26.781  1.00  0.00     0.091 A 
ATOM     68  F   UNL A   1      42.543  28.737  27.977  1.00  0.00    -0.205 F 
ATOM     69  C   UNL A   1      40.898  25.715  26.726  1.00  0.00     0.022 A 
BRANCH  67  70
ATOM     70  S   UNL A   1      42.829  27.126  25.380  1.00  0.00     0.127 S 
ATOM     71  O   UNL A   1      44.118  27.327  26.038  1.00  0.00    -0.237 OA
ATOM     72  O   UNL A   1      42.718  25.875  24.628  1.00  0.00    -0.237 OA
ATOM     73  O   UNL A   1      42.277  28.286  24.694  1.00  0.00    -0.744 OA
ENDBRANCH  67  70
ENDBRANCH  49  63
BRANCH  50  74
ATOM     74  C   UNL A   1      39.643  33.652  36.687  1.00  0.00     0.023 A 
ATOM     75  C   UNL A   1      40.052  34.993  36.547  1.00  0.00     0.012 A 
ATOM     76  C   UNL A   1      39.051  33.236  37.895  1.00  0.00     0.148 A 
ATOM     77  C   UNL A   1      39.893  35.898  37.596  1.00  0.00     0.002 A 
ATOM     78  C   UNL A   1      38.854  34.155  38.920  1.00  0.00     0.091 A 
ATOM     79  F   UNL A   1      38.678  31.954  38.011  1.00  0.00    -0.205 F 
ATOM     80  C   UNL A   1      39.287  35.484  38.778  1.00  0.00     0.022 A 
BRANCH  78  81
ATOM     81  S   UNL A   1      37.978  33.746  40.434  1.00  0.00     0.127 S 
ATOM     82  O   UNL A   1      36.766  33.114  39.918  1.00  0.00    -0.237 OA
ATOM     83  O   UNL A   1      38.916  32.834  41.089  1.00  0.00    -0.237 OA
ATOM     84  O   UNL A   1      37.783  35.010  41.131  1.00  0.00    -0.744 OA
ENDBRANCH  78  81
ENDBRANCH  50  74
BRANCH  62  85
ATOM     85  C   UNL A   1      44.191  28.567  35.166  1.00  0.00     0.023 A 
ATOM     86  C   UNL A   1      45.473  29.111  34.968  1.00  0.00     0.012 A 
ATOM     87  C   UNL A   1      44.002  27.563  36.137  1.00  0.00     0.148 A 
ATOM     88  C   UNL A   1      46.556  28.656  35.719  1.00  0.00     0.002 A 
ATOM     89  C   UNL A   1      45.077  27.145  36.911  1.00  0.00     0.091 A 
ATOM     90  F   UNL A   1      42.773  27.049  36.293  1.00  0.00    -0.205 F 
ATOM     91  C   UNL A   1      46.356  27.685  36.698  1.00  0.00     0.022 A 
BRANCH  89  92
ATOM     92  S   UNL A   1      44.897  25.969  38.257  1.00  0.00     0.127 S 
ATOM     93  O   UNL A   1      43.779  26.542  39.006  1.00  0.00    -0.237 OA
ATOM     94  O   UNL A   1      44.584  24.728  37.546  1.00  0.00    -0.237 OA
ATOM     95  O   UNL A   1      46.175  25.959  38.955  1.00  0.00    -0.744 OA
ENDBRANCH  89  92
ENDBRANCH  62  85
ENDBRANCH  36  37
ENDBRANCH  28  31
ENDBRANCH   1  27
TORSDOF 15
ENDMDL
MODEL 2
REMARK VINA RESULT:     -12.6      2.321      3.138
REMARK SMILES Cc1occc1C(=O)N1CCC(C(=O)NCCCNC(=O)c2ccc(-c3c4nc(c(-c5cccc(S(=O)(=O)[O-])c5F)c5ccc([nH]5)c(-c5cccc(S(=O)(=O)[O-])c5F)c5nc(c(-c6cccc(S(=O)(=O)[O-])c6F)c6ccc3[nH]6)C=C5)C=C4)cc2)(n2cccn2)CC1
REMARK SMILES IDX 18 1 17 2 16 3 15 4 13 5 14 6 12 8 7 9 8 10 9 11 10 12 91 13
REMARK SMILES IDX 11 14 90 15 6 16 1 17 2 18 3 19 4 20 5 21 85 22 86 23 89 24
REMARK SMILES IDX 87 25 88 26 19 27 20 28 21 30 22 31 23 32 84 33 24 34 83 35
REMARK SMILES IDX 25 36 26 37 27 38 77 39 28 40 82 41 76 42 78 43 29 44 81 45
REMARK SMILES IDX 75 46 74 47 30 49 62 50 42 51 61 52 43 53 46 54 60 55 79 56
REMARK SMILES IDX 44 57 45 58 59 60 80 61 47 62 31 63 32 64 40 65 33 66 35 67
REMARK SMILES IDX 41 68 34 69 36 70 37 71 38 72 39 73 63 74 64 75 72 76 65 77
REMARK SMILES IDX 67 78 73 79 66 80 68 81 69 82 70 83 71 84 48 85 49 86 57 87
REMARK SMILES IDX 50 88 52 89 58 90 51 91 53 92 54 93 55 94 56 95
REMARK H PARENT 15 7 19 29 78 48 46 59
REMARK Flexibility Score: inf
ROOT
ATOM      1  C   UNL A   1      33.165  29.619  25.414  1.00  0.00     0.118 C 
ENDROOT
BRANCH   1   2
ATOM      2  C   UNL A   1      32.165  28.471  25.380  1.00  0.00     0.042 C 
BRANCH   2   3
ATOM      3  C   UNL A   1      32.148  27.612  26.640  1.00  0.00     0.117 C 
BRANCH   3   4
ATOM      4  N   UNL A   1      30.992  26.724  26.695  1.00  0.00    -0.354 N 
ATOM      5  C   UNL A   1      30.670  25.542  26.076  1.00  0.00     0.248 C 
ATOM      6  O   UNL A   1      29.502  25.201  26.274  1.00  0.00    -0.272 OA
ATOM      7  H   UNL A   1      30.290  27.042  27.309  1.00  0.00     0.163 HD
BRANCH   5   8
ATOM      8  C   UNL A   1      31.698  24.770  25.177  1.00  0.00     0.144 C 
ATOM      9  C   UNL A   1      33.625  21.110  26.093  1.00  0.00     0.257 C 
ATOM     10  O   UNL A   1      33.994  21.143  27.270  1.00  0.00    -0.269 OA
ATOM     11  N   UNL A   1      33.163  22.267  25.472  1.00  0.00    -0.338 N 
ATOM     12  C   UNL A   1      33.887  23.493  25.752  1.00  0.00     0.123 C 
ATOM     13  C   UNL A   1      32.089  22.308  24.494  1.00  0.00     0.123 C 
ATOM     14  C   UNL A   1      32.996  24.690  26.020  1.00  0.00     0.062 C 
ATOM     15  C   UNL A   1      31.073  23.402  24.793  1.00  0.00     0.062 C 
BRANCH   9  16
ATOM     16  C   UNL A   1      33.732  19.868  25.336  1.00  0.00     0.081 A 
ATOM     17  C   UNL A   1      36.306  19.502  24.793  1.00  0.00     0.088 C 
ATOM     18  C   UNL A   1      34.854  19.228  24.821  1.00  0.00     0.113 A 
ATOM     19  O   UNL A   1      34.506  18.025  24.275  1.00  0.00    -0.469 OA
ATOM     20  C   UNL A   1      33.182  17.848  24.493  1.00  0.00     0.196 A 
ATOM     21  C   UNL A   1      32.660  18.939  25.138  1.00  0.00     0.056 A 
ENDBRANCH   9  16
BRANCH   8  22
ATOM     22  N   UNL A   1      32.014  25.476  23.889  1.00  0.00    -0.257 N 
ATOM     23  C   UNL A   1      33.257  25.641  23.313  1.00  0.00     0.110 A 
ATOM     24  N   UNL A   1      31.048  25.909  23.054  1.00  0.00    -0.181 NA
ATOM     25  C   UNL A   1      33.078  26.362  22.158  1.00  0.00     0.042 A 
ATOM     26  C   UNL A   1      31.693  26.533  22.071  1.00  0.00     0.135 A 
ENDBRANCH   8  22
ENDBRANCH   5   8
ENDBRANCH   3   4
ENDBRANCH   2   3
ENDBRANCH   1   2
BRANCH   1  27
ATOM     27  N   UNL A   1      32.614  30.835  26.000  1.00  0.00    -0.352 N 
ATOM     28  C   UNL A   1      33.093  31.589  27.046  1.00  0.00     0.251 C 
ATOM     29  H   UNL A   1      31.781  31.162  25.590  1.00  0.00     0.163 HD
ATOM     30  O   UNL A   1      32.410  32.495  27.517  1.00  0.00    -0.269 OA
BRANCH  28  31
ATOM     31  C   UNL A   1      34.425  31.289  27.613  1.00  0.00     0.039 A 
ATOM     32  C   UNL A   1      35.375  32.309  27.716  1.00  0.00     0.014 A 
ATOM     33  C   UNL A   1      34.719  30.003  28.069  1.00  0.00     0.014 A 
ATOM     34  C   UNL A   1      36.593  32.058  28.354  1.00  0.00     0.010 A 
ATOM     35  C   UNL A   1      35.894  29.778  28.776  1.00  0.00     0.010 A 
ATOM     36  C   UNL A   1      36.843  30.802  28.927  1.00  0.00    -0.014 A 
BRANCH  36  37
ATOM     37  C   UNL A   1      38.083  30.503  29.688  1.00  0.00     0.031 A 
ATOM     38  C   UNL A   1      39.091  29.550  29.107  1.00  0.00     0.074 A 
ATOM     39  C   UNL A   1      38.232  30.966  30.944  1.00  0.00     0.049 A 
ATOM     40  N   UNL A   1      40.127  28.993  29.678  1.00  0.00    -0.248 NA
ATOM     41  C   UNL A   1      38.879  29.137  27.710  1.00  0.00     0.031 C 
ATOM     42  C   UNL A   1      37.301  31.858  31.637  1.00  0.00     0.029 A 
ATOM     43  N   UNL A   1      39.209  30.719  31.877  1.00  0.00    -0.354 N 
ATOM     44  C   UNL A   1      40.652  28.119  28.733  1.00  0.00     0.074 A 
ATOM     45  C   UNL A   1      39.808  28.203  27.561  1.00  0.00     0.031 C 
ATOM     46  C   UNL A   1      37.750  32.084  32.882  1.00  0.00     0.029 A 
ATOM     47  C   UNL A   1      38.977  31.323  33.092  1.00  0.00     0.049 A 
ATOM     48  H   UNL A   1      40.000  30.162  31.694  1.00  0.00     0.167 HD
ATOM     49  C   UNL A   1      41.753  27.336  28.821  1.00  0.00     0.034 A 
ATOM     50  C   UNL A   1      39.670  31.258  34.246  1.00  0.00     0.034 A 
ATOM     51  C   UNL A   1      42.629  27.312  29.960  1.00  0.00     0.049 A 
ATOM     52  C   UNL A   1      40.913  30.412  34.307  1.00  0.00     0.074 A 
ATOM     53  C   UNL A   1      43.819  26.625  30.117  1.00  0.00     0.029 A 
ATOM     54  N   UNL A   1      42.411  28.014  31.136  1.00  0.00    -0.354 N 
ATOM     55  N   UNL A   1      41.464  29.688  33.363  1.00  0.00    -0.248 NA
ATOM     56  C   UNL A   1      41.644  30.391  35.583  1.00  0.00     0.031 C 
ATOM     57  C   UNL A   1      44.320  26.910  31.391  1.00  0.00     0.029 A 
ATOM     58  C   UNL A   1      43.446  27.781  32.023  1.00  0.00     0.049 A 
ATOM     59  H   UNL A   1      41.636  28.593  31.314  1.00  0.00     0.167 HD
ATOM     60  C   UNL A   1      42.627  29.163  33.914  1.00  0.00     0.074 A 
ATOM     61  C   UNL A   1      42.704  29.656  35.274  1.00  0.00     0.031 C 
ATOM     62  C   UNL A   1      43.544  28.340  33.347  1.00  0.00     0.034 A 
BRANCH  49  63
ATOM     63  C   UNL A   1      42.100  26.490  27.626  1.00  0.00     0.023 A 
ATOM     64  C   UNL A   1      42.785  27.071  26.539  1.00  0.00     0.012 A 
ATOM     65  C   UNL A   1      41.772  25.121  27.581  1.00  0.00     0.148 A 
ATOM     66  C   UNL A   1      43.098  26.318  25.409  1.00  0.00     0.002 A 
ATOM     67  C   UNL A   1      42.126  24.365  26.468  1.00  0.00     0.091 A 
ATOM     68  F   UNL A   1      41.096  24.586  28.608  1.00  0.00    -0.205 F 
ATOM     69  C   UNL A   1      42.777  24.964  25.377  1.00  0.00     0.022 A 
BRANCH  67  70
ATOM     70  S   UNL A   1      41.817  22.597  26.383  1.00  0.00     0.127 S 
ATOM     71  O   UNL A   1      40.357  22.552  26.350  1.00  0.00    -0.237 OA
ATOM     72  O   UNL A   1      42.465  22.223  25.124  1.00  0.00    -0.237 OA
ATOM     73  O   UNL A   1      42.446  22.035  27.569  1.00  0.00    -0.744 OA
ENDBRANCH  67  70
ENDBRANCH  49  63
BRANCH  50  74
ATOM     74  C   UNL A   1      39.253  32.093  35.408  1.00  0.00     0.023 A 
ATOM     75  C   UNL A   1      38.408  31.522  36.381  1.00  0.00     0.012 A 
ATOM     76  C   UNL A   1      39.715  33.411  35.587  1.00  0.00     0.148 A 
ATOM     77  C   UNL A   1      38.014  32.255  37.500  1.00  0.00     0.002 A 
ATOM     78  C   UNL A   1      39.355  34.120  36.728  1.00  0.00     0.091 A 
ATOM     79  F   UNL A   1      40.510  33.938  34.645  1.00  0.00    -0.205 F 
ATOM     80  C   UNL A   1      38.494  33.549  37.679  1.00  0.00     0.022 A 
BRANCH  78  81
ATOM     81  S   UNL A   1      40.014  35.749  37.105  1.00  0.00     0.127 S 
ATOM     82  O   UNL A   1      39.691  36.491  35.889  1.00  0.00    -0.237 OA
ATOM     83  O   UNL A   1      39.232  36.126  38.283  1.00  0.00    -0.237 OA
ATOM     84  O   UNL A   1      41.434  35.549  37.364  1.00  0.00    -0.744 OA
ENDBRANCH  78  81
ENDBRANCH  50  74
BRANCH  62  85
ATOM     85  C   UNL A   1      44.745  27.952  34.167  1.00  0.00     0.023 A 
ATOM     86  C   UNL A   1      45.896  28.761  34.146  1.00  0.00     0.012 A 
ATOM     87  C   UNL A   1      44.684  26.851  35.044  1.00  0.00     0.148 A 
ATOM     88  C   UNL A   1      46.976  28.474  34.979  1.00  0.00     0.002 A 
ATOM     89  C   UNL A   1      45.747  26.595  35.901  1.00  0.00     0.091 A 
ATOM     90  F   UNL A   1      43.583  26.084  35.032  1.00  0.00    -0.205 F 
ATOM     91  C   UNL A   1      46.897  27.401  35.864  1.00  0.00     0.022 A 
BRANCH  89  92
ATOM     92  S   UNL A   1      45.696  25.294  37.140  1.00  0.00     0.127 S 
ATOM     93  O   UNL A   1      44.383  25.511  37.746  1.00  0.00    -0.237 OA
ATOM     94  O   UNL A   1      45.800  24.084  36.324  1.00  0.00    -0.237 OA
ATOM     95  O   UNL A   1      46.835  25.531  38.017  1.00  0.00    -0.744 OA
ENDBRANCH  89  92
ENDBRANCH  62  85
ENDBRANCH  36  37
ENDBRANCH  28  31
ENDBRANCH   1  27
TORSDOF 15
ENDMDL
MODEL 3
REMARK VINA RESULT:     -12.6      5.653      9.020
REMARK SMILES Cc1occc1C(=O)N1CCC(C(=O)NCCCNC(=O)c2ccc(-c3c4nc(c(-c5cccc(S(=O)(=O)[O-])c5F)c5ccc([nH]5)c(-c5cccc(S(=O)(=O)[O-])c5F)c5nc(c(-c6cccc(S(=O)(=O)[O-])c6F)c6ccc3[nH]6)C=C5)C=C4)cc2)(n2cccn2)CC1
REMARK SMILES IDX 18 1 17 2 16 3 15 4 13 5 14 6 12 8 7 9 8 10 9 11 10 12 91 13
REMARK SMILES IDX 11 14 90 15 6 16 1 17 2 18 3 19 4 20 5 21 85 22 86 23 89 24
REMARK SMILES IDX 87 25 88 26 19 27 20 28 21 30 22 31 23 32 84 33 24 34 83 35
REMARK SMILES IDX 25 36 26 37 27 38 77 39 28 40 82 41 76 42 78 43 29 44 81 45
REMARK SMILES IDX 75 46 74 47 30 49 62 50 42 51 61 52 43 53 46 54 60 55 79 56
REMARK SMILES IDX 44 57 45 58 59 60 80 61 47 62 31 63 32 64 40 65 33 66 35 67
REMARK SMILES IDX 41 68 34 69 36 70 37 71 38 72 39 73 63 74 64 75 72 76 65 77
REMARK SMILES IDX 67 78 73 79 66 80 68 81 69 82 70 83 71 84 48 85 49 86 57 87
REMARK SMILES IDX 50 88 52 89 58 90 51 91 53 92 54 93 55 94 56 95
REMARK H PARENT 15 7 19 29 78 48 46 59
REMARK Flexibility Score: inf
ROOT
ATOM      1  C   UNL A   1      38.324  21.099  25.469  1.00  0.00     0.118 C 
ENDROOT
BRANCH   1   2
ATOM      2  C   UNL A   1      37.095  20.339  24.993  1.00  0.00     0.042 C 
BRANCH   2   3
ATOM      3  C   UNL A   1      35.825  21.180  24.909  1.00  0.00     0.117 C 
BRANCH   3   4
ATOM      4  N   UNL A   1      35.155  21.311  26.198  1.00  0.00    -0.354 N 
ATOM      5  C   UNL A   1      33.958  21.852  26.597  1.00  0.00     0.248 C 
ATOM      6  O   UNL A   1      33.846  21.911  27.824  1.00  0.00    -0.272 OA
ATOM      7  H   UNL A   1      35.674  20.929  26.943  1.00  0.00     0.163 HD
BRANCH   5   8
ATOM      8  C   UNL A   1      32.901  22.378  25.565  1.00  0.00     0.144 C 
ATOM      9  C   UNL A   1      30.882  26.101  25.675  1.00  0.00     0.257 C 
ATOM     10  O   UNL A   1      30.526  26.323  26.835  1.00  0.00    -0.269 OA
ATOM     11  N   UNL A   1      31.369  24.847  25.319  1.00  0.00    -0.338 N 
ATOM     12  C   UNL A   1      30.682  23.696  25.877  1.00  0.00     0.123 C 
ATOM     13  C   UNL A   1      32.434  24.615  24.358  1.00  0.00     0.123 C 
ATOM     14  C   UNL A   1      31.609  22.612  26.390  1.00  0.00     0.062 C 
ATOM     15  C   UNL A   1      33.483  23.641  24.877  1.00  0.00     0.062 C 
BRANCH   9  16
ATOM     16  C   UNL A   1      30.733  27.140  24.661  1.00  0.00     0.081 A 
ATOM     17  C   UNL A   1      32.792  28.797  24.930  1.00  0.00     0.088 C 
ATOM     18  C   UNL A   1      31.543  28.234  24.376  1.00  0.00     0.113 A 
ATOM     19  O   UNL A   1      31.085  28.887  23.267  1.00  0.00    -0.469 OA
ATOM     20  C   UNL A   1      30.028  28.188  22.792  1.00  0.00     0.196 A 
ATOM     21  C   UNL A   1      29.771  27.112  23.601  1.00  0.00     0.056 A 
ENDBRANCH   9  16
BRANCH   8  22
ATOM     22  N   UNL A   1      32.591  21.395  24.472  1.00  0.00    -0.257 N 
ATOM     23  C   UNL A   1      32.489  21.656  23.121  1.00  0.00     0.110 A 
ATOM     24  N   UNL A   1      32.525  20.068  24.700  1.00  0.00    -0.181 NA
ATOM     25  C   UNL A   1      32.172  20.473  22.500  1.00  0.00     0.042 A 
ATOM     26  C   UNL A   1      32.169  19.532  23.534  1.00  0.00     0.135 A 
ENDBRANCH   8  22
ENDBRANCH   5   8
ENDBRANCH   3   4
ENDBRANCH   2   3
ENDBRANCH   1   2
BRANCH   1  27
ATOM     27  N   UNL A   1      39.331  20.232  26.069  1.00  0.00    -0.352 N 
ATOM     28  C   UNL A   1      40.481  20.573  26.744  1.00  0.00     0.251 C 
ATOM     29  H   UNL A   1      39.166  19.266  25.978  1.00  0.00     0.163 HD
ATOM     30  O   UNL A   1      41.302  19.709  27.039  1.00  0.00    -0.269 OA
BRANCH  28  31
ATOM     31  C   UNL A   1      40.731  21.987  27.091  1.00  0.00     0.039 A 
ATOM     32  C   UNL A   1      41.567  22.293  28.170  1.00  0.00     0.014 A 
ATOM     33  C   UNL A   1      40.161  23.009  26.329  1.00  0.00     0.014 A 
ATOM     34  C   UNL A   1      41.897  23.626  28.432  1.00  0.00     0.010 A 
ATOM     35  C   UNL A   1      40.556  24.324  26.539  1.00  0.00     0.010 A 
ATOM     36  C   UNL A   1      41.428  24.647  27.592  1.00  0.00    -0.014 A 
BRANCH  36  37
ATOM     37  C   UNL A   1      41.813  26.070  27.772  1.00  0.00     0.031 A 
ATOM     38  C   UNL A   1      43.197  26.514  27.387  1.00  0.00     0.074 A 
ATOM     39  C   UNL A   1      40.981  26.919  28.407  1.00  0.00     0.049 A 
ATOM     40  N   UNL A   1      43.806  27.641  27.645  1.00  0.00    -0.248 NA
ATOM     41  C   UNL A   1      44.019  25.540  26.648  1.00  0.00     0.031 C 
ATOM     42  C   UNL A   1      39.632  26.596  28.875  1.00  0.00     0.029 A 
ATOM     43  N   UNL A   1      41.165  28.221  28.804  1.00  0.00    -0.354 N 
ATOM     44  C   UNL A   1      45.099  27.489  27.157  1.00  0.00     0.074 A 
ATOM     45  C   UNL A   1      45.193  26.154  26.609  1.00  0.00     0.031 C 
ATOM     46  C   UNL A   1      39.110  27.668  29.491  1.00  0.00     0.029 A 
ATOM     47  C   UNL A   1      40.099  28.741  29.502  1.00  0.00     0.049 A 
ATOM     48  H   UNL A   1      41.983  28.733  28.608  1.00  0.00     0.167 HD
ATOM     49  C   UNL A   1      46.111  28.389  27.142  1.00  0.00     0.034 A 
ATOM     50  C   UNL A   1      39.945  29.942  30.094  1.00  0.00     0.034 A 
ATOM     51  C   UNL A   1      45.990  29.738  27.623  1.00  0.00     0.049 A 
ATOM     52  C   UNL A   1      41.070  30.939  30.030  1.00  0.00     0.074 A 
ATOM     53  C   UNL A   1      46.924  30.757  27.572  1.00  0.00     0.029 A 
ATOM     54  N   UNL A   1      44.860  30.257  28.236  1.00  0.00    -0.354 N 
ATOM     55  N   UNL A   1      42.243  30.823  29.456  1.00  0.00    -0.248 NA
ATOM     56  C   UNL A   1      40.843  32.242  30.673  1.00  0.00     0.031 C 
ATOM     57  C   UNL A   1      46.357  31.893  28.159  1.00  0.00     0.029 A 
ATOM     58  C   UNL A   1      45.069  31.583  28.566  1.00  0.00     0.049 A 
ATOM     59  H   UNL A   1      44.031  29.756  28.411  1.00  0.00     0.167 HD
ATOM     60  C   UNL A   1      42.875  32.049  29.628  1.00  0.00     0.074 A 
ATOM     61  C   UNL A   1      41.954  32.896  30.357  1.00  0.00     0.031 C 
ATOM     62  C   UNL A   1      44.112  32.434  29.226  1.00  0.00     0.034 A 
BRANCH  49  63
ATOM     63  C   UNL A   1      47.417  27.954  26.532  1.00  0.00     0.023 A 
ATOM     64  C   UNL A   1      48.493  27.605  27.374  1.00  0.00     0.012 A 
ATOM     65  C   UNL A   1      47.578  27.868  25.136  1.00  0.00     0.148 A 
ATOM     66  C   UNL A   1      49.721  27.221  26.838  1.00  0.00     0.002 A 
ATOM     67  C   UNL A   1      48.793  27.443  24.609  1.00  0.00     0.091 A 
ATOM     68  F   UNL A   1      46.557  28.230  24.346  1.00  0.00    -0.205 F 
ATOM     69  C   UNL A   1      49.868  27.132  25.457  1.00  0.00     0.022 A 
BRANCH  67  70
ATOM     70  S   UNL A   1      49.038  27.227  22.842  1.00  0.00     0.127 S 
ATOM     71  O   UNL A   1      48.298  25.993  22.588  1.00  0.00    -0.237 OA
ATOM     72  O   UNL A   1      48.420  28.432  22.287  1.00  0.00    -0.237 OA
ATOM     73  O   UNL A   1      50.480  27.154  22.656  1.00  0.00    -0.744 OA
ENDBRANCH  67  70
ENDBRANCH  49  63
BRANCH  50  74
ATOM     74  C   UNL A   1      38.638  30.299  30.716  1.00  0.00     0.023 A 
ATOM     75  C   UNL A   1      38.407  29.934  32.057  1.00  0.00     0.012 A 
ATOM     76  C   UNL A   1      37.653  31.028  30.023  1.00  0.00     0.148 A 
ATOM     77  C   UNL A   1      37.211  30.270  32.691  1.00  0.00     0.002 A 
ATOM     78  C   UNL A   1      36.482  31.399  30.674  1.00  0.00     0.091 A 
ATOM     79  F   UNL A   1      37.889  31.356  28.745  1.00  0.00    -0.205 F 
ATOM     80  C   UNL A   1      36.253  31.011  32.004  1.00  0.00     0.022 A 
BRANCH  78  81
ATOM     81  S   UNL A   1      35.240  32.451  29.912  1.00  0.00     0.127 S 
ATOM     82  O   UNL A   1      34.746  31.598  28.834  1.00  0.00    -0.237 OA
ATOM     83  O   UNL A   1      34.301  32.657  31.014  1.00  0.00    -0.237 OA
ATOM     84  O   UNL A   1      35.947  33.654  29.491  1.00  0.00    -0.744 OA
ENDBRANCH  78  81
ENDBRANCH  50  74
BRANCH  62  85
ATOM     85  C   UNL A   1      44.537  33.849  29.512  1.00  0.00     0.023 A 
ATOM     86  C   UNL A   1      45.180  34.152  30.727  1.00  0.00     0.012 A 
ATOM     87  C   UNL A   1      44.404  34.847  28.527  1.00  0.00     0.148 A 
ATOM     88  C   UNL A   1      45.675  35.434  30.963  1.00  0.00     0.002 A 
ATOM     89  C   UNL A   1      44.936  36.110  28.752  1.00  0.00     0.091 A 
ATOM     90  F   UNL A   1      43.772  34.538  27.386  1.00  0.00    -0.205 F 
ATOM     91  C   UNL A   1      45.566  36.407  29.973  1.00  0.00     0.022 A 
BRANCH  89  92
ATOM     92  S   UNL A   1      44.927  37.399  27.500  1.00  0.00     0.127 S 
ATOM     93  O   UNL A   1      45.885  36.876  26.527  1.00  0.00    -0.237 OA
ATOM     94  O   UNL A   1      43.534  37.387  27.053  1.00  0.00    -0.237 OA
ATOM     95  O   UNL A   1      45.333  38.622  28.179  1.00  0.00    -0.744 OA
ENDBRANCH  89  92
ENDBRANCH  62  85
ENDBRANCH  36  37
ENDBRANCH  28  31
ENDBRANCH   1  27
TORSDOF 15
ENDMDL
