MODEL 1
REMARK VINA RESULT:     -12.8      0.000      0.000
REMARK SMILES Cc1n[nH]c2c1[C@@]1(C(=O)N([C@@H](C)C(=O)NCCCNC(=O)c3ccc(-c4c5nc(c(-c6cccc(S(=O)(=O)[O-])c6F)c6ccc([nH]6)c(-c6cccc(S(=O)(=O)[O-])c6F)c6nc(c(-c7cccc(S(=O)(=O)[O-])c7F)c7ccc4[nH]7)C=C6)C=C5)cc3)c3ccccc31)C(C#N)=C(N)O2
REMARK SMILES IDX 17 1 16 2 15 3 13 4 14 5 11 7 12 8 10 9 1 10 2 11 3 12 6 13
REMARK SMILES IDX 4 14 5 15 7 16 96 18 8 19 90 20 91 21 94 22 9 23 85 24 89 25
REMARK SMILES IDX 86 26 88 27 87 28 92 29 93 30 95 31 18 34 19 35 20 36 21 38
REMARK SMILES IDX 22 39 23 40 84 41 24 42 83 43 25 44 26 45 27 46 77 47 28 48
REMARK SMILES IDX 82 49 76 50 78 51 29 52 81 53 75 54 74 55 30 57 62 58 42 59
REMARK SMILES IDX 61 60 43 61 46 62 60 63 79 64 44 65 45 66 59 68 80 69 47 70
REMARK SMILES IDX 31 71 32 72 40 73 33 74 35 75 41 76 34 77 36 78 37 79 38 80
REMARK SMILES IDX 39 81 63 82 64 83 72 84 65 85 67 86 73 87 66 88 68 89 69 90
REMARK SMILES IDX 70 91 71 92 48 93 49 94 57 95 50 96 52 97 58 98 51 99 53 100
REMARK SMILES IDX 54 101 55 102 56 103
REMARK H PARENT 15 6 4 17 95 32 95 33 19 37 78 56 46 67
REMARK Flexibility Score: inf
ROOT
ATOM      1  C   UNL A   1      34.561  30.216  27.160  1.00  0.00     0.042 C 
ENDROOT
BRANCH   1   2
ATOM      2  C   UNL A   1      33.082  29.855  27.335  1.00  0.00     0.117 C 
BRANCH   2   3
ATOM      3  N   UNL A   1      32.356  29.789  26.073  1.00  0.00    -0.354 N 
ATOM      4  C   UNL A   1      32.523  29.078  24.926  1.00  0.00     0.242 C 
ATOM      5  O   UNL A   1      31.640  29.240  24.069  1.00  0.00    -0.273 OA
ATOM      6  H   UNL A   1      31.577  30.389  26.045  1.00  0.00     0.163 HD
BRANCH   4   7
ATOM      7  C   UNL A   1      33.716  28.146  24.592  1.00  0.00     0.176 C 
ATOM      8  C   UNL A   1      34.527  28.508  23.354  1.00  0.00     0.042 C 
BRANCH   7   9
ATOM      9  N   UNL A   1      33.368  26.734  24.698  1.00  0.00    -0.298 N 
ATOM     10  C   UNL A   1      29.742  25.871  25.558  1.00  0.00     0.069 C 
ATOM     11  C   UNL A   1      30.277  24.626  26.161  1.00  0.00     0.068 A 
ATOM     12  N   UNL A   1      29.471  23.851  26.902  1.00  0.00    -0.177 NA
ATOM     13  C   UNL A   1      31.604  24.127  26.150  1.00  0.00     0.063 A 
ATOM     14  N   UNL A   1      30.289  22.917  27.433  1.00  0.00    -0.246 N 
ATOM     15  C   UNL A   1      31.574  23.063  27.013  1.00  0.00     0.222 A 
ATOM     16  C   UNL A   1      32.909  24.597  25.609  1.00  0.00     0.149 C 
ATOM     17  H   UNL A   1      29.990  22.213  28.054  1.00  0.00     0.193 HD
ATOM     18  O   UNL A   1      32.599  22.344  27.452  1.00  0.00    -0.422 OA
ATOM     19  C   UNL A   1      33.059  26.096  25.896  1.00  0.00     0.248 C 
ATOM     20  C   UNL A   1      32.838  24.576  24.107  1.00  0.00     0.002 A 
ATOM     21  C   UNL A   1      34.079  23.794  26.180  1.00  0.00     0.114 C 
ATOM     22  C   UNL A   1      33.880  22.747  27.034  1.00  0.00     0.208 C 
ATOM     23  O   UNL A   1      32.862  26.636  26.981  1.00  0.00    -0.273 OA
ATOM     24  C   UNL A   1      33.174  25.848  23.617  1.00  0.00     0.050 A 
ATOM     25  C   UNL A   1      32.525  23.528  23.250  1.00  0.00     0.008 A 
ATOM     26  C   UNL A   1      33.207  26.093  22.257  1.00  0.00     0.027 A 
ATOM     27  C   UNL A   1      32.535  23.776  21.879  1.00  0.00     0.001 A 
ATOM     28  C   UNL A   1      32.875  25.046  21.387  1.00  0.00     0.002 A 
BRANCH  21  29
ATOM     29  C   UNL A   1      35.515  24.103  25.788  1.00  0.00     0.102 C 
ATOM     30  N   UNL A   1      36.705  24.359  25.462  1.00  0.00    -0.193 NA
ENDBRANCH  21  29
BRANCH  22  31
ATOM     31  N   UNL A   1      34.861  21.968  27.575  1.00  0.00    -0.369 N 
ATOM     32  H   UNL A   1      34.917  21.855  28.552  1.00  0.00     0.159 HD
ATOM     33  H   UNL A   1      35.513  21.519  26.989  1.00  0.00     0.159 HD
ENDBRANCH  22  31
ENDBRANCH   7   9
ENDBRANCH   4   7
ENDBRANCH   2   3
ENDBRANCH   1   2
BRANCH   1  34
ATOM     34  C   UNL A   1      34.956  31.610  27.624  1.00  0.00     0.118 C 
BRANCH  34  35
ATOM     35  N   UNL A   1      34.812  31.798  29.050  1.00  0.00    -0.352 N 
ATOM     36  C   UNL A   1      35.600  31.551  30.142  1.00  0.00     0.251 C 
ATOM     37  H   UNL A   1      33.946  32.197  29.292  1.00  0.00     0.163 HD
ATOM     38  O   UNL A   1      35.106  31.882  31.223  1.00  0.00    -0.269 OA
BRANCH  36  39
ATOM     39  C   UNL A   1      36.954  30.917  30.130  1.00  0.00     0.039 A 
ATOM     40  C   UNL A   1      38.183  31.581  30.142  1.00  0.00     0.014 A 
ATOM     41  C   UNL A   1      36.967  29.508  30.128  1.00  0.00     0.014 A 
ATOM     42  C   UNL A   1      39.383  30.861  30.128  1.00  0.00     0.010 A 
ATOM     43  C   UNL A   1      38.162  28.786  30.134  1.00  0.00     0.010 A 
ATOM     44  C   UNL A   1      39.379  29.462  30.120  1.00  0.00    -0.014 A 
BRANCH  44  45
ATOM     45  C   UNL A   1      40.659  28.755  30.255  1.00  0.00     0.031 A 
ATOM     46  C   UNL A   1      41.199  28.665  31.643  1.00  0.00     0.074 A 
ATOM     47  C   UNL A   1      41.258  28.043  29.276  1.00  0.00     0.049 A 
ATOM     48  N   UNL A   1      42.322  29.119  32.101  1.00  0.00    -0.248 NA
ATOM     49  C   UNL A   1      40.344  28.032  32.660  1.00  0.00     0.031 C 
ATOM     50  C   UNL A   1      40.700  27.723  27.963  1.00  0.00     0.029 A 
ATOM     51  N   UNL A   1      42.432  27.333  29.303  1.00  0.00    -0.354 N 
ATOM     52  C   UNL A   1      42.411  28.632  33.405  1.00  0.00     0.074 A 
ATOM     53  C   UNL A   1      41.116  28.102  33.745  1.00  0.00     0.031 C 
ATOM     54  C   UNL A   1      41.400  26.701  27.423  1.00  0.00     0.029 A 
ATOM     55  C   UNL A   1      42.530  26.391  28.282  1.00  0.00     0.049 A 
ATOM     56  H   UNL A   1      43.136  27.474  29.977  1.00  0.00     0.167 HD
ATOM     57  C   UNL A   1      43.603  28.452  34.034  1.00  0.00     0.034 A 
ATOM     58  C   UNL A   1      43.434  25.388  28.174  1.00  0.00     0.034 A 
ATOM     59  C   UNL A   1      44.702  29.061  33.349  1.00  0.00     0.049 A 
ATOM     60  C   UNL A   1      44.630  25.754  28.969  1.00  0.00     0.074 A 
ATOM     61  C   UNL A   1      45.224  30.319  33.172  1.00  0.00     0.029 A 
ATOM     62  N   UNL A   1      45.329  28.222  32.472  1.00  0.00    -0.354 N 
ATOM     63  N   UNL A   1      45.429  26.746  28.685  1.00  0.00    -0.248 NA
ATOM     64  C   UNL A   1      44.879  25.097  30.249  1.00  0.00     0.031 C 
ATOM     65  C   UNL A   1      46.061  30.239  32.020  1.00  0.00     0.029 A 
ATOM     66  C   UNL A   1      46.005  28.937  31.524  1.00  0.00     0.049 A 
ATOM     67  H   UNL A   1      45.296  27.239  32.515  1.00  0.00     0.167 HD
ATOM     68  C   UNL A   1      45.998  27.082  29.897  1.00  0.00     0.074 A 
ATOM     69  C   UNL A   1      45.781  25.934  30.761  1.00  0.00     0.031 C 
ATOM     70  C   UNL A   1      46.266  28.378  30.213  1.00  0.00     0.034 A 
BRANCH  57  71
ATOM     71  C   UNL A   1      43.877  27.351  35.031  1.00  0.00     0.023 A 
ATOM     72  C   UNL A   1      44.367  27.712  36.305  1.00  0.00     0.012 A 
ATOM     73  C   UNL A   1      43.967  25.991  34.665  1.00  0.00     0.148 A 
ATOM     74  C   UNL A   1      44.918  26.760  37.172  1.00  0.00     0.002 A 
ATOM     75  C   UNL A   1      44.439  25.039  35.560  1.00  0.00     0.091 A 
ATOM     76  F   UNL A   1      43.737  25.631  33.395  1.00  0.00    -0.205 F 
ATOM     77  C   UNL A   1      44.936  25.418  36.808  1.00  0.00     0.022 A 
BRANCH  75  78
ATOM     78  S   UNL A   1      44.422  23.294  35.140  1.00  0.00     0.127 S 
ATOM     79  O   UNL A   1      43.011  23.078  34.836  1.00  0.00    -0.237 OA
ATOM     80  O   UNL A   1      45.321  23.249  33.986  1.00  0.00    -0.237 OA
ATOM     81  O   UNL A   1      44.945  22.625  36.325  1.00  0.00    -0.744 OA
ENDBRANCH  75  78
ENDBRANCH  57  71
BRANCH  58  82
ATOM     82  C   UNL A   1      43.331  24.055  27.519  1.00  0.00     0.023 A 
ATOM     83  C   UNL A   1      42.145  23.306  27.680  1.00  0.00     0.012 A 
ATOM     84  C   UNL A   1      44.253  23.618  26.541  1.00  0.00     0.148 A 
ATOM     85  C   UNL A   1      41.858  22.206  26.863  1.00  0.00     0.002 A 
ATOM     86  C   UNL A   1      43.976  22.502  25.752  1.00  0.00     0.091 A 
ATOM     87  F   UNL A   1      45.356  24.341  26.309  1.00  0.00    -0.205 F 
ATOM     88  C   UNL A   1      42.771  21.806  25.895  1.00  0.00     0.022 A 
BRANCH  86  89
ATOM     89  S   UNL A   1      45.144  21.922  24.512  1.00  0.00     0.127 S 
ATOM     90  O   UNL A   1      44.487  20.718  23.998  1.00  0.00    -0.237 OA
ATOM     91  O   UNL A   1      45.184  23.041  23.578  1.00  0.00    -0.237 OA
ATOM     92  O   UNL A   1      46.373  21.651  25.249  1.00  0.00    -0.744 OA
ENDBRANCH  86  89
ENDBRANCH  58  82
BRANCH  70  93
ATOM     93  C   UNL A   1      46.560  29.346  29.111  1.00  0.00     0.023 A 
ATOM     94  C   UNL A   1      47.811  29.409  28.475  1.00  0.00     0.012 A 
ATOM     95  C   UNL A   1      45.478  30.082  28.592  1.00  0.00     0.148 A 
ATOM     96  C   UNL A   1      47.982  30.195  27.333  1.00  0.00     0.002 A 
ATOM     97  C   UNL A   1      45.640  30.819  27.429  1.00  0.00     0.091 A 
ATOM     98  F   UNL A   1      44.296  29.999  29.220  1.00  0.00    -0.205 F 
ATOM     99  C   UNL A   1      46.893  30.888  26.801  1.00  0.00     0.022 A 
BRANCH  97 100
ATOM    100  S   UNL A   1      44.253  31.608  26.607  1.00  0.00     0.127 S 
ATOM    101  O   UNL A   1      43.356  30.480  26.363  1.00  0.00    -0.237 OA
ATOM    102  O   UNL A   1      43.791  32.550  27.627  1.00  0.00    -0.237 OA
ATOM    103  O   UNL A   1      44.794  32.240  25.409  1.00  0.00    -0.744 OA
ENDBRANCH  97 100
ENDBRANCH  70  93
ENDBRANCH  44  45
ENDBRANCH  36  39
ENDBRANCH  34  35
ENDBRANCH   1  34
TORSDOF 16
ENDMDL
MODEL 2
REMARK VINA RESULT:     -12.8      2.721      7.836
REMARK SMILES Cc1n[nH]c2c1[C@@]1(C(=O)N([C@@H](C)C(=O)NCCCNC(=O)c3ccc(-c4c5nc(c(-c6cccc(S(=O)(=O)[O-])c6F)c6ccc([nH]6)c(-c6cccc(S(=O)(=O)[O-])c6F)c6nc(c(-c7cccc(S(=O)(=O)[O-])c7F)c7ccc4[nH]7)C=C6)C=C5)cc3)c3ccccc31)C(C#N)=C(N)O2
REMARK SMILES IDX 17 1 16 2 15 3 13 4 14 5 11 7 12 8 10 9 1 10 2 11 3 12 6 13
REMARK SMILES IDX 4 14 5 15 7 16 96 18 8 19 90 20 91 21 94 22 9 23 85 24 89 25
REMARK SMILES IDX 86 26 88 27 87 28 92 29 93 30 95 31 18 34 19 35 20 36 21 38
REMARK SMILES IDX 22 39 23 40 84 41 24 42 83 43 25 44 26 45 27 46 77 47 28 48
REMARK SMILES IDX 82 49 76 50 78 51 29 52 81 53 75 54 74 55 30 57 62 58 42 59
REMARK SMILES IDX 61 60 43 61 46 62 60 63 79 64 44 65 45 66 59 68 80 69 47 70
REMARK SMILES IDX 31 71 32 72 40 73 33 74 35 75 41 76 34 77 36 78 37 79 38 80
REMARK SMILES IDX 39 81 63 82 64 83 72 84 65 85 67 86 73 87 66 88 68 89 69 90
REMARK SMILES IDX 70 91 71 92 48 93 49 94 57 95 50 96 52 97 58 98 51 99 53 100
REMARK SMILES IDX 54 101 55 102 56 103
REMARK H PARENT 15 6 4 17 95 32 95 33 19 37 78 56 46 67
REMARK Flexibility Score: inf
ROOT
ATOM      1  C   UNL A   1      38.563  20.852  25.053  1.00  0.00     0.042 C 
ENDROOT
BRANCH   1   2
ATOM      2  C   UNL A   1      37.503  21.755  25.694  1.00  0.00     0.117 C 
BRANCH   2   3
ATOM      3  N   UNL A   1      36.150  21.226  25.571  1.00  0.00    -0.354 N 
ATOM      4  C   UNL A   1      34.917  21.717  25.864  1.00  0.00     0.242 C 
ATOM      5  O   UNL A   1      33.966  20.984  25.548  1.00  0.00    -0.273 OA
ATOM      6  H   UNL A   1      36.125  20.318  25.195  1.00  0.00     0.163 HD
BRANCH   4   7
ATOM      7  C   UNL A   1      34.611  23.056  26.584  1.00  0.00     0.176 C 
ATOM      8  C   UNL A   1      34.145  22.951  28.031  1.00  0.00     0.042 C 
BRANCH   7   9
ATOM      9  N   UNL A   1      33.827  23.966  25.759  1.00  0.00    -0.298 N 
ATOM     10  C   UNL A   1      32.944  22.820  22.217  1.00  0.00     0.069 C 
ATOM     11  C   UNL A   1      32.907  24.259  21.859  1.00  0.00     0.068 A 
ATOM     12  N   UNL A   1      32.828  24.617  20.568  1.00  0.00    -0.177 NA
ATOM     13  C   UNL A   1      33.029  25.393  22.700  1.00  0.00     0.063 A 
ATOM     14  N   UNL A   1      32.988  25.958  20.575  1.00  0.00    -0.246 N 
ATOM     15  C   UNL A   1      33.124  26.451  21.835  1.00  0.00     0.222 A 
ATOM     16  C   UNL A   1      33.251  25.613  24.157  1.00  0.00     0.149 C 
ATOM     17  H   UNL A   1      33.005  26.513  19.762  1.00  0.00     0.193 HD
ATOM     18  O   UNL A   1      33.390  27.717  22.127  1.00  0.00    -0.422 OA
ATOM     19  C   UNL A   1      34.331  24.643  24.650  1.00  0.00     0.248 C 
ATOM     20  C   UNL A   1      32.038  25.130  24.903  1.00  0.00     0.002 A 
ATOM     21  C   UNL A   1      33.619  27.067  24.458  1.00  0.00     0.114 C 
ATOM     22  C   UNL A   1      33.665  28.013  23.474  1.00  0.00     0.208 C 
ATOM     23  O   UNL A   1      35.416  24.449  24.108  1.00  0.00    -0.273 OA
ATOM     24  C   UNL A   1      32.441  24.202  25.876  1.00  0.00     0.050 A 
ATOM     25  C   UNL A   1      30.705  25.490  24.752  1.00  0.00     0.008 A 
ATOM     26  C   UNL A   1      31.515  23.619  26.720  1.00  0.00     0.027 A 
ATOM     27  C   UNL A   1      29.764  24.888  25.585  1.00  0.00     0.001 A 
ATOM     28  C   UNL A   1      30.165  23.964  26.561  1.00  0.00     0.002 A 
BRANCH  21  29
ATOM     29  C   UNL A   1      33.912  27.530  25.876  1.00  0.00     0.102 C 
ATOM     30  N   UNL A   1      34.155  27.914  27.051  1.00  0.00    -0.193 NA
ENDBRANCH  21  29
BRANCH  22  31
ATOM     31  N   UNL A   1      33.966  29.331  23.655  1.00  0.00    -0.369 N 
ATOM     32  H   UNL A   1      33.244  29.999  23.699  1.00  0.00     0.159 HD
ATOM     33  H   UNL A   1      34.905  29.614  23.742  1.00  0.00     0.159 HD
ENDBRANCH  22  31
ENDBRANCH   7   9
ENDBRANCH   4   7
ENDBRANCH   2   3
ENDBRANCH   1   2
BRANCH   1  34
ATOM     34  C   UNL A   1      38.584  19.413  25.546  1.00  0.00     0.118 C 
BRANCH  34  35
ATOM     35  N   UNL A   1      39.903  18.822  25.522  1.00  0.00    -0.352 N 
ATOM     36  C   UNL A   1      41.150  19.224  25.916  1.00  0.00     0.251 C 
ATOM     37  H   UNL A   1      39.904  17.919  25.130  1.00  0.00     0.163 HD
ATOM     38  O   UNL A   1      42.044  18.393  25.733  1.00  0.00    -0.269 OA
BRANCH  36  39
ATOM     39  C   UNL A   1      41.506  20.549  26.510  1.00  0.00     0.039 A 
ATOM     40  C   UNL A   1      42.167  21.598  25.867  1.00  0.00     0.014 A 
ATOM     41  C   UNL A   1      41.104  20.745  27.847  1.00  0.00     0.014 A 
ATOM     42  C   UNL A   1      42.439  22.792  26.545  1.00  0.00     0.010 A 
ATOM     43  C   UNL A   1      41.357  21.941  28.520  1.00  0.00     0.010 A 
ATOM     44  C   UNL A   1      42.040  22.968  27.874  1.00  0.00    -0.014 A 
BRANCH  44  45
ATOM     45  C   UNL A   1      42.216  24.288  28.491  1.00  0.00     0.031 A 
ATOM     46  C   UNL A   1      41.146  25.284  28.194  1.00  0.00     0.074 A 
ATOM     47  C   UNL A   1      43.143  24.588  29.428  1.00  0.00     0.049 A 
ATOM     48  N   UNL A   1      41.257  26.435  27.610  1.00  0.00    -0.248 NA
ATOM     49  C   UNL A   1      39.765  24.918  28.549  1.00  0.00     0.031 C 
ATOM     50  C   UNL A   1      44.040  23.649  30.101  1.00  0.00     0.029 A 
ATOM     51  N   UNL A   1      43.378  25.773  30.080  1.00  0.00    -0.354 N 
ATOM     52  C   UNL A   1      40.001  27.029  27.727  1.00  0.00     0.074 A 
ATOM     53  C   UNL A   1      39.092  26.005  28.173  1.00  0.00     0.031 C 
ATOM     54  C   UNL A   1      44.534  24.233  31.215  1.00  0.00     0.029 A 
ATOM     55  C   UNL A   1      44.102  25.619  31.258  1.00  0.00     0.049 A 
ATOM     56  H   UNL A   1      43.064  26.646  29.748  1.00  0.00     0.167 HD
ATOM     57  C   UNL A   1      39.829  28.378  27.707  1.00  0.00     0.034 A 
ATOM     58  C   UNL A   1      44.288  26.540  32.234  1.00  0.00     0.034 A 
ATOM     59  C   UNL A   1      40.995  29.090  27.281  1.00  0.00     0.049 A 
ATOM     60  C   UNL A   1      44.101  27.887  31.643  1.00  0.00     0.074 A 
ATOM     61  C   UNL A   1      41.651  29.366  26.106  1.00  0.00     0.029 A 
ATOM     62  N   UNL A   1      41.809  29.466  28.312  1.00  0.00    -0.354 N 
ATOM     63  N   UNL A   1      44.890  28.414  30.747  1.00  0.00    -0.248 NA
ATOM     64  C   UNL A   1      42.884  28.641  31.928  1.00  0.00     0.031 C 
ATOM     65  C   UNL A   1      42.973  29.753  26.475  1.00  0.00     0.029 A 
ATOM     66  C   UNL A   1      43.082  29.681  27.863  1.00  0.00     0.049 A 
ATOM     67  H   UNL A   1      41.521  29.566  29.247  1.00  0.00     0.167 HD
ATOM     68  C   UNL A   1      44.091  29.326  30.086  1.00  0.00     0.074 A 
ATOM     69  C   UNL A   1      42.957  29.560  30.964  1.00  0.00     0.031 C 
ATOM     70  C   UNL A   1      44.220  29.533  28.747  1.00  0.00     0.034 A 
BRANCH  57  71
ATOM     71  C   UNL A   1      38.767  29.109  28.493  1.00  0.00     0.023 A 
ATOM     72  C   UNL A   1      37.977  30.064  27.819  1.00  0.00     0.012 A 
ATOM     73  C   UNL A   1      38.730  29.119  29.904  1.00  0.00     0.148 A 
ATOM     74  C   UNL A   1      37.185  30.983  28.518  1.00  0.00     0.002 A 
ATOM     75  C   UNL A   1      37.881  29.978  30.592  1.00  0.00     0.091 A 
ATOM     76  F   UNL A   1      39.626  28.402  30.595  1.00  0.00    -0.205 F 
ATOM     77  C   UNL A   1      37.121  30.928  29.906  1.00  0.00     0.022 A 
BRANCH  75  78
ATOM     78  S   UNL A   1      37.735  29.891  32.378  1.00  0.00     0.127 S 
ATOM     79  O   UNL A   1      37.333  28.503  32.573  1.00  0.00    -0.237 OA
ATOM     80  O   UNL A   1      39.096  30.213  32.811  1.00  0.00    -0.237 OA
ATOM     81  O   UNL A   1      36.750  30.912  32.716  1.00  0.00    -0.744 OA
ENDBRANCH  75  78
ENDBRANCH  57  71
BRANCH  58  82
ATOM     82  C   UNL A   1      44.515  26.373  33.696  1.00  0.00     0.023 A 
ATOM     83  C   UNL A   1      45.820  26.545  34.207  1.00  0.00     0.012 A 
ATOM     84  C   UNL A   1      43.454  26.304  34.626  1.00  0.00     0.148 A 
ATOM     85  C   UNL A   1      46.055  26.704  35.578  1.00  0.00     0.002 A 
ATOM     86  C   UNL A   1      43.696  26.431  35.993  1.00  0.00     0.091 A 
ATOM     87  F   UNL A   1      42.194  26.212  34.179  1.00  0.00    -0.205 F 
ATOM     88  C   UNL A   1      44.992  26.652  36.472  1.00  0.00     0.022 A 
BRANCH  86  89
ATOM     89  S   UNL A   1      42.359  26.331  37.193  1.00  0.00     0.127 S 
ATOM     90  O   UNL A   1      41.789  25.009  36.923  1.00  0.00    -0.237 OA
ATOM     91  O   UNL A   1      43.072  26.441  38.460  1.00  0.00    -0.237 OA
ATOM     92  O   UNL A   1      41.467  27.435  36.855  1.00  0.00    -0.744 OA
ENDBRANCH  86  89
ENDBRANCH  58  82
BRANCH  70  93
ATOM     93  C   UNL A   1      45.552  29.309  28.105  1.00  0.00     0.023 A 
ATOM     94  C   UNL A   1      46.572  30.275  28.125  1.00  0.00     0.012 A 
ATOM     95  C   UNL A   1      45.831  28.014  27.630  1.00  0.00     0.148 A 
ATOM     96  C   UNL A   1      47.855  29.954  27.677  1.00  0.00     0.002 A 
ATOM     97  C   UNL A   1      47.118  27.685  27.235  1.00  0.00     0.091 A 
ATOM     98  F   UNL A   1      44.837  27.113  27.627  1.00  0.00    -0.205 F 
ATOM     99  C   UNL A   1      48.133  28.655  27.247  1.00  0.00     0.022 A 
BRANCH  97 100
ATOM    100  S   UNL A   1      47.581  26.002  26.818  1.00  0.00     0.127 S 
ATOM    101  O   UNL A   1      47.230  25.274  28.035  1.00  0.00    -0.237 OA
ATOM    102  O   UNL A   1      46.719  25.727  25.667  1.00  0.00    -0.237 OA
ATOM    103  O   UNL A   1      49.005  26.036  26.505  1.00  0.00    -0.744 OA
ENDBRANCH  97 100
ENDBRANCH  70  93
ENDBRANCH  44  45
ENDBRANCH  36  39
ENDBRANCH  34  35
ENDBRANCH   1  34
TORSDOF 16
ENDMDL
MODEL 3
REMARK VINA RESULT:     -12.6      3.205      9.214
REMARK SMILES Cc1n[nH]c2c1[C@@]1(C(=O)N([C@@H](C)C(=O)NCCCNC(=O)c3ccc(-c4c5nc(c(-c6cccc(S(=O)(=O)[O-])c6F)c6ccc([nH]6)c(-c6cccc(S(=O)(=O)[O-])c6F)c6nc(c(-c7cccc(S(=O)(=O)[O-])c7F)c7ccc4[nH]7)C=C6)C=C5)cc3)c3ccccc31)C(C#N)=C(N)O2
REMARK SMILES IDX 17 1 16 2 15 3 13 4 14 5 11 7 12 8 10 9 1 10 2 11 3 12 6 13
REMARK SMILES IDX 4 14 5 15 7 16 96 18 8 19 90 20 91 21 94 22 9 23 85 24 89 25
REMARK SMILES IDX 86 26 88 27 87 28 92 29 93 30 95 31 18 34 19 35 20 36 21 38
REMARK SMILES IDX 22 39 23 40 84 41 24 42 83 43 25 44 26 45 27 46 77 47 28 48
REMARK SMILES IDX 82 49 76 50 78 51 29 52 81 53 75 54 74 55 30 57 62 58 42 59
REMARK SMILES IDX 61 60 43 61 46 62 60 63 79 64 44 65 45 66 59 68 80 69 47 70
REMARK SMILES IDX 31 71 32 72 40 73 33 74 35 75 41 76 34 77 36 78 37 79 38 80
REMARK SMILES IDX 39 81 63 82 64 83 72 84 65 85 67 86 73 87 66 88 68 89 69 90
REMARK SMILES IDX 70 91 71 92 48 93 49 94 57 95 50 96 52 97 58 98 51 99 53 100
REMARK SMILES IDX 54 101 55 102 56 103
REMARK H PARENT 15 6 4 17 95 32 95 33 19 37 78 56 46 67
REMARK Flexibility Score: inf
ROOT
ATOM      1  C   UNL A   1      39.050  21.740  25.947  1.00  0.00     0.042 C 
ENDROOT
BRANCH   1   2
ATOM      2  C   UNL A   1      37.803  22.604  25.722  1.00  0.00     0.117 C 
BRANCH   2   3
ATOM      3  N   UNL A   1      36.596  21.819  25.495  1.00  0.00    -0.354 N 
ATOM      4  C   UNL A   1      35.280  22.012  25.774  1.00  0.00     0.242 C 
ATOM      5  O   UNL A   1      34.514  21.129  25.355  1.00  0.00    -0.273 OA
ATOM      6  H   UNL A   1      36.773  20.963  25.042  1.00  0.00     0.163 HD
BRANCH   4   7
ATOM      7  C   UNL A   1      34.680  23.185  26.591  1.00  0.00     0.176 C 
ATOM      8  C   UNL A   1      34.066  22.823  27.938  1.00  0.00     0.042 C 
BRANCH   7   9
ATOM      9  N   UNL A   1      33.866  24.076  25.773  1.00  0.00    -0.298 N 
ATOM     10  C   UNL A   1      33.017  22.926  22.224  1.00  0.00     0.069 C 
ATOM     11  C   UNL A   1      32.932  24.366  21.876  1.00  0.00     0.068 A 
ATOM     12  N   UNL A   1      32.840  24.730  20.588  1.00  0.00    -0.177 NA
ATOM     13  C   UNL A   1      33.018  25.497  22.726  1.00  0.00     0.063 A 
ATOM     14  N   UNL A   1      32.956  26.076  20.605  1.00  0.00    -0.246 N 
ATOM     15  C   UNL A   1      33.077  26.564  21.868  1.00  0.00     0.222 A 
ATOM     16  C   UNL A   1      33.234  25.714  24.184  1.00  0.00     0.149 C 
ATOM     17  H   UNL A   1      32.954  26.637  19.796  1.00  0.00     0.193 HD
ATOM     18  O   UNL A   1      33.301  27.836  22.169  1.00  0.00    -0.422 OA
ATOM     19  C   UNL A   1      34.346  24.776  24.669  1.00  0.00     0.248 C 
ATOM     20  C   UNL A   1      32.038  25.186  24.927  1.00  0.00     0.002 A 
ATOM     21  C   UNL A   1      33.554  27.177  24.495  1.00  0.00     0.114 C 
ATOM     22  C   UNL A   1      33.568  28.131  23.518  1.00  0.00     0.208 C 
ATOM     23  O   UNL A   1      35.436  24.623  24.125  1.00  0.00    -0.273 OA
ATOM     24  C   UNL A   1      32.473  24.264  25.893  1.00  0.00     0.050 A 
ATOM     25  C   UNL A   1      30.693  25.503  24.779  1.00  0.00     0.008 A 
ATOM     26  C   UNL A   1      31.567  23.645  26.734  1.00  0.00     0.027 A 
ATOM     27  C   UNL A   1      29.774  24.864  25.609  1.00  0.00     0.001 A 
ATOM     28  C   UNL A   1      30.207  23.946  26.578  1.00  0.00     0.002 A 
BRANCH  21  29
ATOM     29  C   UNL A   1      33.832  27.639  25.916  1.00  0.00     0.102 C 
ATOM     30  N   UNL A   1      34.062  28.021  27.095  1.00  0.00    -0.193 NA
ENDBRANCH  21  29
BRANCH  22  31
ATOM     31  N   UNL A   1      33.826  29.457  23.708  1.00  0.00    -0.369 N 
ATOM     32  H   UNL A   1      33.144  30.037  24.119  1.00  0.00     0.159 HD
ATOM     33  H   UNL A   1      34.694  29.834  23.436  1.00  0.00     0.159 HD
ENDBRANCH  22  31
ENDBRANCH   7   9
ENDBRANCH   4   7
ENDBRANCH   2   3
ENDBRANCH   1   2
BRANCH   1  34
ATOM     34  C   UNL A   1      40.167  22.396  26.743  1.00  0.00     0.118 C 
BRANCH  34  35
ATOM     35  N   UNL A   1      41.324  22.722  25.940  1.00  0.00    -0.352 N 
ATOM     36  C   UNL A   1      42.196  23.775  25.884  1.00  0.00     0.251 C 
ATOM     37  H   UNL A   1      41.532  22.024  25.279  1.00  0.00     0.163 HD
ATOM     38  O   UNL A   1      43.091  23.662  25.042  1.00  0.00    -0.269 OA
BRANCH  36  39
ATOM     39  C   UNL A   1      42.141  25.014  26.719  1.00  0.00     0.039 A 
ATOM     40  C   UNL A   1      42.860  25.259  27.892  1.00  0.00     0.014 A 
ATOM     41  C   UNL A   1      41.290  26.032  26.244  1.00  0.00     0.014 A 
ATOM     42  C   UNL A   1      42.713  26.469  28.579  1.00  0.00     0.010 A 
ATOM     43  C   UNL A   1      41.156  27.248  26.916  1.00  0.00     0.010 A 
ATOM     44  C   UNL A   1      41.858  27.466  28.098  1.00  0.00    -0.014 A 
BRANCH  44  45
ATOM     45  C   UNL A   1      41.852  28.771  28.772  1.00  0.00     0.031 A 
ATOM     46  C   UNL A   1      42.978  29.683  28.415  1.00  0.00     0.074 A 
ATOM     47  C   UNL A   1      40.833  29.255  29.515  1.00  0.00     0.049 A 
ATOM     48  N   UNL A   1      43.882  30.189  29.193  1.00  0.00    -0.248 NA
ATOM     49  C   UNL A   1      43.142  30.029  26.994  1.00  0.00     0.031 C 
ATOM     50  C   UNL A   1      39.509  28.654  29.677  1.00  0.00     0.029 A 
ATOM     51  N   UNL A   1      40.716  30.458  30.165  1.00  0.00    -0.354 N 
ATOM     52  C   UNL A   1      44.589  31.090  28.398  1.00  0.00     0.074 A 
ATOM     53  C   UNL A   1      44.196  30.844  27.034  1.00  0.00     0.031 C 
ATOM     54  C   UNL A   1      38.657  29.587  30.157  1.00  0.00     0.029 A 
ATOM     55  C   UNL A   1      39.400  30.797  30.464  1.00  0.00     0.049 A 
ATOM     56  H   UNL A   1      41.486  31.027  30.395  1.00  0.00     0.167 HD
ATOM     57  C   UNL A   1      45.252  32.156  28.920  1.00  0.00     0.034 A 
ATOM     58  C   UNL A   1      38.936  32.001  30.877  1.00  0.00     0.034 A 
ATOM     59  C   UNL A   1      45.384  32.099  30.343  1.00  0.00     0.049 A 
ATOM     60  C   UNL A   1      40.058  32.742  31.500  1.00  0.00     0.074 A 
ATOM     61  C   UNL A   1      46.148  31.434  31.272  1.00  0.00     0.029 A 
ATOM     62  N   UNL A   1      44.371  32.728  31.010  1.00  0.00    -0.354 N 
ATOM     63  N   UNL A   1      40.649  32.388  32.609  1.00  0.00    -0.248 NA
ATOM     64  C   UNL A   1      40.683  33.849  30.782  1.00  0.00     0.031 C 
ATOM     65  C   UNL A   1      45.443  31.537  32.507  1.00  0.00     0.029 A 
ATOM     66  C   UNL A   1      44.264  32.247  32.284  1.00  0.00     0.049 A 
ATOM     67  H   UNL A   1      43.797  33.429  30.625  1.00  0.00     0.167 HD
ATOM     68  C   UNL A   1      41.908  32.945  32.514  1.00  0.00     0.074 A 
ATOM     69  C   UNL A   1      41.805  33.972  31.491  1.00  0.00     0.031 C 
ATOM     70  C   UNL A   1      43.003  32.296  32.996  1.00  0.00     0.034 A 
BRANCH  57  71
ATOM     71  C   UNL A   1      45.402  33.486  28.221  1.00  0.00     0.023 A 
ATOM     72  C   UNL A   1      46.704  33.993  28.021  1.00  0.00     0.012 A 
ATOM     73  C   UNL A   1      44.325  34.381  28.040  1.00  0.00     0.148 A 
ATOM     74  C   UNL A   1      46.922  35.327  27.656  1.00  0.00     0.002 A 
ATOM     75  C   UNL A   1      44.542  35.681  27.598  1.00  0.00     0.091 A 
ATOM     76  F   UNL A   1      43.096  34.027  28.438  1.00  0.00    -0.205 F 
ATOM     77  C   UNL A   1      45.839  36.168  27.424  1.00  0.00     0.022 A 
BRANCH  75  78
ATOM     78  S   UNL A   1      43.163  36.771  27.236  1.00  0.00     0.127 S 
ATOM     79  O   UNL A   1      43.850  37.974  26.779  1.00  0.00    -0.237 OA
ATOM     80  O   UNL A   1      42.450  36.027  26.197  1.00  0.00    -0.237 OA
ATOM     81  O   UNL A   1      42.435  36.873  28.496  1.00  0.00    -0.744 OA
ENDBRANCH  75  78
ENDBRANCH  57  71
BRANCH  58  82
ATOM     82  C   UNL A   1      37.606  32.644  30.692  1.00  0.00     0.023 A 
ATOM     83  C   UNL A   1      36.920  32.455  29.472  1.00  0.00     0.012 A 
ATOM     84  C   UNL A   1      36.885  33.218  31.763  1.00  0.00     0.148 A 
ATOM     85  C   UNL A   1      35.562  32.764  29.339  1.00  0.00     0.002 A 
ATOM     86  C   UNL A   1      35.540  33.555  31.616  1.00  0.00     0.091 A 
ATOM     87  F   UNL A   1      37.478  33.349  32.957  1.00  0.00    -0.205 F 
ATOM     88  C   UNL A   1      34.869  33.310  30.413  1.00  0.00     0.022 A 
BRANCH  86  89
ATOM     89  S   UNL A   1      34.610  34.300  32.965  1.00  0.00     0.127 S 
ATOM     90  O   UNL A   1      33.344  34.653  32.319  1.00  0.00    -0.237 OA
ATOM     91  O   UNL A   1      34.522  33.203  33.922  1.00  0.00    -0.237 OA
ATOM     92  O   UNL A   1      35.402  35.454  33.376  1.00  0.00    -0.744 OA
ENDBRANCH  86  89
ENDBRANCH  58  82
BRANCH  70  93
ATOM     93  C   UNL A   1      42.836  31.351  34.143  1.00  0.00     0.023 A 
ATOM     94  C   UNL A   1      42.763  31.788  35.477  1.00  0.00     0.012 A 
ATOM     95  C   UNL A   1      42.566  30.004  33.839  1.00  0.00     0.148 A 
ATOM     96  C   UNL A   1      42.423  30.893  36.494  1.00  0.00     0.002 A 
ATOM     97  C   UNL A   1      42.179  29.132  34.844  1.00  0.00     0.091 A 
ATOM     98  F   UNL A   1      42.641  29.618  32.556  1.00  0.00    -0.205 F 
ATOM     99  C   UNL A   1      42.116  29.569  36.177  1.00  0.00     0.022 A 
BRANCH  97 100
ATOM    100  S   UNL A   1      41.624  27.463  34.490  1.00  0.00     0.127 S 
ATOM    101  O   UNL A   1      41.340  26.941  35.825  1.00  0.00    -0.237 OA
ATOM    102  O   UNL A   1      40.441  27.706  33.662  1.00  0.00    -0.237 OA
ATOM    103  O   UNL A   1      42.721  26.807  33.788  1.00  0.00    -0.744 OA
ENDBRANCH  97 100
ENDBRANCH  70  93
ENDBRANCH  44  45
ENDBRANCH  36  39
ENDBRANCH  34  35
ENDBRANCH   1  34
TORSDOF 16
ENDMDL
