MODEL 1
REMARK VINA RESULT:     -13.1      0.000      0.000
REMARK SMILES CCCc1cc(S(F)(F)(F)(F)F)cc2c1O[C@@H](C(F)(F)F)C(C(=O)NCCCNC(=O)c1ccc(-c3c4nc(c(-c5cccc(S(=O)(=O)[O-])c5F)c5ccc([nH]5)c(-c5cccc(S(=O)(=O)[O-])c5F)c5nc(c(-c6cccc(S(=O)(=O)[O-])c6F)c6ccc3[nH]6)C=C5)C=C4)cc1)=C2
REMARK SMILES IDX 27 1 26 2 25 3 23 4 24 5 22 7 4 8 5 9 15 10 6 11 14 12 16 13
REMARK SMILES IDX 13 14 95 15 17 16 3 17 2 18 1 19 7 20 8 21 9 22 10 23 11 24
REMARK SMILES IDX 12 25 18 26 19 27 20 28 21 29 28 30 29 31 30 32 31 34 32 35
REMARK SMILES IDX 33 36 94 37 34 38 93 39 35 40 36 41 37 42 87 43 38 44 92 45
REMARK SMILES IDX 86 46 88 47 39 48 91 49 85 50 84 51 40 53 72 54 52 55 71 56
REMARK SMILES IDX 53 57 56 58 70 59 89 60 54 61 55 62 69 64 90 65 57 66 41 67
REMARK SMILES IDX 42 68 50 69 43 70 45 71 51 72 44 73 46 74 47 75 48 76 49 77
REMARK SMILES IDX 73 78 74 79 82 80 75 81 77 82 83 83 76 84 78 85 79 86 80 87
REMARK SMILES IDX 81 88 58 89 59 90 67 91 60 92 62 93 68 94 61 95 63 96 64 97
REMARK SMILES IDX 65 98 66 99
REMARK H PARENT 25 6 29 33 88 52 56 63
REMARK Flexibility Score: inf
ROOT
ATOM      1  C   UNL A   1      32.993  27.867  25.778  1.00  0.00     0.042 C 
ENDROOT
BRANCH   1   2
ATOM      2  C   UNL A   1      33.641  26.743  24.986  1.00  0.00     0.118 C 
BRANCH   2   3
ATOM      3  N   UNL A   1      33.578  27.054  23.551  1.00  0.00    -0.352 N 
ATOM      4  C   UNL A   1      33.645  25.970  22.561  1.00  0.00     0.251 C 
ATOM      5  O   UNL A   1      33.591  26.239  21.320  1.00  0.00    -0.270 OA
ATOM      6  H   UNL A   1      33.491  27.988  23.253  1.00  0.00     0.163 HD
BRANCH   4   7
ATOM      7  C   UNL A   1      33.779  24.528  23.020  1.00  0.00     0.067 C 
ATOM      8  C   UNL A   1      33.933  20.717  24.723  1.00  0.00    -0.004 A 
ATOM      9  C   UNL A   1      35.155  20.147  25.033  1.00  0.00     0.032 A 
ATOM     10  C   UNL A   1      33.909  21.991  24.214  1.00  0.00     0.131 A 
ATOM     11  C   UNL A   1      36.323  20.839  24.841  1.00  0.00     0.108 A 
ATOM     12  C   UNL A   1      35.068  22.713  23.991  1.00  0.00     0.019 A 
ATOM     13  O   UNL A   1      32.685  22.584  24.018  1.00  0.00    -0.475 OA
ATOM     14  C   UNL A   1      36.279  22.113  24.317  1.00  0.00     0.036 A 
ATOM     15  C   UNL A   1      34.936  24.069  23.485  1.00  0.00     0.025 C 
ATOM     16  C   UNL A   1      32.591  23.577  22.958  1.00  0.00     0.314 C 
BRANCH   8  17
ATOM     17  C   UNL A   1      32.661  19.977  25.105  1.00  0.00     0.039 C 
BRANCH  17  18
ATOM     18  C   UNL A   1      32.373  18.898  24.074  1.00  0.00     0.001 C 
ATOM     19  C   UNL A   1      32.404  17.535  24.744  1.00  0.00     0.004 C 
ENDBRANCH  17  18
ENDBRANCH   8  17
BRANCH  11  20
ATOM     20  S   UNL A   1      37.910  20.085  25.275  1.00  0.00     0.310 S 
ATOM     21  F   UNL A   1      38.277  19.883  23.745  1.00  0.00    -0.094 F 
ATOM     22  F   UNL A   1      37.185  18.688  25.216  1.00  0.00    -0.094 F 
ATOM     23  F   UNL A   1      39.262  19.401  25.626  1.00  0.00    -0.094 F 
ATOM     24  F   UNL A   1      38.647  21.480  25.191  1.00  0.00    -0.094 F 
ATOM     25  F   UNL A   1      36.571  20.783  24.808  1.00  0.00    -0.094 F 
ENDBRANCH  11  20
BRANCH  16  26
ATOM     26  C   UNL A   1      31.309  24.374  23.137  1.00  0.00     0.429 C 
ATOM     27  F   UNL A   1      31.360  25.046  24.284  1.00  0.00    -0.167 F 
ATOM     28  F   UNL A   1      31.174  25.230  22.127  1.00  0.00    -0.167 F 
ATOM     29  F   UNL A   1      30.270  23.543  23.155  1.00  0.00    -0.167 F 
ENDBRANCH  16  26
ENDBRANCH   4   7
ENDBRANCH   2   3
ENDBRANCH   1   2
BRANCH   1  30
ATOM     30  C   UNL A   1      34.039  28.537  26.654  1.00  0.00     0.118 C 
BRANCH  30  31
ATOM     31  N   UNL A   1      33.668  29.942  26.873  1.00  0.00    -0.352 N 
ATOM     32  C   UNL A   1      34.583  30.841  27.592  1.00  0.00     0.251 C 
ATOM     33  H   UNL A   1      32.807  30.282  26.538  1.00  0.00     0.163 HD
ATOM     34  O   UNL A   1      34.263  32.056  27.782  1.00  0.00    -0.269 OA
BRANCH  32  35
ATOM     35  C   UNL A   1      35.912  30.316  28.110  1.00  0.00     0.039 A 
ATOM     36  C   UNL A   1      37.039  30.448  27.315  1.00  0.00     0.014 A 
ATOM     37  C   UNL A   1      35.974  29.733  29.302  1.00  0.00     0.014 A 
ATOM     38  C   UNL A   1      38.139  29.670  27.746  1.00  0.00     0.010 A 
ATOM     39  C   UNL A   1      37.125  29.108  29.716  1.00  0.00     0.010 A 
ATOM     40  C   UNL A   1      38.260  29.148  28.954  1.00  0.00    -0.014 A 
BRANCH  40  41
ATOM     41  C   UNL A   1      39.589  28.621  29.469  1.00  0.00     0.031 A 
ATOM     42  C   UNL A   1      40.056  27.397  28.985  1.00  0.00     0.074 A 
ATOM     43  C   UNL A   1      40.270  29.400  30.389  1.00  0.00     0.049 A 
ATOM     44  N   UNL A   1      41.209  26.793  29.279  1.00  0.00    -0.248 NA
ATOM     45  C   UNL A   1      39.320  26.552  28.034  1.00  0.00     0.031 C 
ATOM     46  C   UNL A   1      39.810  30.639  30.875  1.00  0.00     0.029 A 
ATOM     47  N   UNL A   1      41.480  29.134  30.991  1.00  0.00    -0.354 N 
ATOM     48  C   UNL A   1      41.312  25.645  28.606  1.00  0.00     0.074 A 
ATOM     49  C   UNL A   1      40.096  25.470  27.800  1.00  0.00     0.031 C 
ATOM     50  C   UNL A   1      40.722  31.108  31.766  1.00  0.00     0.029 A 
ATOM     51  C   UNL A   1      41.769  30.171  31.851  1.00  0.00     0.049 A 
ATOM     52  H   UNL A   1      42.041  28.341  30.834  1.00  0.00     0.167 HD
ATOM     53  C   UNL A   1      42.373  24.739  28.630  1.00  0.00     0.034 A 
ATOM     54  C   UNL A   1      42.878  30.308  32.672  1.00  0.00     0.034 A 
ATOM     55  C   UNL A   1      43.501  24.897  29.420  1.00  0.00     0.049 A 
ATOM     56  C   UNL A   1      43.912  29.372  32.741  1.00  0.00     0.074 A 
ATOM     57  C   UNL A   1      44.584  23.997  29.450  1.00  0.00     0.029 A 
ATOM     58  N   UNL A   1      43.779  25.922  30.297  1.00  0.00    -0.354 N 
ATOM     59  N   UNL A   1      44.033  28.244  32.038  1.00  0.00    -0.248 NA
ATOM     60  C   UNL A   1      45.075  29.491  33.631  1.00  0.00     0.031 C 
ATOM     61  C   UNL A   1      45.497  24.466  30.341  1.00  0.00     0.029 A 
ATOM     62  C   UNL A   1      45.000  25.667  30.882  1.00  0.00     0.049 A 
ATOM     63  H   UNL A   1      43.204  26.701  30.475  1.00  0.00     0.167 HD
ATOM     64  C   UNL A   1      45.167  27.620  32.363  1.00  0.00     0.074 A 
ATOM     65  C   UNL A   1      45.850  28.409  33.397  1.00  0.00     0.031 C 
ATOM     66  C   UNL A   1      45.660  26.426  31.835  1.00  0.00     0.034 A 
BRANCH  53  67
ATOM     67  C   UNL A   1      42.286  23.508  27.742  1.00  0.00     0.023 A 
ATOM     68  C   UNL A   1      41.394  22.504  28.079  1.00  0.00     0.012 A 
ATOM     69  C   UNL A   1      43.163  23.349  26.757  1.00  0.00     0.148 A 
ATOM     70  C   UNL A   1      41.699  21.248  27.501  1.00  0.00     0.002 A 
ATOM     71  C   UNL A   1      43.313  22.129  26.144  1.00  0.00     0.091 A 
ATOM     72  F   UNL A   1      43.901  24.382  26.359  1.00  0.00    -0.205 F 
ATOM     73  C   UNL A   1      42.505  21.075  26.468  1.00  0.00     0.022 A 
BRANCH  71  74
ATOM     74  S   UNL A   1      44.599  21.913  24.890  1.00  0.00     0.127 S 
ATOM     75  O   UNL A   1      44.443  22.983  23.807  1.00  0.00    -0.237 OA
ATOM     76  O   UNL A   1      45.977  22.045  25.543  1.00  0.00    -0.237 OA
ATOM     77  O   UNL A   1      44.451  20.362  24.183  1.00  0.00    -0.744 OA
ENDBRANCH  71  74
ENDBRANCH  53  67
BRANCH  54  78
ATOM     78  C   UNL A   1      42.971  31.546  33.548  1.00  0.00     0.023 A 
ATOM     79  C   UNL A   1      43.551  32.734  33.131  1.00  0.00     0.012 A 
ATOM     80  C   UNL A   1      42.345  31.458  34.715  1.00  0.00     0.148 A 
ATOM     81  C   UNL A   1      43.668  33.705  34.154  1.00  0.00     0.002 A 
ATOM     82  C   UNL A   1      42.387  32.499  35.612  1.00  0.00     0.091 A 
ATOM     83  F   UNL A   1      41.672  30.353  35.019  1.00  0.00    -0.205 F 
ATOM     84  C   UNL A   1      42.994  33.681  35.290  1.00  0.00     0.022 A 
BRANCH  82  85
ATOM     85  S   UNL A   1      41.628  32.301  37.243  1.00  0.00     0.127 S 
ATOM     86  O   UNL A   1      40.158  31.912  37.078  1.00  0.00    -0.237 OA
ATOM     87  O   UNL A   1      42.363  31.205  38.018  1.00  0.00    -0.237 OA
ATOM     88  O   UNL A   1      41.734  33.776  38.103  1.00  0.00    -0.744 OA
ENDBRANCH  82  85
ENDBRANCH  54  78
BRANCH  66  89
ATOM     89  C   UNL A   1      47.005  25.926  32.339  1.00  0.00     0.023 A 
ATOM     90  C   UNL A   1      48.155  26.317  31.673  1.00  0.00     0.012 A 
ATOM     91  C   UNL A   1      47.060  25.119  33.393  1.00  0.00     0.148 A 
ATOM     92  C   UNL A   1      49.303  25.567  32.022  1.00  0.00     0.002 A 
ATOM     93  C   UNL A   1      48.244  24.526  33.759  1.00  0.00     0.091 A 
ATOM     94  F   UNL A   1      45.958  24.883  34.099  1.00  0.00    -0.205 F 
ATOM     95  C   UNL A   1      49.410  24.821  33.107  1.00  0.00     0.022 A 
BRANCH  93  96
ATOM     96  S   UNL A   1      48.262  23.337  35.123  1.00  0.00     0.127 S 
ATOM     97  O   UNL A   1      49.139  23.874  36.257  1.00  0.00    -0.237 OA
ATOM     98  O   UNL A   1      46.836  23.128  35.636  1.00  0.00    -0.237 OA
ATOM     99  O   UNL A   1      48.894  21.847  34.571  1.00  0.00    -0.744 OA
ENDBRANCH  93  96
ENDBRANCH  66  89
ENDBRANCH  40  41
ENDBRANCH  32  35
ENDBRANCH  30  31
ENDBRANCH   1  30
TORSDOF 17
ENDMDL
MODEL 2
REMARK VINA RESULT:     -12.8      2.026      7.568
REMARK SMILES CCCc1cc(S(F)(F)(F)(F)F)cc2c1O[C@@H](C(F)(F)F)C(C(=O)NCCCNC(=O)c1ccc(-c3c4nc(c(-c5cccc(S(=O)(=O)[O-])c5F)c5ccc([nH]5)c(-c5cccc(S(=O)(=O)[O-])c5F)c5nc(c(-c6cccc(S(=O)(=O)[O-])c6F)c6ccc3[nH]6)C=C5)C=C4)cc1)=C2
REMARK SMILES IDX 27 1 26 2 25 3 23 4 24 5 22 7 4 8 5 9 15 10 6 11 14 12 16 13
REMARK SMILES IDX 13 14 95 15 17 16 3 17 2 18 1 19 7 20 8 21 9 22 10 23 11 24
REMARK SMILES IDX 12 25 18 26 19 27 20 28 21 29 28 30 29 31 30 32 31 34 32 35
REMARK SMILES IDX 33 36 94 37 34 38 93 39 35 40 36 41 37 42 87 43 38 44 92 45
REMARK SMILES IDX 86 46 88 47 39 48 91 49 85 50 84 51 40 53 72 54 52 55 71 56
REMARK SMILES IDX 53 57 56 58 70 59 89 60 54 61 55 62 69 64 90 65 57 66 41 67
REMARK SMILES IDX 42 68 50 69 43 70 45 71 51 72 44 73 46 74 47 75 48 76 49 77
REMARK SMILES IDX 73 78 74 79 82 80 75 81 77 82 83 83 76 84 78 85 79 86 80 87
REMARK SMILES IDX 81 88 58 89 59 90 67 91 60 92 62 93 68 94 61 95 63 96 64 97
REMARK SMILES IDX 65 98 66 99
REMARK H PARENT 25 6 29 33 88 52 56 63
REMARK Flexibility Score: inf
ROOT
ATOM      1  C   UNL A   1      33.036  27.891  25.863  1.00  0.00     0.042 C 
ENDROOT
BRANCH   1   2
ATOM      2  C   UNL A   1      33.572  26.728  25.044  1.00  0.00     0.118 C 
BRANCH   2   3
ATOM      3  N   UNL A   1      33.518  27.069  23.615  1.00  0.00    -0.352 N 
ATOM      4  C   UNL A   1      33.571  26.003  22.603  1.00  0.00     0.251 C 
ATOM      5  O   UNL A   1      33.525  26.298  21.368  1.00  0.00    -0.270 OA
ATOM      6  H   UNL A   1      33.446  28.009  23.335  1.00  0.00     0.163 HD
BRANCH   4   7
ATOM      7  C   UNL A   1      33.682  24.550  23.034  1.00  0.00     0.067 C 
ATOM      8  C   UNL A   1      33.775  20.704  24.662  1.00  0.00    -0.004 A 
ATOM      9  C   UNL A   1      34.988  20.109  24.959  1.00  0.00     0.032 A 
ATOM     10  C   UNL A   1      33.771  21.989  24.178  1.00  0.00     0.131 A 
ATOM     11  C   UNL A   1      36.166  20.785  24.779  1.00  0.00     0.108 A 
ATOM     12  C   UNL A   1      34.942  22.696  23.967  1.00  0.00     0.019 A 
ATOM     13  O   UNL A   1      32.557  22.606  23.995  1.00  0.00    -0.475 OA
ATOM     14  C   UNL A   1      36.143  22.070  24.279  1.00  0.00     0.036 A 
ATOM     15  C   UNL A   1      34.831  24.064  23.488  1.00  0.00     0.025 C 
ATOM     16  C   UNL A   1      32.479  23.621  22.955  1.00  0.00     0.314 C 
BRANCH   8  17
ATOM     17  C   UNL A   1      32.491  19.979  25.031  1.00  0.00     0.039 C 
BRANCH  17  18
ATOM     18  C   UNL A   1      32.535  18.561  24.483  1.00  0.00     0.001 C 
ATOM     19  C   UNL A   1      32.335  18.594  22.977  1.00  0.00     0.004 C 
ENDBRANCH  17  18
ENDBRANCH   8  17
BRANCH  11  20
ATOM     20  S   UNL A   1      37.741  19.997  25.196  1.00  0.00     0.310 S 
ATOM     21  F   UNL A   1      38.096  19.805  23.662  1.00  0.00    -0.094 F 
ATOM     22  F   UNL A   1      36.990  18.615  25.126  1.00  0.00    -0.094 F 
ATOM     23  F   UNL A   1      39.082  19.284  25.532  1.00  0.00    -0.094 F 
ATOM     24  F   UNL A   1      38.505  21.379  25.123  1.00  0.00    -0.094 F 
ATOM     25  F   UNL A   1      36.413  20.725  24.743  1.00  0.00    -0.094 F 
ENDBRANCH  11  20
BRANCH  16  26
ATOM     26  C   UNL A   1      31.210  24.435  23.151  1.00  0.00     0.429 C 
ATOM     27  F   UNL A   1      31.132  25.370  22.209  1.00  0.00    -0.167 F 
ATOM     28  F   UNL A   1      30.151  23.633  23.068  1.00  0.00    -0.167 F 
ATOM     29  F   UNL A   1      31.235  25.013  24.349  1.00  0.00    -0.167 F 
ENDBRANCH  16  26
ENDBRANCH   4   7
ENDBRANCH   2   3
ENDBRANCH   1   2
BRANCH   1  30
ATOM     30  C   UNL A   1      33.773  29.163  25.478  1.00  0.00     0.118 C 
BRANCH  30  31
ATOM     31  N   UNL A   1      32.977  30.331  25.880  1.00  0.00    -0.352 N 
ATOM     32  C   UNL A   1      33.419  31.171  27.002  1.00  0.00     0.251 C 
ATOM     33  H   UNL A   1      32.148  30.552  25.397  1.00  0.00     0.163 HD
ATOM     34  O   UNL A   1      32.731  32.181  27.351  1.00  0.00    -0.269 OA
BRANCH  32  35
ATOM     35  C   UNL A   1      34.699  30.830  27.748  1.00  0.00     0.039 A 
ATOM     36  C   UNL A   1      34.782  29.620  28.418  1.00  0.00     0.014 A 
ATOM     37  C   UNL A   1      35.708  31.693  27.758  1.00  0.00     0.014 A 
ATOM     38  C   UNL A   1      35.871  29.535  29.315  1.00  0.00     0.010 A 
ATOM     39  C   UNL A   1      36.805  31.479  28.558  1.00  0.00     0.010 A 
ATOM     40  C   UNL A   1      36.925  30.332  29.292  1.00  0.00    -0.014 A 
BRANCH  40  41
ATOM     41  C   UNL A   1      38.203  29.991  30.041  1.00  0.00     0.031 A 
ATOM     42  C   UNL A   1      38.406  30.546  31.306  1.00  0.00     0.074 A 
ATOM     43  C   UNL A   1      39.095  29.132  29.421  1.00  0.00     0.049 A 
ATOM     44  N   UNL A   1      39.433  30.336  32.132  1.00  0.00    -0.248 NA
ATOM     45  C   UNL A   1      37.476  31.485  31.952  1.00  0.00     0.031 C 
ATOM     46  C   UNL A   1      38.894  28.561  28.150  1.00  0.00     0.029 A 
ATOM     47  N   UNL A   1      40.306  28.682  29.899  1.00  0.00    -0.354 N 
ATOM     48  C   UNL A   1      39.265  31.029  33.261  1.00  0.00     0.074 A 
ATOM     49  C   UNL A   1      38.008  31.782  33.159  1.00  0.00     0.031 C 
ATOM     50  C   UNL A   1      39.973  27.788  27.859  1.00  0.00     0.029 A 
ATOM     51  C   UNL A   1      40.866  27.861  28.945  1.00  0.00     0.049 A 
ATOM     52  H   UNL A   1      40.702  28.907  30.771  1.00  0.00     0.167 HD
ATOM     53  C   UNL A   1      40.109  31.059  34.371  1.00  0.00     0.034 A 
ATOM     54  C   UNL A   1      42.086  27.206  29.000  1.00  0.00     0.034 A 
ATOM     55  C   UNL A   1      41.310  30.370  34.442  1.00  0.00     0.049 A 
ATOM     56  C   UNL A   1      42.960  27.283  30.087  1.00  0.00     0.074 A 
ATOM     57  C   UNL A   1      42.169  30.384  35.558  1.00  0.00     0.029 A 
ATOM     58  N   UNL A   1      41.881  29.569  33.479  1.00  0.00    -0.354 N 
ATOM     59  N   UNL A   1      42.773  27.944  31.231  1.00  0.00    -0.248 NA
ATOM     60  C   UNL A   1      44.269  26.621  30.142  1.00  0.00     0.031 C 
ATOM     61  C   UNL A   1      43.249  29.610  35.268  1.00  0.00     0.029 A 
ATOM     62  C   UNL A   1      43.082  29.101  33.966  1.00  0.00     0.049 A 
ATOM     63  H   UNL A   1      41.498  29.366  32.595  1.00  0.00     0.167 HD
ATOM     64  C   UNL A   1      43.820  27.767  32.040  1.00  0.00     0.074 A 
ATOM     65  C   UNL A   1      44.801  26.919  31.348  1.00  0.00     0.031 C 
ATOM     66  C   UNL A   1      43.994  28.276  33.328  1.00  0.00     0.034 A 
BRANCH  53  67
ATOM     67  C   UNL A   1      39.690  31.896  35.568  1.00  0.00     0.023 A 
ATOM     68  C   UNL A   1      38.708  31.407  36.413  1.00  0.00     0.012 A 
ATOM     69  C   UNL A   1      40.157  33.133  35.698  1.00  0.00     0.148 A 
ATOM     70  C   UNL A   1      38.070  32.404  37.190  1.00  0.00     0.002 A 
ATOM     71  C   UNL A   1      39.572  34.014  36.575  1.00  0.00     0.091 A 
ATOM     72  F   UNL A   1      41.201  33.522  34.972  1.00  0.00    -0.205 F 
ATOM     73  C   UNL A   1      38.557  33.615  37.399  1.00  0.00     0.022 A 
BRANCH  71  74
ATOM     74  S   UNL A   1      40.153  35.726  36.641  1.00  0.00     0.127 S 
ATOM     75  O   UNL A   1      41.671  35.744  36.826  1.00  0.00    -0.237 OA
ATOM     76  O   UNL A   1      39.789  36.439  35.337  1.00  0.00    -0.237 OA
ATOM     77  O   UNL A   1      39.410  36.530  37.955  1.00  0.00    -0.744 OA
ENDBRANCH  71  74
ENDBRANCH  53  67
BRANCH  54  78
ATOM     78  C   UNL A   1      42.498  26.357  27.808  1.00  0.00     0.023 A 
ATOM     79  C   UNL A   1      43.289  26.827  26.772  1.00  0.00     0.012 A 
ATOM     80  C   UNL A   1      42.147  25.078  27.881  1.00  0.00     0.148 A 
ATOM     81  C   UNL A   1      43.421  25.919  25.695  1.00  0.00     0.002 A 
ATOM     82  C   UNL A   1      42.430  24.216  26.849  1.00  0.00     0.091 A 
ATOM     83  F   UNL A   1      41.517  24.629  28.962  1.00  0.00    -0.205 F 
ATOM     84  C   UNL A   1      43.156  24.628  25.767  1.00  0.00     0.022 A 
BRANCH  82  85
ATOM     85  S   UNL A   1      41.831  22.509  26.925  1.00  0.00     0.127 S 
ATOM     86  O   UNL A   1      42.482  21.792  28.109  1.00  0.00    -0.237 OA
ATOM     87  O   UNL A   1      40.311  22.509  27.102  1.00  0.00    -0.237 OA
ATOM     88  O   UNL A   1      42.236  21.698  25.474  1.00  0.00    -0.744 OA
ENDBRANCH  82  85
ENDBRANCH  54  78
BRANCH  66  89
ATOM     89  C   UNL A   1      45.264  27.903  34.076  1.00  0.00     0.023 A 
ATOM     90  C   UNL A   1      46.362  28.743  33.989  1.00  0.00     0.012 A 
ATOM     91  C   UNL A   1      45.309  26.782  34.787  1.00  0.00     0.148 A 
ATOM     92  C   UNL A   1      47.565  28.165  34.458  1.00  0.00     0.002 A 
ATOM     93  C   UNL A   1      46.493  26.346  35.331  1.00  0.00     0.091 A 
ATOM     94  F   UNL A   1      44.198  26.076  34.974  1.00  0.00    -0.205 F 
ATOM     95  C   UNL A   1      47.631  27.097  35.233  1.00  0.00     0.022 A 
BRANCH  93  96
ATOM     96  S   UNL A   1      46.547  24.754  36.190  1.00  0.00     0.127 S 
ATOM     97  O   UNL A   1      46.605  23.621  35.164  1.00  0.00    -0.237 OA
ATOM     98  O   UNL A   1      47.789  24.698  37.083  1.00  0.00    -0.237 OA
ATOM     99  O   UNL A   1      45.144  24.579  37.154  1.00  0.00    -0.744 OA
ENDBRANCH  93  96
ENDBRANCH  66  89
ENDBRANCH  40  41
ENDBRANCH  32  35
ENDBRANCH  30  31
ENDBRANCH   1  30
TORSDOF 17
ENDMDL
MODEL 3
REMARK VINA RESULT:     -12.8      2.231      3.044
REMARK SMILES CCCc1cc(S(F)(F)(F)(F)F)cc2c1O[C@@H](C(F)(F)F)C(C(=O)NCCCNC(=O)c1ccc(-c3c4nc(c(-c5cccc(S(=O)(=O)[O-])c5F)c5ccc([nH]5)c(-c5cccc(S(=O)(=O)[O-])c5F)c5nc(c(-c6cccc(S(=O)(=O)[O-])c6F)c6ccc3[nH]6)C=C5)C=C4)cc1)=C2
REMARK SMILES IDX 27 1 26 2 25 3 23 4 24 5 22 7 4 8 5 9 15 10 6 11 14 12 16 13
REMARK SMILES IDX 13 14 95 15 17 16 3 17 2 18 1 19 7 20 8 21 9 22 10 23 11 24
REMARK SMILES IDX 12 25 18 26 19 27 20 28 21 29 28 30 29 31 30 32 31 34 32 35
REMARK SMILES IDX 33 36 94 37 34 38 93 39 35 40 36 41 37 42 87 43 38 44 92 45
REMARK SMILES IDX 86 46 88 47 39 48 91 49 85 50 84 51 40 53 72 54 52 55 71 56
REMARK SMILES IDX 53 57 56 58 70 59 89 60 54 61 55 62 69 64 90 65 57 66 41 67
REMARK SMILES IDX 42 68 50 69 43 70 45 71 51 72 44 73 46 74 47 75 48 76 49 77
REMARK SMILES IDX 73 78 74 79 82 80 75 81 77 82 83 83 76 84 78 85 79 86 80 87
REMARK SMILES IDX 81 88 58 89 59 90 67 91 60 92 62 93 68 94 61 95 63 96 64 97
REMARK SMILES IDX 65 98 66 99
REMARK H PARENT 25 6 29 33 88 52 56 63
REMARK Flexibility Score: inf
ROOT
ATOM      1  C   UNL A   1      32.743  27.872  25.698  1.00  0.00     0.042 C 
ENDROOT
BRANCH   1   2
ATOM      2  C   UNL A   1      33.330  26.698  24.932  1.00  0.00     0.118 C 
BRANCH   2   3
ATOM      3  N   UNL A   1      33.341  27.007  23.495  1.00  0.00    -0.352 N 
ATOM      4  C   UNL A   1      33.494  25.924  22.513  1.00  0.00     0.251 C 
ATOM      5  O   UNL A   1      33.504  26.191  21.270  1.00  0.00    -0.270 OA
ATOM      6  H   UNL A   1      33.247  27.938  23.190  1.00  0.00     0.163 HD
BRANCH   4   7
ATOM      7  C   UNL A   1      33.641  24.486  22.982  1.00  0.00     0.067 C 
ATOM      8  C   UNL A   1      33.834  20.690  24.715  1.00  0.00    -0.004 A 
ATOM      9  C   UNL A   1      35.062  20.130  25.015  1.00  0.00     0.032 A 
ATOM     10  C   UNL A   1      33.797  21.961  24.195  1.00  0.00     0.131 A 
ATOM     11  C   UNL A   1      36.224  20.826  24.805  1.00  0.00     0.108 A 
ATOM     12  C   UNL A   1      34.950  22.686  23.953  1.00  0.00     0.019 A 
ATOM     13  O   UNL A   1      32.568  22.545  24.008  1.00  0.00    -0.475 OA
ATOM     14  C   UNL A   1      36.168  22.095  24.270  1.00  0.00     0.036 A 
ATOM     15  C   UNL A   1      34.805  24.037  23.438  1.00  0.00     0.025 C 
ATOM     16  C   UNL A   1      32.457  23.529  22.942  1.00  0.00     0.314 C 
BRANCH   8  17
ATOM     17  C   UNL A   1      32.569  19.947  25.117  1.00  0.00     0.039 C 
BRANCH  17  18
ATOM     18  C   UNL A   1      32.530  18.599  24.417  1.00  0.00     0.001 C 
ATOM     19  C   UNL A   1      32.563  17.488  25.455  1.00  0.00     0.004 C 
ENDBRANCH  17  18
ENDBRANCH   8  17
BRANCH  11  20
ATOM     20  S   UNL A   1      37.820  20.083  25.227  1.00  0.00     0.310 S 
ATOM     21  F   UNL A   1      38.159  19.847  23.695  1.00  0.00    -0.094 F 
ATOM     22  F   UNL A   1      37.096  18.685  25.212  1.00  0.00    -0.094 F 
ATOM     23  F   UNL A   1      39.178  19.408  25.569  1.00  0.00    -0.094 F 
ATOM     24  F   UNL A   1      38.553  21.477  25.098  1.00  0.00    -0.094 F 
ATOM     25  F   UNL A   1      36.471  20.769  24.768  1.00  0.00    -0.094 F 
ENDBRANCH  11  20
BRANCH  16  26
ATOM     26  C   UNL A   1      31.173  24.321  23.129  1.00  0.00     0.429 C 
ATOM     27  F   UNL A   1      31.184  24.910  24.321  1.00  0.00    -0.167 F 
ATOM     28  F   UNL A   1      31.081  25.247  22.177  1.00  0.00    -0.167 F 
ATOM     29  F   UNL A   1      30.131  23.498  23.049  1.00  0.00    -0.167 F 
ENDBRANCH  16  26
ENDBRANCH   4   7
ENDBRANCH   2   3
ENDBRANCH   1   2
BRANCH   1  30
ATOM     30  C   UNL A   1      33.554  29.125  25.406  1.00  0.00     0.118 C 
BRANCH  30  31
ATOM     31  N   UNL A   1      32.767  30.313  25.761  1.00  0.00    -0.352 N 
ATOM     32  C   UNL A   1      33.208  31.187  26.858  1.00  0.00     0.251 C 
ATOM     33  H   UNL A   1      31.943  30.524  25.265  1.00  0.00     0.163 HD
ATOM     34  O   UNL A   1      32.527  32.215  27.166  1.00  0.00    -0.269 OA
BRANCH  32  35
ATOM     35  C   UNL A   1      34.479  30.860  27.625  1.00  0.00     0.039 A 
ATOM     36  C   UNL A   1      34.586  29.628  28.250  1.00  0.00     0.014 A 
ATOM     37  C   UNL A   1      35.458  31.755  27.694  1.00  0.00     0.014 A 
ATOM     38  C   UNL A   1      35.655  29.544  29.172  1.00  0.00     0.010 A 
ATOM     39  C   UNL A   1      36.540  31.546  28.515  1.00  0.00     0.010 A 
ATOM     40  C   UNL A   1      36.681  30.376  29.208  1.00  0.00    -0.014 A 
BRANCH  40  41
ATOM     41  C   UNL A   1      37.951  30.049  29.977  1.00  0.00     0.031 A 
ATOM     42  C   UNL A   1      38.877  29.179  29.399  1.00  0.00     0.074 A 
ATOM     43  C   UNL A   1      38.119  30.649  31.214  1.00  0.00     0.049 A 
ATOM     44  N   UNL A   1      40.060  28.806  29.892  1.00  0.00    -0.248 NA
ATOM     45  C   UNL A   1      38.685  28.514  28.102  1.00  0.00     0.031 C 
ATOM     46  C   UNL A   1      37.193  31.534  31.799  1.00  0.00     0.029 A 
ATOM     47  N   UNL A   1      39.177  30.508  32.085  1.00  0.00    -0.354 N 
ATOM     48  C   UNL A   1      40.671  27.977  29.043  1.00  0.00     0.074 A 
ATOM     49  C   UNL A   1      39.794  27.772  27.882  1.00  0.00     0.031 C 
ATOM     50  C   UNL A   1      37.680  31.912  33.010  1.00  0.00     0.029 A 
ATOM     51  C   UNL A   1      38.918  31.271  33.202  1.00  0.00     0.049 A 
ATOM     52  H   UNL A   1      39.979  29.958  31.934  1.00  0.00     0.167 HD
ATOM     53  C   UNL A   1      41.927  27.386  29.190  1.00  0.00     0.034 A 
ATOM     54  C   UNL A   1      39.705  31.411  34.335  1.00  0.00     0.034 A 
ATOM     55  C   UNL A   1      42.732  27.559  30.304  1.00  0.00     0.049 A 
ATOM     56  C   UNL A   1      40.935  30.772  34.508  1.00  0.00     0.074 A 
ATOM     57  C   UNL A   1      44.005  26.977  30.465  1.00  0.00     0.029 A 
ATOM     58  N   UNL A   1      42.463  28.303  31.432  1.00  0.00    -0.354 N 
ATOM     59  N   UNL A   1      41.564  29.975  33.642  1.00  0.00    -0.248 NA
ATOM     60  C   UNL A   1      41.761  30.887  35.717  1.00  0.00     0.031 C 
ATOM     61  C   UNL A   1      44.491  27.355  31.676  1.00  0.00     0.029 A 
ATOM     62  C   UNL A   1      43.531  28.180  32.293  1.00  0.00     0.049 A 
ATOM     63  H   UNL A   1      41.648  28.831  31.594  1.00  0.00     0.167 HD
ATOM     64  C   UNL A   1      42.728  29.569  34.153  1.00  0.00     0.074 A 
ATOM     65  C   UNL A   1      42.869  30.144  35.498  1.00  0.00     0.031 C 
ATOM     66  C   UNL A   1      43.679  28.746  33.549  1.00  0.00     0.034 A 
BRANCH  53  67
ATOM     67  C   UNL A   1      42.439  26.501  28.065  1.00  0.00     0.023 A 
ATOM     68  C   UNL A   1      43.046  27.095  26.972  1.00  0.00     0.012 A 
ATOM     69  C   UNL A   1      42.165  25.202  28.078  1.00  0.00     0.148 A 
ATOM     70  C   UNL A   1      43.065  26.282  25.813  1.00  0.00     0.002 A 
ATOM     71  C   UNL A   1      42.335  24.438  26.948  1.00  0.00     0.091 A 
ATOM     72  F   UNL A   1      41.721  24.633  29.196  1.00  0.00    -0.205 F 
ATOM     73  C   UNL A   1      42.875  24.975  25.813  1.00  0.00     0.022 A 
BRANCH  71  74
ATOM     74  S   UNL A   1      41.837  22.699  26.963  1.00  0.00     0.127 S 
ATOM     75  O   UNL A   1      42.818  21.894  27.818  1.00  0.00    -0.237 OA
ATOM     76  O   UNL A   1      40.429  22.575  27.549  1.00  0.00    -0.237 OA
ATOM     77  O   UNL A   1      41.844  22.091  25.364  1.00  0.00    -0.744 OA
ENDBRANCH  71  74
ENDBRANCH  53  67
BRANCH  54  78
ATOM     78  C   UNL A   1      39.199  32.308  35.452  1.00  0.00     0.023 A 
ATOM     79  C   UNL A   1      39.363  33.684  35.459  1.00  0.00     0.012 A 
ATOM     80  C   UNL A   1      38.471  31.697  36.378  1.00  0.00     0.148 A 
ATOM     81  C   UNL A   1      38.953  34.304  36.663  1.00  0.00     0.002 A 
ATOM     82  C   UNL A   1      37.986  32.393  37.460  1.00  0.00     0.091 A 
ATOM     83  F   UNL A   1      38.208  30.399  36.259  1.00  0.00    -0.205 F 
ATOM     84  C   UNL A   1      38.163  33.745  37.562  1.00  0.00     0.022 A 
BRANCH  82  85
ATOM     85  S   UNL A   1      37.102  31.508  38.767  1.00  0.00     0.127 S 
ATOM     86  O   UNL A   1      36.861  30.061  38.331  1.00  0.00    -0.237 OA
ATOM     87  O   UNL A   1      37.939  31.522  40.049  1.00  0.00    -0.237 OA
ATOM     88  O   UNL A   1      35.600  32.272  39.058  1.00  0.00    -0.744 OA
ENDBRANCH  82  85
ENDBRANCH  54  78
BRANCH  66  89
ATOM     89  C   UNL A   1      44.958  28.451  34.318  1.00  0.00     0.023 A 
ATOM     90  C   UNL A   1      46.043  29.296  34.159  1.00  0.00     0.012 A 
ATOM     91  C   UNL A   1      45.021  27.391  35.117  1.00  0.00     0.148 A 
ATOM     92  C   UNL A   1      47.257  28.773  34.665  1.00  0.00     0.002 A 
ATOM     93  C   UNL A   1      46.213  27.015  35.687  1.00  0.00     0.091 A 
ATOM     94  F   UNL A   1      43.920  26.687  35.365  1.00  0.00    -0.205 F 
ATOM     95  C   UNL A   1      47.341  27.772  35.523  1.00  0.00     0.022 A 
BRANCH  93  96
ATOM     96  S   UNL A   1      46.293  25.499  36.670  1.00  0.00     0.127 S 
ATOM     97  O   UNL A   1      47.755  25.160  36.970  1.00  0.00    -0.237 OA
ATOM     98  O   UNL A   1      45.537  25.702  37.985  1.00  0.00    -0.237 OA
ATOM     99  O   UNL A   1      45.579  24.214  35.795  1.00  0.00    -0.744 OA
ENDBRANCH  93  96
ENDBRANCH  66  89
ENDBRANCH  40  41
ENDBRANCH  32  35
ENDBRANCH  30  31
ENDBRANCH   1  30
TORSDOF 17
ENDMDL
