MODEL 1
REMARK VINA RESULT:     -10.8      0.000      0.000
REMARK SMILES Cc1ccc(O)c(C(=O)CCCC(=O)NCCCNC(=O)c2ccc(-c3c4nc(c(-c5cccc(S(=O)(=O)[O-])c5F)c5ccc([nH]5)c(-c5cccc(S(=O)(=O)[O-])c5F)c5nc(c(-c6cccc(S(=O)(=O)[O-])c6F)c6ccc3[nH]6)C=C5)C=C4)cc2)c1
REMARK SMILES IDX 16 1 15 2 13 3 14 4 12 6 11 7 10 8 8 9 9 10 7 11 1 12 2 13
REMARK SMILES IDX 3 14 85 15 4 16 5 17 6 18 17 20 18 21 19 22 20 23 21 25
REMARK SMILES IDX 22 26 23 27 84 28 24 29 83 30 25 31 26 32 27 33 77 34 28 35
REMARK SMILES IDX 82 36 76 37 78 38 29 39 81 40 75 41 74 42 30 44 62 45 42 46
REMARK SMILES IDX 61 47 43 48 46 49 60 50 79 51 44 52 45 53 59 55 80 56 47 57
REMARK SMILES IDX 31 58 32 59 40 60 33 61 35 62 41 63 34 64 36 65 37 66 38 67
REMARK SMILES IDX 39 68 63 69 64 70 72 71 65 72 67 73 73 74 66 75 68 76 69 77
REMARK SMILES IDX 70 78 71 79 48 80 49 81 57 82 50 83 52 84 58 85 51 86 53 87
REMARK SMILES IDX 54 88 55 89 56 90
REMARK H PARENT 15 5 6 19 19 24 78 43 46 54
REMARK Flexibility Score: inf
ROOT
ATOM      1  C   UNL A   1      31.890  30.534  26.845  1.00  0.00     0.117 C 
ENDROOT
BRANCH   1   2
ATOM      2  N   UNL A   1      33.186  30.231  27.409  1.00  0.00    -0.356 N 
ATOM      3  C   UNL A   1      34.073  29.222  27.273  1.00  0.00     0.220 C 
ATOM      4  O   UNL A   1      35.127  29.366  27.908  1.00  0.00    -0.275 OA
ATOM      5  H   UNL A   1      33.493  30.921  28.041  1.00  0.00     0.163 HD
BRANCH   3   6
ATOM      6  C   UNL A   1      33.964  28.031  26.319  1.00  0.00     0.100 C 
BRANCH   6   7
ATOM      7  C   UNL A   1      33.517  28.096  24.859  1.00  0.00     0.018 C 
BRANCH   7   8
ATOM      8  C   UNL A   1      33.480  26.916  23.895  1.00  0.00     0.082 C 
BRANCH   8   9
ATOM      9  C   UNL A   1      32.229  26.379  23.177  1.00  0.00     0.166 C 
ATOM     10  O   UNL A   1      32.279  25.240  22.692  1.00  0.00    -0.294 OA
BRANCH   9  11
ATOM     11  C   UNL A   1      30.874  27.035  23.150  1.00  0.00     0.060 A 
ATOM     12  C   UNL A   1      29.202  30.263  21.967  1.00  0.00     0.044 C 
ATOM     13  C   UNL A   1      29.373  28.901  22.577  1.00  0.00    -0.050 A 
ATOM     14  C   UNL A   1      28.297  28.226  23.142  1.00  0.00     0.007 A 
ATOM     15  C   UNL A   1      30.631  28.278  22.570  1.00  0.00     0.019 A 
ATOM     16  C   UNL A   1      28.500  26.980  23.732  1.00  0.00     0.047 A 
ATOM     17  C   UNL A   1      29.773  26.400  23.748  1.00  0.00     0.126 A 
BRANCH  17  18
ATOM     18  O   UNL A   1      29.859  25.198  24.402  1.00  0.00    -0.507 OA
ATOM     19  H   UNL A   1      30.104  25.174  25.306  1.00  0.00     0.293 HD
ENDBRANCH  17  18
ENDBRANCH   9  11
ENDBRANCH   8   9
ENDBRANCH   7   8
ENDBRANCH   6   7
ENDBRANCH   3   6
ENDBRANCH   1   2
BRANCH   1  20
ATOM     20  C   UNL A   1      31.576  32.021  26.882  1.00  0.00     0.042 C 
BRANCH  20  21
ATOM     21  C   UNL A   1      32.821  32.872  27.004  1.00  0.00     0.118 C 
BRANCH  21  22
ATOM     22  N   UNL A   1      32.544  34.173  27.605  1.00  0.00    -0.352 N 
ATOM     23  C   UNL A   1      33.108  34.751  28.719  1.00  0.00     0.251 C 
ATOM     24  H   UNL A   1      31.860  34.713  27.149  1.00  0.00     0.163 HD
ATOM     25  O   UNL A   1      32.640  35.797  29.164  1.00  0.00    -0.269 OA
BRANCH  23  26
ATOM     26  C   UNL A   1      34.254  34.098  29.390  1.00  0.00     0.039 A 
ATOM     27  C   UNL A   1      35.551  34.540  29.121  1.00  0.00     0.014 A 
ATOM     28  C   UNL A   1      34.046  33.060  30.301  1.00  0.00     0.014 A 
ATOM     29  C   UNL A   1      36.630  33.970  29.803  1.00  0.00     0.010 A 
ATOM     30  C   UNL A   1      35.099  32.596  31.074  1.00  0.00     0.010 A 
ATOM     31  C   UNL A   1      36.409  33.009  30.804  1.00  0.00    -0.014 A 
BRANCH  31  32
ATOM     32  C   UNL A   1      37.529  32.366  31.535  1.00  0.00     0.031 A 
ATOM     33  C   UNL A   1      38.297  31.245  30.880  1.00  0.00     0.074 A 
ATOM     34  C   UNL A   1      37.804  32.728  32.803  1.00  0.00     0.049 A 
ATOM     35  N   UNL A   1      39.264  30.511  31.366  1.00  0.00    -0.248 NA
ATOM     36  C   UNL A   1      37.893  30.862  29.514  1.00  0.00     0.031 C 
ATOM     37  C   UNL A   1      37.069  33.727  33.582  1.00  0.00     0.029 A 
ATOM     38  N   UNL A   1      38.767  32.277  33.670  1.00  0.00    -0.354 N 
ATOM     39  C   UNL A   1      39.543  29.559  30.392  1.00  0.00     0.074 A 
ATOM     40  C   UNL A   1      38.606  29.765  29.313  1.00  0.00     0.031 C 
ATOM     41  C   UNL A   1      37.621  33.829  34.802  1.00  0.00     0.029 A 
ATOM     42  C   UNL A   1      38.731  32.888  34.902  1.00  0.00     0.049 A 
ATOM     43  H   UNL A   1      39.422  31.581  33.433  1.00  0.00     0.167 HD
ATOM     44  C   UNL A   1      40.522  28.623  30.371  1.00  0.00     0.034 A 
ATOM     45  C   UNL A   1      39.514  32.713  35.984  1.00  0.00     0.034 A 
ATOM     46  C   UNL A   1      41.500  28.474  31.412  1.00  0.00     0.049 A 
ATOM     47  C   UNL A   1      40.655  31.734  35.900  1.00  0.00     0.074 A 
ATOM     48  C   UNL A   1      42.595  27.630  31.453  1.00  0.00     0.029 A 
ATOM     49  N   UNL A   1      41.505  29.196  32.595  1.00  0.00    -0.354 N 
ATOM     50  N   UNL A   1      41.001  30.951  34.907  1.00  0.00    -0.248 NA
ATOM     51  C   UNL A   1      41.542  31.650  37.069  1.00  0.00     0.031 C 
ATOM     52  C   UNL A   1      43.253  27.832  32.670  1.00  0.00     0.029 A 
ATOM     53  C   UNL A   1      42.585  28.822  33.374  1.00  0.00     0.049 A 
ATOM     54  H   UNL A   1      40.837  29.876  32.845  1.00  0.00     0.167 HD
ATOM     55  C   UNL A   1      42.168  30.313  35.312  1.00  0.00     0.074 A 
ATOM     56  C   UNL A   1      42.480  30.820  36.634  1.00  0.00     0.031 C 
ATOM     57  C   UNL A   1      42.907  29.381  34.661  1.00  0.00     0.034 A 
BRANCH  44  58
ATOM     58  C   UNL A   1      40.620  27.741  29.153  1.00  0.00     0.023 A 
ATOM     59  C   UNL A   1      39.806  26.593  29.054  1.00  0.00     0.012 A 
ATOM     60  C   UNL A   1      41.489  28.062  28.092  1.00  0.00     0.148 A 
ATOM     61  C   UNL A   1      39.888  25.753  27.944  1.00  0.00     0.002 A 
ATOM     62  C   UNL A   1      41.529  27.247  26.965  1.00  0.00     0.091 A 
ATOM     63  F   UNL A   1      42.274  29.143  28.210  1.00  0.00    -0.205 F 
ATOM     64  C   UNL A   1      40.741  26.086  26.897  1.00  0.00     0.022 A 
BRANCH  62  65
ATOM     65  S   UNL A   1      42.531  27.632  25.525  1.00  0.00     0.127 S 
ATOM     66  O   UNL A   1      43.875  27.670  26.102  1.00  0.00    -0.237 OA
ATOM     67  O   UNL A   1      42.273  26.484  24.656  1.00  0.00    -0.237 OA
ATOM     68  O   UNL A   1      42.034  28.903  25.017  1.00  0.00    -0.744 OA
ENDBRANCH  62  65
ENDBRANCH  44  58
BRANCH  45  69
ATOM     69  C   UNL A   1      39.307  33.549  37.200  1.00  0.00     0.023 A 
ATOM     70  C   UNL A   1      39.849  34.848  37.246  1.00  0.00     0.012 A 
ATOM     71  C   UNL A   1      38.559  33.080  38.296  1.00  0.00     0.148 A 
ATOM     72  C   UNL A   1      39.685  35.651  38.375  1.00  0.00     0.002 A 
ATOM     73  C   UNL A   1      38.352  33.904  39.397  1.00  0.00     0.091 A 
ATOM     74  F   UNL A   1      38.057  31.838  38.238  1.00  0.00    -0.205 F 
ATOM     75  C   UNL A   1      38.929  35.183  39.446  1.00  0.00     0.022 A 
BRANCH  73  76
ATOM     76  S   UNL A   1      37.287  33.436  40.766  1.00  0.00     0.127 S 
ATOM     77  O   UNL A   1      38.096  32.425  41.441  1.00  0.00    -0.237 OA
ATOM     78  O   UNL A   1      37.149  34.700  41.488  1.00  0.00    -0.237 OA
ATOM     79  O   UNL A   1      36.054  32.956  40.156  1.00  0.00    -0.744 OA
ENDBRANCH  73  76
ENDBRANCH  45  69
BRANCH  57  80
ATOM     80  C   UNL A   1      44.152  28.882  35.344  1.00  0.00     0.023 A 
ATOM     81  C   UNL A   1      45.396  29.483  35.071  1.00  0.00     0.012 A 
ATOM     82  C   UNL A   1      44.076  27.853  36.304  1.00  0.00     0.148 A 
ATOM     83  C   UNL A   1      46.553  29.039  35.708  1.00  0.00     0.002 A 
ATOM     84  C   UNL A   1      45.225  27.451  36.975  1.00  0.00     0.091 A 
ATOM     85  F   UNL A   1      42.887  27.279  36.538  1.00  0.00    -0.205 F 
ATOM     86  C   UNL A   1      46.466  28.032  36.668  1.00  0.00     0.022 A 
BRANCH  84  87
ATOM     87  S   UNL A   1      45.181  26.236  38.297  1.00  0.00     0.127 S 
ATOM     88  O   UNL A   1      46.593  26.147  38.666  1.00  0.00    -0.237 OA
ATOM     89  O   UNL A   1      44.330  26.887  39.293  1.00  0.00    -0.237 OA
ATOM     90  O   UNL A   1      44.605  25.033  37.710  1.00  0.00    -0.744 OA
ENDBRANCH  84  87
ENDBRANCH  57  80
ENDBRANCH  31  32
ENDBRANCH  23  26
ENDBRANCH  21  22
ENDBRANCH  20  21
ENDBRANCH   1  20
TORSDOF 18
ENDMDL
MODEL 2
REMARK VINA RESULT:     -10.7      3.615      9.079
REMARK SMILES Cc1ccc(O)c(C(=O)CCCC(=O)NCCCNC(=O)c2ccc(-c3c4nc(c(-c5cccc(S(=O)(=O)[O-])c5F)c5ccc([nH]5)c(-c5cccc(S(=O)(=O)[O-])c5F)c5nc(c(-c6cccc(S(=O)(=O)[O-])c6F)c6ccc3[nH]6)C=C5)C=C4)cc2)c1
REMARK SMILES IDX 16 1 15 2 13 3 14 4 12 6 11 7 10 8 8 9 9 10 7 11 1 12 2 13
REMARK SMILES IDX 3 14 85 15 4 16 5 17 6 18 17 20 18 21 19 22 20 23 21 25
REMARK SMILES IDX 22 26 23 27 84 28 24 29 83 30 25 31 26 32 27 33 77 34 28 35
REMARK SMILES IDX 82 36 76 37 78 38 29 39 81 40 75 41 74 42 30 44 62 45 42 46
REMARK SMILES IDX 61 47 43 48 46 49 60 50 79 51 44 52 45 53 59 55 80 56 47 57
REMARK SMILES IDX 31 58 32 59 40 60 33 61 35 62 41 63 34 64 36 65 37 66 38 67
REMARK SMILES IDX 39 68 63 69 64 70 72 71 65 72 67 73 73 74 66 75 68 76 69 77
REMARK SMILES IDX 70 78 71 79 48 80 49 81 57 82 50 83 52 84 58 85 51 86 53 87
REMARK SMILES IDX 54 88 55 89 56 90
REMARK H PARENT 15 5 6 19 19 24 78 43 46 54
REMARK Flexibility Score: inf
ROOT
ATOM      1  C   UNL A   1      32.005  29.482  24.699  1.00  0.00     0.117 C 
ENDROOT
BRANCH   1   2
ATOM      2  N   UNL A   1      31.316  29.096  23.488  1.00  0.00    -0.356 N 
ATOM      3  C   UNL A   1      30.885  27.927  22.966  1.00  0.00     0.220 C 
ATOM      4  O   UNL A   1      30.267  28.030  21.897  1.00  0.00    -0.275 OA
ATOM      5  H   UNL A   1      31.113  29.865  22.908  1.00  0.00     0.163 HD
BRANCH   3   6
ATOM      6  C   UNL A   1      30.954  26.550  23.628  1.00  0.00     0.100 C 
BRANCH   6   7
ATOM      7  C   UNL A   1      30.083  26.075  24.791  1.00  0.00     0.018 C 
BRANCH   7   8
ATOM      8  C   UNL A   1      30.597  25.666  26.167  1.00  0.00     0.082 C 
BRANCH   8   9
ATOM      9  C   UNL A   1      31.018  24.246  26.585  1.00  0.00     0.166 C 
ATOM     10  O   UNL A   1      30.244  23.594  27.300  1.00  0.00    -0.294 OA
BRANCH   9  11
ATOM     11  C   UNL A   1      32.214  23.489  26.069  1.00  0.00     0.060 A 
ATOM     12  C   UNL A   1      35.868  24.079  25.112  1.00  0.00     0.044 C 
ATOM     13  C   UNL A   1      34.565  23.369  25.348  1.00  0.00    -0.050 A 
ATOM     14  C   UNL A   1      34.427  22.012  25.081  1.00  0.00     0.007 A 
ATOM     15  C   UNL A   1      33.463  24.071  25.861  1.00  0.00     0.019 A 
ATOM     16  C   UNL A   1      33.193  21.394  25.277  1.00  0.00     0.047 A 
ATOM     17  C   UNL A   1      32.099  22.126  25.751  1.00  0.00     0.126 A 
BRANCH  17  18
ATOM     18  O   UNL A   1      30.927  21.423  25.852  1.00  0.00    -0.507 OA
ATOM     19  H   UNL A   1      30.218  21.607  25.268  1.00  0.00     0.293 HD
ENDBRANCH  17  18
ENDBRANCH   9  11
ENDBRANCH   8   9
ENDBRANCH   7   8
ENDBRANCH   6   7
ENDBRANCH   3   6
ENDBRANCH   1   2
BRANCH   1  20
ATOM     20  C   UNL A   1      33.380  28.843  24.812  1.00  0.00     0.042 C 
BRANCH  20  21
ATOM     21  C   UNL A   1      33.948  28.938  26.211  1.00  0.00     0.118 C 
BRANCH  21  22
ATOM     22  N   UNL A   1      33.760  30.262  26.795  1.00  0.00    -0.352 N 
ATOM     23  C   UNL A   1      34.531  30.915  27.728  1.00  0.00     0.251 C 
ATOM     24  H   UNL A   1      32.973  30.758  26.475  1.00  0.00     0.163 HD
ATOM     25  O   UNL A   1      34.132  31.972  28.214  1.00  0.00    -0.269 OA
BRANCH  23  26
ATOM     26  C   UNL A   1      35.820  30.331  28.161  1.00  0.00     0.039 A 
ATOM     27  C   UNL A   1      36.972  30.574  27.409  1.00  0.00     0.014 A 
ATOM     28  C   UNL A   1      35.894  29.559  29.322  1.00  0.00     0.014 A 
ATOM     29  C   UNL A   1      38.202  30.079  27.852  1.00  0.00     0.010 A 
ATOM     30  C   UNL A   1      37.131  29.189  29.829  1.00  0.00     0.010 A 
ATOM     31  C   UNL A   1      38.294  29.402  29.080  1.00  0.00    -0.014 A 
BRANCH  31  32
ATOM     32  C   UNL A   1      39.578  28.844  29.573  1.00  0.00     0.031 A 
ATOM     33  C   UNL A   1      40.291  29.521  30.717  1.00  0.00     0.074 A 
ATOM     34  C   UNL A   1      40.140  27.790  28.950  1.00  0.00     0.049 A 
ATOM     35  N   UNL A   1      41.448  29.235  31.256  1.00  0.00    -0.248 NA
ATOM     36  C   UNL A   1      39.644  30.710  31.303  1.00  0.00     0.031 C 
ATOM     37  C   UNL A   1      39.599  27.111  27.770  1.00  0.00     0.029 A 
ATOM     38  N   UNL A   1      41.306  27.117  29.213  1.00  0.00    -0.354 N 
ATOM     39  C   UNL A   1      41.683  30.228  32.199  1.00  0.00     0.074 A 
ATOM     40  C   UNL A   1      40.583  31.160  32.119  1.00  0.00     0.031 C 
ATOM     41  C   UNL A   1      40.421  26.106  27.425  1.00  0.00     0.029 A 
ATOM     42  C   UNL A   1      41.556  26.083  28.341  1.00  0.00     0.049 A 
ATOM     43  H   UNL A   1      41.908  27.353  29.955  1.00  0.00     0.167 HD
ATOM     44  C   UNL A   1      42.700  30.336  33.087  1.00  0.00     0.034 A 
ATOM     45  C   UNL A   1      42.581  25.211  28.295  1.00  0.00     0.034 A 
ATOM     46  C   UNL A   1      43.749  29.364  33.214  1.00  0.00     0.049 A 
ATOM     47  C   UNL A   1      43.649  25.294  29.354  1.00  0.00     0.074 A 
ATOM     48  C   UNL A   1      44.773  29.317  34.142  1.00  0.00     0.029 A 
ATOM     49  N   UNL A   1      43.902  28.261  32.390  1.00  0.00    -0.354 N 
ATOM     50  N   UNL A   1      43.772  26.151  30.339  1.00  0.00    -0.248 NA
ATOM     51  C   UNL A   1      44.693  24.260  29.323  1.00  0.00     0.031 C 
ATOM     52  C   UNL A   1      45.555  28.190  33.869  1.00  0.00     0.029 A 
ATOM     53  C   UNL A   1      45.001  27.522  32.788  1.00  0.00     0.049 A 
ATOM     54  H   UNL A   1      43.315  28.036  31.632  1.00  0.00     0.167 HD
ATOM     55  C   UNL A   1      44.879  25.737  31.069  1.00  0.00     0.074 A 
ATOM     56  C   UNL A   1      45.377  24.538  30.424  1.00  0.00     0.031 C 
ATOM     57  C   UNL A   1      45.444  26.302  32.165  1.00  0.00     0.034 A 
BRANCH  44  58
ATOM     58  C   UNL A   1      42.679  31.509  34.034  1.00  0.00     0.023 A 
ATOM     59  C   UNL A   1      43.244  32.739  33.634  1.00  0.00     0.012 A 
ATOM     60  C   UNL A   1      42.075  31.409  35.302  1.00  0.00     0.148 A 
ATOM     61  C   UNL A   1      43.251  33.835  34.496  1.00  0.00     0.002 A 
ATOM     62  C   UNL A   1      42.040  32.521  36.137  1.00  0.00     0.091 A 
ATOM     63  F   UNL A   1      41.563  30.228  35.677  1.00  0.00    -0.205 F 
ATOM     64  C   UNL A   1      42.640  33.728  35.742  1.00  0.00     0.022 A 
BRANCH  62  65
ATOM     65  S   UNL A   1      41.205  32.514  37.727  1.00  0.00     0.127 S 
ATOM     66  O   UNL A   1      39.887  31.990  37.366  1.00  0.00    -0.237 OA
ATOM     67  O   UNL A   1      42.034  31.594  38.505  1.00  0.00    -0.237 OA
ATOM     68  O   UNL A   1      41.221  33.892  38.196  1.00  0.00    -0.744 OA
ENDBRANCH  62  65
ENDBRANCH  44  58
BRANCH  45  69
ATOM     69  C   UNL A   1      42.597  24.128  27.272  1.00  0.00     0.023 A 
ATOM     70  C   UNL A   1      43.516  24.196  26.207  1.00  0.00     0.012 A 
ATOM     71  C   UNL A   1      41.731  23.021  27.359  1.00  0.00     0.148 A 
ATOM     72  C   UNL A   1      43.548  23.204  25.226  1.00  0.00     0.002 A 
ATOM     73  C   UNL A   1      41.803  22.009  26.409  1.00  0.00     0.091 A 
ATOM     74  F   UNL A   1      40.858  22.977  28.376  1.00  0.00    -0.205 F 
ATOM     75  C   UNL A   1      42.698  22.107  25.332  1.00  0.00     0.022 A 
BRANCH  73  76
ATOM     76  S   UNL A   1      40.839  20.498  26.535  1.00  0.00     0.127 S 
ATOM     77  O   UNL A   1      41.040  20.131  27.934  1.00  0.00    -0.237 OA
ATOM     78  O   UNL A   1      39.494  20.970  26.208  1.00  0.00    -0.237 OA
ATOM     79  O   UNL A   1      41.410  19.586  25.553  1.00  0.00    -0.744 OA
ENDBRANCH  73  76
ENDBRANCH  45  69
BRANCH  57  80
ATOM     80  C   UNL A   1      46.638  25.607  32.766  1.00  0.00     0.023 A 
ATOM     81  C   UNL A   1      47.939  25.977  32.374  1.00  0.00     0.012 A 
ATOM     82  C   UNL A   1      46.467  24.627  33.764  1.00  0.00     0.148 A 
ATOM     83  C   UNL A   1      49.052  25.351  32.933  1.00  0.00     0.002 A 
ATOM     84  C   UNL A   1      47.581  24.046  34.355  1.00  0.00     0.091 A 
ATOM     85  F   UNL A   1      45.220  24.274  34.110  1.00  0.00    -0.205 F 
ATOM     86  C   UNL A   1      48.874  24.395  33.931  1.00  0.00     0.022 A 
BRANCH  84  87
ATOM     87  S   UNL A   1      47.440  22.884  35.717  1.00  0.00     0.127 S 
ATOM     88  O   UNL A   1      46.712  23.674  36.709  1.00  0.00    -0.237 OA
ATOM     89  O   UNL A   1      46.669  21.793  35.121  1.00  0.00    -0.237 OA
ATOM     90  O   UNL A   1      48.807  22.526  36.077  1.00  0.00    -0.744 OA
ENDBRANCH  84  87
ENDBRANCH  57  80
ENDBRANCH  31  32
ENDBRANCH  23  26
ENDBRANCH  21  22
ENDBRANCH  20  21
ENDBRANCH   1  20
TORSDOF 18
ENDMDL
MODEL 3
REMARK VINA RESULT:     -10.7      5.585      9.061
REMARK SMILES Cc1ccc(O)c(C(=O)CCCC(=O)NCCCNC(=O)c2ccc(-c3c4nc(c(-c5cccc(S(=O)(=O)[O-])c5F)c5ccc([nH]5)c(-c5cccc(S(=O)(=O)[O-])c5F)c5nc(c(-c6cccc(S(=O)(=O)[O-])c6F)c6ccc3[nH]6)C=C5)C=C4)cc2)c1
REMARK SMILES IDX 16 1 15 2 13 3 14 4 12 6 11 7 10 8 8 9 9 10 7 11 1 12 2 13
REMARK SMILES IDX 3 14 85 15 4 16 5 17 6 18 17 20 18 21 19 22 20 23 21 25
REMARK SMILES IDX 22 26 23 27 84 28 24 29 83 30 25 31 26 32 27 33 77 34 28 35
REMARK SMILES IDX 82 36 76 37 78 38 29 39 81 40 75 41 74 42 30 44 62 45 42 46
REMARK SMILES IDX 61 47 43 48 46 49 60 50 79 51 44 52 45 53 59 55 80 56 47 57
REMARK SMILES IDX 31 58 32 59 40 60 33 61 35 62 41 63 34 64 36 65 37 66 38 67
REMARK SMILES IDX 39 68 63 69 64 70 72 71 65 72 67 73 73 74 66 75 68 76 69 77
REMARK SMILES IDX 70 78 71 79 48 80 49 81 57 82 50 83 52 84 58 85 51 86 53 87
REMARK SMILES IDX 54 88 55 89 56 90
REMARK H PARENT 15 5 6 19 19 24 78 43 46 54
REMARK Flexibility Score: inf
ROOT
ATOM      1  C   UNL A   1      35.621  21.073  25.371  1.00  0.00     0.117 C 
ENDROOT
BRANCH   1   2
ATOM      2  N   UNL A   1      34.446  20.251  25.557  1.00  0.00    -0.356 N 
ATOM      3  C   UNL A   1      33.192  20.250  25.054  1.00  0.00     0.220 C 
ATOM      4  O   UNL A   1      32.479  19.313  25.438  1.00  0.00    -0.275 OA
ATOM      5  H   UNL A   1      34.594  19.521  26.202  1.00  0.00     0.163 HD
BRANCH   3   6
ATOM      6  C   UNL A   1      32.641  21.180  23.973  1.00  0.00     0.100 C 
BRANCH   6   7
ATOM      7  C   UNL A   1      32.119  22.599  24.199  1.00  0.00     0.018 C 
BRANCH   7   8
ATOM      8  C   UNL A   1      31.036  22.991  25.199  1.00  0.00     0.082 C 
BRANCH   8   9
ATOM      9  C   UNL A   1      31.101  24.176  26.178  1.00  0.00     0.166 C 
ATOM     10  O   UNL A   1      31.060  23.934  27.392  1.00  0.00    -0.294 OA
BRANCH   9  11
ATOM     11  C   UNL A   1      31.387  25.610  25.814  1.00  0.00     0.060 A 
ATOM     12  C   UNL A   1      34.059  28.292  26.345  1.00  0.00     0.044 C 
ATOM     13  C   UNL A   1      32.798  27.627  25.872  1.00  0.00    -0.050 A 
ATOM     14  C   UNL A   1      31.864  28.318  25.108  1.00  0.00     0.007 A 
ATOM     15  C   UNL A   1      32.551  26.281  26.185  1.00  0.00     0.019 A 
ATOM     16  C   UNL A   1      30.688  27.680  24.719  1.00  0.00     0.047 A 
ATOM     17  C   UNL A   1      30.447  26.350  25.079  1.00  0.00     0.126 A 
BRANCH  17  18
ATOM     18  O   UNL A   1      29.234  25.848  24.683  1.00  0.00    -0.507 OA
ATOM     19  H   UNL A   1      28.860  25.118  25.136  1.00  0.00     0.293 HD
ENDBRANCH  17  18
ENDBRANCH   9  11
ENDBRANCH   8   9
ENDBRANCH   7   8
ENDBRANCH   6   7
ENDBRANCH   3   6
ENDBRANCH   1   2
BRANCH   1  20
ATOM     20  C   UNL A   1      35.450  22.468  25.949  1.00  0.00     0.042 C 
BRANCH  20  21
ATOM     21  C   UNL A   1      36.752  23.238  25.994  1.00  0.00     0.118 C 
BRANCH  21  22
ATOM     22  N   UNL A   1      37.912  22.358  26.079  1.00  0.00    -0.352 N 
ATOM     23  C   UNL A   1      39.213  22.667  26.401  1.00  0.00     0.251 C 
ATOM     24  H   UNL A   1      37.739  21.410  25.879  1.00  0.00     0.163 HD
ATOM     25  O   UNL A   1      40.089  21.814  26.275  1.00  0.00    -0.269 OA
BRANCH  23  26
ATOM     26  C   UNL A   1      39.555  24.028  26.870  1.00  0.00     0.039 A 
ATOM     27  C   UNL A   1      39.493  24.321  28.233  1.00  0.00     0.014 A 
ATOM     28  C   UNL A   1      39.956  25.011  25.962  1.00  0.00     0.014 A 
ATOM     29  C   UNL A   1      39.878  25.586  28.686  1.00  0.00     0.010 A 
ATOM     30  C   UNL A   1      40.468  26.213  26.426  1.00  0.00     0.010 A 
ATOM     31  C   UNL A   1      40.393  26.535  27.786  1.00  0.00    -0.014 A 
BRANCH  31  32
ATOM     32  C   UNL A   1      40.793  27.895  28.225  1.00  0.00     0.031 A 
ATOM     33  C   UNL A   1      42.252  28.280  28.214  1.00  0.00     0.074 A 
ATOM     34  C   UNL A   1      39.869  28.749  28.706  1.00  0.00     0.049 A 
ATOM     35  N   UNL A   1      42.818  29.389  28.614  1.00  0.00    -0.248 NA
ATOM     36  C   UNL A   1      43.210  27.266  27.736  1.00  0.00     0.031 C 
ATOM     37  C   UNL A   1      38.442  28.459  28.863  1.00  0.00     0.029 A 
ATOM     38  N   UNL A   1      39.998  30.033  29.173  1.00  0.00    -0.354 N 
ATOM     39  C   UNL A   1      44.187  29.185  28.483  1.00  0.00     0.074 A 
ATOM     40  C   UNL A   1      44.373  27.828  28.025  1.00  0.00     0.031 C 
ATOM     41  C   UNL A   1      37.825  29.540  29.368  1.00  0.00     0.029 A 
ATOM     42  C   UNL A   1      38.813  30.590  29.594  1.00  0.00     0.049 A 
ATOM     43  H   UNL A   1      40.859  30.510  29.204  1.00  0.00     0.167 HD
ATOM     44  C   UNL A   1      45.201  30.060  28.680  1.00  0.00     0.034 A 
ATOM     45  C   UNL A   1      38.555  31.812  30.095  1.00  0.00     0.034 A 
ATOM     46  C   UNL A   1      45.004  31.431  29.059  1.00  0.00     0.049 A 
ATOM     47  C   UNL A   1      39.687  32.799  30.213  1.00  0.00     0.074 A 
ATOM     48  C   UNL A   1      45.948  32.433  29.190  1.00  0.00     0.029 A 
ATOM     49  N   UNL A   1      43.774  31.994  29.360  1.00  0.00    -0.354 N 
ATOM     50  N   UNL A   1      40.958  32.637  29.934  1.00  0.00    -0.248 NA
ATOM     51  C   UNL A   1      39.340  34.152  30.670  1.00  0.00     0.031 C 
ATOM     52  C   UNL A   1      45.288  33.601  29.586  1.00  0.00     0.029 A 
ATOM     53  C   UNL A   1      43.931  33.332  29.674  1.00  0.00     0.049 A 
ATOM     54  H   UNL A   1      42.916  31.512  29.352  1.00  0.00     0.167 HD
ATOM     55  C   UNL A   1      41.555  33.875  30.140  1.00  0.00     0.074 A 
ATOM     56  C   UNL A   1      40.500  34.782  30.546  1.00  0.00     0.031 C 
ATOM     57  C   UNL A   1      42.859  34.229  30.020  1.00  0.00     0.034 A 
BRANCH  44  58
ATOM     58  C   UNL A   1      46.604  29.574  28.417  1.00  0.00     0.023 A 
ATOM     59  C   UNL A   1      47.148  29.679  27.119  1.00  0.00     0.012 A 
ATOM     60  C   UNL A   1      47.395  29.044  29.454  1.00  0.00     0.148 A 
ATOM     61  C   UNL A   1      48.437  29.224  26.847  1.00  0.00     0.002 A 
ATOM     62  C   UNL A   1      48.699  28.638  29.186  1.00  0.00     0.091 A 
ATOM     63  F   UNL A   1      46.856  28.928  30.676  1.00  0.00    -0.205 F 
ATOM     64  C   UNL A   1      49.215  28.713  27.882  1.00  0.00     0.022 A 
BRANCH  62  65
ATOM     65  S   UNL A   1      49.811  28.045  30.465  1.00  0.00     0.127 S 
ATOM     66  O   UNL A   1      51.026  27.774  29.696  1.00  0.00    -0.237 OA
ATOM     67  O   UNL A   1      49.900  29.202  31.356  1.00  0.00    -0.237 OA
ATOM     68  O   UNL A   1      49.168  26.876  31.048  1.00  0.00    -0.744 OA
ENDBRANCH  62  65
ENDBRANCH  44  58
BRANCH  45  69
ATOM     69  C   UNL A   1      37.157  32.205  30.430  1.00  0.00     0.023 A 
ATOM     70  C   UNL A   1      36.682  32.017  31.742  1.00  0.00     0.012 A 
ATOM     71  C   UNL A   1      36.306  32.784  29.470  1.00  0.00     0.148 A 
ATOM     72  C   UNL A   1      35.374  32.362  32.084  1.00  0.00     0.002 A 
ATOM     73  C   UNL A   1      35.021  33.176  29.829  1.00  0.00     0.091 A 
ATOM     74  F   UNL A   1      36.773  32.948  28.223  1.00  0.00    -0.205 F 
ATOM     75  C   UNL A   1      34.547  32.949  31.131  1.00  0.00     0.022 A 
BRANCH  73  76
ATOM     76  S   UNL A   1      33.931  34.056  28.704  1.00  0.00     0.127 S 
ATOM     77  O   UNL A   1      33.550  33.001  27.771  1.00  0.00    -0.237 OA
ATOM     78  O   UNL A   1      32.866  34.501  29.603  1.00  0.00    -0.237 OA
ATOM     79  O   UNL A   1      34.735  35.136  28.146  1.00  0.00    -0.744 OA
ENDBRANCH  73  76
ENDBRANCH  45  69
BRANCH  57  80
ATOM     80  C   UNL A   1      43.214  35.668  30.286  1.00  0.00     0.023 A 
ATOM     81  C   UNL A   1      43.660  36.059  31.563  1.00  0.00     0.012 A 
ATOM     82  C   UNL A   1      43.160  36.620  29.248  1.00  0.00     0.148 A 
ATOM     83  C   UNL A   1      44.005  37.385  31.816  1.00  0.00     0.002 A 
ATOM     84  C   UNL A   1      43.556  37.929  29.495  1.00  0.00     0.091 A 
ATOM     85  F   UNL A   1      42.715  36.234  28.044  1.00  0.00    -0.205 F 
ATOM     86  C   UNL A   1      43.964  38.317  30.781  1.00  0.00     0.022 A 
BRANCH  84  87
ATOM     87  S   UNL A   1      43.632  39.163  28.192  1.00  0.00     0.127 S 
ATOM     88  O   UNL A   1      44.222  38.400  27.093  1.00  0.00    -0.237 OA
ATOM     89  O   UNL A   1      42.223  39.510  28.007  1.00  0.00    -0.237 OA
ATOM     90  O   UNL A   1      44.452  40.246  28.720  1.00  0.00    -0.744 OA
ENDBRANCH  84  87
ENDBRANCH  57  80
ENDBRANCH  31  32
ENDBRANCH  23  26
ENDBRANCH  21  22
ENDBRANCH  20  21
ENDBRANCH   1  20
TORSDOF 18
ENDMDL
