MODEL 1
REMARK VINA RESULT:     -10.7      0.000      0.000
REMARK SMILES CCN(Cc1ccccn1)C(=O)NC(CC)(CC)C(=O)NCCCNC(=O)c1ccc(-c2c3nc(c(-c4cccc(S(=O)(=O)[O-])c4F)c4ccc([nH]4)c(-c4cccc(S(=O)(=O)[O-])c4F)c4nc(c(-c5cccc(S(=O)(=O)[O-])c5F)c5ccc2[nH]5)C=C4)C=C3)cc1
REMARK SMILES IDX 22 1 21 2 19 3 20 4 14 6 13 7 11 8 12 9 3 11 2 12 1 13 4 14
REMARK SMILES IDX 5 15 6 16 10 17 7 18 9 19 8 20 15 21 16 22 17 23 18 24 23 25
REMARK SMILES IDX 24 26 25 27 26 28 27 30 28 31 29 32 90 33 30 34 89 35 31 36
REMARK SMILES IDX 32 37 33 38 83 39 34 40 88 41 82 42 84 43 35 44 87 45 81 46
REMARK SMILES IDX 80 47 36 49 68 50 48 51 67 52 49 53 52 54 66 55 85 56 50 57
REMARK SMILES IDX 51 58 65 60 86 61 53 62 37 63 38 64 46 65 39 66 41 67 47 68
REMARK SMILES IDX 40 69 42 70 43 71 44 72 45 73 69 74 70 75 78 76 71 77 73 78
REMARK SMILES IDX 79 79 72 80 74 81 75 82 76 83 77 84 54 85 55 86 63 87 56 88
REMARK SMILES IDX 58 89 64 90 57 91 59 92 60 93 61 94 62 95
REMARK H PARENT 21 5 13 10 25 29 84 48 52 59
REMARK Flexibility Score: inf
ROOT
ATOM      1  C   UNL A   1      32.874  26.724  25.912  1.00  0.00     0.117 C 
ENDROOT
BRANCH   1   2
ATOM      2  N   UNL A   1      33.087  26.646  24.484  1.00  0.00    -0.354 N 
ATOM      3  C   UNL A   1      33.601  25.678  23.688  1.00  0.00     0.245 C 
ATOM      4  O   UNL A   1      33.791  26.025  22.513  1.00  0.00    -0.272 OA
ATOM      5  H   UNL A   1      32.803  27.452  23.994  1.00  0.00     0.163 HD
BRANCH   3   6
ATOM      6  C   UNL A   1      34.080  24.293  24.207  1.00  0.00     0.120 C 
BRANCH   6   7
ATOM      7  N   UNL A   1      32.979  23.632  24.960  1.00  0.00    -0.323 N 
ATOM      8  C   UNL A   1      32.644  22.432  25.447  1.00  0.00     0.318 C 
ATOM      9  O   UNL A   1      31.452  22.361  25.787  1.00  0.00    -0.249 OA
ATOM     10  H   UNL A   1      32.272  24.287  25.165  1.00  0.00     0.166 HD
BRANCH   8  11
ATOM     11  N   UNL A   1      33.492  21.395  25.708  1.00  0.00    -0.319 N 
BRANCH  11  12
ATOM     12  C   UNL A   1      33.821  21.252  27.134  1.00  0.00     0.118 C 
ATOM     13  C   UNL A   1      33.880  22.603  27.845  1.00  0.00     0.027 C 
ENDBRANCH  11  12
BRANCH  11  14
ATOM     14  C   UNL A   1      34.265  20.514  24.810  1.00  0.00     0.177 C 
BRANCH  14  15
ATOM     15  C   UNL A   1      33.883  19.051  24.796  1.00  0.00     0.060 A 
ATOM     16  C   UNL A   1      34.775  18.084  24.337  1.00  0.00     0.026 A 
ATOM     17  N   UNL A   1      32.611  18.739  25.172  1.00  0.00    -0.259 NA
ATOM     18  C   UNL A   1      34.362  16.754  24.294  1.00  0.00     0.004 A 
ATOM     19  C   UNL A   1      32.242  17.441  25.121  1.00  0.00     0.111 A 
ATOM     20  C   UNL A   1      33.076  16.422  24.698  1.00  0.00     0.020 A 
ENDBRANCH  14  15
ENDBRANCH  11  14
ENDBRANCH   8  11
ENDBRANCH   6   7
BRANCH   6  21
ATOM     21  C   UNL A   1      35.325  24.234  25.135  1.00  0.00     0.035 C 
ATOM     22  C   UNL A   1      36.529  23.464  24.587  1.00  0.00     0.007 C 
ENDBRANCH   6  21
BRANCH   6  23
ATOM     23  C   UNL A   1      34.335  23.461  22.896  1.00  0.00     0.035 C 
ATOM     24  C   UNL A   1      33.088  22.916  22.197  1.00  0.00     0.007 C 
ENDBRANCH   6  23
ENDBRANCH   3   6
ENDBRANCH   1   2
BRANCH   1  25
ATOM     25  C   UNL A   1      34.017  27.435  26.619  1.00  0.00     0.042 C 
BRANCH  25  26
ATOM     26  C   UNL A   1      34.498  28.703  25.930  1.00  0.00     0.118 C 
BRANCH  26  27
ATOM     27  N   UNL A   1      33.869  29.919  26.429  1.00  0.00    -0.352 N 
ATOM     28  C   UNL A   1      34.316  30.724  27.452  1.00  0.00     0.251 C 
ATOM     29  H   UNL A   1      33.034  30.193  25.986  1.00  0.00     0.163 HD
ATOM     30  O   UNL A   1      33.643  31.666  27.857  1.00  0.00    -0.269 OA
BRANCH  28  31
ATOM     31  C   UNL A   1      35.618  30.402  28.074  1.00  0.00     0.039 A 
ATOM     32  C   UNL A   1      35.645  29.717  29.291  1.00  0.00     0.014 A 
ATOM     33  C   UNL A   1      36.803  30.686  27.388  1.00  0.00     0.014 A 
ATOM     34  C   UNL A   1      36.865  29.255  29.789  1.00  0.00     0.010 A 
ATOM     35  C   UNL A   1      38.003  30.158  27.848  1.00  0.00     0.010 A 
ATOM     36  C   UNL A   1      38.049  29.443  29.055  1.00  0.00    -0.014 A 
BRANCH  36  37
ATOM     37  C   UNL A   1      39.352  28.912  29.532  1.00  0.00     0.031 A 
ATOM     38  C   UNL A   1      40.072  29.608  30.656  1.00  0.00     0.074 A 
ATOM     39  C   UNL A   1      39.931  27.874  28.897  1.00  0.00     0.049 A 
ATOM     40  N   UNL A   1      41.248  29.350  31.166  1.00  0.00    -0.248 NA
ATOM     41  C   UNL A   1      39.398  30.769  31.260  1.00  0.00     0.031 C 
ATOM     42  C   UNL A   1      39.379  27.174  27.736  1.00  0.00     0.029 A 
ATOM     43  N   UNL A   1      41.128  27.243  29.125  1.00  0.00    -0.354 N 
ATOM     44  C   UNL A   1      41.474  30.341  32.112  1.00  0.00     0.074 A 
ATOM     45  C   UNL A   1      40.331  31.225  32.082  1.00  0.00     0.031 C 
ATOM     46  C   UNL A   1      40.229  26.203  27.362  1.00  0.00     0.029 A 
ATOM     47  C   UNL A   1      41.393  26.221  28.243  1.00  0.00     0.049 A 
ATOM     48  H   UNL A   1      41.742  27.498  29.852  1.00  0.00     0.167 HD
ATOM     49  C   UNL A   1      42.518  30.482  32.962  1.00  0.00     0.034 A 
ATOM     50  C   UNL A   1      42.449  25.386  28.164  1.00  0.00     0.034 A 
ATOM     51  C   UNL A   1      43.614  29.556  33.048  1.00  0.00     0.049 A 
ATOM     52  C   UNL A   1      43.550  25.503  29.183  1.00  0.00     0.074 A 
ATOM     53  C   UNL A   1      44.673  29.554  33.937  1.00  0.00     0.029 A 
ATOM     54  N   UNL A   1      43.781  28.457  32.220  1.00  0.00    -0.354 N 
ATOM     55  N   UNL A   1      43.667  26.350  30.177  1.00  0.00    -0.248 NA
ATOM     56  C   UNL A   1      44.645  24.524  29.097  1.00  0.00     0.031 C 
ATOM     57  C   UNL A   1      45.478  28.445  33.653  1.00  0.00     0.029 A 
ATOM     58  C   UNL A   1      44.919  27.760  32.585  1.00  0.00     0.049 A 
ATOM     59  H   UNL A   1      43.179  28.208  31.482  1.00  0.00     0.167 HD
ATOM     60  C   UNL A   1      44.823  25.985  30.856  1.00  0.00     0.074 A 
ATOM     61  C   UNL A   1      45.363  24.828  30.171  1.00  0.00     0.031 C 
ATOM     62  C   UNL A   1      45.398  26.566  31.938  1.00  0.00     0.034 A 
BRANCH  49  63
ATOM     63  C   UNL A   1      42.474  31.637  33.926  1.00  0.00     0.023 A 
ATOM     64  C   UNL A   1      42.971  32.890  33.516  1.00  0.00     0.012 A 
ATOM     65  C   UNL A   1      41.922  31.498  35.213  1.00  0.00     0.148 A 
ATOM     66  C   UNL A   1      42.957  33.980  34.384  1.00  0.00     0.002 A 
ATOM     67  C   UNL A   1      41.874  32.601  36.060  1.00  0.00     0.091 A 
ATOM     68  F   UNL A   1      41.479  30.293  35.598  1.00  0.00    -0.205 F 
ATOM     69  C   UNL A   1      42.400  33.838  35.652  1.00  0.00     0.022 A 
BRANCH  67  70
ATOM     70  S   UNL A   1      41.111  32.527  37.685  1.00  0.00     0.127 S 
ATOM     71  O   UNL A   1      41.174  33.924  38.107  1.00  0.00    -0.237 OA
ATOM     72  O   UNL A   1      39.764  32.044  37.377  1.00  0.00    -0.237 OA
ATOM     73  O   UNL A   1      41.921  31.593  38.456  1.00  0.00    -0.744 OA
ENDBRANCH  67  70
ENDBRANCH  49  63
BRANCH  50  74
ATOM     74  C   UNL A   1      42.454  24.291  27.152  1.00  0.00     0.023 A 
ATOM     75  C   UNL A   1      43.323  24.390  26.047  1.00  0.00     0.012 A 
ATOM     76  C   UNL A   1      41.646  23.147  27.288  1.00  0.00     0.148 A 
ATOM     77  C   UNL A   1      43.369  23.383  25.083  1.00  0.00     0.002 A 
ATOM     78  C   UNL A   1      41.731  22.124  26.348  1.00  0.00     0.091 A 
ATOM     79  F   UNL A   1      40.813  23.076  28.336  1.00  0.00    -0.205 F 
ATOM     80  C   UNL A   1      42.582  22.247  25.239  1.00  0.00     0.022 A 
BRANCH  78  81
ATOM     81  S   UNL A   1      40.848  20.571  26.542  1.00  0.00     0.127 S 
ATOM     82  O   UNL A   1      39.502  20.935  26.106  1.00  0.00    -0.237 OA
ATOM     83  O   UNL A   1      41.573  19.687  25.629  1.00  0.00    -0.237 OA
ATOM     84  O   UNL A   1      40.991  20.220  27.948  1.00  0.00    -0.744 OA
ENDBRANCH  78  81
ENDBRANCH  50  74
BRANCH  62  85
ATOM     85  C   UNL A   1      46.659  25.949  32.477  1.00  0.00     0.023 A 
ATOM     86  C   UNL A   1      47.908  26.413  32.020  1.00  0.00     0.012 A 
ATOM     87  C   UNL A   1      46.609  24.979  33.497  1.00  0.00     0.148 A 
ATOM     88  C   UNL A   1      49.090  25.906  32.558  1.00  0.00     0.002 A 
ATOM     89  C   UNL A   1      47.792  24.507  34.055  1.00  0.00     0.091 A 
ATOM     90  F   UNL A   1      45.410  24.532  33.900  1.00  0.00    -0.205 F 
ATOM     91  C   UNL A   1      49.032  24.964  33.584  1.00  0.00     0.022 A 
BRANCH  89  92
ATOM     92  S   UNL A   1      47.795  23.361  35.439  1.00  0.00     0.127 S 
ATOM     93  O   UNL A   1      46.943  24.052  36.403  1.00  0.00    -0.237 OA
ATOM     94  O   UNL A   1      47.203  22.156  34.855  1.00  0.00    -0.237 OA
ATOM     95  O   UNL A   1      49.194  23.213  35.822  1.00  0.00    -0.744 OA
ENDBRANCH  89  92
ENDBRANCH  62  85
ENDBRANCH  36  37
ENDBRANCH  28  31
ENDBRANCH  26  27
ENDBRANCH  25  26
ENDBRANCH   1  25
TORSDOF 20
ENDMDL
MODEL 2
REMARK VINA RESULT:     -10.6      2.764      8.020
REMARK SMILES CCN(Cc1ccccn1)C(=O)NC(CC)(CC)C(=O)NCCCNC(=O)c1ccc(-c2c3nc(c(-c4cccc(S(=O)(=O)[O-])c4F)c4ccc([nH]4)c(-c4cccc(S(=O)(=O)[O-])c4F)c4nc(c(-c5cccc(S(=O)(=O)[O-])c5F)c5ccc2[nH]5)C=C4)C=C3)cc1
REMARK SMILES IDX 22 1 21 2 19 3 20 4 14 6 13 7 11 8 12 9 3 11 2 12 1 13 4 14
REMARK SMILES IDX 5 15 6 16 10 17 7 18 9 19 8 20 15 21 16 22 17 23 18 24 23 25
REMARK SMILES IDX 24 26 25 27 26 28 27 30 28 31 29 32 90 33 30 34 89 35 31 36
REMARK SMILES IDX 32 37 33 38 83 39 34 40 88 41 82 42 84 43 35 44 87 45 81 46
REMARK SMILES IDX 80 47 36 49 68 50 48 51 67 52 49 53 52 54 66 55 85 56 50 57
REMARK SMILES IDX 51 58 65 60 86 61 53 62 37 63 38 64 46 65 39 66 41 67 47 68
REMARK SMILES IDX 40 69 42 70 43 71 44 72 45 73 69 74 70 75 78 76 71 77 73 78
REMARK SMILES IDX 79 79 72 80 74 81 75 82 76 83 77 84 54 85 55 86 63 87 56 88
REMARK SMILES IDX 58 89 64 90 57 91 59 92 60 93 61 94 62 95
REMARK H PARENT 21 5 13 10 25 29 84 48 52 59
REMARK Flexibility Score: inf
ROOT
ATOM      1  C   UNL A   1      32.645  28.328  22.770  1.00  0.00     0.117 C 
ENDROOT
BRANCH   1   2
ATOM      2  N   UNL A   1      32.876  27.313  21.766  1.00  0.00    -0.354 N 
ATOM      3  C   UNL A   1      32.892  25.960  21.822  1.00  0.00     0.245 C 
ATOM      4  O   UNL A   1      33.297  25.407  20.788  1.00  0.00    -0.272 OA
ATOM      5  H   UNL A   1      33.056  27.675  20.869  1.00  0.00     0.163 HD
BRANCH   3   6
ATOM      6  C   UNL A   1      32.593  25.141  23.110  1.00  0.00     0.120 C 
BRANCH   6   7
ATOM      7  N   UNL A   1      32.147  23.770  22.740  1.00  0.00    -0.323 N 
ATOM      8  C   UNL A   1      32.180  22.518  23.209  1.00  0.00     0.318 C 
ATOM      9  O   UNL A   1      31.871  21.670  22.356  1.00  0.00    -0.249 OA
ATOM     10  H   UNL A   1      31.678  23.791  21.874  1.00  0.00     0.166 HD
BRANCH   8  11
ATOM     11  N   UNL A   1      32.381  22.140  24.506  1.00  0.00    -0.319 N 
BRANCH  11  12
ATOM     12  C   UNL A   1      31.401  22.713  25.441  1.00  0.00     0.118 C 
ATOM     13  C   UNL A   1      31.815  22.509  26.898  1.00  0.00     0.027 C 
ENDBRANCH  11  12
BRANCH  11  14
ATOM     14  C   UNL A   1      33.493  21.415  25.152  1.00  0.00     0.177 C 
BRANCH  14  15
ATOM     15  C   UNL A   1      33.607  19.937  24.853  1.00  0.00     0.060 A 
ATOM     16  C   UNL A   1      32.484  19.113  24.880  1.00  0.00     0.026 A 
ATOM     17  N   UNL A   1      34.859  19.444  24.639  1.00  0.00    -0.259 NA
ATOM     18  C   UNL A   1      32.644  17.749  24.649  1.00  0.00     0.004 A 
ATOM     19  C   UNL A   1      34.982  18.117  24.416  1.00  0.00     0.111 A 
ATOM     20  C   UNL A   1      33.914  17.239  24.405  1.00  0.00     0.020 A 
ENDBRANCH  14  15
ENDBRANCH  11  14
ENDBRANCH   8  11
ENDBRANCH   6   7
BRANCH   6  21
ATOM     21  C   UNL A   1      31.530  25.680  24.106  1.00  0.00     0.035 C 
ATOM     22  C   UNL A   1      30.081  25.645  23.616  1.00  0.00     0.007 C 
ENDBRANCH   6  21
BRANCH   6  23
ATOM     23  C   UNL A   1      33.993  25.019  23.817  1.00  0.00     0.035 C 
ATOM     24  C   UNL A   1      34.015  25.331  25.315  1.00  0.00     0.007 C 
ENDBRANCH   6  23
ENDBRANCH   3   6
ENDBRANCH   1   2
BRANCH   1  25
ATOM     25  C   UNL A   1      33.926  28.715  23.493  1.00  0.00     0.042 C 
BRANCH  25  26
ATOM     26  C   UNL A   1      33.766  28.937  24.990  1.00  0.00     0.118 C 
BRANCH  26  27
ATOM     27  N   UNL A   1      32.818  29.988  25.331  1.00  0.00    -0.352 N 
ATOM     28  C   UNL A   1      32.821  30.770  26.464  1.00  0.00     0.251 C 
ATOM     29  H   UNL A   1      32.098  30.156  24.682  1.00  0.00     0.163 HD
ATOM     30  O   UNL A   1      31.905  31.553  26.695  1.00  0.00    -0.269 OA
BRANCH  28  31
ATOM     31  C   UNL A   1      33.943  30.618  27.414  1.00  0.00     0.039 A 
ATOM     32  C   UNL A   1      34.191  29.369  27.987  1.00  0.00     0.014 A 
ATOM     33  C   UNL A   1      34.809  31.693  27.643  1.00  0.00     0.014 A 
ATOM     34  C   UNL A   1      35.351  29.180  28.740  1.00  0.00     0.010 A 
ATOM     35  C   UNL A   1      35.999  31.479  28.327  1.00  0.00     0.010 A 
ATOM     36  C   UNL A   1      36.280  30.223  28.888  1.00  0.00    -0.014 A 
BRANCH  36  37
ATOM     37  C   UNL A   1      37.550  30.034  29.635  1.00  0.00     0.031 A 
ATOM     38  C   UNL A   1      38.647  29.194  29.038  1.00  0.00     0.074 A 
ATOM     39  C   UNL A   1      37.681  30.530  30.882  1.00  0.00     0.049 A 
ATOM     40  N   UNL A   1      39.795  28.846  29.558  1.00  0.00    -0.248 NA
ATOM     41  C   UNL A   1      38.404  28.640  27.695  1.00  0.00     0.031 C 
ATOM     42  C   UNL A   1      36.656  31.282  31.608  1.00  0.00     0.029 A 
ATOM     43  N   UNL A   1      38.725  30.453  31.769  1.00  0.00    -0.354 N 
ATOM     44  C   UNL A   1      40.387  27.999  28.630  1.00  0.00     0.074 A 
ATOM     45  C   UNL A   1      39.458  27.855  27.532  1.00  0.00     0.031 C 
ATOM     46  C   UNL A   1      37.127  31.607  32.824  1.00  0.00     0.029 A 
ATOM     47  C   UNL A   1      38.478  31.075  32.971  1.00  0.00     0.049 A 
ATOM     48  H   UNL A   1      39.573  29.996  31.564  1.00  0.00     0.167 HD
ATOM     49  C   UNL A   1      41.612  27.423  28.666  1.00  0.00     0.034 A 
ATOM     50  C   UNL A   1      39.259  31.210  34.062  1.00  0.00     0.034 A 
ATOM     51  C   UNL A   1      42.566  27.632  29.719  1.00  0.00     0.049 A 
ATOM     52  C   UNL A   1      40.653  30.643  34.037  1.00  0.00     0.074 A 
ATOM     53  C   UNL A   1      43.868  27.173  29.806  1.00  0.00     0.029 A 
ATOM     54  N   UNL A   1      42.325  28.376  30.864  1.00  0.00    -0.354 N 
ATOM     55  N   UNL A   1      41.256  29.980  33.080  1.00  0.00    -0.248 NA
ATOM     56  C   UNL A   1      41.490  30.879  35.223  1.00  0.00     0.031 C 
ATOM     57  C   UNL A   1      44.418  27.649  31.002  1.00  0.00     0.029 A 
ATOM     58  C   UNL A   1      43.456  28.402  31.659  1.00  0.00     0.049 A 
ATOM     59  H   UNL A   1      41.473  28.821  31.079  1.00  0.00     0.167 HD
ATOM     60  C   UNL A   1      42.550  29.752  33.531  1.00  0.00     0.074 A 
ATOM     61  C   UNL A   1      42.651  30.364  34.840  1.00  0.00     0.031 C 
ATOM     62  C   UNL A   1      43.560  29.080  32.924  1.00  0.00     0.034 A 
BRANCH  49  63
ATOM     63  C   UNL A   1      42.015  26.582  27.485  1.00  0.00     0.023 A 
ATOM     64  C   UNL A   1      42.656  27.200  26.391  1.00  0.00     0.012 A 
ATOM     65  C   UNL A   1      41.792  25.193  27.462  1.00  0.00     0.148 A 
ATOM     66  C   UNL A   1      43.034  26.456  25.276  1.00  0.00     0.002 A 
ATOM     67  C   UNL A   1      42.209  24.450  26.361  1.00  0.00     0.091 A 
ATOM     68  F   UNL A   1      41.157  24.626  28.497  1.00  0.00    -0.205 F 
ATOM     69  C   UNL A   1      42.819  25.080  25.264  1.00  0.00     0.022 A 
BRANCH  67  70
ATOM     70  S   UNL A   1      42.035  22.664  26.293  1.00  0.00     0.127 S 
ATOM     71  O   UNL A   1      42.637  22.356  24.997  1.00  0.00    -0.237 OA
ATOM     72  O   UNL A   1      42.821  22.227  27.448  1.00  0.00    -0.237 OA
ATOM     73  O   UNL A   1      40.606  22.404  26.406  1.00  0.00    -0.744 OA
ENDBRANCH  67  70
ENDBRANCH  49  63
BRANCH  50  74
ATOM     74  C   UNL A   1      38.780  32.015  35.222  1.00  0.00     0.023 A 
ATOM     75  C   UNL A   1      38.823  33.421  35.138  1.00  0.00     0.012 A 
ATOM     76  C   UNL A   1      38.253  31.413  36.380  1.00  0.00     0.148 A 
ATOM     77  C   UNL A   1      38.374  34.213  36.196  1.00  0.00     0.002 A 
ATOM     78  C   UNL A   1      37.763  32.208  37.411  1.00  0.00     0.091 A 
ATOM     79  F   UNL A   1      38.234  30.074  36.450  1.00  0.00    -0.205 F 
ATOM     80  C   UNL A   1      37.835  33.607  37.326  1.00  0.00     0.022 A 
BRANCH  78  81
ATOM     81  S   UNL A   1      36.935  31.512  38.846  1.00  0.00     0.127 S 
ATOM     82  O   UNL A   1      37.925  31.728  39.897  1.00  0.00    -0.237 OA
ATOM     83  O   UNL A   1      35.736  32.345  38.946  1.00  0.00    -0.237 OA
ATOM     84  O   UNL A   1      36.665  30.122  38.498  1.00  0.00    -0.744 OA
ENDBRANCH  78  81
ENDBRANCH  50  74
BRANCH  62  85
ATOM     85  C   UNL A   1      44.876  28.993  33.647  1.00  0.00     0.023 A 
ATOM     86  C   UNL A   1      45.109  27.927  34.537  1.00  0.00     0.012 A 
ATOM     87  C   UNL A   1      45.911  29.909  33.376  1.00  0.00     0.148 A 
ATOM     88  C   UNL A   1      46.347  27.785  35.163  1.00  0.00     0.002 A 
ATOM     89  C   UNL A   1      47.154  29.739  33.974  1.00  0.00     0.091 A 
ATOM     90  F   UNL A   1      45.661  30.932  32.545  1.00  0.00    -0.205 F 
ATOM     91  C   UNL A   1      47.372  28.683  34.872  1.00  0.00     0.022 A 
BRANCH  89  92
ATOM     92  S   UNL A   1      48.549  30.802  33.580  1.00  0.00     0.127 S 
ATOM     93  O   UNL A   1      48.671  30.613  32.137  1.00  0.00    -0.237 OA
ATOM     94  O   UNL A   1      48.065  32.123  33.982  1.00  0.00    -0.237 OA
ATOM     95  O   UNL A   1      49.660  30.303  34.381  1.00  0.00    -0.744 OA
ENDBRANCH  89  92
ENDBRANCH  62  85
ENDBRANCH  36  37
ENDBRANCH  28  31
ENDBRANCH  26  27
ENDBRANCH  25  26
ENDBRANCH   1  25
TORSDOF 20
ENDMDL
MODEL 3
REMARK VINA RESULT:     -10.5      2.225      3.151
REMARK SMILES CCN(Cc1ccccn1)C(=O)NC(CC)(CC)C(=O)NCCCNC(=O)c1ccc(-c2c3nc(c(-c4cccc(S(=O)(=O)[O-])c4F)c4ccc([nH]4)c(-c4cccc(S(=O)(=O)[O-])c4F)c4nc(c(-c5cccc(S(=O)(=O)[O-])c5F)c5ccc2[nH]5)C=C4)C=C3)cc1
REMARK SMILES IDX 22 1 21 2 19 3 20 4 14 6 13 7 11 8 12 9 3 11 2 12 1 13 4 14
REMARK SMILES IDX 5 15 6 16 10 17 7 18 9 19 8 20 15 21 16 22 17 23 18 24 23 25
REMARK SMILES IDX 24 26 25 27 26 28 27 30 28 31 29 32 90 33 30 34 89 35 31 36
REMARK SMILES IDX 32 37 33 38 83 39 34 40 88 41 82 42 84 43 35 44 87 45 81 46
REMARK SMILES IDX 80 47 36 49 68 50 48 51 67 52 49 53 52 54 66 55 85 56 50 57
REMARK SMILES IDX 51 58 65 60 86 61 53 62 37 63 38 64 46 65 39 66 41 67 47 68
REMARK SMILES IDX 40 69 42 70 43 71 44 72 45 73 69 74 70 75 78 76 71 77 73 78
REMARK SMILES IDX 79 79 72 80 74 81 75 82 76 83 77 84 54 85 55 86 63 87 56 88
REMARK SMILES IDX 58 89 64 90 57 91 59 92 60 93 61 94 62 95
REMARK H PARENT 21 5 13 10 25 29 84 48 52 59
REMARK Flexibility Score: inf
ROOT
ATOM      1  C   UNL A   1      32.304  29.704  24.683  1.00  0.00     0.117 C 
ENDROOT
BRANCH   1   2
ATOM      2  N   UNL A   1      33.062  29.360  23.500  1.00  0.00    -0.354 N 
ATOM      3  C   UNL A   1      33.357  28.174  22.916  1.00  0.00     0.245 C 
ATOM      4  O   UNL A   1      34.184  28.246  21.995  1.00  0.00    -0.272 OA
ATOM      5  H   UNL A   1      33.436  30.138  23.027  1.00  0.00     0.163 HD
BRANCH   3   6
ATOM      6  C   UNL A   1      32.851  26.800  23.440  1.00  0.00     0.120 C 
BRANCH   6   7
ATOM      7  N   UNL A   1      32.878  25.802  22.336  1.00  0.00    -0.323 N 
ATOM      8  C   UNL A   1      33.209  24.526  22.113  1.00  0.00     0.318 C 
ATOM      9  O   UNL A   1      33.280  24.245  20.906  1.00  0.00    -0.249 OA
ATOM     10  H   UNL A   1      32.546  26.212  21.504  1.00  0.00     0.166 HD
BRANCH   8  11
ATOM     11  N   UNL A   1      33.333  23.542  23.052  1.00  0.00    -0.319 N 
BRANCH  11  12
ATOM     12  C   UNL A   1      34.686  22.970  23.126  1.00  0.00     0.118 C 
ATOM     13  C   UNL A   1      35.365  23.279  24.459  1.00  0.00     0.027 C 
ENDBRANCH  11  12
BRANCH  11  14
ATOM     14  C   UNL A   1      32.326  22.839  23.870  1.00  0.00     0.177 C 
BRANCH  14  15
ATOM     15  C   UNL A   1      32.419  21.329  23.917  1.00  0.00     0.060 A 
ATOM     16  C   UNL A   1      32.142  20.562  22.788  1.00  0.00     0.026 A 
ATOM     17  N   UNL A   1      32.702  20.764  25.123  1.00  0.00    -0.259 NA
ATOM     18  C   UNL A   1      32.191  19.173  22.891  1.00  0.00     0.004 A 
ATOM     19  C   UNL A   1      32.745  19.416  25.190  1.00  0.00     0.111 A 
ATOM     20  C   UNL A   1      32.503  18.586  24.110  1.00  0.00     0.020 A 
ENDBRANCH  14  15
ENDBRANCH  11  14
ENDBRANCH   8  11
ENDBRANCH   6   7
BRANCH   6  21
ATOM     21  C   UNL A   1      31.426  26.716  24.054  1.00  0.00     0.035 C 
ATOM     22  C   UNL A   1      30.274  27.087  23.117  1.00  0.00     0.007 C 
ENDBRANCH   6  21
BRANCH   6  23
ATOM     23  C   UNL A   1      33.930  26.375  24.502  1.00  0.00     0.035 C 
ATOM     24  C   UNL A   1      33.394  25.989  25.884  1.00  0.00     0.007 C 
ENDBRANCH   6  23
ENDBRANCH   3   6
ENDBRANCH   1   2
BRANCH   1  25
ATOM     25  C   UNL A   1      33.158  29.654  25.940  1.00  0.00     0.042 C 
BRANCH  25  26
ATOM     26  C   UNL A   1      32.515  30.281  27.168  1.00  0.00     0.118 C 
BRANCH  26  27
ATOM     27  N   UNL A   1      32.520  31.737  27.157  1.00  0.00    -0.352 N 
ATOM     28  C   UNL A   1      33.521  32.566  27.611  1.00  0.00     0.251 C 
ATOM     29  H   UNL A   1      31.721  32.175  26.785  1.00  0.00     0.163 HD
ATOM     30  O   UNL A   1      33.368  33.782  27.651  1.00  0.00    -0.269 OA
BRANCH  28  31
ATOM     31  C   UNL A   1      34.778  31.947  28.084  1.00  0.00     0.039 A 
ATOM     32  C   UNL A   1      35.950  32.705  28.103  1.00  0.00     0.014 A 
ATOM     33  C   UNL A   1      34.757  30.650  28.608  1.00  0.00     0.014 A 
ATOM     34  C   UNL A   1      37.092  32.182  28.713  1.00  0.00     0.010 A 
ATOM     35  C   UNL A   1      35.872  30.167  29.282  1.00  0.00     0.010 A 
ATOM     36  C   UNL A   1      37.053  30.924  29.337  1.00  0.00    -0.014 A 
BRANCH  36  37
ATOM     37  C   UNL A   1      38.235  30.368  30.044  1.00  0.00     0.031 A 
ATOM     38  C   UNL A   1      38.565  30.847  31.432  1.00  0.00     0.074 A 
ATOM     39  C   UNL A   1      39.063  29.515  29.408  1.00  0.00     0.049 A 
ATOM     40  N   UNL A   1      39.589  30.544  32.186  1.00  0.00    -0.248 NA
ATOM     41  C   UNL A   1      37.642  31.822  32.036  1.00  0.00     0.031 C 
ATOM     42  C   UNL A   1      38.905  29.048  28.029  1.00  0.00     0.029 A 
ATOM     43  N   UNL A   1      40.218  28.909  29.832  1.00  0.00    -0.354 N 
ATOM     44  C   UNL A   1      39.459  31.325  33.328  1.00  0.00     0.074 A 
ATOM     45  C   UNL A   1      38.279  32.141  33.153  1.00  0.00     0.031 C 
ATOM     46  C   UNL A   1      39.917  28.219  27.726  1.00  0.00     0.029 A 
ATOM     47  C   UNL A   1      40.805  28.107  28.880  1.00  0.00     0.049 A 
ATOM     48  H   UNL A   1      40.593  29.035  30.733  1.00  0.00     0.167 HD
ATOM     49  C   UNL A   1      40.228  31.335  34.443  1.00  0.00     0.034 A 
ATOM     50  C   UNL A   1      41.926  27.360  28.937  1.00  0.00     0.034 A 
ATOM     51  C   UNL A   1      41.353  30.466  34.649  1.00  0.00     0.049 A 
ATOM     52  C   UNL A   1      42.708  27.313  30.222  1.00  0.00     0.074 A 
ATOM     53  C   UNL A   1      42.140  30.328  35.778  1.00  0.00     0.029 A 
ATOM     54  N   UNL A   1      41.841  29.573  33.707  1.00  0.00    -0.354 N 
ATOM     55  N   UNL A   1      42.476  27.938  31.352  1.00  0.00    -0.248 NA
ATOM     56  C   UNL A   1      43.882  26.427  30.257  1.00  0.00     0.031 C 
ATOM     57  C   UNL A   1      43.101  29.343  35.521  1.00  0.00     0.029 A 
ATOM     58  C   UNL A   1      42.911  28.870  34.231  1.00  0.00     0.049 A 
ATOM     59  H   UNL A   1      41.479  29.456  32.799  1.00  0.00     0.167 HD
ATOM     60  C   UNL A   1      43.449  27.495  32.240  1.00  0.00     0.074 A 
ATOM     61  C   UNL A   1      44.263  26.534  31.524  1.00  0.00     0.031 C 
ATOM     62  C   UNL A   1      43.661  27.863  33.527  1.00  0.00     0.034 A 
BRANCH  49  63
ATOM     63  C   UNL A   1      39.818  32.259  35.557  1.00  0.00     0.023 A 
ATOM     64  C   UNL A   1      39.011  31.759  36.600  1.00  0.00     0.012 A 
ATOM     65  C   UNL A   1      40.244  33.599  35.594  1.00  0.00     0.148 A 
ATOM     66  C   UNL A   1      38.602  32.588  37.642  1.00  0.00     0.002 A 
ATOM     67  C   UNL A   1      39.865  34.410  36.660  1.00  0.00     0.091 A 
ATOM     68  F   UNL A   1      40.987  34.067  34.581  1.00  0.00    -0.205 F 
ATOM     69  C   UNL A   1      39.037  33.910  37.678  1.00  0.00     0.022 A 
BRANCH  67  70
ATOM     70  S   UNL A   1      40.437  36.105  36.822  1.00  0.00     0.127 S 
ATOM     71  O   UNL A   1      41.882  35.922  36.937  1.00  0.00    -0.237 OA
ATOM     72  O   UNL A   1      39.997  36.707  35.562  1.00  0.00    -0.237 OA
ATOM     73  O   UNL A   1      39.768  36.633  38.004  1.00  0.00    -0.744 OA
ENDBRANCH  67  70
ENDBRANCH  49  63
BRANCH  50  74
ATOM     74  C   UNL A   1      42.305  26.502  27.778  1.00  0.00     0.023 A 
ATOM     75  C   UNL A   1      43.135  27.043  26.775  1.00  0.00     0.012 A 
ATOM     76  C   UNL A   1      41.890  25.161  27.676  1.00  0.00     0.148 A 
ATOM     77  C   UNL A   1      43.523  26.272  25.679  1.00  0.00     0.002 A 
ATOM     78  C   UNL A   1      42.321  24.384  26.605  1.00  0.00     0.091 A 
ATOM     79  F   UNL A   1      41.089  24.667  28.631  1.00  0.00    -0.205 F 
ATOM     80  C   UNL A   1      43.126  24.941  25.599  1.00  0.00     0.022 A 
BRANCH  78  81
ATOM     81  S   UNL A   1      41.961  22.627  26.493  1.00  0.00     0.127 S 
ATOM     82  O   UNL A   1      42.547  22.282  25.201  1.00  0.00    -0.237 OA
ATOM     83  O   UNL A   1      42.672  22.091  27.655  1.00  0.00    -0.237 OA
ATOM     84  O   UNL A   1      40.510  22.524  26.585  1.00  0.00    -0.744 OA
ENDBRANCH  78  81
ENDBRANCH  50  74
BRANCH  62  85
ATOM     85  C   UNL A   1      44.795  27.208  34.265  1.00  0.00     0.023 A 
ATOM     86  C   UNL A   1      46.082  27.779  34.206  1.00  0.00     0.012 A 
ATOM     87  C   UNL A   1      44.571  26.086  35.086  1.00  0.00     0.148 A 
ATOM     88  C   UNL A   1      47.133  27.230  34.940  1.00  0.00     0.002 A 
ATOM     89  C   UNL A   1      45.615  25.568  35.844  1.00  0.00     0.091 A 
ATOM     90  F   UNL A   1      43.345  25.541  35.108  1.00  0.00    -0.205 F 
ATOM     91  C   UNL A   1      46.897  26.135  35.768  1.00  0.00     0.022 A 
BRANCH  89  92
ATOM     92  S   UNL A   1      45.367  24.214  36.999  1.00  0.00     0.127 S 
ATOM     93  O   UNL A   1      44.021  24.487  37.495  1.00  0.00    -0.237 OA
ATOM     94  O   UNL A   1      45.473  23.037  36.137  1.00  0.00    -0.237 OA
ATOM     95  O   UNL A   1      46.440  24.335  37.980  1.00  0.00    -0.744 OA
ENDBRANCH  89  92
ENDBRANCH  62  85
ENDBRANCH  36  37
ENDBRANCH  28  31
ENDBRANCH  26  27
ENDBRANCH  25  26
ENDBRANCH   1  25
TORSDOF 20
ENDMDL
