MODEL 1
REMARK VINA RESULT:     -12.9      0.000      0.000
REMARK SMILES Cc1cc(C)c2c(c1)C=C(C(=O)NCCCNC(=O)c1ccc(-c3c4nc(c(-c5cccc(S(=O)(=O)[O-])c5F)c5ccc([nH]5)c(-c5cccc(S(=O)(=O)[O-])c5F)c5nc(c(-c6cccc(S(=O)(=O)[O-])c6F)c6ccc3[nH]6)C=C5)C=C4)cc1)[C@@H](C(F)(F)F)O2
REMARK SMILES IDX 16 1 15 2 14 3 13 4 11 5 12 6 10 8 1 9 2 10 3 11 8 12 4 13
REMARK SMILES IDX 7 14 5 15 6 16 9 17 88 18 83 19 84 20 85 21 86 22 87 23
REMARK SMILES IDX 17 24 18 25 19 27 20 28 21 29 82 30 22 31 81 32 23 33 24 34
REMARK SMILES IDX 25 35 75 36 26 37 80 38 74 39 76 40 27 41 79 42 73 43 72 44
REMARK SMILES IDX 28 46 60 47 40 48 59 49 41 50 44 51 58 52 77 53 42 54 43 55
REMARK SMILES IDX 57 57 78 58 45 59 29 60 30 61 38 62 31 63 33 64 39 65 32 66
REMARK SMILES IDX 34 67 35 68 36 69 37 70 61 71 62 72 70 73 63 74 65 75 71 76
REMARK SMILES IDX 64 77 66 78 67 79 68 80 69 81 46 82 47 83 55 84 48 85 50 86
REMARK SMILES IDX 56 87 49 88 51 89 52 90 53 91 54 92
REMARK H PARENT 13 7 17 26 76 45 44 56
REMARK Flexibility Score: inf
ROOT
ATOM      1  C   UNL A   1      32.994  29.034  25.247  1.00  0.00     0.118 C 
ENDROOT
BRANCH   1   2
ATOM      2  C   UNL A   1      33.100  28.916  23.733  1.00  0.00     0.042 C 
BRANCH   2   3
ATOM      3  C   UNL A   1      32.002  28.042  23.151  1.00  0.00     0.118 C 
BRANCH   3   4
ATOM      4  N   UNL A   1      32.488  27.199  22.067  1.00  0.00    -0.352 N 
ATOM      5  C   UNL A   1      33.018  25.960  21.937  1.00  0.00     0.251 C 
ATOM      6  O   UNL A   1      33.273  25.613  20.779  1.00  0.00    -0.270 OA
ATOM      7  H   UNL A   1      32.411  27.651  21.197  1.00  0.00     0.163 HD
BRANCH   5   8
ATOM      8  C   UNL A   1      33.288  25.025  23.065  1.00  0.00     0.067 C 
ATOM      9  C   UNL A   1      37.402  20.838  24.997  1.00  0.00     0.044 C 
ATOM     10  C   UNL A   1      36.211  21.744  25.093  1.00  0.00    -0.050 A 
ATOM     11  C   UNL A   1      35.366  21.692  26.210  1.00  0.00     0.010 A 
ATOM     12  C   UNL A   1      35.914  22.628  24.044  1.00  0.00     0.015 A 
ATOM     13  C   UNL A   1      34.246  22.526  26.300  1.00  0.00    -0.008 A 
ATOM     14  C   UNL A   1      34.794  23.458  24.115  1.00  0.00     0.018 A 
ATOM     15  C   UNL A   1      33.344  22.479  27.501  1.00  0.00     0.048 C 
ATOM     16  C   UNL A   1      33.970  23.398  25.242  1.00  0.00     0.130 A 
ATOM     17  C   UNL A   1      34.485  24.407  23.052  1.00  0.00     0.025 C 
ATOM     18  O   UNL A   1      32.882  24.213  25.383  1.00  0.00    -0.475 OA
ATOM     19  C   UNL A   1      32.304  24.728  24.158  1.00  0.00     0.314 C 
BRANCH  19  20
ATOM     20  C   UNL A   1      31.176  23.786  23.695  1.00  0.00     0.429 C 
ATOM     21  F   UNL A   1      30.165  24.494  23.132  1.00  0.00    -0.167 F 
ATOM     22  F   UNL A   1      31.586  22.898  22.758  1.00  0.00    -0.167 F 
ATOM     23  F   UNL A   1      30.646  23.061  24.706  1.00  0.00    -0.167 F 
ENDBRANCH  19  20
ENDBRANCH   5   8
ENDBRANCH   3   4
ENDBRANCH   2   3
ENDBRANCH   1   2
BRANCH   1  24
ATOM     24  N   UNL A   1      32.519  30.356  25.655  1.00  0.00    -0.352 N 
ATOM     25  C   UNL A   1      32.893  31.138  26.717  1.00  0.00     0.251 C 
ATOM     26  H   UNL A   1      31.823  30.743  25.077  1.00  0.00     0.163 HD
ATOM     27  O   UNL A   1      32.182  32.082  27.059  1.00  0.00    -0.269 OA
BRANCH  25  28
ATOM     28  C   UNL A   1      34.146  30.851  27.439  1.00  0.00     0.039 A 
ATOM     29  C   UNL A   1      35.083  31.868  27.628  1.00  0.00     0.014 A 
ATOM     30  C   UNL A   1      34.399  29.561  27.909  1.00  0.00     0.014 A 
ATOM     31  C   UNL A   1      36.250  31.600  28.346  1.00  0.00     0.010 A 
ATOM     32  C   UNL A   1      35.506  29.324  28.712  1.00  0.00     0.010 A 
ATOM     33  C   UNL A   1      36.453  30.335  28.919  1.00  0.00    -0.014 A 
BRANCH  33  34
ATOM     34  C   UNL A   1      37.663  30.027  29.717  1.00  0.00     0.031 A 
ATOM     35  C   UNL A   1      38.720  29.118  29.149  1.00  0.00     0.074 A 
ATOM     36  C   UNL A   1      37.769  30.497  30.974  1.00  0.00     0.049 A 
ATOM     37  N   UNL A   1      39.815  28.678  29.710  1.00  0.00    -0.248 NA
ATOM     38  C   UNL A   1      38.505  28.613  27.780  1.00  0.00     0.031 C 
ATOM     39  C   UNL A   1      36.770  31.327  31.652  1.00  0.00     0.029 A 
ATOM     40  N   UNL A   1      38.755  30.332  31.912  1.00  0.00    -0.354 N 
ATOM     41  C   UNL A   1      40.400  27.829  28.779  1.00  0.00     0.074 A 
ATOM     42  C   UNL A   1      39.515  27.768  27.639  1.00  0.00     0.031 C 
ATOM     43  C   UNL A   1      37.207  31.618  32.888  1.00  0.00     0.029 A 
ATOM     44  C   UNL A   1      38.496  30.969  33.104  1.00  0.00     0.049 A 
ATOM     45  H   UNL A   1      39.572  29.807  31.749  1.00  0.00     0.167 HD
ATOM     46  C   UNL A   1      41.591  27.191  28.849  1.00  0.00     0.034 A 
ATOM     47  C   UNL A   1      39.218  31.022  34.240  1.00  0.00     0.034 A 
ATOM     48  C   UNL A   1      42.487  27.297  29.967  1.00  0.00     0.049 A 
ATOM     49  C   UNL A   1      40.549  30.321  34.286  1.00  0.00     0.074 A 
ATOM     50  C   UNL A   1      43.747  26.749  30.111  1.00  0.00     0.029 A 
ATOM     51  N   UNL A   1      42.218  28.001  31.132  1.00  0.00    -0.354 N 
ATOM     52  N   UNL A   1      41.150  29.634  33.344  1.00  0.00    -0.248 NA
ATOM     53  C   UNL A   1      41.316  30.425  35.535  1.00  0.00     0.031 C 
ATOM     54  C   UNL A   1      44.233  27.101  31.373  1.00  0.00     0.029 A 
ATOM     55  C   UNL A   1      43.285  27.894  32.004  1.00  0.00     0.049 A 
ATOM     56  H   UNL A   1      41.390  28.502  31.310  1.00  0.00     0.167 HD
ATOM     57  C   UNL A   1      42.376  29.249  33.875  1.00  0.00     0.074 A 
ATOM     58  C   UNL A   1      42.442  29.802  35.212  1.00  0.00     0.031 C 
ATOM     59  C   UNL A   1      43.352  28.493  33.314  1.00  0.00     0.034 A 
BRANCH  46  60
ATOM     60  C   UNL A   1      42.031  26.383  27.655  1.00  0.00     0.023 A 
ATOM     61  C   UNL A   1      42.832  26.992  26.667  1.00  0.00     0.012 A 
ATOM     62  C   UNL A   1      41.722  25.014  27.545  1.00  0.00     0.148 A 
ATOM     63  C   UNL A   1      43.295  26.260  25.575  1.00  0.00     0.002 A 
ATOM     64  C   UNL A   1      42.228  24.279  26.480  1.00  0.00     0.091 A 
ATOM     65  F   UNL A   1      40.941  24.458  28.483  1.00  0.00    -0.205 F 
ATOM     66  C   UNL A   1      43.004  24.903  25.488  1.00  0.00     0.022 A 
BRANCH  64  67
ATOM     67  S   UNL A   1      41.987  22.506  26.320  1.00  0.00     0.127 S 
ATOM     68  O   UNL A   1      40.528  22.409  26.283  1.00  0.00    -0.237 OA
ATOM     69  O   UNL A   1      42.649  22.222  25.046  1.00  0.00    -0.237 OA
ATOM     70  O   UNL A   1      42.619  21.905  27.485  1.00  0.00    -0.744 OA
ENDBRANCH  64  67
ENDBRANCH  46  60
BRANCH  47  71
ATOM     71  C   UNL A   1      38.736  31.847  35.386  1.00  0.00     0.023 A 
ATOM     72  C   UNL A   1      38.760  33.251  35.277  1.00  0.00     0.012 A 
ATOM     73  C   UNL A   1      38.199  31.258  36.547  1.00  0.00     0.148 A 
ATOM     74  C   UNL A   1      38.281  34.054  36.313  1.00  0.00     0.002 A 
ATOM     75  C   UNL A   1      37.670  32.063  37.551  1.00  0.00     0.091 A 
ATOM     76  F   UNL A   1      38.192  29.920  36.635  1.00  0.00    -0.205 F 
ATOM     77  C   UNL A   1      37.725  33.461  37.444  1.00  0.00     0.022 A 
BRANCH  75  78
ATOM     78  S   UNL A   1      36.807  31.391  38.976  1.00  0.00     0.127 S 
ATOM     79  O   UNL A   1      35.701  32.333  39.129  1.00  0.00    -0.237 OA
ATOM     80  O   UNL A   1      36.424  30.062  38.495  1.00  0.00    -0.237 OA
ATOM     81  O   UNL A   1      37.780  31.379  40.059  1.00  0.00    -0.744 OA
ENDBRANCH  75  78
ENDBRANCH  47  71
BRANCH  59  82
ATOM     82  C   UNL A   1      44.590  28.218  34.128  1.00  0.00     0.023 A 
ATOM     83  C   UNL A   1      45.671  29.118  34.073  1.00  0.00     0.012 A 
ATOM     84  C   UNL A   1      44.629  27.140  35.037  1.00  0.00     0.148 A 
ATOM     85  C   UNL A   1      46.782  28.940  34.895  1.00  0.00     0.002 A 
ATOM     86  C   UNL A   1      45.716  27.001  35.890  1.00  0.00     0.091 A 
ATOM     87  F   UNL A   1      43.594  26.287  35.062  1.00  0.00    -0.205 F 
ATOM     88  C   UNL A   1      46.798  27.892  35.812  1.00  0.00     0.022 A 
BRANCH  86  89
ATOM     89  S   UNL A   1      45.777  25.751  37.180  1.00  0.00     0.127 S 
ATOM     90  O   UNL A   1      47.110  25.966  37.741  1.00  0.00    -0.237 OA
ATOM     91  O   UNL A   1      44.675  26.157  38.054  1.00  0.00    -0.237 OA
ATOM     92  O   UNL A   1      45.582  24.471  36.512  1.00  0.00    -0.744 OA
ENDBRANCH  86  89
ENDBRANCH  59  82
ENDBRANCH  33  34
ENDBRANCH  25  28
ENDBRANCH   1  24
TORSDOF 14
ENDMDL
MODEL 2
REMARK VINA RESULT:     -12.9      2.407      3.259
REMARK SMILES Cc1cc(C)c2c(c1)C=C(C(=O)NCCCNC(=O)c1ccc(-c3c4nc(c(-c5cccc(S(=O)(=O)[O-])c5F)c5ccc([nH]5)c(-c5cccc(S(=O)(=O)[O-])c5F)c5nc(c(-c6cccc(S(=O)(=O)[O-])c6F)c6ccc3[nH]6)C=C5)C=C4)cc1)[C@@H](C(F)(F)F)O2
REMARK SMILES IDX 16 1 15 2 14 3 13 4 11 5 12 6 10 8 1 9 2 10 3 11 8 12 4 13
REMARK SMILES IDX 7 14 5 15 6 16 9 17 88 18 83 19 84 20 85 21 86 22 87 23
REMARK SMILES IDX 17 24 18 25 19 27 20 28 21 29 82 30 22 31 81 32 23 33 24 34
REMARK SMILES IDX 25 35 75 36 26 37 80 38 74 39 76 40 27 41 79 42 73 43 72 44
REMARK SMILES IDX 28 46 60 47 40 48 59 49 41 50 44 51 58 52 77 53 42 54 43 55
REMARK SMILES IDX 57 57 78 58 45 59 29 60 30 61 38 62 31 63 33 64 39 65 32 66
REMARK SMILES IDX 34 67 35 68 36 69 37 70 61 71 62 72 70 73 63 74 65 75 71 76
REMARK SMILES IDX 64 77 66 78 67 79 68 80 69 81 46 82 47 83 55 84 48 85 50 86
REMARK SMILES IDX 56 87 49 88 51 89 52 90 53 91 54 92
REMARK H PARENT 13 7 17 26 76 45 44 56
REMARK Flexibility Score: inf
ROOT
ATOM      1  C   UNL A   1      32.802  32.674  27.251  1.00  0.00     0.118 C 
ENDROOT
BRANCH   1   2
ATOM      2  C   UNL A   1      31.516  32.119  26.652  1.00  0.00     0.042 C 
BRANCH   2   3
ATOM      3  C   UNL A   1      31.608  30.626  26.389  1.00  0.00     0.118 C 
BRANCH   3   4
ATOM      4  N   UNL A   1      31.320  30.294  25.001  1.00  0.00    -0.352 N 
ATOM      5  C   UNL A   1      31.243  29.173  24.245  1.00  0.00     0.251 C 
ATOM      6  O   UNL A   1      30.925  29.353  23.064  1.00  0.00    -0.270 OA
ATOM      7  H   UNL A   1      31.130  31.100  24.469  1.00  0.00     0.163 HD
BRANCH   5   8
ATOM      8  C   UNL A   1      31.498  27.791  24.740  1.00  0.00     0.067 C 
ATOM      9  C   UNL A   1      36.084  23.757  25.673  1.00  0.00     0.044 C 
ATOM     10  C   UNL A   1      34.686  24.295  25.751  1.00  0.00    -0.050 A 
ATOM     11  C   UNL A   1      33.647  23.503  26.260  1.00  0.00     0.010 A 
ATOM     12  C   UNL A   1      34.404  25.586  25.281  1.00  0.00     0.015 A 
ATOM     13  C   UNL A   1      32.338  23.995  26.323  1.00  0.00    -0.008 A 
ATOM     14  C   UNL A   1      33.101  26.086  25.328  1.00  0.00     0.018 A 
ATOM     15  C   UNL A   1      31.224  23.152  26.876  1.00  0.00     0.048 C 
ATOM     16  C   UNL A   1      32.080  25.285  25.847  1.00  0.00     0.130 A 
ATOM     17  C   UNL A   1      32.789  27.437  24.875  1.00  0.00     0.025 C 
ATOM     18  O   UNL A   1      30.794  25.735  25.954  1.00  0.00    -0.475 OA
ATOM     19  C   UNL A   1      30.413  26.802  25.052  1.00  0.00     0.314 C 
BRANCH  19  20
ATOM     20  C   UNL A   1      29.789  26.194  23.780  1.00  0.00     0.429 C 
ATOM     21  F   UNL A   1      28.603  26.790  23.498  1.00  0.00    -0.167 F 
ATOM     22  F   UNL A   1      30.568  26.357  22.684  1.00  0.00    -0.167 F 
ATOM     23  F   UNL A   1      29.555  24.866  23.891  1.00  0.00    -0.167 F 
ENDBRANCH  19  20
ENDBRANCH   5   8
ENDBRANCH   3   4
ENDBRANCH   2   3
ENDBRANCH   1   2
BRANCH   1  24
ATOM     24  N   UNL A   1      32.660  34.080  27.626  1.00  0.00    -0.352 N 
ATOM     25  C   UNL A   1      33.182  34.765  28.694  1.00  0.00     0.251 C 
ATOM     26  H   UNL A   1      32.103  34.619  27.019  1.00  0.00     0.163 HD
ATOM     27  O   UNL A   1      32.719  35.863  28.998  1.00  0.00    -0.269 OA
BRANCH  25  28
ATOM     28  C   UNL A   1      34.298  34.187  29.465  1.00  0.00     0.039 A 
ATOM     29  C   UNL A   1      34.028  33.369  30.563  1.00  0.00     0.014 A 
ATOM     30  C   UNL A   1      35.616  34.477  29.107  1.00  0.00     0.014 A 
ATOM     31  C   UNL A   1      35.088  32.792  31.266  1.00  0.00     0.010 A 
ATOM     32  C   UNL A   1      36.662  33.820  29.738  1.00  0.00     0.010 A 
ATOM     33  C   UNL A   1      36.410  32.990  30.837  1.00  0.00    -0.014 A 
BRANCH  33  34
ATOM     34  C   UNL A   1      37.556  32.365  31.538  1.00  0.00     0.031 A 
ATOM     35  C   UNL A   1      38.303  31.233  30.884  1.00  0.00     0.074 A 
ATOM     36  C   UNL A   1      37.869  32.760  32.786  1.00  0.00     0.049 A 
ATOM     37  N   UNL A   1      39.287  30.515  31.357  1.00  0.00    -0.248 NA
ATOM     38  C   UNL A   1      37.869  30.834  29.533  1.00  0.00     0.031 C 
ATOM     39  C   UNL A   1      37.167  33.798  33.544  1.00  0.00     0.029 A 
ATOM     40  N   UNL A   1      38.846  32.326  33.645  1.00  0.00    -0.354 N 
ATOM     41  C   UNL A   1      39.568  29.570  30.378  1.00  0.00     0.074 A 
ATOM     42  C   UNL A   1      38.617  29.765  29.309  1.00  0.00     0.031 C 
ATOM     43  C   UNL A   1      37.751  33.937  34.745  1.00  0.00     0.029 A 
ATOM     44  C   UNL A   1      38.845  32.977  34.857  1.00  0.00     0.049 A 
ATOM     45  H   UNL A   1      39.488  31.616  33.416  1.00  0.00     0.167 HD
ATOM     46  C   UNL A   1      40.560  28.650  30.353  1.00  0.00     0.034 A 
ATOM     47  C   UNL A   1      39.638  32.816  35.935  1.00  0.00     0.034 A 
ATOM     48  C   UNL A   1      41.532  28.496  31.399  1.00  0.00     0.049 A 
ATOM     49  C   UNL A   1      40.745  31.800  35.873  1.00  0.00     0.074 A 
ATOM     50  C   UNL A   1      42.617  27.643  31.443  1.00  0.00     0.029 A 
ATOM     51  N   UNL A   1      41.536  29.215  32.586  1.00  0.00    -0.354 N 
ATOM     52  N   UNL A   1      41.082  31.007  34.884  1.00  0.00    -0.248 NA
ATOM     53  C   UNL A   1      41.602  31.673  37.061  1.00  0.00     0.031 C 
ATOM     54  C   UNL A   1      43.267  27.828  32.666  1.00  0.00     0.029 A 
ATOM     55  C   UNL A   1      42.601  28.819  33.373  1.00  0.00     0.049 A 
ATOM     56  H   UNL A   1      40.877  29.904  32.830  1.00  0.00     0.167 HD
ATOM     57  C   UNL A   1      42.205  30.311  35.317  1.00  0.00     0.074 A 
ATOM     58  C   UNL A   1      42.506  30.794  36.649  1.00  0.00     0.031 C 
ATOM     59  C   UNL A   1      42.913  29.347  34.678  1.00  0.00     0.034 A 
BRANCH  46  60
ATOM     60  C   UNL A   1      40.691  27.788  29.123  1.00  0.00     0.023 A 
ATOM     61  C   UNL A   1      39.867  26.651  28.987  1.00  0.00     0.012 A 
ATOM     62  C   UNL A   1      41.563  28.138  28.074  1.00  0.00     0.148 A 
ATOM     63  C   UNL A   1      39.930  25.860  27.841  1.00  0.00     0.002 A 
ATOM     64  C   UNL A   1      41.583  27.374  26.914  1.00  0.00     0.091 A 
ATOM     65  F   UNL A   1      42.352  29.210  28.231  1.00  0.00    -0.205 F 
ATOM     66  C   UNL A   1      40.777  26.228  26.800  1.00  0.00     0.022 A 
BRANCH  64  67
ATOM     67  S   UNL A   1      42.572  27.809  25.479  1.00  0.00     0.127 S 
ATOM     68  O   UNL A   1      42.388  26.635  24.626  1.00  0.00    -0.237 OA
ATOM     69  O   UNL A   1      41.903  29.020  25.002  1.00  0.00    -0.237 OA
ATOM     70  O   UNL A   1      43.928  28.013  25.970  1.00  0.00    -0.744 OA
ENDBRANCH  64  67
ENDBRANCH  46  60
BRANCH  47  71
ATOM     71  C   UNL A   1      39.466  33.706  37.119  1.00  0.00     0.023 A 
ATOM     72  C   UNL A   1      39.892  35.046  37.037  1.00  0.00     0.012 A 
ATOM     73  C   UNL A   1      38.832  33.259  38.295  1.00  0.00     0.148 A 
ATOM     74  C   UNL A   1      39.712  35.918  38.112  1.00  0.00     0.002 A 
ATOM     75  C   UNL A   1      38.603  34.148  39.340  1.00  0.00     0.091 A 
ATOM     76  F   UNL A   1      38.440  31.978  38.357  1.00  0.00    -0.205 F 
ATOM     77  C   UNL A   1      39.057  35.474  39.257  1.00  0.00     0.022 A 
BRANCH  75  78
ATOM     78  S   UNL A   1      37.644  33.707  40.794  1.00  0.00     0.127 S 
ATOM     79  O   UNL A   1      36.467  33.081  40.198  1.00  0.00    -0.237 OA
ATOM     80  O   UNL A   1      38.550  32.787  41.482  1.00  0.00    -0.237 OA
ATOM     81  O   UNL A   1      37.403  34.956  41.503  1.00  0.00    -0.744 OA
ENDBRANCH  75  78
ENDBRANCH  47  71
BRANCH  59  82
ATOM     82  C   UNL A   1      44.095  28.746  35.393  1.00  0.00     0.023 A 
ATOM     83  C   UNL A   1      45.366  29.334  35.247  1.00  0.00     0.012 A 
ATOM     84  C   UNL A   1      43.922  27.682  36.301  1.00  0.00     0.148 A 
ATOM     85  C   UNL A   1      46.453  28.859  35.980  1.00  0.00     0.002 A 
ATOM     86  C   UNL A   1      44.998  27.250  37.067  1.00  0.00     0.091 A 
ATOM     87  F   UNL A   1      42.706  27.128  36.413  1.00  0.00    -0.205 F 
ATOM     88  C   UNL A   1      46.266  27.830  36.898  1.00  0.00     0.022 A 
BRANCH  86  89
ATOM     89  S   UNL A   1      44.831  26.008  38.355  1.00  0.00     0.127 S 
ATOM     90  O   UNL A   1      44.457  24.826  37.581  1.00  0.00    -0.237 OA
ATOM     91  O   UNL A   1      46.182  25.965  38.918  1.00  0.00    -0.237 OA
ATOM     92  O   UNL A   1      43.809  26.505  39.265  1.00  0.00    -0.744 OA
ENDBRANCH  86  89
ENDBRANCH  59  82
ENDBRANCH  33  34
ENDBRANCH  25  28
ENDBRANCH   1  24
TORSDOF 14
ENDMDL
MODEL 3
REMARK VINA RESULT:     -12.8      1.461      1.673
REMARK SMILES Cc1cc(C)c2c(c1)C=C(C(=O)NCCCNC(=O)c1ccc(-c3c4nc(c(-c5cccc(S(=O)(=O)[O-])c5F)c5ccc([nH]5)c(-c5cccc(S(=O)(=O)[O-])c5F)c5nc(c(-c6cccc(S(=O)(=O)[O-])c6F)c6ccc3[nH]6)C=C5)C=C4)cc1)[C@@H](C(F)(F)F)O2
REMARK SMILES IDX 16 1 15 2 14 3 13 4 11 5 12 6 10 8 1 9 2 10 3 11 8 12 4 13
REMARK SMILES IDX 7 14 5 15 6 16 9 17 88 18 83 19 84 20 85 21 86 22 87 23
REMARK SMILES IDX 17 24 18 25 19 27 20 28 21 29 82 30 22 31 81 32 23 33 24 34
REMARK SMILES IDX 25 35 75 36 26 37 80 38 74 39 76 40 27 41 79 42 73 43 72 44
REMARK SMILES IDX 28 46 60 47 40 48 59 49 41 50 44 51 58 52 77 53 42 54 43 55
REMARK SMILES IDX 57 57 78 58 45 59 29 60 30 61 38 62 31 63 33 64 39 65 32 66
REMARK SMILES IDX 34 67 35 68 36 69 37 70 61 71 62 72 70 73 63 74 65 75 71 76
REMARK SMILES IDX 64 77 66 78 67 79 68 80 69 81 46 82 47 83 55 84 48 85 50 86
REMARK SMILES IDX 56 87 49 88 51 89 52 90 53 91 54 92
REMARK H PARENT 13 7 17 26 76 45 44 56
REMARK Flexibility Score: inf
ROOT
ATOM      1  C   UNL A   1      33.500  28.794  25.261  1.00  0.00     0.118 C 
ENDROOT
BRANCH   1   2
ATOM      2  C   UNL A   1      33.628  28.707  23.746  1.00  0.00     0.042 C 
BRANCH   2   3
ATOM      3  C   UNL A   1      32.357  28.189  23.094  1.00  0.00     0.118 C 
BRANCH   3   4
ATOM      4  N   UNL A   1      32.637  27.265  22.005  1.00  0.00    -0.352 N 
ATOM      5  C   UNL A   1      32.999  25.966  21.875  1.00  0.00     0.251 C 
ATOM      6  O   UNL A   1      33.103  25.560  20.713  1.00  0.00    -0.270 OA
ATOM      7  H   UNL A   1      32.534  27.699  21.128  1.00  0.00     0.163 HD
BRANCH   5   8
ATOM      8  C   UNL A   1      33.257  25.036  23.010  1.00  0.00     0.067 C 
ATOM      9  C   UNL A   1      37.253  20.724  24.914  1.00  0.00     0.044 C 
ATOM     10  C   UNL A   1      36.097  21.674  25.022  1.00  0.00    -0.050 A 
ATOM     11  C   UNL A   1      35.274  21.667  26.156  1.00  0.00     0.010 A 
ATOM     12  C   UNL A   1      35.813  22.556  23.968  1.00  0.00     0.015 A 
ATOM     13  C   UNL A   1      34.187  22.542  26.257  1.00  0.00    -0.008 A 
ATOM     14  C   UNL A   1      34.725  23.427  24.050  1.00  0.00     0.018 A 
ATOM     15  C   UNL A   1      33.308  22.542  27.475  1.00  0.00     0.048 C 
ATOM     16  C   UNL A   1      33.922  23.411  25.193  1.00  0.00     0.130 A 
ATOM     17  C   UNL A   1      34.430  24.374  22.981  1.00  0.00     0.025 C 
ATOM     18  O   UNL A   1      32.868  24.267  25.346  1.00  0.00    -0.475 OA
ATOM     19  C   UNL A   1      32.285  24.788  24.126  1.00  0.00     0.314 C 
BRANCH  19  20
ATOM     20  C   UNL A   1      31.114  23.883  23.696  1.00  0.00     0.429 C 
ATOM     21  F   UNL A   1      30.580  23.251  24.770  1.00  0.00    -0.167 F 
ATOM     22  F   UNL A   1      30.102  24.574  23.119  1.00  0.00    -0.167 F 
ATOM     23  F   UNL A   1      31.482  22.930  22.809  1.00  0.00    -0.167 F 
ENDBRANCH  19  20
ENDBRANCH   5   8
ENDBRANCH   3   4
ENDBRANCH   2   3
ENDBRANCH   1   2
BRANCH   1  24
ATOM     24  N   UNL A   1      32.982  30.094  25.685  1.00  0.00    -0.352 N 
ATOM     25  C   UNL A   1      33.330  30.874  26.759  1.00  0.00     0.251 C 
ATOM     26  H   UNL A   1      32.274  30.467  25.112  1.00  0.00     0.163 HD
ATOM     27  O   UNL A   1      32.588  31.791  27.112  1.00  0.00    -0.269 OA
BRANCH  25  28
ATOM     28  C   UNL A   1      34.591  30.617  27.478  1.00  0.00     0.039 A 
ATOM     29  C   UNL A   1      35.516  31.650  27.641  1.00  0.00     0.014 A 
ATOM     30  C   UNL A   1      34.863  29.341  27.973  1.00  0.00     0.014 A 
ATOM     31  C   UNL A   1      36.691  31.412  28.356  1.00  0.00     0.010 A 
ATOM     32  C   UNL A   1      35.977  29.134  28.773  1.00  0.00     0.010 A 
ATOM     33  C   UNL A   1      36.913  30.161  28.954  1.00  0.00    -0.014 A 
BRANCH  33  34
ATOM     34  C   UNL A   1      38.132  29.884  29.750  1.00  0.00     0.031 A 
ATOM     35  C   UNL A   1      39.179  28.948  29.210  1.00  0.00     0.074 A 
ATOM     36  C   UNL A   1      38.254  30.410  30.983  1.00  0.00     0.049 A 
ATOM     37  N   UNL A   1      40.279  28.529  29.777  1.00  0.00    -0.248 NA
ATOM     38  C   UNL A   1      38.947  28.383  27.868  1.00  0.00     0.031 C 
ATOM     39  C   UNL A   1      37.267  31.273  31.635  1.00  0.00     0.029 A 
ATOM     40  N   UNL A   1      39.251  30.283  31.916  1.00  0.00    -0.354 N 
ATOM     41  C   UNL A   1      40.851  27.637  28.878  1.00  0.00     0.074 A 
ATOM     42  C   UNL A   1      39.952  27.529  27.752  1.00  0.00     0.031 C 
ATOM     43  C   UNL A   1      37.719  31.617  32.852  1.00  0.00     0.029 A 
ATOM     44  C   UNL A   1      39.009  30.974  33.081  1.00  0.00     0.049 A 
ATOM     45  H   UNL A   1      40.065  29.749  31.767  1.00  0.00     0.167 HD
ATOM     46  C   UNL A   1      42.041  26.999  28.962  1.00  0.00     0.034 A 
ATOM     47  C   UNL A   1      39.745  31.075  34.205  1.00  0.00     0.034 A 
ATOM     48  C   UNL A   1      42.951  27.152  30.064  1.00  0.00     0.049 A 
ATOM     49  C   UNL A   1      41.074  30.372  34.266  1.00  0.00     0.074 A 
ATOM     50  C   UNL A   1      44.211  26.606  30.217  1.00  0.00     0.029 A 
ATOM     51  N   UNL A   1      42.698  27.907  31.199  1.00  0.00    -0.354 N 
ATOM     52  N   UNL A   1      41.662  29.641  33.349  1.00  0.00    -0.248 NA
ATOM     53  C   UNL A   1      41.856  30.528  35.500  1.00  0.00     0.031 C 
ATOM     54  C   UNL A   1      44.713  27.013  31.456  1.00  0.00     0.029 A 
ATOM     55  C   UNL A   1      43.775  27.836  32.062  1.00  0.00     0.049 A 
ATOM     56  H   UNL A   1      41.873  28.419  31.365  1.00  0.00     0.167 HD
ATOM     57  C   UNL A   1      42.893  29.276  33.881  1.00  0.00     0.074 A 
ATOM     58  C   UNL A   1      42.976  29.888  35.192  1.00  0.00     0.031 C 
ATOM     59  C   UNL A   1      43.860  28.492  33.343  1.00  0.00     0.034 A 
BRANCH  46  60
ATOM     60  C   UNL A   1      42.463  26.137  27.800  1.00  0.00     0.023 A 
ATOM     61  C   UNL A   1      43.384  26.648  26.862  1.00  0.00     0.012 A 
ATOM     62  C   UNL A   1      42.017  24.807  27.676  1.00  0.00     0.148 A 
ATOM     63  C   UNL A   1      43.832  25.860  25.802  1.00  0.00     0.002 A 
ATOM     64  C   UNL A   1      42.506  24.012  26.647  1.00  0.00     0.091 A 
ATOM     65  F   UNL A   1      41.125  24.348  28.565  1.00  0.00    -0.205 F 
ATOM     66  C   UNL A   1      43.403  24.540  25.702  1.00  0.00     0.022 A 
BRANCH  64  67
ATOM     67  S   UNL A   1      42.087  22.274  26.477  1.00  0.00     0.127 S 
ATOM     68  O   UNL A   1      40.641  22.339  26.259  1.00  0.00    -0.237 OA
ATOM     69  O   UNL A   1      42.863  21.885  25.299  1.00  0.00    -0.237 OA
ATOM     70  O   UNL A   1      42.499  21.636  27.719  1.00  0.00    -0.744 OA
ENDBRANCH  64  67
ENDBRANCH  46  60
BRANCH  47  71
ATOM     71  C   UNL A   1      39.279  31.952  35.318  1.00  0.00     0.023 A 
ATOM     72  C   UNL A   1      38.422  31.417  36.300  1.00  0.00     0.012 A 
ATOM     73  C   UNL A   1      39.724  33.282  35.448  1.00  0.00     0.148 A 
ATOM     74  C   UNL A   1      37.998  32.196  37.376  1.00  0.00     0.002 A 
ATOM     75  C   UNL A   1      39.344  34.034  36.554  1.00  0.00     0.091 A 
ATOM     76  F   UNL A   1      40.533  33.776  34.500  1.00  0.00    -0.205 F 
ATOM     77  C   UNL A   1      38.468  33.500  37.511  1.00  0.00     0.022 A 
BRANCH  75  78
ATOM     78  S   UNL A   1      40.010  35.670  36.887  1.00  0.00     0.127 S 
ATOM     79  O   UNL A   1      41.446  35.407  36.928  1.00  0.00    -0.237 OA
ATOM     80  O   UNL A   1      39.554  36.423  35.718  1.00  0.00    -0.237 OA
ATOM     81  O   UNL A   1      39.410  36.093  38.144  1.00  0.00    -0.744 OA
ENDBRANCH  75  78
ENDBRANCH  47  71
BRANCH  59  82
ATOM     82  C   UNL A   1      45.106  28.250  34.154  1.00  0.00     0.023 A 
ATOM     83  C   UNL A   1      46.187  29.145  34.050  1.00  0.00     0.012 A 
ATOM     84  C   UNL A   1      45.155  27.210  35.104  1.00  0.00     0.148 A 
ATOM     85  C   UNL A   1      47.308  29.000  34.866  1.00  0.00     0.002 A 
ATOM     86  C   UNL A   1      46.252  27.104  35.951  1.00  0.00     0.091 A 
ATOM     87  F   UNL A   1      44.121  26.359  35.176  1.00  0.00    -0.205 F 
ATOM     88  C   UNL A   1      47.334  27.990  35.825  1.00  0.00     0.022 A 
BRANCH  86  89
ATOM     89  S   UNL A   1      46.327  25.907  37.290  1.00  0.00     0.127 S 
ATOM     90  O   UNL A   1      47.629  26.206  37.883  1.00  0.00    -0.237 OA
ATOM     91  O   UNL A   1      45.179  26.293  38.112  1.00  0.00    -0.237 OA
ATOM     92  O   UNL A   1      46.214  24.596  36.667  1.00  0.00    -0.744 OA
ENDBRANCH  86  89
ENDBRANCH  59  82
ENDBRANCH  33  34
ENDBRANCH  25  28
ENDBRANCH   1  24
TORSDOF 14
ENDMDL
