MODEL 1
REMARK VINA RESULT:     -12.0      0.000      0.000
REMARK SMILES O=C(NCCCNC(=O)c1ccc(NC2CC2)c(F)c1F)c1ccc(-c2c3nc(c(-c4cccc(S(=O)(=O)[O-])c4F)c4ccc([nH]4)c(-c4cccc(S(=O)(=O)[O-])c4F)c4nc(c(-c5cccc(S(=O)(=O)[O-])c5F)c5ccc2[nH]5)C=C4)C=C3)cc1
REMARK SMILES IDX 4 1 3 2 1 3 2 4 22 6 23 7 84 8 24 9 83 10 25 11 26 12 27 13
REMARK SMILES IDX 77 14 28 15 82 16 76 17 78 18 29 19 81 20 75 21 74 22 30 24
REMARK SMILES IDX 62 25 42 26 61 27 43 28 46 29 60 30 79 31 44 32 45 33 59 35
REMARK SMILES IDX 80 36 47 37 31 38 32 39 40 40 33 41 35 42 41 43 34 44 36 45
REMARK SMILES IDX 37 46 38 47 39 48 63 49 64 50 72 51 65 52 67 53 73 54 66 55
REMARK SMILES IDX 68 56 69 57 70 58 71 59 48 60 49 61 57 62 50 63 52 64 58 65
REMARK SMILES IDX 51 66 53 67 54 68 55 69 56 70 5 71 6 72 7 73 8 74 9 76 10 77
REMARK SMILES IDX 11 78 20 79 12 80 18 81 21 82 13 83 19 84 14 85 15 87 16 88
REMARK SMILES IDX 17 89
REMARK H PARENT 3 5 78 23 46 34 7 75 14 86
REMARK Flexibility Score: inf
ROOT
ATOM      1  C   UNL A   1      32.575  29.435  26.277  1.00  0.00     0.118 C 
ENDROOT
BRANCH   1   2
ATOM      2  N   UNL A   1      32.399  30.865  26.499  1.00  0.00    -0.352 N 
ATOM      3  O   UNL A   1      32.738  32.898  27.394  1.00  0.00    -0.269 OA
ATOM      4  C   UNL A   1      33.169  31.765  27.201  1.00  0.00     0.251 C 
ATOM      5  H   UNL A   1      31.598  31.251  26.077  1.00  0.00     0.163 HD
BRANCH   4   6
ATOM      6  C   UNL A   1      34.483  31.362  27.750  1.00  0.00     0.039 A 
ATOM      7  C   UNL A   1      34.745  30.034  28.085  1.00  0.00     0.014 A 
ATOM      8  C   UNL A   1      35.475  32.330  27.936  1.00  0.00     0.014 A 
ATOM      9  C   UNL A   1      35.896  29.713  28.793  1.00  0.00     0.010 A 
ATOM     10  C   UNL A   1      36.685  31.981  28.546  1.00  0.00     0.010 A 
ATOM     11  C   UNL A   1      36.884  30.682  29.035  1.00  0.00    -0.014 A 
BRANCH  11  12
ATOM     12  C   UNL A   1      38.114  30.291  29.776  1.00  0.00     0.031 A 
ATOM     13  C   UNL A   1      38.348  30.738  31.196  1.00  0.00     0.074 A 
ATOM     14  C   UNL A   1      39.012  29.490  29.167  1.00  0.00     0.049 A 
ATOM     15  N   UNL A   1      39.329  30.421  32.004  1.00  0.00    -0.248 NA
ATOM     16  C   UNL A   1      37.370  31.666  31.785  1.00  0.00     0.031 C 
ATOM     17  C   UNL A   1      38.924  29.029  27.779  1.00  0.00     0.029 A 
ATOM     18  N   UNL A   1      40.164  28.911  29.636  1.00  0.00    -0.354 N 
ATOM     19  C   UNL A   1      39.115  31.144  33.172  1.00  0.00     0.074 A 
ATOM     20  C   UNL A   1      37.914  31.925  32.968  1.00  0.00     0.031 C 
ATOM     21  C   UNL A   1      39.946  28.202  27.524  1.00  0.00     0.029 A 
ATOM     22  C   UNL A   1      40.793  28.112  28.709  1.00  0.00     0.049 A 
ATOM     23  H   UNL A   1      40.507  29.053  30.547  1.00  0.00     0.167 HD
ATOM     24  C   UNL A   1      39.840  31.145  34.318  1.00  0.00     0.034 A 
ATOM     25  C   UNL A   1      41.924  27.387  28.798  1.00  0.00     0.034 A 
ATOM     26  C   UNL A   1      41.002  30.325  34.540  1.00  0.00     0.049 A 
ATOM     27  C   UNL A   1      42.674  27.364  30.098  1.00  0.00     0.074 A 
ATOM     28  C   UNL A   1      41.759  30.202  35.691  1.00  0.00     0.029 A 
ATOM     29  N   UNL A   1      41.577  29.491  33.594  1.00  0.00    -0.354 N 
ATOM     30  N   UNL A   1      42.377  27.951  31.232  1.00  0.00    -0.248 NA
ATOM     31  C   UNL A   1      43.900  26.555  30.141  1.00  0.00     0.031 C 
ATOM     32  C   UNL A   1      42.802  29.304  35.437  1.00  0.00     0.029 A 
ATOM     33  C   UNL A   1      42.682  28.853  34.133  1.00  0.00     0.049 A 
ATOM     34  H   UNL A   1      41.248  29.369  32.674  1.00  0.00     0.167 HD
ATOM     35  C   UNL A   1      43.358  27.558  32.132  1.00  0.00     0.074 A 
ATOM     36  C   UNL A   1      44.245  26.662  31.417  1.00  0.00     0.031 C 
ATOM     37  C   UNL A   1      43.522  27.920  33.428  1.00  0.00     0.034 A 
BRANCH  24  38
ATOM     38  C   UNL A   1      39.377  32.033  35.445  1.00  0.00     0.023 A 
ATOM     39  C   UNL A   1      38.519  31.513  36.435  1.00  0.00     0.012 A 
ATOM     40  C   UNL A   1      39.847  33.356  35.564  1.00  0.00     0.148 A 
ATOM     41  C   UNL A   1      38.112  32.305  37.509  1.00  0.00     0.002 A 
ATOM     42  C   UNL A   1      39.469  34.126  36.660  1.00  0.00     0.091 A 
ATOM     43  F   UNL A   1      40.644  33.842  34.603  1.00  0.00    -0.205 F 
ATOM     44  C   UNL A   1      38.595  33.605  37.627  1.00  0.00     0.022 A 
BRANCH  42  45
ATOM     45  S   UNL A   1      40.101  35.785  36.938  1.00  0.00     0.127 S 
ATOM     46  O   UNL A   1      39.458  36.137  38.203  1.00  0.00    -0.237 OA
ATOM     47  O   UNL A   1      41.544  35.556  37.032  1.00  0.00    -0.237 OA
ATOM     48  O   UNL A   1      39.688  36.568  35.782  1.00  0.00    -0.744 OA
ENDBRANCH  42  45
ENDBRANCH  24  38
BRANCH  25  49
ATOM     49  C   UNL A   1      42.370  26.569  27.636  1.00  0.00     0.023 A 
ATOM     50  C   UNL A   1      43.268  27.123  26.704  1.00  0.00     0.012 A 
ATOM     51  C   UNL A   1      41.948  25.235  27.474  1.00  0.00     0.148 A 
ATOM     52  C   UNL A   1      43.719  26.372  25.618  1.00  0.00     0.002 A 
ATOM     53  C   UNL A   1      42.446  24.474  26.424  1.00  0.00     0.091 A 
ATOM     54  F   UNL A   1      41.078  24.731  28.361  1.00  0.00    -0.205 F 
ATOM     55  C   UNL A   1      43.319  25.045  25.485  1.00  0.00     0.022 A 
BRANCH  53  56
ATOM     56  S   UNL A   1      42.094  22.720  26.265  1.00  0.00     0.127 S 
ATOM     57  O   UNL A   1      42.730  22.402  24.989  1.00  0.00    -0.237 OA
ATOM     58  O   UNL A   1      42.764  22.167  27.443  1.00  0.00    -0.237 OA
ATOM     59  O   UNL A   1      40.642  22.611  26.298  1.00  0.00    -0.744 OA
ENDBRANCH  53  56
ENDBRANCH  25  49
BRANCH  37  60
ATOM     60  C   UNL A   1      44.685  27.320  34.174  1.00  0.00     0.023 A 
ATOM     61  C   UNL A   1      45.941  27.957  34.141  1.00  0.00     0.012 A 
ATOM     62  C   UNL A   1      44.518  26.158  34.952  1.00  0.00     0.148 A 
ATOM     63  C   UNL A   1      47.022  27.427  34.844  1.00  0.00     0.002 A 
ATOM     64  C   UNL A   1      45.588  25.661  35.686  1.00  0.00     0.091 A 
ATOM     65  F   UNL A   1      43.322  25.551  34.952  1.00  0.00    -0.205 F 
ATOM     66  C   UNL A   1      46.844  26.287  35.624  1.00  0.00     0.022 A 
BRANCH  64  67
ATOM     67  S   UNL A   1      45.415  24.254  36.789  1.00  0.00     0.127 S 
ATOM     68  O   UNL A   1      44.967  23.208  35.871  1.00  0.00    -0.237 OA
ATOM     69  O   UNL A   1      46.779  24.080  37.294  1.00  0.00    -0.237 OA
ATOM     70  O   UNL A   1      44.450  24.662  37.801  1.00  0.00    -0.744 OA
ENDBRANCH  64  67
ENDBRANCH  37  60
ENDBRANCH  11  12
ENDBRANCH   4   6
ENDBRANCH   1   2
BRANCH   1  71
ATOM     71  C   UNL A   1      31.848  28.579  27.305  1.00  0.00     0.042 C 
BRANCH  71  72
ATOM     72  C   UNL A   1      31.121  27.386  26.707  1.00  0.00     0.118 C 
BRANCH  72  73
ATOM     73  N   UNL A   1      31.986  26.567  25.867  1.00  0.00    -0.352 N 
ATOM     74  C   UNL A   1      31.977  26.407  24.498  1.00  0.00     0.254 C 
ATOM     75  H   UNL A   1      32.675  26.052  26.346  1.00  0.00     0.163 HD
ATOM     76  O   UNL A   1      32.725  25.620  23.948  1.00  0.00    -0.269 OA
BRANCH  74  77
ATOM     77  C   UNL A   1      31.072  27.249  23.706  1.00  0.00     0.078 A 
ATOM     78  C   UNL A   1      31.598  28.265  22.905  1.00  0.00     0.019 A 
ATOM     79  C   UNL A   1      29.702  27.058  23.786  1.00  0.00     0.173 A 
ATOM     80  C   UNL A   1      30.739  29.167  22.273  1.00  0.00     0.030 A 
ATOM     81  C   UNL A   1      28.857  27.950  23.134  1.00  0.00     0.182 A 
ATOM     82  F   UNL A   1      29.179  26.070  24.526  1.00  0.00    -0.203 F 
ATOM     83  C   UNL A   1      29.352  29.050  22.402  1.00  0.00     0.074 A 
ATOM     84  F   UNL A   1      27.526  27.790  23.241  1.00  0.00    -0.201 F 
BRANCH  83  85
ATOM     85  N   UNL A   1      28.426  29.980  21.887  1.00  0.00    -0.380 N 
ATOM     86  H   UNL A   1      27.992  29.718  21.043  1.00  0.00     0.160 HD
BRANCH  85  87
ATOM     87  C   UNL A   1      28.018  31.276  22.421  1.00  0.00     0.079 C 
ATOM     88  C   UNL A   1      27.354  31.516  23.744  1.00  0.00     0.027 C 
ATOM     89  C   UNL A   1      28.756  32.010  23.500  1.00  0.00     0.027 C 
ENDBRANCH  85  87
ENDBRANCH  83  85
ENDBRANCH  74  77
ENDBRANCH  72  73
ENDBRANCH  71  72
ENDBRANCH   1  71
TORSDOF 15
ENDMDL
MODEL 2
REMARK VINA RESULT:     -12.0      1.795      3.350
REMARK SMILES O=C(NCCCNC(=O)c1ccc(NC2CC2)c(F)c1F)c1ccc(-c2c3nc(c(-c4cccc(S(=O)(=O)[O-])c4F)c4ccc([nH]4)c(-c4cccc(S(=O)(=O)[O-])c4F)c4nc(c(-c5cccc(S(=O)(=O)[O-])c5F)c5ccc2[nH]5)C=C4)C=C3)cc1
REMARK SMILES IDX 4 1 3 2 1 3 2 4 22 6 23 7 84 8 24 9 83 10 25 11 26 12 27 13
REMARK SMILES IDX 77 14 28 15 82 16 76 17 78 18 29 19 81 20 75 21 74 22 30 24
REMARK SMILES IDX 62 25 42 26 61 27 43 28 46 29 60 30 79 31 44 32 45 33 59 35
REMARK SMILES IDX 80 36 47 37 31 38 32 39 40 40 33 41 35 42 41 43 34 44 36 45
REMARK SMILES IDX 37 46 38 47 39 48 63 49 64 50 72 51 65 52 67 53 73 54 66 55
REMARK SMILES IDX 68 56 69 57 70 58 71 59 48 60 49 61 57 62 50 63 52 64 58 65
REMARK SMILES IDX 51 66 53 67 54 68 55 69 56 70 5 71 6 72 7 73 8 74 9 76 10 77
REMARK SMILES IDX 11 78 20 79 12 80 18 81 21 82 13 83 19 84 14 85 15 87 16 88
REMARK SMILES IDX 17 89
REMARK H PARENT 3 5 78 23 46 34 7 75 14 86
REMARK Flexibility Score: inf
ROOT
ATOM      1  C   UNL A   1      32.757  29.664  25.484  1.00  0.00     0.118 C 
ENDROOT
BRANCH   1   2
ATOM      2  N   UNL A   1      32.414  30.972  26.029  1.00  0.00    -0.352 N 
ATOM      3  O   UNL A   1      32.465  32.734  27.424  1.00  0.00    -0.269 OA
ATOM      4  C   UNL A   1      33.028  31.727  27.004  1.00  0.00     0.251 C 
ATOM      5  H   UNL A   1      31.610  31.383  25.637  1.00  0.00     0.163 HD
BRANCH   4   6
ATOM      6  C   UNL A   1      34.332  31.310  27.566  1.00  0.00     0.039 A 
ATOM      7  C   UNL A   1      34.558  29.989  27.953  1.00  0.00     0.014 A 
ATOM      8  C   UNL A   1      35.350  32.257  27.711  1.00  0.00     0.014 A 
ATOM      9  C   UNL A   1      35.702  29.666  28.672  1.00  0.00     0.010 A 
ATOM     10  C   UNL A   1      36.552  31.900  28.333  1.00  0.00     0.010 A 
ATOM     11  C   UNL A   1      36.717  30.616  28.873  1.00  0.00    -0.014 A 
BRANCH  11  12
ATOM     12  C   UNL A   1      37.937  30.222  29.627  1.00  0.00     0.031 A 
ATOM     13  C   UNL A   1      38.156  30.664  31.051  1.00  0.00     0.074 A 
ATOM     14  C   UNL A   1      38.842  29.422  29.027  1.00  0.00     0.049 A 
ATOM     15  N   UNL A   1      39.127  30.344  31.869  1.00  0.00    -0.248 NA
ATOM     16  C   UNL A   1      37.173  31.592  31.631  1.00  0.00     0.031 C 
ATOM     17  C   UNL A   1      38.769  28.965  27.636  1.00  0.00     0.029 A 
ATOM     18  N   UNL A   1      39.988  28.840  29.507  1.00  0.00    -0.354 N 
ATOM     19  C   UNL A   1      38.901  31.064  33.037  1.00  0.00     0.074 A 
ATOM     20  C   UNL A   1      37.703  31.846  32.821  1.00  0.00     0.031 C 
ATOM     21  C   UNL A   1      39.793  28.137  27.390  1.00  0.00     0.029 A 
ATOM     22  C   UNL A   1      40.626  28.042  28.585  1.00  0.00     0.049 A 
ATOM     23  H   UNL A   1      40.321  28.979  30.422  1.00  0.00     0.167 HD
ATOM     24  C   UNL A   1      39.612  31.061  34.191  1.00  0.00     0.034 A 
ATOM     25  C   UNL A   1      41.755  27.316  28.685  1.00  0.00     0.034 A 
ATOM     26  C   UNL A   1      40.771  30.239  34.424  1.00  0.00     0.049 A 
ATOM     27  C   UNL A   1      42.491  27.289  29.993  1.00  0.00     0.074 A 
ATOM     28  C   UNL A   1      41.515  30.111  35.584  1.00  0.00     0.029 A 
ATOM     29  N   UNL A   1      41.355  29.407  33.482  1.00  0.00    -0.354 N 
ATOM     30  N   UNL A   1      42.181  27.872  31.126  1.00  0.00    -0.248 NA
ATOM     31  C   UNL A   1      43.715  26.478  30.048  1.00  0.00     0.031 C 
ATOM     32  C   UNL A   1      42.559  29.213  35.339  1.00  0.00     0.029 A 
ATOM     33  C   UNL A   1      42.453  28.765  34.032  1.00  0.00     0.049 A 
ATOM     34  H   UNL A   1      41.037  29.288  32.559  1.00  0.00     0.167 HD
ATOM     35  C   UNL A   1      43.151  27.476  32.036  1.00  0.00     0.074 A 
ATOM     36  C   UNL A   1      44.046  26.581  31.328  1.00  0.00     0.031 C 
ATOM     37  C   UNL A   1      43.300  27.834  33.334  1.00  0.00     0.034 A 
BRANCH  24  38
ATOM     38  C   UNL A   1      39.137  31.946  35.315  1.00  0.00     0.023 A 
ATOM     39  C   UNL A   1      38.203  31.450  36.247  1.00  0.00     0.012 A 
ATOM     40  C   UNL A   1      39.667  33.239  35.491  1.00  0.00     0.148 A 
ATOM     41  C   UNL A   1      37.782  32.237  37.319  1.00  0.00     0.002 A 
ATOM     42  C   UNL A   1      39.273  34.003  36.586  1.00  0.00     0.091 A 
ATOM     43  F   UNL A   1      40.538  33.705  34.584  1.00  0.00    -0.205 F 
ATOM     44  C   UNL A   1      38.324  33.508  37.494  1.00  0.00     0.022 A 
BRANCH  42  45
ATOM     45  S   UNL A   1      39.974  35.620  36.937  1.00  0.00     0.127 S 
ATOM     46  O   UNL A   1      39.292  35.973  38.182  1.00  0.00    -0.237 OA
ATOM     47  O   UNL A   1      41.398  35.316  37.089  1.00  0.00    -0.237 OA
ATOM     48  O   UNL A   1      39.653  36.453  35.786  1.00  0.00    -0.744 OA
ENDBRANCH  42  45
ENDBRANCH  24  38
BRANCH  25  49
ATOM     49  C   UNL A   1      42.214  26.501  27.525  1.00  0.00     0.023 A 
ATOM     50  C   UNL A   1      43.041  27.089  26.549  1.00  0.00     0.012 A 
ATOM     51  C   UNL A   1      41.875  25.139  27.408  1.00  0.00     0.148 A 
ATOM     52  C   UNL A   1      43.502  26.344  25.464  1.00  0.00     0.002 A 
ATOM     53  C   UNL A   1      42.387  24.386  26.358  1.00  0.00     0.091 A 
ATOM     54  F   UNL A   1      41.073  24.601  28.338  1.00  0.00    -0.205 F 
ATOM     55  C   UNL A   1      43.186  24.991  25.376  1.00  0.00     0.022 A 
BRANCH  53  56
ATOM     56  S   UNL A   1      42.146  22.610  26.251  1.00  0.00     0.127 S 
ATOM     57  O   UNL A   1      42.831  22.290  25.001  1.00  0.00    -0.237 OA
ATOM     58  O   UNL A   1      42.819  22.138  27.461  1.00  0.00    -0.237 OA
ATOM     59  O   UNL A   1      40.702  22.413  26.255  1.00  0.00    -0.744 OA
ENDBRANCH  53  56
ENDBRANCH  25  49
BRANCH  37  60
ATOM     60  C   UNL A   1      44.454  27.230  34.092  1.00  0.00     0.023 A 
ATOM     61  C   UNL A   1      45.720  27.846  34.045  1.00  0.00     0.012 A 
ATOM     62  C   UNL A   1      44.269  26.088  34.893  1.00  0.00     0.148 A 
ATOM     63  C   UNL A   1      46.793  27.313  34.758  1.00  0.00     0.002 A 
ATOM     64  C   UNL A   1      45.332  25.589  35.638  1.00  0.00     0.091 A 
ATOM     65  F   UNL A   1      43.063  25.500  34.907  1.00  0.00    -0.205 F 
ATOM     66  C   UNL A   1      46.597  26.192  35.561  1.00  0.00     0.022 A 
BRANCH  64  67
ATOM     67  S   UNL A   1      45.136  24.207  36.770  1.00  0.00     0.127 S 
ATOM     68  O   UNL A   1      44.188  24.748  37.741  1.00  0.00    -0.237 OA
ATOM     69  O   UNL A   1      44.591  23.163  35.900  1.00  0.00    -0.237 OA
ATOM     70  O   UNL A   1      46.471  23.925  37.280  1.00  0.00    -0.744 OA
ENDBRANCH  64  67
ENDBRANCH  37  60
ENDBRANCH  11  12
ENDBRANCH   4   6
ENDBRANCH   1   2
BRANCH   1  71
ATOM     71  C   UNL A   1      31.644  28.639  25.649  1.00  0.00     0.042 C 
BRANCH  71  72
ATOM     72  C   UNL A   1      31.263  27.933  24.358  1.00  0.00     0.118 C 
BRANCH  72  73
ATOM     73  N   UNL A   1      32.208  28.189  23.279  1.00  0.00    -0.352 N 
ATOM     74  C   UNL A   1      33.307  27.456  22.887  1.00  0.00     0.254 C 
ATOM     75  H   UNL A   1      32.038  29.006  22.755  1.00  0.00     0.163 HD
ATOM     76  O   UNL A   1      34.047  27.849  22.004  1.00  0.00    -0.269 OA
BRANCH  74  77
ATOM     77  C   UNL A   1      33.541  26.157  23.530  1.00  0.00     0.078 A 
ATOM     78  C   UNL A   1      34.096  26.111  24.811  1.00  0.00     0.019 A 
ATOM     79  C   UNL A   1      33.250  24.985  22.850  1.00  0.00     0.173 A 
ATOM     80  C   UNL A   1      34.466  24.884  25.363  1.00  0.00     0.030 A 
ATOM     81  C   UNL A   1      33.603  23.768  23.421  1.00  0.00     0.182 A 
ATOM     82  F   UNL A   1      32.690  25.009  21.632  1.00  0.00    -0.203 F 
ATOM     83  C   UNL A   1      34.260  23.689  24.667  1.00  0.00     0.074 A 
ATOM     84  F   UNL A   1      33.356  22.630  22.747  1.00  0.00    -0.201 F 
BRANCH  83  85
ATOM     85  N   UNL A   1      34.704  22.427  25.109  1.00  0.00    -0.380 N 
ATOM     86  H   UNL A   1      34.099  21.963  25.733  1.00  0.00     0.160 HD
BRANCH  85  87
ATOM     87  C   UNL A   1      35.929  21.705  24.779  1.00  0.00     0.079 C 
ATOM     88  C   UNL A   1      37.028  22.196  23.885  1.00  0.00     0.027 C 
ATOM     89  C   UNL A   1      37.274  22.024  25.361  1.00  0.00     0.027 C 
ENDBRANCH  85  87
ENDBRANCH  83  85
ENDBRANCH  74  77
ENDBRANCH  72  73
ENDBRANCH  71  72
ENDBRANCH   1  71
TORSDOF 15
ENDMDL
MODEL 3
REMARK VINA RESULT:     -11.9      5.218     10.230
REMARK SMILES O=C(NCCCNC(=O)c1ccc(NC2CC2)c(F)c1F)c1ccc(-c2c3nc(c(-c4cccc(S(=O)(=O)[O-])c4F)c4ccc([nH]4)c(-c4cccc(S(=O)(=O)[O-])c4F)c4nc(c(-c5cccc(S(=O)(=O)[O-])c5F)c5ccc2[nH]5)C=C4)C=C3)cc1
REMARK SMILES IDX 4 1 3 2 1 3 2 4 22 6 23 7 84 8 24 9 83 10 25 11 26 12 27 13
REMARK SMILES IDX 77 14 28 15 82 16 76 17 78 18 29 19 81 20 75 21 74 22 30 24
REMARK SMILES IDX 62 25 42 26 61 27 43 28 46 29 60 30 79 31 44 32 45 33 59 35
REMARK SMILES IDX 80 36 47 37 31 38 32 39 40 40 33 41 35 42 41 43 34 44 36 45
REMARK SMILES IDX 37 46 38 47 39 48 63 49 64 50 72 51 65 52 67 53 73 54 66 55
REMARK SMILES IDX 68 56 69 57 70 58 71 59 48 60 49 61 57 62 50 63 52 64 58 65
REMARK SMILES IDX 51 66 53 67 54 68 55 69 56 70 5 71 6 72 7 73 8 74 9 76 10 77
REMARK SMILES IDX 11 78 20 79 12 80 18 81 21 82 13 83 19 84 14 85 15 87 16 88
REMARK SMILES IDX 17 89
REMARK H PARENT 3 5 78 23 46 34 7 75 14 86
REMARK Flexibility Score: inf
ROOT
ATOM      1  C   UNL A   1      37.046  22.128  24.294  1.00  0.00     0.118 C 
ENDROOT
BRANCH   1   2
ATOM      2  N   UNL A   1      37.716  20.983  24.900  1.00  0.00    -0.352 N 
ATOM      3  O   UNL A   1      39.297  19.834  26.009  1.00  0.00    -0.269 OA
ATOM      4  C   UNL A   1      38.794  20.925  25.755  1.00  0.00     0.251 C 
ATOM      5  H   UNL A   1      37.336  20.109  24.657  1.00  0.00     0.163 HD
BRANCH   4   6
ATOM      6  C   UNL A   1      39.364  22.163  26.331  1.00  0.00     0.039 A 
ATOM      7  C   UNL A   1      38.780  23.405  26.085  1.00  0.00     0.014 A 
ATOM      8  C   UNL A   1      40.506  22.083  27.134  1.00  0.00     0.014 A 
ATOM      9  C   UNL A   1      39.446  24.567  26.452  1.00  0.00     0.010 A 
ATOM     10  C   UNL A   1      41.114  23.254  27.602  1.00  0.00     0.010 A 
ATOM     11  C   UNL A   1      40.623  24.510  27.216  1.00  0.00    -0.014 A 
BRANCH  11  12
ATOM     12  C   UNL A   1      41.293  25.779  27.610  1.00  0.00     0.031 A 
ATOM     13  C   UNL A   1      42.689  26.105  27.147  1.00  0.00     0.074 A 
ATOM     14  C   UNL A   1      40.613  26.666  28.366  1.00  0.00     0.049 A 
ATOM     15  N   UNL A   1      43.382  27.200  27.338  1.00  0.00    -0.248 NA
ATOM     16  C   UNL A   1      43.409  25.073  26.384  1.00  0.00     0.031 C 
ATOM     17  C   UNL A   1      39.273  26.447  28.917  1.00  0.00     0.029 A 
ATOM     18  N   UNL A   1      40.943  27.928  28.789  1.00  0.00    -0.354 N 
ATOM     19  C   UNL A   1      44.629  26.972  26.766  1.00  0.00     0.074 A 
ATOM     20  C   UNL A   1      44.603  25.630  26.226  1.00  0.00     0.031 C 
ATOM     21  C   UNL A   1      38.876  27.552  29.562  1.00  0.00     0.029 A 
ATOM     22  C   UNL A   1      39.949  28.540  29.517  1.00  0.00     0.049 A 
ATOM     23  H   UNL A   1      41.807  28.354  28.591  1.00  0.00     0.167 HD
ATOM     24  C   UNL A   1      45.693  27.808  26.680  1.00  0.00     0.034 A 
ATOM     25  C   UNL A   1      39.902  29.759  30.087  1.00  0.00     0.034 A 
ATOM     26  C   UNL A   1      45.697  29.163  27.169  1.00  0.00     0.049 A 
ATOM     27  C   UNL A   1      41.074  30.684  29.927  1.00  0.00     0.074 A 
ATOM     28  C   UNL A   1      46.700  30.111  27.063  1.00  0.00     0.029 A 
ATOM     29  N   UNL A   1      44.653  29.762  27.855  1.00  0.00    -0.354 N 
ATOM     30  N   UNL A   1      42.190  30.494  29.265  1.00  0.00    -0.248 NA
ATOM     31  C   UNL A   1      40.969  32.002  30.566  1.00  0.00     0.031 C 
ATOM     32  C   UNL A   1      46.267  31.280  27.699  1.00  0.00     0.029 A 
ATOM     33  C   UNL A   1      44.986  31.066  28.183  1.00  0.00     0.049 A 
ATOM     34  H   UNL A   1      43.798  29.326  28.075  1.00  0.00     0.167 HD
ATOM     35  C   UNL A   1      42.906  31.678  29.380  1.00  0.00     0.074 A 
ATOM     36  C   UNL A   1      42.086  32.587  30.155  1.00  0.00     0.031 C 
ATOM     37  C   UNL A   1      44.139  31.979  28.904  1.00  0.00     0.034 A 
BRANCH  24  38
ATOM     38  C   UNL A   1      46.936  27.301  25.997  1.00  0.00     0.023 A 
ATOM     39  C   UNL A   1      47.102  27.502  24.612  1.00  0.00     0.012 A 
ATOM     40  C   UNL A   1      47.970  26.691  26.735  1.00  0.00     0.148 A 
ATOM     41  C   UNL A   1      48.264  27.077  23.966  1.00  0.00     0.002 A 
ATOM     42  C   UNL A   1      49.143  26.307  26.091  1.00  0.00     0.091 A 
ATOM     43  F   UNL A   1      47.788  26.487  28.047  1.00  0.00    -0.205 F 
ATOM     44  C   UNL A   1      49.287  26.491  24.707  1.00  0.00     0.022 A 
BRANCH  42  45
ATOM     45  S   UNL A   1      50.546  25.614  26.974  1.00  0.00     0.127 S 
ATOM     46  O   UNL A   1      49.941  24.453  27.625  1.00  0.00    -0.237 OA
ATOM     47  O   UNL A   1      51.469  25.289  25.885  1.00  0.00    -0.237 OA
ATOM     48  O   UNL A   1      51.013  26.665  27.869  1.00  0.00    -0.744 OA
ENDBRANCH  42  45
ENDBRANCH  24  38
BRANCH  25  49
ATOM     49  C   UNL A   1      38.669  30.193  30.801  1.00  0.00     0.023 A 
ATOM     50  C   UNL A   1      38.531  29.917  32.175  1.00  0.00     0.012 A 
ATOM     51  C   UNL A   1      37.657  30.916  30.140  1.00  0.00     0.148 A 
ATOM     52  C   UNL A   1      37.396  30.331  32.873  1.00  0.00     0.002 A 
ATOM     53  C   UNL A   1      36.557  31.377  30.854  1.00  0.00     0.091 A 
ATOM     54  F   UNL A   1      37.798  31.154  28.829  1.00  0.00    -0.205 F 
ATOM     55  C   UNL A   1      36.417  31.071  32.217  1.00  0.00     0.022 A 
BRANCH  53  56
ATOM     56  S   UNL A   1      35.326  32.457  30.118  1.00  0.00     0.127 S 
ATOM     57  O   UNL A   1      34.405  32.665  31.233  1.00  0.00    -0.237 OA
ATOM     58  O   UNL A   1      36.126  33.627  29.752  1.00  0.00    -0.237 OA
ATOM     59  O   UNL A   1      34.793  31.719  28.981  1.00  0.00    -0.744 OA
ENDBRANCH  53  56
ENDBRANCH  25  49
BRANCH  37  60
ATOM     60  C   UNL A   1      44.667  33.363  29.174  1.00  0.00     0.023 A 
ATOM     61  C   UNL A   1      45.332  33.634  30.387  1.00  0.00     0.012 A 
ATOM     62  C   UNL A   1      44.555  34.378  28.205  1.00  0.00     0.148 A 
ATOM     63  C   UNL A   1      45.846  34.904  30.644  1.00  0.00     0.002 A 
ATOM     64  C   UNL A   1      45.111  35.628  28.449  1.00  0.00     0.091 A 
ATOM     65  F   UNL A   1      43.898  34.109  27.066  1.00  0.00    -0.205 F 
ATOM     66  C   UNL A   1      45.745  35.897  29.672  1.00  0.00     0.022 A 
BRANCH  64  67
ATOM     67  S   UNL A   1      45.106  36.930  27.211  1.00  0.00     0.127 S 
ATOM     68  O   UNL A   1      45.937  36.346  26.159  1.00  0.00    -0.237 OA
ATOM     69  O   UNL A   1      43.686  37.041  26.876  1.00  0.00    -0.237 OA
ATOM     70  O   UNL A   1      45.659  38.105  27.872  1.00  0.00    -0.744 OA
ENDBRANCH  64  67
ENDBRANCH  37  60
ENDBRANCH  11  12
ENDBRANCH   4   6
ENDBRANCH   1   2
BRANCH   1  71
ATOM     71  C   UNL A   1      35.545  22.142  24.549  1.00  0.00     0.042 C 
BRANCH  71  72
ATOM     72  C   UNL A   1      35.129  21.403  25.810  1.00  0.00     0.118 C 
BRANCH  72  73
ATOM     73  N   UNL A   1      34.183  20.327  25.543  1.00  0.00    -0.352 N 
ATOM     74  C   UNL A   1      32.817  20.386  25.379  1.00  0.00     0.254 C 
ATOM     75  H   UNL A   1      34.578  19.427  25.470  1.00  0.00     0.163 HD
ATOM     76  O   UNL A   1      32.153  19.376  25.235  1.00  0.00    -0.269 OA
BRANCH  74  77
ATOM     77  C   UNL A   1      32.178  21.707  25.335  1.00  0.00     0.078 A 
ATOM     78  C   UNL A   1      31.885  22.373  26.528  1.00  0.00     0.019 A 
ATOM     79  C   UNL A   1      31.832  22.269  24.116  1.00  0.00     0.173 A 
ATOM     80  C   UNL A   1      31.139  23.552  26.500  1.00  0.00     0.030 A 
ATOM     81  C   UNL A   1      31.109  23.456  24.102  1.00  0.00     0.182 A 
ATOM     82  F   UNL A   1      32.131  21.660  22.961  1.00  0.00    -0.203 F 
ATOM     83  C   UNL A   1      30.706  24.101  25.290  1.00  0.00     0.074 A 
ATOM     84  F   UNL A   1      30.739  23.985  22.921  1.00  0.00    -0.201 F 
BRANCH  83  85
ATOM     85  N   UNL A   1      29.860  25.224  25.187  1.00  0.00    -0.380 N 
ATOM     86  H   UNL A   1      28.896  25.032  25.248  1.00  0.00     0.160 HD
BRANCH  85  87
ATOM     87  C   UNL A   1      30.203  26.631  25.000  1.00  0.00     0.079 C 
ATOM     88  C   UNL A   1      31.475  27.158  24.407  1.00  0.00     0.027 C 
ATOM     89  C   UNL A   1      30.170  27.336  23.677  1.00  0.00     0.027 C 
ENDBRANCH  85  87
ENDBRANCH  83  85
ENDBRANCH  74  77
ENDBRANCH  72  73
ENDBRANCH  71  72
ENDBRANCH   1  71
TORSDOF 15
ENDMDL
