MODEL 1
REMARK VINA RESULT:     -12.6      0.000      0.000
REMARK SMILES CC1(C)[C@@H](C(=O)NCCCNC(=O)c2ccc(-c3c4nc(c(-c5cccc(S(=O)(=O)[O-])c5F)c5ccc([nH]5)c(-c5cccc(S(=O)(=O)[O-])c5F)c5nc(c(-c6cccc(S(=O)(=O)[O-])c6F)c6ccc3[nH]6)C=C5)C=C4)cc2)CC[C@@]1(C)C(N)=O
REMARK SMILES IDX 10 1 9 2 8 3 7 4 5 5 6 6 4 8 1 9 2 10 3 11 79 12 77 13 78 14
REMARK SMILES IDX 80 15 81 16 82 17 83 18 11 21 12 22 13 24 14 25 15 26 76 27
REMARK SMILES IDX 16 28 75 29 17 30 18 31 19 32 69 33 20 34 74 35 68 36 70 37
REMARK SMILES IDX 21 38 73 39 67 40 66 41 22 43 54 44 34 45 53 46 35 47 38 48
REMARK SMILES IDX 52 49 71 50 36 51 37 52 51 54 72 55 39 56 23 57 24 58 32 59
REMARK SMILES IDX 25 60 27 61 33 62 26 63 28 64 29 65 30 66 31 67 55 68 56 69
REMARK SMILES IDX 64 70 57 71 59 72 65 73 58 74 60 75 61 76 62 77 63 78 40 79
REMARK SMILES IDX 41 80 49 81 42 82 44 83 50 84 43 85 45 86 46 87 47 88 48 89
REMARK H PARENT 7 7 82 19 82 20 11 23 70 42 38 53
REMARK Flexibility Score: inf
ROOT
ATOM      1  C   UNL A   1      37.638  21.363  24.983  1.00  0.00     0.118 C 
ENDROOT
BRANCH   1   2
ATOM      2  C   UNL A   1      36.243  21.142  25.559  1.00  0.00     0.042 C 
BRANCH   2   3
ATOM      3  C   UNL A   1      35.412  20.078  24.860  1.00  0.00     0.117 C 
BRANCH   3   4
ATOM      4  N   UNL A   1      34.023  20.061  25.281  1.00  0.00    -0.356 N 
ATOM      5  C   UNL A   1      32.998  20.897  24.946  1.00  0.00     0.223 C 
ATOM      6  O   UNL A   1      31.862  20.539  25.251  1.00  0.00    -0.275 OA
ATOM      7  H   UNL A   1      33.783  19.336  25.903  1.00  0.00     0.163 HD
BRANCH   5   8
ATOM      8  C   UNL A   1      33.301  22.177  24.162  1.00  0.00     0.085 C 
ATOM      9  C   UNL A   1      33.897  23.524  26.287  1.00  0.00     0.013 C 
ATOM     10  C   UNL A   1      33.171  23.535  24.929  1.00  0.00    -0.010 C 
ATOM     11  C   UNL A   1      33.936  24.617  24.103  1.00  0.00     0.013 C 
ATOM     12  C   UNL A   1      31.600  23.807  24.949  1.00  0.00     0.052 C 
ATOM     13  C   UNL A   1      32.257  22.330  23.055  1.00  0.00     0.015 C 
ATOM     14  C   UNL A   1      31.060  22.951  23.762  1.00  0.00     0.018 C 
ATOM     15  C   UNL A   1      31.218  25.285  24.711  1.00  0.00     0.022 C 
BRANCH  12  16
ATOM     16  C   UNL A   1      30.898  23.474  26.294  1.00  0.00     0.223 C 
ATOM     17  N   UNL A   1      30.036  22.416  26.315  1.00  0.00    -0.369 N 
ATOM     18  O   UNL A   1      30.913  24.208  27.280  1.00  0.00    -0.275 OA
ATOM     19  H   UNL A   1      29.992  21.802  25.547  1.00  0.00     0.159 HD
ATOM     20  H   UNL A   1      29.458  22.267  27.097  1.00  0.00     0.159 HD
ENDBRANCH  12  16
ENDBRANCH   5   8
ENDBRANCH   3   4
ENDBRANCH   2   3
ENDBRANCH   1   2
BRANCH   1  21
ATOM     21  N   UNL A   1      38.617  20.371  25.415  1.00  0.00    -0.352 N 
ATOM     22  C   UNL A   1      39.759  20.515  26.168  1.00  0.00     0.251 C 
ATOM     23  H   UNL A   1      38.431  19.451  25.118  1.00  0.00     0.163 HD
ATOM     24  O   UNL A   1      40.505  19.552  26.326  1.00  0.00    -0.269 OA
BRANCH  22  25
ATOM     25  C   UNL A   1      40.115  21.828  26.751  1.00  0.00     0.039 A 
ATOM     26  C   UNL A   1      41.056  21.872  27.785  1.00  0.00     0.014 A 
ATOM     27  C   UNL A   1      39.550  23.012  26.273  1.00  0.00     0.014 A 
ATOM     28  C   UNL A   1      41.511  23.106  28.258  1.00  0.00     0.010 A 
ATOM     29  C   UNL A   1      40.062  24.238  26.688  1.00  0.00     0.010 A 
ATOM     30  C   UNL A   1      41.062  24.300  27.670  1.00  0.00    -0.014 A 
BRANCH  30  31
ATOM     31  C   UNL A   1      41.676  25.611  28.006  1.00  0.00     0.031 A 
ATOM     32  C   UNL A   1      40.871  26.689  28.678  1.00  0.00     0.074 A 
ATOM     33  C   UNL A   1      42.928  25.878  27.578  1.00  0.00     0.049 A 
ATOM     34  N   UNL A   1      41.213  27.921  28.953  1.00  0.00    -0.248 NA
ATOM     35  C   UNL A   1      39.492  26.350  29.066  1.00  0.00     0.031 C 
ATOM     36  C   UNL A   1      43.780  24.953  26.825  1.00  0.00     0.029 A 
ATOM     37  N   UNL A   1      43.687  27.020  27.673  1.00  0.00    -0.354 N 
ATOM     38  C   UNL A   1      40.085  28.518  29.502  1.00  0.00     0.074 A 
ATOM     39  C   UNL A   1      39.040  27.517  29.508  1.00  0.00     0.031 C 
ATOM     40  C   UNL A   1      44.933  25.567  26.516  1.00  0.00     0.029 A 
ATOM     41  C   UNL A   1      44.895  26.936  27.018  1.00  0.00     0.049 A 
ATOM     42  H   UNL A   1      43.396  27.821  28.165  1.00  0.00     0.167 HD
ATOM     43  C   UNL A   1      39.941  29.776  29.980  1.00  0.00     0.034 A 
ATOM     44  C   UNL A   1      45.857  27.859  26.822  1.00  0.00     0.034 A 
ATOM     45  C   UNL A   1      41.000  30.747  30.034  1.00  0.00     0.049 A 
ATOM     46  C   UNL A   1      45.687  29.233  27.412  1.00  0.00     0.074 A 
ATOM     47  C   UNL A   1      40.992  31.992  30.640  1.00  0.00     0.029 A 
ATOM     48  N   UNL A   1      42.246  30.594  29.450  1.00  0.00    -0.354 N 
ATOM     49  N   UNL A   1      44.691  29.707  28.120  1.00  0.00    -0.248 NA
ATOM     50  C   UNL A   1      46.784  30.189  27.204  1.00  0.00     0.031 C 
ATOM     51  C   UNL A   1      42.228  32.602  30.399  1.00  0.00     0.029 A 
ATOM     52  C   UNL A   1      43.008  31.732  29.655  1.00  0.00     0.049 A 
ATOM     53  H   UNL A   1      42.547  29.794  28.960  1.00  0.00     0.167 HD
ATOM     54  C   UNL A   1      45.047  31.008  28.456  1.00  0.00     0.074 A 
ATOM     55  C   UNL A   1      46.366  31.236  27.903  1.00  0.00     0.031 C 
ATOM     56  C   UNL A   1      44.336  31.936  29.140  1.00  0.00     0.034 A 
BRANCH  43  57
ATOM     57  C   UNL A   1      38.605  30.166  30.551  1.00  0.00     0.023 A 
ATOM     58  C   UNL A   1      38.314  29.869  31.898  1.00  0.00     0.012 A 
ATOM     59  C   UNL A   1      37.679  30.905  29.789  1.00  0.00     0.148 A 
ATOM     60  C   UNL A   1      37.114  30.284  32.473  1.00  0.00     0.002 A 
ATOM     61  C   UNL A   1      36.501  31.347  30.379  1.00  0.00     0.091 A 
ATOM     62  F   UNL A   1      37.966  31.158  28.504  1.00  0.00    -0.205 F 
ATOM     63  C   UNL A   1      36.214  31.032  31.717  1.00  0.00     0.022 A 
BRANCH  61  64
ATOM     64  S   UNL A   1      35.310  32.378  29.515  1.00  0.00     0.127 S 
ATOM     65  O   UNL A   1      34.831  31.467  28.476  1.00  0.00    -0.237 OA
ATOM     66  O   UNL A   1      34.335  32.669  30.567  1.00  0.00    -0.237 OA
ATOM     67  O   UNL A   1      36.053  33.535  29.037  1.00  0.00    -0.744 OA
ENDBRANCH  61  64
ENDBRANCH  43  57
BRANCH  44  68
ATOM     68  C   UNL A   1      47.090  27.499  26.065  1.00  0.00     0.023 A 
ATOM     69  C   UNL A   1      48.140  26.840  26.730  1.00  0.00     0.012 A 
ATOM     70  C   UNL A   1      47.214  27.777  24.690  1.00  0.00     0.148 A 
ATOM     71  C   UNL A   1      49.304  26.486  26.045  1.00  0.00     0.002 A 
ATOM     72  C   UNL A   1      48.351  27.372  24.002  1.00  0.00     0.091 A 
ATOM     73  F   UNL A   1      46.212  28.425  24.076  1.00  0.00    -0.205 F 
ATOM     74  C   UNL A   1      49.406  26.742  24.680  1.00  0.00     0.022 A 
BRANCH  72  75
ATOM     75  S   UNL A   1      48.490  27.535  22.218  1.00  0.00     0.127 S 
ATOM     76  O   UNL A   1      49.687  28.359  22.083  1.00  0.00    -0.237 OA
ATOM     77  O   UNL A   1      48.648  26.144  21.790  1.00  0.00    -0.237 OA
ATOM     78  O   UNL A   1      47.238  28.146  21.790  1.00  0.00    -0.744 OA
ENDBRANCH  72  75
ENDBRANCH  44  68
BRANCH  56  79
ATOM     79  C   UNL A   1      44.960  33.292  29.333  1.00  0.00     0.023 A 
ATOM     80  C   UNL A   1      45.760  33.527  30.468  1.00  0.00     0.012 A 
ATOM     81  C   UNL A   1      44.828  34.299  28.359  1.00  0.00     0.148 A 
ATOM     82  C   UNL A   1      46.401  34.753  30.643  1.00  0.00     0.002 A 
ATOM     83  C   UNL A   1      45.504  35.503  28.517  1.00  0.00     0.091 A 
ATOM     84  F   UNL A   1      44.048  34.061  27.295  1.00  0.00    -0.205 F 
ATOM     85  C   UNL A   1      46.283  35.735  29.663  1.00  0.00     0.022 A 
BRANCH  83  86
ATOM     86  S   UNL A   1      45.484  36.794  27.267  1.00  0.00     0.127 S 
ATOM     87  O   UNL A   1      46.289  37.836  27.901  1.00  0.00    -0.237 OA
ATOM     88  O   UNL A   1      46.125  36.135  26.129  1.00  0.00    -0.237 OA
ATOM     89  O   UNL A   1      44.081  37.129  27.060  1.00  0.00    -0.744 OA
ENDBRANCH  83  86
ENDBRANCH  56  79
ENDBRANCH  30  31
ENDBRANCH  22  25
ENDBRANCH   1  21
TORSDOF 14
ENDMDL
MODEL 2
REMARK VINA RESULT:     -12.4      6.265     11.269
REMARK SMILES CC1(C)[C@@H](C(=O)NCCCNC(=O)c2ccc(-c3c4nc(c(-c5cccc(S(=O)(=O)[O-])c5F)c5ccc([nH]5)c(-c5cccc(S(=O)(=O)[O-])c5F)c5nc(c(-c6cccc(S(=O)(=O)[O-])c6F)c6ccc3[nH]6)C=C5)C=C4)cc2)CC[C@@]1(C)C(N)=O
REMARK SMILES IDX 10 1 9 2 8 3 7 4 5 5 6 6 4 8 1 9 2 10 3 11 79 12 77 13 78 14
REMARK SMILES IDX 80 15 81 16 82 17 83 18 11 21 12 22 13 24 14 25 15 26 76 27
REMARK SMILES IDX 16 28 75 29 17 30 18 31 19 32 69 33 20 34 74 35 68 36 70 37
REMARK SMILES IDX 21 38 73 39 67 40 66 41 22 43 54 44 34 45 53 46 35 47 38 48
REMARK SMILES IDX 52 49 71 50 36 51 37 52 51 54 72 55 39 56 23 57 24 58 32 59
REMARK SMILES IDX 25 60 27 61 33 62 26 63 28 64 29 65 30 66 31 67 55 68 56 69
REMARK SMILES IDX 64 70 57 71 59 72 65 73 58 74 60 75 61 76 62 77 63 78 40 79
REMARK SMILES IDX 41 80 49 81 42 82 44 83 50 84 43 85 45 86 46 87 47 88 48 89
REMARK H PARENT 7 7 82 19 82 20 11 23 70 42 38 53
REMARK Flexibility Score: inf
ROOT
ATOM      1  C   UNL A   1      33.038  32.084  27.370  1.00  0.00     0.118 C 
ENDROOT
BRANCH   1   2
ATOM      2  C   UNL A   1      31.983  31.226  26.677  1.00  0.00     0.042 C 
BRANCH   2   3
ATOM      3  C   UNL A   1      32.509  29.970  26.001  1.00  0.00     0.117 C 
BRANCH   3   4
ATOM      4  N   UNL A   1      31.867  29.685  24.731  1.00  0.00    -0.356 N 
ATOM      5  C   UNL A   1      31.269  28.541  24.290  1.00  0.00     0.223 C 
ATOM      6  O   UNL A   1      30.595  28.621  23.266  1.00  0.00    -0.275 OA
ATOM      7  H   UNL A   1      31.863  30.432  24.088  1.00  0.00     0.163 HD
BRANCH   5   8
ATOM      8  C   UNL A   1      31.406  27.258  25.116  1.00  0.00     0.085 C 
ATOM      9  C   UNL A   1      33.917  26.985  24.563  1.00  0.00     0.013 C 
ATOM     10  C   UNL A   1      32.559  26.276  24.726  1.00  0.00    -0.010 C 
ATOM     11  C   UNL A   1      32.784  25.311  25.934  1.00  0.00     0.013 C 
ATOM     12  C   UNL A   1      31.986  25.506  23.453  1.00  0.00     0.052 C 
ATOM     13  C   UNL A   1      30.161  26.399  24.893  1.00  0.00     0.015 C 
ATOM     14  C   UNL A   1      30.441  25.680  23.581  1.00  0.00     0.018 C 
ATOM     15  C   UNL A   1      32.318  23.998  23.432  1.00  0.00     0.022 C 
BRANCH  12  16
ATOM     16  C   UNL A   1      32.533  26.007  22.089  1.00  0.00     0.223 C 
ATOM     17  N   UNL A   1      31.688  26.721  21.289  1.00  0.00    -0.369 N 
ATOM     18  O   UNL A   1      33.598  25.641  21.596  1.00  0.00    -0.275 OA
ATOM     19  H   UNL A   1      30.824  27.035  21.643  1.00  0.00     0.159 HD
ATOM     20  H   UNL A   1      31.940  26.922  20.360  1.00  0.00     0.159 HD
ENDBRANCH  12  16
ENDBRANCH   5   8
ENDBRANCH   3   4
ENDBRANCH   2   3
ENDBRANCH   1   2
BRANCH   1  21
ATOM     21  N   UNL A   1      32.613  33.459  27.611  1.00  0.00    -0.352 N 
ATOM     22  C   UNL A   1      33.105  34.403  28.481  1.00  0.00     0.251 C 
ATOM     23  H   UNL A   1      31.851  33.757  27.064  1.00  0.00     0.163 HD
ATOM     24  O   UNL A   1      32.522  35.478  28.600  1.00  0.00    -0.269 OA
BRANCH  22  25
ATOM     25  C   UNL A   1      34.303  34.118  29.303  1.00  0.00     0.039 A 
ATOM     26  C   UNL A   1      34.135  33.484  30.538  1.00  0.00     0.014 A 
ATOM     27  C   UNL A   1      35.585  34.445  28.856  1.00  0.00     0.014 A 
ATOM     28  C   UNL A   1      35.256  33.080  31.270  1.00  0.00     0.010 A 
ATOM     29  C   UNL A   1      36.698  33.971  29.545  1.00  0.00     0.010 A 
ATOM     30  C   UNL A   1      36.547  33.267  30.749  1.00  0.00    -0.014 A 
BRANCH  30  31
ATOM     31  C   UNL A   1      37.741  32.667  31.400  1.00  0.00     0.031 A 
ATOM     32  C   UNL A   1      38.456  31.502  30.773  1.00  0.00     0.074 A 
ATOM     33  C   UNL A   1      38.099  33.090  32.631  1.00  0.00     0.049 A 
ATOM     34  N   UNL A   1      39.448  30.794  31.247  1.00  0.00    -0.248 NA
ATOM     35  C   UNL A   1      37.977  31.054  29.455  1.00  0.00     0.031 C 
ATOM     36  C   UNL A   1      37.424  34.144  33.393  1.00  0.00     0.029 A 
ATOM     37  N   UNL A   1      39.089  32.654  33.479  1.00  0.00    -0.354 N 
ATOM     38  C   UNL A   1      39.683  29.792  30.314  1.00  0.00     0.074 A 
ATOM     39  C   UNL A   1      38.718  29.974  29.250  1.00  0.00     0.031 C 
ATOM     40  C   UNL A   1      38.008  34.263  34.596  1.00  0.00     0.029 A 
ATOM     41  C   UNL A   1      39.078  33.276  34.707  1.00  0.00     0.049 A 
ATOM     42  H   UNL A   1      39.746  31.964  33.231  1.00  0.00     0.167 HD
ATOM     43  C   UNL A   1      40.630  28.826  30.329  1.00  0.00     0.034 A 
ATOM     44  C   UNL A   1      39.825  33.066  35.808  1.00  0.00     0.034 A 
ATOM     45  C   UNL A   1      41.629  28.689  31.354  1.00  0.00     0.049 A 
ATOM     46  C   UNL A   1      40.905  32.018  35.773  1.00  0.00     0.074 A 
ATOM     47  C   UNL A   1      42.722  27.840  31.379  1.00  0.00     0.029 A 
ATOM     48  N   UNL A   1      41.650  29.403  32.541  1.00  0.00    -0.354 N 
ATOM     49  N   UNL A   1      41.250  31.224  34.789  1.00  0.00    -0.248 NA
ATOM     50  C   UNL A   1      41.719  31.859  36.986  1.00  0.00     0.031 C 
ATOM     51  C   UNL A   1      43.391  28.024  32.594  1.00  0.00     0.029 A 
ATOM     52  C   UNL A   1      42.721  28.996  33.319  1.00  0.00     0.049 A 
ATOM     53  H   UNL A   1      41.000  30.097  32.794  1.00  0.00     0.167 HD
ATOM     54  C   UNL A   1      42.329  30.484  35.257  1.00  0.00     0.074 A 
ATOM     55  C   UNL A   1      42.603  30.947  36.601  1.00  0.00     0.031 C 
ATOM     56  C   UNL A   1      43.015  29.493  34.637  1.00  0.00     0.034 A 
BRANCH  43  57
ATOM     57  C   UNL A   1      40.685  27.871  29.168  1.00  0.00     0.023 A 
ATOM     58  C   UNL A   1      39.779  26.792  29.116  1.00  0.00     0.012 A 
ATOM     59  C   UNL A   1      41.561  28.093  28.087  1.00  0.00     0.148 A 
ATOM     60  C   UNL A   1      39.758  25.935  28.017  1.00  0.00     0.002 A 
ATOM     61  C   UNL A   1      41.509  27.256  26.979  1.00  0.00     0.091 A 
ATOM     62  F   UNL A   1      42.428  29.112  28.166  1.00  0.00    -0.205 F 
ATOM     63  C   UNL A   1      40.614  26.174  26.944  1.00  0.00     0.022 A 
BRANCH  61  64
ATOM     64  S   UNL A   1      42.518  27.521  25.515  1.00  0.00     0.127 S 
ATOM     65  O   UNL A   1      43.866  27.515  26.082  1.00  0.00    -0.237 OA
ATOM     66  O   UNL A   1      42.194  26.348  24.702  1.00  0.00    -0.237 OA
ATOM     67  O   UNL A   1      42.082  28.791  24.952  1.00  0.00    -0.744 OA
ENDBRANCH  61  64
ENDBRANCH  43  57
BRANCH  44  68
ATOM     68  C   UNL A   1      39.605  33.896  37.026  1.00  0.00     0.023 A 
ATOM     69  C   UNL A   1      40.000  35.247  37.021  1.00  0.00     0.012 A 
ATOM     70  C   UNL A   1      38.981  33.368  38.172  1.00  0.00     0.148 A 
ATOM     71  C   UNL A   1      39.802  36.050  38.146  1.00  0.00     0.002 A 
ATOM     72  C   UNL A   1      38.735  34.187  39.268  1.00  0.00     0.091 A 
ATOM     73  F   UNL A   1      38.629  32.073  38.168  1.00  0.00    -0.205 F 
ATOM     74  C   UNL A   1      39.161  35.524  39.264  1.00  0.00     0.022 A 
BRANCH  72  75
ATOM     75  S   UNL A   1      37.785  33.620  40.683  1.00  0.00     0.127 S 
ATOM     76  O   UNL A   1      37.639  34.848  41.459  1.00  0.00    -0.237 OA
ATOM     77  O   UNL A   1      36.553  33.137  40.056  1.00  0.00    -0.237 OA
ATOM     78  O   UNL A   1      38.591  32.569  41.291  1.00  0.00    -0.744 OA
ENDBRANCH  72  75
ENDBRANCH  44  68
BRANCH  56  79
ATOM     79  C   UNL A   1      44.131  28.832  35.400  1.00  0.00     0.023 A 
ATOM     80  C   UNL A   1      45.432  29.365  35.317  1.00  0.00     0.012 A 
ATOM     81  C   UNL A   1      43.882  27.746  36.260  1.00  0.00     0.148 A 
ATOM     82  C   UNL A   1      46.474  28.812  36.060  1.00  0.00     0.002 A 
ATOM     83  C   UNL A   1      44.915  27.228  37.032  1.00  0.00     0.091 A 
ATOM     84  F   UNL A   1      42.640  27.243  36.312  1.00  0.00    -0.205 F 
ATOM     85  C   UNL A   1      46.214  27.753  36.926  1.00  0.00     0.022 A 
BRANCH  83  86
ATOM     86  S   UNL A   1      44.658  25.922  38.239  1.00  0.00     0.127 S 
ATOM     87  O   UNL A   1      43.665  26.527  39.126  1.00  0.00    -0.237 OA
ATOM     88  O   UNL A   1      44.149  24.828  37.410  1.00  0.00    -0.237 OA
ATOM     89  O   UNL A   1      45.960  25.669  38.840  1.00  0.00    -0.744 OA
ENDBRANCH  83  86
ENDBRANCH  56  79
ENDBRANCH  30  31
ENDBRANCH  22  25
ENDBRANCH   1  21
TORSDOF 14
ENDMDL
MODEL 3
REMARK VINA RESULT:     -12.3      1.445      1.646
REMARK SMILES CC1(C)[C@@H](C(=O)NCCCNC(=O)c2ccc(-c3c4nc(c(-c5cccc(S(=O)(=O)[O-])c5F)c5ccc([nH]5)c(-c5cccc(S(=O)(=O)[O-])c5F)c5nc(c(-c6cccc(S(=O)(=O)[O-])c6F)c6ccc3[nH]6)C=C5)C=C4)cc2)CC[C@@]1(C)C(N)=O
REMARK SMILES IDX 10 1 9 2 8 3 7 4 5 5 6 6 4 8 1 9 2 10 3 11 79 12 77 13 78 14
REMARK SMILES IDX 80 15 81 16 82 17 83 18 11 21 12 22 13 24 14 25 15 26 76 27
REMARK SMILES IDX 16 28 75 29 17 30 18 31 19 32 69 33 20 34 74 35 68 36 70 37
REMARK SMILES IDX 21 38 73 39 67 40 66 41 22 43 54 44 34 45 53 46 35 47 38 48
REMARK SMILES IDX 52 49 71 50 36 51 37 52 51 54 72 55 39 56 23 57 24 58 32 59
REMARK SMILES IDX 25 60 27 61 33 62 26 63 28 64 29 65 30 66 31 67 55 68 56 69
REMARK SMILES IDX 64 70 57 71 59 72 65 73 58 74 60 75 61 76 62 77 63 78 40 79
REMARK SMILES IDX 41 80 49 81 42 82 44 83 50 84 43 85 45 86 46 87 47 88 48 89
REMARK H PARENT 7 7 82 19 82 20 11 23 70 42 38 53
REMARK Flexibility Score: inf
ROOT
ATOM      1  C   UNL A   1      37.284  21.231  24.805  1.00  0.00     0.118 C 
ENDROOT
BRANCH   1   2
ATOM      2  C   UNL A   1      35.848  20.879  25.182  1.00  0.00     0.042 C 
BRANCH   2   3
ATOM      3  C   UNL A   1      35.153  21.875  26.097  1.00  0.00     0.117 C 
BRANCH   3   4
ATOM      4  N   UNL A   1      33.719  21.669  26.192  1.00  0.00    -0.356 N 
ATOM      5  C   UNL A   1      32.718  22.107  25.377  1.00  0.00     0.223 C 
ATOM      6  O   UNL A   1      31.606  21.609  25.539  1.00  0.00    -0.275 OA
ATOM      7  H   UNL A   1      33.424  21.132  26.963  1.00  0.00     0.163 HD
BRANCH   5   8
ATOM      8  C   UNL A   1      33.037  23.124  24.276  1.00  0.00     0.085 C 
ATOM      9  C   UNL A   1      33.530  25.024  25.959  1.00  0.00     0.013 C 
ATOM     10  C   UNL A   1      32.859  24.638  24.626  1.00  0.00    -0.010 C 
ATOM     11  C   UNL A   1      33.646  25.463  23.559  1.00  0.00     0.013 C 
ATOM     12  C   UNL A   1      31.286  24.869  24.512  1.00  0.00     0.052 C 
ATOM     13  C   UNL A   1      32.038  22.936  23.134  1.00  0.00     0.015 C 
ATOM     14  C   UNL A   1      30.805  23.703  23.595  1.00  0.00     0.018 C 
ATOM     15  C   UNL A   1      30.897  26.212  23.856  1.00  0.00     0.022 C 
BRANCH  12  16
ATOM     16  C   UNL A   1      30.534  24.909  25.871  1.00  0.00     0.223 C 
ATOM     17  N   UNL A   1      29.903  23.771  26.281  1.00  0.00    -0.369 N 
ATOM     18  O   UNL A   1      30.302  25.940  26.501  1.00  0.00    -0.275 OA
ATOM     19  H   UNL A   1      30.061  22.923  25.806  1.00  0.00     0.159 HD
ATOM     20  H   UNL A   1      29.291  23.796  27.051  1.00  0.00     0.159 HD
ENDBRANCH  12  16
ENDBRANCH   5   8
ENDBRANCH   3   4
ENDBRANCH   2   3
ENDBRANCH   1   2
BRANCH   1  21
ATOM     21  N   UNL A   1      38.259  20.214  25.182  1.00  0.00    -0.352 N 
ATOM     22  C   UNL A   1      39.425  20.322  25.903  1.00  0.00     0.251 C 
ATOM     23  H   UNL A   1      38.048  19.305  24.870  1.00  0.00     0.163 HD
ATOM     24  O   UNL A   1      40.160  19.344  26.015  1.00  0.00    -0.269 OA
BRANCH  22  25
ATOM     25  C   UNL A   1      39.821  21.615  26.505  1.00  0.00     0.039 A 
ATOM     26  C   UNL A   1      40.798  21.620  27.505  1.00  0.00     0.014 A 
ATOM     27  C   UNL A   1      39.256  22.818  26.076  1.00  0.00     0.014 A 
ATOM     28  C   UNL A   1      41.288  22.835  27.992  1.00  0.00     0.010 A 
ATOM     29  C   UNL A   1      39.801  24.027  26.502  1.00  0.00     0.010 A 
ATOM     30  C   UNL A   1      40.836  24.050  27.450  1.00  0.00    -0.014 A 
BRANCH  30  31
ATOM     31  C   UNL A   1      41.481  25.343  27.796  1.00  0.00     0.031 A 
ATOM     32  C   UNL A   1      40.703  26.433  28.481  1.00  0.00     0.074 A 
ATOM     33  C   UNL A   1      42.737  25.585  27.367  1.00  0.00     0.049 A 
ATOM     34  N   UNL A   1      41.074  27.654  28.766  1.00  0.00    -0.248 NA
ATOM     35  C   UNL A   1      39.317  26.122  28.871  1.00  0.00     0.031 C 
ATOM     36  C   UNL A   1      43.565  24.649  26.602  1.00  0.00     0.029 A 
ATOM     37  N   UNL A   1      43.522  26.709  27.470  1.00  0.00    -0.354 N 
ATOM     38  C   UNL A   1      39.961  28.271  29.324  1.00  0.00     0.074 A 
ATOM     39  C   UNL A   1      38.893  27.294  29.324  1.00  0.00     0.031 C 
ATOM     40  C   UNL A   1      44.731  25.239  26.294  1.00  0.00     0.029 A 
ATOM     41  C   UNL A   1      44.726  26.604  26.810  1.00  0.00     0.049 A 
ATOM     42  H   UNL A   1      43.250  27.512  27.970  1.00  0.00     0.167 HD
ATOM     43  C   UNL A   1      39.847  29.527  29.815  1.00  0.00     0.034 A 
ATOM     44  C   UNL A   1      45.708  27.507  26.619  1.00  0.00     0.034 A 
ATOM     45  C   UNL A   1      40.928  30.473  29.874  1.00  0.00     0.049 A 
ATOM     46  C   UNL A   1      45.571  28.878  27.223  1.00  0.00     0.074 A 
ATOM     47  C   UNL A   1      40.950  31.713  30.491  1.00  0.00     0.029 A 
ATOM     48  N   UNL A   1      42.168  30.298  29.284  1.00  0.00    -0.354 N 
ATOM     49  N   UNL A   1      44.588  29.368  27.938  1.00  0.00    -0.248 NA
ATOM     50  C   UNL A   1      46.689  29.811  27.020  1.00  0.00     0.031 C 
ATOM     51  C   UNL A   1      42.199  32.297  30.253  1.00  0.00     0.029 A 
ATOM     52  C   UNL A   1      42.956  31.416  29.498  1.00  0.00     0.049 A 
ATOM     53  H   UNL A   1      42.449  29.496  28.786  1.00  0.00     0.167 HD
ATOM     54  C   UNL A   1      44.975  30.657  28.285  1.00  0.00     0.074 A 
ATOM     55  C   UNL A   1      46.297  30.861  27.730  1.00  0.00     0.031 C 
ATOM     56  C   UNL A   1      44.287  31.595  28.980  1.00  0.00     0.034 A 
BRANCH  43  57
ATOM     57  C   UNL A   1      38.522  29.942  30.394  1.00  0.00     0.023 A 
ATOM     58  C   UNL A   1      38.213  29.606  31.727  1.00  0.00     0.012 A 
ATOM     59  C   UNL A   1      37.627  30.742  29.656  1.00  0.00     0.148 A 
ATOM     60  C   UNL A   1      37.024  30.041  32.312  1.00  0.00     0.002 A 
ATOM     61  C   UNL A   1      36.461  31.202  30.257  1.00  0.00     0.091 A 
ATOM     62  F   UNL A   1      37.930  31.031  28.382  1.00  0.00    -0.205 F 
ATOM     63  C   UNL A   1      36.156  30.847  31.581  1.00  0.00     0.022 A 
BRANCH  61  64
ATOM     64  S   UNL A   1      35.311  32.305  29.426  1.00  0.00     0.127 S 
ATOM     65  O   UNL A   1      34.727  31.418  28.420  1.00  0.00    -0.237 OA
ATOM     66  O   UNL A   1      34.403  32.677  30.512  1.00  0.00    -0.237 OA
ATOM     67  O   UNL A   1      36.114  33.401  28.902  1.00  0.00    -0.744 OA
ENDBRANCH  61  64
ENDBRANCH  43  57
BRANCH  44  68
ATOM     68  C   UNL A   1      46.929  27.126  25.855  1.00  0.00     0.023 A 
ATOM     69  C   UNL A   1      46.990  27.388  24.474  1.00  0.00     0.012 A 
ATOM     70  C   UNL A   1      48.039  26.539  26.492  1.00  0.00     0.148 A 
ATOM     71  C   UNL A   1      48.124  27.046  23.734  1.00  0.00     0.002 A 
ATOM     72  C   UNL A   1      49.187  26.253  25.761  1.00  0.00     0.091 A 
ATOM     73  F   UNL A   1      47.957  26.277  27.806  1.00  0.00    -0.205 F 
ATOM     74  C   UNL A   1      49.225  26.489  24.378  1.00  0.00     0.022 A 
BRANCH  72  75
ATOM     75  S   UNL A   1      50.694  25.672  26.548  1.00  0.00     0.127 S 
ATOM     76  O   UNL A   1      51.585  25.503  25.404  1.00  0.00    -0.237 OA
ATOM     77  O   UNL A   1      51.032  26.788  27.433  1.00  0.00    -0.237 OA
ATOM     78  O   UNL A   1      50.315  24.453  27.251  1.00  0.00    -0.744 OA
ENDBRANCH  72  75
ENDBRANCH  44  68
BRANCH  56  79
ATOM     79  C   UNL A   1      44.943  32.935  29.184  1.00  0.00     0.023 A 
ATOM     80  C   UNL A   1      45.744  33.144  30.323  1.00  0.00     0.012 A 
ATOM     81  C   UNL A   1      44.838  33.951  28.215  1.00  0.00     0.148 A 
ATOM     82  C   UNL A   1      46.412  34.353  30.508  1.00  0.00     0.002 A 
ATOM     83  C   UNL A   1      45.542  35.138  28.383  1.00  0.00     0.091 A 
ATOM     84  F   UNL A   1      44.056  33.738  27.147  1.00  0.00    -0.205 F 
ATOM     85  C   UNL A   1      46.322  35.344  29.533  1.00  0.00     0.022 A 
BRANCH  83  86
ATOM     86  S   UNL A   1      45.556  36.436  27.142  1.00  0.00     0.127 S 
ATOM     87  O   UNL A   1      46.494  37.395  27.723  1.00  0.00    -0.237 OA
ATOM     88  O   UNL A   1      46.058  35.731  25.961  1.00  0.00    -0.237 OA
ATOM     89  O   UNL A   1      44.179  36.898  27.029  1.00  0.00    -0.744 OA
ENDBRANCH  83  86
ENDBRANCH  56  79
ENDBRANCH  30  31
ENDBRANCH  22  25
ENDBRANCH   1  21
TORSDOF 14
ENDMDL
