MODEL 1
REMARK VINA RESULT:     -12.6      0.000      0.000
REMARK SMILES Cc1c(CC(=O)N2CCC(C(=O)NCCCNC(=O)c3ccc(-c4c5nc(c(-c6cccc(S(=O)(=O)[O-])c6F)c6ccc([nH]6)c(-c6cccc(S(=O)(=O)[O-])c6F)c6nc(c(-c7cccc(S(=O)(=O)[O-])c7F)c7ccc4[nH]7)C=C6)C=C5)cc3)(c3ccccc3)CC2)c(=O)oc2c(C)c(O)ccc12
REMARK SMILES IDX 15 1 14 2 13 3 11 4 12 5 10 7 5 8 6 9 7 10 8 11 90 12 9 13
REMARK SMILES IDX 89 14 4 15 3 16 1 17 2 18 101 19 91 20 94 21 100 22 92 23
REMARK SMILES IDX 93 24 95 25 99 26 96 27 97 28 98 29 83 31 84 32 88 33 85 34
REMARK SMILES IDX 87 35 86 36 16 37 17 38 18 39 19 41 20 42 21 43 82 44 22 45
REMARK SMILES IDX 81 46 23 47 24 48 25 49 75 50 26 51 80 52 74 53 76 54 27 55
REMARK SMILES IDX 79 56 73 57 72 58 28 60 60 61 40 62 59 63 41 64 44 65 58 66
REMARK SMILES IDX 77 67 42 68 43 69 57 71 78 72 45 73 29 74 30 75 38 76 31 77
REMARK SMILES IDX 33 78 39 79 32 80 34 81 35 82 36 83 37 84 61 85 62 86 70 87
REMARK SMILES IDX 63 88 65 89 71 90 64 91 66 92 67 93 68 94 69 95 46 96 47 97
REMARK SMILES IDX 55 98 48 99 50 100 56 101 49 102 51 103 52 104 53 105 54 106
REMARK H PARENT 13 6 98 30 17 40 76 59 44 70
REMARK Flexibility Score: inf
ROOT
ATOM      1  C   UNL A   1      47.939  24.275  34.305  1.00  0.00     0.042 C 
ENDROOT
BRANCH   1   2
ATOM      2  C   UNL A   1      48.629  23.076  34.947  1.00  0.00     0.117 C 
BRANCH   2   3
ATOM      3  N   UNL A   1      48.962  23.297  36.349  1.00  0.00    -0.355 N 
ATOM      4  C   UNL A   1      48.461  22.808  37.526  1.00  0.00     0.230 C 
ATOM      5  O   UNL A   1      49.178  23.057  38.501  1.00  0.00    -0.274 OA
ATOM      6  H   UNL A   1      49.703  23.932  36.477  1.00  0.00     0.163 HD
BRANCH   4   7
ATOM      7  C   UNL A   1      47.169  21.911  37.597  1.00  0.00     0.077 C 
ATOM      8  C   UNL A   1      46.672  18.597  40.305  1.00  0.00     0.227 C 
ATOM      9  O   UNL A   1      47.422  17.649  40.050  1.00  0.00    -0.275 OA
ATOM     10  N   UNL A   1      46.543  19.661  39.415  1.00  0.00    -0.342 N 
ATOM     11  C   UNL A   1      46.765  19.377  38.000  1.00  0.00     0.121 C 
ATOM     12  C   UNL A   1      45.956  20.954  39.719  1.00  0.00     0.121 C 
ATOM     13  C   UNL A   1      47.555  20.449  37.263  1.00  0.00     0.043 C 
ATOM     14  C   UNL A   1      46.661  22.125  39.050  1.00  0.00     0.043 C 
BRANCH   8  15
ATOM     15  C   UNL A   1      45.763  18.485  41.542  1.00  0.00     0.143 C 
BRANCH  15  16
ATOM     16  C   UNL A   1      44.985  17.213  41.749  1.00  0.00     0.051 A 
ATOM     17  C   UNL A   1      45.902  16.769  44.051  1.00  0.00     0.046 C 
ATOM     18  C   UNL A   1      44.991  16.482  42.885  1.00  0.00    -0.029 A 
ATOM     19  C   UNL A   1      43.997  15.398  43.037  1.00  0.00     0.021 A 
ATOM     20  C   UNL A   1      44.123  16.846  40.589  1.00  0.00     0.340 A 
ATOM     21  C   UNL A   1      43.177  15.066  41.956  1.00  0.00     0.145 A 
ATOM     22  C   UNL A   1      43.773  14.723  44.242  1.00  0.00     0.016 A 
ATOM     23  O   UNL A   1      44.104  17.501  39.552  1.00  0.00    -0.246 OA
ATOM     24  O   UNL A   1      43.316  15.735  40.727  1.00  0.00    -0.422 OA
ATOM     25  C   UNL A   1      42.160  14.096  42.030  1.00  0.00     0.034 A 
ATOM     26  C   UNL A   1      42.754  13.771  44.357  1.00  0.00     0.047 A 
ATOM     27  C   UNL A   1      41.314  13.796  40.824  1.00  0.00     0.052 C 
ATOM     28  C   UNL A   1      41.954  13.468  43.257  1.00  0.00     0.122 A 
BRANCH  28  29
ATOM     29  O   UNL A   1      40.947  12.554  43.379  1.00  0.00    -0.508 OA
ATOM     30  H   UNL A   1      41.107  11.651  43.181  1.00  0.00     0.293 HD
ENDBRANCH  28  29
ENDBRANCH  15  16
ENDBRANCH   8  15
BRANCH   7  31
ATOM     31  C   UNL A   1      46.026  22.308  36.599  1.00  0.00    -0.032 A 
ATOM     32  C   UNL A   1      45.639  21.515  35.506  1.00  0.00     0.005 A 
ATOM     33  C   UNL A   1      45.269  23.483  36.801  1.00  0.00     0.005 A 
ATOM     34  C   UNL A   1      44.617  21.909  34.630  1.00  0.00     0.000 A 
ATOM     35  C   UNL A   1      44.237  23.873  35.942  1.00  0.00     0.000 A 
ATOM     36  C   UNL A   1      43.919  23.090  34.844  1.00  0.00     0.000 A 
ENDBRANCH   7  31
ENDBRANCH   4   7
ENDBRANCH   2   3
ENDBRANCH   1   2
BRANCH   1  37
ATOM     37  C   UNL A   1      48.810  25.521  34.209  1.00  0.00     0.118 C 
BRANCH  37  38
ATOM     38  N   UNL A   1      48.910  26.230  35.478  1.00  0.00    -0.352 N 
ATOM     39  C   UNL A   1      48.182  27.304  35.931  1.00  0.00     0.251 C 
ATOM     40  H   UNL A   1      49.594  25.891  36.100  1.00  0.00     0.163 HD
ATOM     41  O   UNL A   1      48.543  27.906  36.939  1.00  0.00    -0.269 OA
BRANCH  39  42
ATOM     42  C   UNL A   1      46.977  27.736  35.196  1.00  0.00     0.039 A 
ATOM     43  C   UNL A   1      47.056  28.839  34.340  1.00  0.00     0.014 A 
ATOM     44  C   UNL A   1      45.766  27.057  35.361  1.00  0.00     0.014 A 
ATOM     45  C   UNL A   1      45.933  29.226  33.606  1.00  0.00     0.010 A 
ATOM     46  C   UNL A   1      44.667  27.404  34.584  1.00  0.00     0.010 A 
ATOM     47  C   UNL A   1      44.737  28.499  33.710  1.00  0.00    -0.014 A 
BRANCH  47  48
ATOM     48  C   UNL A   1      43.527  28.882  32.946  1.00  0.00     0.031 A 
ATOM     49  C   UNL A   1      42.471  29.723  33.604  1.00  0.00     0.074 A 
ATOM     50  C   UNL A   1      43.332  28.398  31.705  1.00  0.00     0.049 A 
ATOM     51  N   UNL A   1      41.305  30.087  33.141  1.00  0.00    -0.248 NA
ATOM     52  C   UNL A   1      42.753  30.200  34.969  1.00  0.00     0.031 C 
ATOM     53  C   UNL A   1      44.258  27.523  30.984  1.00  0.00     0.029 A 
ATOM     54  N   UNL A   1      42.273  28.546  30.845  1.00  0.00    -0.354 N 
ATOM     55  C   UNL A   1      40.697  30.796  34.169  1.00  0.00     0.074 A 
ATOM     56  C   UNL A   1      41.615  30.803  35.286  1.00  0.00     0.031 C 
ATOM     57  C   UNL A   1      43.722  27.204  29.794  1.00  0.00     0.029 A 
ATOM     58  C   UNL A   1      42.406  27.831  29.679  1.00  0.00     0.049 A 
ATOM     59  H   UNL A   1      41.491  29.111  31.044  1.00  0.00     0.167 HD
ATOM     60  C   UNL A   1      39.489  31.404  34.174  1.00  0.00     0.034 A 
ATOM     61  C   UNL A   1      41.561  27.684  28.640  1.00  0.00     0.034 A 
ATOM     62  C   UNL A   1      38.600  31.441  33.048  1.00  0.00     0.049 A 
ATOM     63  C   UNL A   1      40.241  28.401  28.651  1.00  0.00     0.074 A 
ATOM     64  C   UNL A   1      37.401  32.120  32.927  1.00  0.00     0.029 A 
ATOM     65  N   UNL A   1      38.804  30.766  31.856  1.00  0.00    -0.354 N 
ATOM     66  N   UNL A   1      39.740  29.177  29.580  1.00  0.00    -0.248 NA
ATOM     67  C   UNL A   1      39.384  28.250  27.466  1.00  0.00     0.031 C 
ATOM     68  C   UNL A   1      36.867  31.837  31.667  1.00  0.00     0.029 A 
ATOM     69  C   UNL A   1      37.747  31.002  30.997  1.00  0.00     0.049 A 
ATOM     70  H   UNL A   1      39.585  30.202  31.652  1.00  0.00     0.167 HD
ATOM     71  C   UNL A   1      38.522  29.629  29.084  1.00  0.00     0.074 A 
ATOM     72  C   UNL A   1      38.363  29.043  27.769  1.00  0.00     0.031 C 
ATOM     73  C   UNL A   1      37.619  30.449  29.673  1.00  0.00     0.034 A 
BRANCH  60  74
ATOM     74  C   UNL A   1      39.071  32.126  35.424  1.00  0.00     0.023 A 
ATOM     75  C   UNL A   1      39.280  33.515  35.524  1.00  0.00     0.012 A 
ATOM     76  C   UNL A   1      38.395  31.446  36.453  1.00  0.00     0.148 A 
ATOM     77  C   UNL A   1      38.830  34.217  36.640  1.00  0.00     0.002 A 
ATOM     78  C   UNL A   1      37.920  32.158  37.547  1.00  0.00     0.091 A 
ATOM     79  F   UNL A   1      38.226  30.120  36.340  1.00  0.00    -0.205 F 
ATOM     80  C   UNL A   1      38.142  33.542  37.644  1.00  0.00     0.022 A 
BRANCH  78  81
ATOM     81  S   UNL A   1      36.973  31.394  38.867  1.00  0.00     0.127 S 
ATOM     82  O   UNL A   1      37.871  31.564  40.010  1.00  0.00    -0.237 OA
ATOM     83  O   UNL A   1      35.773  32.230  38.905  1.00  0.00    -0.237 OA
ATOM     84  O   UNL A   1      36.747  30.015  38.458  1.00  0.00    -0.744 OA
ENDBRANCH  78  81
ENDBRANCH  60  74
BRANCH  61  85
ATOM     85  C   UNL A   1      41.991  26.864  27.475  1.00  0.00     0.023 A 
ATOM     86  C   UNL A   1      42.745  27.470  26.451  1.00  0.00     0.012 A 
ATOM     87  C   UNL A   1      41.748  25.478  27.429  1.00  0.00     0.148 A 
ATOM     88  C   UNL A   1      43.253  26.707  25.400  1.00  0.00     0.002 A 
ATOM     89  C   UNL A   1      42.288  24.718  26.398  1.00  0.00     0.091 A 
ATOM     90  F   UNL A   1      41.032  24.930  28.421  1.00  0.00    -0.205 F 
ATOM     91  C   UNL A   1      43.034  25.333  25.379  1.00  0.00     0.022 A 
BRANCH  89  92
ATOM     92  S   UNL A   1      42.148  22.929  26.333  1.00  0.00     0.127 S 
ATOM     93  O   UNL A   1      40.701  22.739  26.405  1.00  0.00    -0.237 OA
ATOM     94  O   UNL A   1      42.746  22.634  25.031  1.00  0.00    -0.237 OA
ATOM     95  O   UNL A   1      42.898  22.428  27.478  1.00  0.00    -0.744 OA
ENDBRANCH  89  92
ENDBRANCH  61  85
BRANCH  73  96
ATOM     96  C   UNL A   1      36.370  30.800  28.913  1.00  0.00     0.023 A 
ATOM     97  C   UNL A   1      35.541  29.773  28.429  1.00  0.00     0.012 A 
ATOM     98  C   UNL A   1      35.948  32.142  28.817  1.00  0.00     0.148 A 
ATOM     99  C   UNL A   1      34.306  30.076  27.855  1.00  0.00     0.002 A 
ATOM    100  C   UNL A   1      34.703  32.433  28.278  1.00  0.00     0.091 A 
ATOM    101  F   UNL A   1      36.762  33.100  29.283  1.00  0.00    -0.205 F 
ATOM    102  C   UNL A   1      33.881  31.402  27.792  1.00  0.00     0.022 A 
BRANCH 100 103
ATOM    103  S   UNL A   1      34.034  34.100  28.229  1.00  0.00     0.127 S 
ATOM    104  O   UNL A   1      34.915  34.745  27.255  1.00  0.00    -0.237 OA
ATOM    105  O   UNL A   1      32.668  33.871  27.759  1.00  0.00    -0.237 OA
ATOM    106  O   UNL A   1      34.132  34.615  29.588  1.00  0.00    -0.744 OA
ENDBRANCH 100 103
ENDBRANCH  73  96
ENDBRANCH  47  48
ENDBRANCH  39  42
ENDBRANCH  37  38
ENDBRANCH   1  37
TORSDOF 17
ENDMDL
MODEL 2
REMARK VINA RESULT:     -12.5      5.577     12.133
REMARK SMILES Cc1c(CC(=O)N2CCC(C(=O)NCCCNC(=O)c3ccc(-c4c5nc(c(-c6cccc(S(=O)(=O)[O-])c6F)c6ccc([nH]6)c(-c6cccc(S(=O)(=O)[O-])c6F)c6nc(c(-c7cccc(S(=O)(=O)[O-])c7F)c7ccc4[nH]7)C=C6)C=C5)cc3)(c3ccccc3)CC2)c(=O)oc2c(C)c(O)ccc12
REMARK SMILES IDX 15 1 14 2 13 3 11 4 12 5 10 7 5 8 6 9 7 10 8 11 90 12 9 13
REMARK SMILES IDX 89 14 4 15 3 16 1 17 2 18 101 19 91 20 94 21 100 22 92 23
REMARK SMILES IDX 93 24 95 25 99 26 96 27 97 28 98 29 83 31 84 32 88 33 85 34
REMARK SMILES IDX 87 35 86 36 16 37 17 38 18 39 19 41 20 42 21 43 82 44 22 45
REMARK SMILES IDX 81 46 23 47 24 48 25 49 75 50 26 51 80 52 74 53 76 54 27 55
REMARK SMILES IDX 79 56 73 57 72 58 28 60 60 61 40 62 59 63 41 64 44 65 58 66
REMARK SMILES IDX 77 67 42 68 43 69 57 71 78 72 45 73 29 74 30 75 38 76 31 77
REMARK SMILES IDX 33 78 39 79 32 80 34 81 35 82 36 83 37 84 61 85 62 86 70 87
REMARK SMILES IDX 63 88 65 89 71 90 64 91 66 92 67 93 68 94 69 95 46 96 47 97
REMARK SMILES IDX 55 98 48 99 50 100 56 101 49 102 51 103 52 104 53 105 54 106
REMARK H PARENT 13 6 98 30 17 40 76 59 44 70
REMARK Flexibility Score: inf
ROOT
ATOM      1  C   UNL A   1      46.133  24.442  25.033  1.00  0.00     0.042 C 
ENDROOT
BRANCH   1   2
ATOM      2  C   UNL A   1      44.838  24.489  25.837  1.00  0.00     0.117 C 
BRANCH   2   3
ATOM      3  N   UNL A   1      43.829  25.352  25.235  1.00  0.00    -0.355 N 
ATOM      4  C   UNL A   1      42.581  25.759  25.626  1.00  0.00     0.230 C 
ATOM      5  O   UNL A   1      42.137  26.690  24.946  1.00  0.00    -0.274 OA
ATOM      6  H   UNL A   1      44.101  25.720  24.364  1.00  0.00     0.163 HD
BRANCH   4   7
ATOM      7  C   UNL A   1      41.852  25.179  26.895  1.00  0.00     0.077 C 
ATOM      8  C   UNL A   1      39.990  27.600  29.933  1.00  0.00     0.227 C 
ATOM      9  O   UNL A   1      40.802  28.256  30.593  1.00  0.00    -0.275 OA
ATOM     10  N   UNL A   1      40.421  26.607  29.057  1.00  0.00    -0.342 N 
ATOM     11  C   UNL A   1      41.683  25.942  29.372  1.00  0.00     0.121 C 
ATOM     12  C   UNL A   1      39.620  25.990  28.015  1.00  0.00     0.121 C 
ATOM     13  C   UNL A   1      42.575  25.688  28.166  1.00  0.00     0.043 C 
ATOM     14  C   UNL A   1      40.393  25.690  26.739  1.00  0.00     0.043 C 
BRANCH   8  15
ATOM     15  C   UNL A   1      38.493  27.793  30.235  1.00  0.00     0.143 C 
BRANCH  15  16
ATOM     16  C   UNL A   1      37.990  29.186  30.512  1.00  0.00     0.051 A 
ATOM     17  C   UNL A   1      38.543  30.074  28.222  1.00  0.00     0.046 C 
ATOM     18  C   UNL A   1      37.948  30.184  29.603  1.00  0.00    -0.029 A 
ATOM     19  C   UNL A   1      37.208  31.419  29.938  1.00  0.00     0.021 A 
ATOM     20  C   UNL A   1      37.458  29.364  31.893  1.00  0.00     0.340 A 
ATOM     21  C   UNL A   1      36.694  31.579  31.227  1.00  0.00     0.145 A 
ATOM     22  C   UNL A   1      36.921  32.421  29.005  1.00  0.00     0.016 A 
ATOM     23  O   UNL A   1      37.486  28.467  32.728  1.00  0.00    -0.246 OA
ATOM     24  O   UNL A   1      36.904  30.589  32.204  1.00  0.00    -0.422 OA
ATOM     25  C   UNL A   1      35.919  32.688  31.616  1.00  0.00     0.034 A 
ATOM     26  C   UNL A   1      36.133  33.525  29.352  1.00  0.00     0.047 A 
ATOM     27  C   UNL A   1      35.397  32.788  33.022  1.00  0.00     0.052 C 
ATOM     28  C   UNL A   1      35.635  33.649  30.647  1.00  0.00     0.122 A 
BRANCH  28  29
ATOM     29  O   UNL A   1      34.850  34.717  30.975  1.00  0.00    -0.508 OA
ATOM     30  H   UNL A   1      33.964  34.758  30.672  1.00  0.00     0.293 HD
ENDBRANCH  28  29
ENDBRANCH  15  16
ENDBRANCH   8  15
BRANCH   7  31
ATOM     31  C   UNL A   1      41.830  23.613  26.994  1.00  0.00    -0.032 A 
ATOM     32  C   UNL A   1      42.696  22.875  27.818  1.00  0.00     0.005 A 
ATOM     33  C   UNL A   1      40.866  22.860  26.289  1.00  0.00     0.005 A 
ATOM     34  C   UNL A   1      42.651  21.474  27.871  1.00  0.00     0.000 A 
ATOM     35  C   UNL A   1      40.805  21.465  26.351  1.00  0.00     0.000 A 
ATOM     36  C   UNL A   1      41.710  20.768  27.135  1.00  0.00     0.000 A 
ENDBRANCH   7  31
ENDBRANCH   4   7
ENDBRANCH   2   3
ENDBRANCH   1   2
BRANCH   1  37
ATOM     37  C   UNL A   1      47.379  24.810  25.830  1.00  0.00     0.118 C 
BRANCH  37  38
ATOM     38  N   UNL A   1      48.148  25.875  25.201  1.00  0.00    -0.352 N 
ATOM     39  C   UNL A   1      48.006  27.236  25.324  1.00  0.00     0.251 C 
ATOM     40  H   UNL A   1      48.872  25.578  24.603  1.00  0.00     0.163 HD
ATOM     41  O   UNL A   1      48.605  27.986  24.557  1.00  0.00    -0.269 OA
BRANCH  39  42
ATOM     42  C   UNL A   1      47.124  27.790  26.371  1.00  0.00     0.039 A 
ATOM     43  C   UNL A   1      45.759  27.938  26.108  1.00  0.00     0.014 A 
ATOM     44  C   UNL A   1      47.650  28.172  27.609  1.00  0.00     0.014 A 
ATOM     45  C   UNL A   1      44.911  28.418  27.108  1.00  0.00     0.010 A 
ATOM     46  C   UNL A   1      46.796  28.590  28.623  1.00  0.00     0.010 A 
ATOM     47  C   UNL A   1      45.422  28.729  28.378  1.00  0.00    -0.014 A 
BRANCH  47  48
ATOM     48  C   UNL A   1      44.551  29.240  29.461  1.00  0.00     0.031 A 
ATOM     49  C   UNL A   1      44.049  30.654  29.404  1.00  0.00     0.074 A 
ATOM     50  C   UNL A   1      44.292  28.472  30.537  1.00  0.00     0.049 A 
ATOM     51  N   UNL A   1      43.356  31.317  30.291  1.00  0.00    -0.248 NA
ATOM     52  C   UNL A   1      44.389  31.434  28.201  1.00  0.00     0.031 C 
ATOM     53  C   UNL A   1      44.773  27.104  30.733  1.00  0.00     0.029 A 
ATOM     54  N   UNL A   1      43.588  28.748  31.682  1.00  0.00    -0.354 N 
ATOM     55  C   UNL A   1      43.214  32.599  29.777  1.00  0.00     0.074 A 
ATOM     56  C   UNL A   1      43.902  32.630  28.506  1.00  0.00     0.031 C 
ATOM     57  C   UNL A   1      44.359  26.663  31.933  1.00  0.00     0.029 A 
ATOM     58  C   UNL A   1      43.605  27.724  32.599  1.00  0.00     0.049 A 
ATOM     59  H   UNL A   1      43.117  29.599  31.834  1.00  0.00     0.167 HD
ATOM     60  C   UNL A   1      42.551  33.651  30.308  1.00  0.00     0.034 A 
ATOM     61  C   UNL A   1      43.085  27.650  33.839  1.00  0.00     0.034 A 
ATOM     62  C   UNL A   1      41.825  33.606  31.545  1.00  0.00     0.049 A 
ATOM     63  C   UNL A   1      42.319  28.819  34.392  1.00  0.00     0.074 A 
ATOM     64  C   UNL A   1      41.039  34.593  32.112  1.00  0.00     0.029 A 
ATOM     65  N   UNL A   1      41.803  32.525  32.411  1.00  0.00    -0.354 N 
ATOM     66  N   UNL A   1      42.082  29.980  33.834  1.00  0.00    -0.248 NA
ATOM     67  C   UNL A   1      41.725  28.661  35.728  1.00  0.00     0.031 C 
ATOM     68  C   UNL A   1      40.557  34.116  33.334  1.00  0.00     0.029 A 
ATOM     69  C   UNL A   1      41.026  32.824  33.514  1.00  0.00     0.049 A 
ATOM     70  H   UNL A   1      42.271  31.672  32.262  1.00  0.00     0.167 HD
ATOM     71  C   UNL A   1      41.291  30.683  34.735  1.00  0.00     0.074 A 
ATOM     72  C   UNL A   1      41.085  29.815  35.876  1.00  0.00     0.031 C 
ATOM     73  C   UNL A   1      40.790  31.937  34.625  1.00  0.00     0.034 A 
BRANCH  60  74
ATOM     74  C   UNL A   1      42.537  34.937  29.532  1.00  0.00     0.023 A 
ATOM     75  C   UNL A   1      41.530  35.155  28.572  1.00  0.00     0.012 A 
ATOM     76  C   UNL A   1      43.462  35.958  29.817  1.00  0.00     0.148 A 
ATOM     77  C   UNL A   1      41.452  36.371  27.895  1.00  0.00     0.002 A 
ATOM     78  C   UNL A   1      43.357  37.179  29.163  1.00  0.00     0.091 A 
ATOM     79  F   UNL A   1      44.422  35.716  30.722  1.00  0.00    -0.205 F 
ATOM     80  C   UNL A   1      42.357  37.385  28.198  1.00  0.00     0.022 A 
BRANCH  78  81
ATOM     81  S   UNL A   1      44.437  38.568  29.519  1.00  0.00     0.127 S 
ATOM     82  O   UNL A   1      43.785  39.157  30.688  1.00  0.00    -0.237 OA
ATOM     83  O   UNL A   1      45.709  37.901  29.801  1.00  0.00    -0.237 OA
ATOM     84  O   UNL A   1      44.434  39.400  28.324  1.00  0.00    -0.744 OA
ENDBRANCH  78  81
ENDBRANCH  60  74
BRANCH  61  85
ATOM     85  C   UNL A   1      43.227  26.381  34.603  1.00  0.00     0.023 A 
ATOM     86  C   UNL A   1      42.193  25.428  34.547  1.00  0.00     0.012 A 
ATOM     87  C   UNL A   1      44.416  26.076  35.293  1.00  0.00     0.148 A 
ATOM     88  C   UNL A   1      42.340  24.186  35.165  1.00  0.00     0.002 A 
ATOM     89  C   UNL A   1      44.570  24.823  35.875  1.00  0.00     0.091 A 
ATOM     90  F   UNL A   1      45.384  27.002  35.324  1.00  0.00    -0.205 F 
ATOM     91  C   UNL A   1      43.531  23.880  35.818  1.00  0.00     0.022 A 
BRANCH  89  92
ATOM     92  S   UNL A   1      46.101  24.295  36.653  1.00  0.00     0.127 S 
ATOM     93  O   UNL A   1      45.796  22.910  37.004  1.00  0.00    -0.237 OA
ATOM     94  O   UNL A   1      47.058  24.458  35.559  1.00  0.00    -0.237 OA
ATOM     95  O   UNL A   1      46.305  25.192  37.783  1.00  0.00    -0.744 OA
ENDBRANCH  89  92
ENDBRANCH  61  85
BRANCH  73  96
ATOM     96  C   UNL A   1      39.943  32.470  35.746  1.00  0.00     0.023 A 
ATOM     97  C   UNL A   1      38.546  32.313  35.695  1.00  0.00     0.012 A 
ATOM     98  C   UNL A   1      40.546  32.984  36.912  1.00  0.00     0.148 A 
ATOM     99  C   UNL A   1      37.758  32.665  36.790  1.00  0.00     0.002 A 
ATOM    100  C   UNL A   1      39.759  33.297  38.012  1.00  0.00     0.091 A 
ATOM    101  F   UNL A   1      41.879  33.126  36.930  1.00  0.00    -0.205 F 
ATOM    102  C   UNL A   1      38.363  33.143  37.952  1.00  0.00     0.022 A 
BRANCH 100 103
ATOM    103  S   UNL A   1      40.452  33.841  39.577  1.00  0.00     0.127 S 
ATOM    104  O   UNL A   1      40.887  35.200  39.253  1.00  0.00    -0.237 OA
ATOM    105  O   UNL A   1      39.296  33.766  40.470  1.00  0.00    -0.237 OA
ATOM    106  O   UNL A   1      41.525  32.907  39.890  1.00  0.00    -0.744 OA
ENDBRANCH 100 103
ENDBRANCH  73  96
ENDBRANCH  47  48
ENDBRANCH  39  42
ENDBRANCH  37  38
ENDBRANCH   1  37
TORSDOF 17
ENDMDL
MODEL 3
REMARK VINA RESULT:     -12.4      1.674      2.490
REMARK SMILES Cc1c(CC(=O)N2CCC(C(=O)NCCCNC(=O)c3ccc(-c4c5nc(c(-c6cccc(S(=O)(=O)[O-])c6F)c6ccc([nH]6)c(-c6cccc(S(=O)(=O)[O-])c6F)c6nc(c(-c7cccc(S(=O)(=O)[O-])c7F)c7ccc4[nH]7)C=C6)C=C5)cc3)(c3ccccc3)CC2)c(=O)oc2c(C)c(O)ccc12
REMARK SMILES IDX 15 1 14 2 13 3 11 4 12 5 10 7 5 8 6 9 7 10 8 11 90 12 9 13
REMARK SMILES IDX 89 14 4 15 3 16 1 17 2 18 101 19 91 20 94 21 100 22 92 23
REMARK SMILES IDX 93 24 95 25 99 26 96 27 97 28 98 29 83 31 84 32 88 33 85 34
REMARK SMILES IDX 87 35 86 36 16 37 17 38 18 39 19 41 20 42 21 43 82 44 22 45
REMARK SMILES IDX 81 46 23 47 24 48 25 49 75 50 26 51 80 52 74 53 76 54 27 55
REMARK SMILES IDX 79 56 73 57 72 58 28 60 60 61 40 62 59 63 41 64 44 65 58 66
REMARK SMILES IDX 77 67 42 68 43 69 57 71 78 72 45 73 29 74 30 75 38 76 31 77
REMARK SMILES IDX 33 78 39 79 32 80 34 81 35 82 36 83 37 84 61 85 62 86 70 87
REMARK SMILES IDX 63 88 65 89 71 90 64 91 66 92 67 93 68 94 69 95 46 96 47 97
REMARK SMILES IDX 55 98 48 99 50 100 56 101 49 102 51 103 52 104 53 105 54 106
REMARK H PARENT 13 6 98 30 17 40 76 59 44 70
REMARK Flexibility Score: inf
ROOT
ATOM      1  C   UNL A   1      48.160  24.106  34.198  1.00  0.00     0.042 C 
ENDROOT
BRANCH   1   2
ATOM      2  C   UNL A   1      47.169  23.887  35.337  1.00  0.00     0.117 C 
BRANCH   2   3
ATOM      3  N   UNL A   1      46.353  22.692  35.156  1.00  0.00    -0.355 N 
ATOM      4  C   UNL A   1      46.242  21.513  35.845  1.00  0.00     0.230 C 
ATOM      5  O   UNL A   1      45.257  20.845  35.511  1.00  0.00    -0.274 OA
ATOM      6  H   UNL A   1      45.757  22.742  34.376  1.00  0.00     0.163 HD
BRANCH   4   7
ATOM      7  C   UNL A   1      47.205  21.120  37.027  1.00  0.00     0.077 C 
ATOM      8  C   UNL A   1      45.897  19.309  40.710  1.00  0.00     0.227 C 
ATOM      9  O   UNL A   1      45.212  20.067  41.404  1.00  0.00    -0.275 OA
ATOM     10  N   UNL A   1      46.578  19.787  39.594  1.00  0.00    -0.342 N 
ATOM     11  C   UNL A   1      46.988  21.189  39.614  1.00  0.00     0.121 C 
ATOM     12  C   UNL A   1      47.151  18.973  38.537  1.00  0.00     0.121 C 
ATOM     13  C   UNL A   1      46.796  21.916  38.290  1.00  0.00     0.043 C 
ATOM     14  C   UNL A   1      47.018  19.582  37.149  1.00  0.00     0.043 C 
BRANCH   8  15
ATOM     15  C   UNL A   1      46.110  17.869  41.211  1.00  0.00     0.143 C 
BRANCH  15  16
ATOM     16  C   UNL A   1      44.898  17.010  41.466  1.00  0.00     0.051 A 
ATOM     17  C   UNL A   1      44.287  16.768  39.035  1.00  0.00     0.046 C 
ATOM     18  C   UNL A   1      44.124  16.464  40.503  1.00  0.00    -0.029 A 
ATOM     19  C   UNL A   1      43.121  15.450  40.889  1.00  0.00     0.021 A 
ATOM     20  C   UNL A   1      44.652  16.742  42.912  1.00  0.00     0.340 A 
ATOM     21  C   UNL A   1      42.902  15.186  42.244  1.00  0.00     0.145 A 
ATOM     22  C   UNL A   1      42.419  14.670  39.963  1.00  0.00     0.016 A 
ATOM     23  O   UNL A   1      45.347  17.228  43.797  1.00  0.00    -0.246 OA
ATOM     24  O   UNL A   1      43.607  15.898  43.229  1.00  0.00    -0.422 OA
ATOM     25  C   UNL A   1      42.018  14.191  42.701  1.00  0.00     0.034 A 
ATOM     26  C   UNL A   1      41.551  13.657  40.384  1.00  0.00     0.047 A 
ATOM     27  C   UNL A   1      41.839  13.962  44.176  1.00  0.00     0.052 C 
ATOM     28  C   UNL A   1      41.360  13.421  41.744  1.00  0.00     0.122 A 
BRANCH  28  29
ATOM     29  O   UNL A   1      40.529  12.417  42.151  1.00  0.00    -0.508 OA
ATOM     30  H   UNL A   1      39.853  12.108  41.580  1.00  0.00     0.293 HD
ENDBRANCH  28  29
ENDBRANCH  15  16
ENDBRANCH   8  15
BRANCH   7  31
ATOM     31  C   UNL A   1      48.723  21.426  36.780  1.00  0.00    -0.032 A 
ATOM     32  C   UNL A   1      49.508  20.751  35.831  1.00  0.00     0.005 A 
ATOM     33  C   UNL A   1      49.370  22.471  37.476  1.00  0.00     0.005 A 
ATOM     34  C   UNL A   1      50.866  21.048  35.646  1.00  0.00     0.000 A 
ATOM     35  C   UNL A   1      50.719  22.784  37.285  1.00  0.00     0.000 A 
ATOM     36  C   UNL A   1      51.474  22.060  36.377  1.00  0.00     0.000 A 
ENDBRANCH   7  31
ENDBRANCH   4   7
ENDBRANCH   2   3
ENDBRANCH   1   2
BRANCH   1  37
ATOM     37  C   UNL A   1      48.717  25.521  34.117  1.00  0.00     0.118 C 
BRANCH  37  38
ATOM     38  N   UNL A   1      48.771  26.174  35.418  1.00  0.00    -0.352 N 
ATOM     39  C   UNL A   1      48.008  27.210  35.901  1.00  0.00     0.251 C 
ATOM     40  H   UNL A   1      49.449  25.823  36.041  1.00  0.00     0.163 HD
ATOM     41  O   UNL A   1      48.332  27.774  36.944  1.00  0.00    -0.269 OA
BRANCH  39  42
ATOM     42  C   UNL A   1      46.810  27.647  35.157  1.00  0.00     0.039 A 
ATOM     43  C   UNL A   1      46.910  28.723  34.271  1.00  0.00     0.014 A 
ATOM     44  C   UNL A   1      45.585  26.999  35.345  1.00  0.00     0.014 A 
ATOM     45  C   UNL A   1      45.793  29.114  33.529  1.00  0.00     0.010 A 
ATOM     46  C   UNL A   1      44.491  27.348  34.562  1.00  0.00     0.010 A 
ATOM     47  C   UNL A   1      44.582  28.416  33.656  1.00  0.00    -0.014 A 
BRANCH  47  48
ATOM     48  C   UNL A   1      43.378  28.803  32.886  1.00  0.00     0.031 A 
ATOM     49  C   UNL A   1      42.344  29.688  33.521  1.00  0.00     0.074 A 
ATOM     50  C   UNL A   1      43.167  28.287  31.660  1.00  0.00     0.049 A 
ATOM     51  N   UNL A   1      41.184  30.064  33.051  1.00  0.00    -0.248 NA
ATOM     52  C   UNL A   1      42.642  30.199  34.870  1.00  0.00     0.031 C 
ATOM     53  C   UNL A   1      44.071  27.370  30.963  1.00  0.00     0.029 A 
ATOM     54  N   UNL A   1      42.109  28.433  30.800  1.00  0.00    -0.354 N 
ATOM     55  C   UNL A   1      40.597  30.817  34.059  1.00  0.00     0.074 A 
ATOM     56  C   UNL A   1      41.519  30.836  35.172  1.00  0.00     0.031 C 
ATOM     57  C   UNL A   1      43.523  27.027  29.785  1.00  0.00     0.029 A 
ATOM     58  C   UNL A   1      42.221  27.680  29.655  1.00  0.00     0.049 A 
ATOM     59  H   UNL A   1      41.341  29.021  30.984  1.00  0.00     0.167 HD
ATOM     60  C   UNL A   1      39.403  31.452  34.050  1.00  0.00     0.034 A 
ATOM     61  C   UNL A   1      41.369  27.521  28.624  1.00  0.00     0.034 A 
ATOM     62  C   UNL A   1      38.510  31.476  32.926  1.00  0.00     0.049 A 
ATOM     63  C   UNL A   1      40.066  28.269  28.618  1.00  0.00     0.074 A 
ATOM     64  C   UNL A   1      37.327  32.178  32.789  1.00  0.00     0.029 A 
ATOM     65  N   UNL A   1      38.695  30.760  31.755  1.00  0.00    -0.354 N 
ATOM     66  N   UNL A   1      39.585  29.083  29.524  1.00  0.00    -0.248 NA
ATOM     67  C   UNL A   1      39.201  28.101  27.440  1.00  0.00     0.031 C 
ATOM     68  C   UNL A   1      36.782  31.870  31.540  1.00  0.00     0.029 A 
ATOM     69  C   UNL A   1      37.640  30.995  30.892  1.00  0.00     0.049 A 
ATOM     70  H   UNL A   1      39.462  30.174  31.565  1.00  0.00     0.167 HD
ATOM     71  C   UNL A   1      38.377  29.547  29.019  1.00  0.00     0.074 A 
ATOM     72  C   UNL A   1      38.199  28.926  27.723  1.00  0.00     0.031 C 
ATOM     73  C   UNL A   1      37.494  30.405  29.585  1.00  0.00     0.034 A 
BRANCH  60  74
ATOM     74  C   UNL A   1      39.006  32.221  35.279  1.00  0.00     0.023 A 
ATOM     75  C   UNL A   1      38.145  31.625  36.220  1.00  0.00     0.012 A 
ATOM     76  C   UNL A   1      39.556  33.489  35.540  1.00  0.00     0.148 A 
ATOM     77  C   UNL A   1      37.825  32.288  37.403  1.00  0.00     0.002 A 
ATOM     78  C   UNL A   1      39.259  34.129  36.737  1.00  0.00     0.091 A 
ATOM     79  F   UNL A   1      40.358  34.041  34.617  1.00  0.00    -0.205 F 
ATOM     80  C   UNL A   1      38.390  33.533  37.665  1.00  0.00     0.022 A 
BRANCH  78  81
ATOM     81  S   UNL A   1      39.978  35.710  37.197  1.00  0.00     0.127 S 
ATOM     82  O   UNL A   1      39.633  36.538  36.042  1.00  0.00    -0.237 OA
ATOM     83  O   UNL A   1      39.244  36.033  38.421  1.00  0.00    -0.237 OA
ATOM     84  O   UNL A   1      41.401  35.468  37.383  1.00  0.00    -0.744 OA
ENDBRANCH  78  81
ENDBRANCH  60  74
BRANCH  61  85
ATOM     85  C   UNL A   1      41.776  26.657  27.482  1.00  0.00     0.023 A 
ATOM     86  C   UNL A   1      42.503  27.225  26.418  1.00  0.00     0.012 A 
ATOM     87  C   UNL A   1      41.538  25.270  27.498  1.00  0.00     0.148 A 
ATOM     88  C   UNL A   1      42.989  26.423  25.386  1.00  0.00     0.002 A 
ATOM     89  C   UNL A   1      42.057  24.472  26.485  1.00  0.00     0.091 A 
ATOM     90  F   UNL A   1      40.848  24.759  28.527  1.00  0.00    -0.205 F 
ATOM     91  C   UNL A   1      42.777  25.047  25.425  1.00  0.00     0.022 A 
BRANCH  89  92
ATOM     92  S   UNL A   1      41.924  22.681  26.495  1.00  0.00     0.127 S 
ATOM     93  O   UNL A   1      40.476  22.488  26.491  1.00  0.00    -0.237 OA
ATOM     94  O   UNL A   1      42.598  22.328  25.245  1.00  0.00    -0.237 OA
ATOM     95  O   UNL A   1      42.607  22.236  27.703  1.00  0.00    -0.744 OA
ENDBRANCH  89  92
ENDBRANCH  61  85
BRANCH  73  96
ATOM     96  C   UNL A   1      36.251  30.762  28.820  1.00  0.00     0.023 A 
ATOM     97  C   UNL A   1      35.433  29.738  28.310  1.00  0.00     0.012 A 
ATOM     98  C   UNL A   1      35.821  32.102  28.743  1.00  0.00     0.148 A 
ATOM     99  C   UNL A   1      34.202  30.043  27.729  1.00  0.00     0.002 A 
ATOM    100  C   UNL A   1      34.579  32.395  28.197  1.00  0.00     0.091 A 
ATOM    101  F   UNL A   1      36.624  33.058  29.233  1.00  0.00    -0.205 F 
ATOM    102  C   UNL A   1      33.769  31.367  27.685  1.00  0.00     0.022 A 
BRANCH 100 103
ATOM    103  S   UNL A   1      33.900  34.058  28.170  1.00  0.00     0.127 S 
ATOM    104  O   UNL A   1      32.550  33.819  27.659  1.00  0.00    -0.237 OA
ATOM    105  O   UNL A   1      33.960  34.440  29.581  1.00  0.00    -0.237 OA
ATOM    106  O   UNL A   1      34.765  34.834  27.292  1.00  0.00    -0.744 OA
ENDBRANCH 100 103
ENDBRANCH  73  96
ENDBRANCH  47  48
ENDBRANCH  39  42
ENDBRANCH  37  38
ENDBRANCH   1  37
TORSDOF 17
ENDMDL
