MODEL 1
REMARK VINA RESULT:     -12.7      0.000      0.000
REMARK SMILES O=C(C[C@@H]1COc2ccccc2N1Cc1ccccc1)NCCCNC(=O)c1ccc(-c2c3nc(c(-c4cccc(S(=O)(=O)[O-])c4F)c4ccc([nH]4)c(-c4cccc(S(=O)(=O)[O-])c4F)c4nc(c(-c5cccc(S(=O)(=O)[O-])c5F)c5ccc2[nH]5)C=C4)C=C3)cc1
REMARK SMILES IDX 23 1 22 2 21 3 1 4 2 5 3 7 4 8 5 9 13 10 6 11 12 12 7 13
REMARK SMILES IDX 11 14 8 15 10 16 9 17 14 18 15 19 16 20 20 21 17 22 19 23
REMARK SMILES IDX 18 24 24 25 25 26 26 27 27 29 28 30 29 31 90 32 30 33 89 34
REMARK SMILES IDX 31 35 32 36 33 37 83 38 34 39 88 40 82 41 84 42 35 43 87 44
REMARK SMILES IDX 81 45 80 46 36 48 68 49 48 50 67 51 49 52 52 53 66 54 85 55
REMARK SMILES IDX 50 56 51 57 65 59 86 60 53 61 37 62 38 63 46 64 39 65 41 66
REMARK SMILES IDX 47 67 40 68 42 69 43 70 44 71 45 72 69 73 70 74 78 75 71 76
REMARK SMILES IDX 73 77 79 78 72 79 74 80 75 81 76 82 77 83 54 84 55 85 63 86
REMARK SMILES IDX 56 87 58 88 64 89 57 90 59 91 60 92 61 93 62 94
REMARK H PARENT 21 6 25 28 84 47 52 58
REMARK Flexibility Score: inf
ROOT
ATOM      1  C   UNL A   1      31.864  28.019  25.977  1.00  0.00     0.042 C 
ENDROOT
BRANCH   1   2
ATOM      2  C   UNL A   1      31.106  26.732  26.262  1.00  0.00     0.117 C 
BRANCH   2   3
ATOM      3  N   UNL A   1      31.931  25.549  26.208  1.00  0.00    -0.356 N 
ATOM      4  O   UNL A   1      30.402  24.091  27.145  1.00  0.00    -0.275 OA
ATOM      5  C   UNL A   1      31.483  24.310  26.609  1.00  0.00     0.222 C 
ATOM      6  H   UNL A   1      32.852  25.631  25.869  1.00  0.00     0.163 HD
BRANCH   5   7
ATOM      7  C   UNL A   1      32.464  23.205  26.311  1.00  0.00     0.128 C 
BRANCH   7   8
ATOM      8  C   UNL A   1      32.259  22.592  24.915  1.00  0.00     0.129 C 
ATOM      9  C   UNL A   1      32.370  21.060  25.005  1.00  0.00     0.255 C 
ATOM     10  N   UNL A   1      33.252  23.052  23.923  1.00  0.00    -0.357 N 
ATOM     11  O   UNL A   1      33.661  20.648  25.484  1.00  0.00    -0.489 OA
ATOM     12  C   UNL A   1      34.512  22.453  24.048  1.00  0.00     0.080 A 
ATOM     13  C   UNL A   1      34.698  21.312  24.861  1.00  0.00     0.142 A 
ATOM     14  C   UNL A   1      35.653  22.993  23.446  1.00  0.00     0.030 A 
ATOM     15  C   UNL A   1      35.973  20.796  25.112  1.00  0.00     0.048 A 
ATOM     16  C   UNL A   1      36.928  22.468  23.676  1.00  0.00     0.002 A 
ATOM     17  C   UNL A   1      37.091  21.378  24.522  1.00  0.00     0.004 A 
BRANCH  10  18
ATOM     18  C   UNL A   1      32.783  23.553  22.620  1.00  0.00     0.152 C 
BRANCH  18  19
ATOM     19  C   UNL A   1      32.535  25.047  22.596  1.00  0.00    -0.029 A 
ATOM     20  C   UNL A   1      33.601  25.958  22.549  1.00  0.00     0.005 A 
ATOM     21  C   UNL A   1      31.230  25.560  22.640  1.00  0.00     0.005 A 
ATOM     22  C   UNL A   1      33.365  27.335  22.489  1.00  0.00     0.000 A 
ATOM     23  C   UNL A   1      30.991  26.934  22.555  1.00  0.00     0.000 A 
ATOM     24  C   UNL A   1      32.059  27.822  22.473  1.00  0.00     0.000 A 
ENDBRANCH  18  19
ENDBRANCH  10  18
ENDBRANCH   7   8
ENDBRANCH   5   7
ENDBRANCH   2   3
ENDBRANCH   1   2
BRANCH   1  25
ATOM     25  C   UNL A   1      32.318  28.804  27.206  1.00  0.00     0.118 C 
BRANCH  25  26
ATOM     26  N   UNL A   1      32.084  30.241  27.131  1.00  0.00    -0.352 N 
ATOM     27  C   UNL A   1      32.979  31.275  27.283  1.00  0.00     0.251 C 
ATOM     28  H   UNL A   1      31.155  30.510  26.946  1.00  0.00     0.163 HD
ATOM     29  O   UNL A   1      32.610  32.442  27.175  1.00  0.00    -0.269 OA
BRANCH  27  30
ATOM     30  C   UNL A   1      34.388  30.978  27.629  1.00  0.00     0.039 A 
ATOM     31  C   UNL A   1      35.258  32.045  27.873  1.00  0.00     0.014 A 
ATOM     32  C   UNL A   1      34.829  29.662  27.785  1.00  0.00     0.014 A 
ATOM     33  C   UNL A   1      36.535  31.796  28.386  1.00  0.00     0.010 A 
ATOM     34  C   UNL A   1      36.079  29.418  28.351  1.00  0.00     0.010 A 
ATOM     35  C   UNL A   1      36.930  30.483  28.687  1.00  0.00    -0.014 A 
BRANCH  35  36
ATOM     36  C   UNL A   1      38.183  30.202  29.438  1.00  0.00     0.031 A 
ATOM     37  C   UNL A   1      39.199  29.235  28.900  1.00  0.00     0.074 A 
ATOM     38  C   UNL A   1      38.336  30.720  30.673  1.00  0.00     0.049 A 
ATOM     39  N   UNL A   1      40.287  28.784  29.467  1.00  0.00    -0.248 NA
ATOM     40  C   UNL A   1      38.946  28.682  27.559  1.00  0.00     0.031 C 
ATOM     41  C   UNL A   1      37.379  31.606  31.343  1.00  0.00     0.029 A 
ATOM     42  N   UNL A   1      39.330  30.546  31.604  1.00  0.00    -0.354 N 
ATOM     43  C   UNL A   1      40.831  27.870  28.574  1.00  0.00     0.074 A 
ATOM     44  C   UNL A   1      39.941  27.814  27.433  1.00  0.00     0.031 C 
ATOM     45  C   UNL A   1      37.828  31.889  32.576  1.00  0.00     0.029 A 
ATOM     46  C   UNL A   1      39.086  31.184  32.799  1.00  0.00     0.049 A 
ATOM     47  H   UNL A   1      40.142  30.016  31.433  1.00  0.00     0.167 HD
ATOM     48  C   UNL A   1      41.980  27.160  28.680  1.00  0.00     0.034 A 
ATOM     49  C   UNL A   1      39.786  31.191  33.951  1.00  0.00     0.034 A 
ATOM     50  C   UNL A   1      42.886  27.251  29.794  1.00  0.00     0.049 A 
ATOM     51  C   UNL A   1      41.078  30.423  34.028  1.00  0.00     0.074 A 
ATOM     52  C   UNL A   1      44.122  26.648  29.948  1.00  0.00     0.029 A 
ATOM     53  N   UNL A   1      42.653  27.984  30.947  1.00  0.00    -0.354 N 
ATOM     54  N   UNL A   1      41.661  29.699  33.105  1.00  0.00    -0.248 NA
ATOM     55  C   UNL A   1      41.822  30.498  35.294  1.00  0.00     0.031 C 
ATOM     56  C   UNL A   1      44.631  27.007  31.201  1.00  0.00     0.029 A 
ATOM     57  C   UNL A   1      43.716  27.841  31.823  1.00  0.00     0.049 A 
ATOM     58  H   UNL A   1      41.850  28.527  31.119  1.00  0.00     0.167 HD
ATOM     59  C   UNL A   1      42.853  29.255  33.665  1.00  0.00     0.074 A 
ATOM     60  C   UNL A   1      42.919  29.812  35.001  1.00  0.00     0.031 C 
ATOM     61  C   UNL A   1      43.797  28.443  33.129  1.00  0.00     0.034 A 
BRANCH  48  62
ATOM     62  C   UNL A   1      42.358  26.266  27.530  1.00  0.00     0.023 A 
ATOM     63  C   UNL A   1      43.151  26.786  26.486  1.00  0.00     0.012 A 
ATOM     64  C   UNL A   1      41.986  24.909  27.506  1.00  0.00     0.148 A 
ATOM     65  C   UNL A   1      43.543  25.977  25.420  1.00  0.00     0.002 A 
ATOM     66  C   UNL A   1      42.412  24.098  26.458  1.00  0.00     0.091 A 
ATOM     67  F   UNL A   1      41.213  24.437  28.495  1.00  0.00    -0.205 F 
ATOM     68  C   UNL A   1      43.182  24.633  25.412  1.00  0.00     0.022 A 
BRANCH  66  69
ATOM     69  S   UNL A   1      42.056  22.338  26.391  1.00  0.00     0.127 S 
ATOM     70  O   UNL A   1      40.602  22.337  26.242  1.00  0.00    -0.237 OA
ATOM     71  O   UNL A   1      42.793  21.918  25.199  1.00  0.00    -0.237 OA
ATOM     72  O   UNL A   1      42.560  21.783  27.640  1.00  0.00    -0.744 OA
ENDBRANCH  66  69
ENDBRANCH  48  62
BRANCH  49  73
ATOM     73  C   UNL A   1      39.312  32.008  35.103  1.00  0.00     0.023 A 
ATOM     74  C   UNL A   1      38.413  31.438  36.025  1.00  0.00     0.012 A 
ATOM     75  C   UNL A   1      39.769  33.324  35.314  1.00  0.00     0.148 A 
ATOM     76  C   UNL A   1      37.958  32.169  37.123  1.00  0.00     0.002 A 
ATOM     77  C   UNL A   1      39.352  34.029  36.439  1.00  0.00     0.091 A 
ATOM     78  F   UNL A   1      40.612  33.857  34.418  1.00  0.00    -0.205 F 
ATOM     79  C   UNL A   1      38.437  33.459  37.336  1.00  0.00     0.022 A 
BRANCH  77  80
ATOM     80  S   UNL A   1      40.021  35.644  36.858  1.00  0.00     0.127 S 
ATOM     81  O   UNL A   1      41.454  35.369  36.916  1.00  0.00    -0.237 OA
ATOM     82  O   UNL A   1      39.595  36.455  35.716  1.00  0.00    -0.237 OA
ATOM     83  O   UNL A   1      39.388  36.010  38.117  1.00  0.00    -0.744 OA
ENDBRANCH  77  80
ENDBRANCH  49  73
BRANCH  61  84
ATOM     84  C   UNL A   1      44.999  28.116  33.975  1.00  0.00     0.023 A 
ATOM     85  C   UNL A   1      46.095  29.001  33.994  1.00  0.00     0.012 A 
ATOM     86  C   UNL A   1      45.010  26.980  34.808  1.00  0.00     0.148 A 
ATOM     87  C   UNL A   1      47.195  28.750  34.813  1.00  0.00     0.002 A 
ATOM     88  C   UNL A   1      46.091  26.759  35.653  1.00  0.00     0.091 A 
ATOM     89  F   UNL A   1      43.967  26.139  34.759  1.00  0.00    -0.205 F 
ATOM     90  C   UNL A   1      47.187  27.637  35.651  1.00  0.00     0.022 A 
BRANCH  88  91
ATOM     91  S   UNL A   1      46.128  25.402  36.830  1.00  0.00     0.127 S 
ATOM     92  O   UNL A   1      46.162  24.239  35.945  1.00  0.00    -0.237 OA
ATOM     93  O   UNL A   1      47.373  25.651  37.558  1.00  0.00    -0.237 OA
ATOM     94  O   UNL A   1      44.923  25.540  37.638  1.00  0.00    -0.744 OA
ENDBRANCH  88  91
ENDBRANCH  61  84
ENDBRANCH  35  36
ENDBRANCH  27  30
ENDBRANCH  25  26
ENDBRANCH   1  25
TORSDOF 16
ENDMDL
MODEL 2
REMARK VINA RESULT:     -12.7      5.037      9.901
REMARK SMILES O=C(C[C@@H]1COc2ccccc2N1Cc1ccccc1)NCCCNC(=O)c1ccc(-c2c3nc(c(-c4cccc(S(=O)(=O)[O-])c4F)c4ccc([nH]4)c(-c4cccc(S(=O)(=O)[O-])c4F)c4nc(c(-c5cccc(S(=O)(=O)[O-])c5F)c5ccc2[nH]5)C=C4)C=C3)cc1
REMARK SMILES IDX 23 1 22 2 21 3 1 4 2 5 3 7 4 8 5 9 13 10 6 11 12 12 7 13
REMARK SMILES IDX 11 14 8 15 10 16 9 17 14 18 15 19 16 20 20 21 17 22 19 23
REMARK SMILES IDX 18 24 24 25 25 26 26 27 27 29 28 30 29 31 90 32 30 33 89 34
REMARK SMILES IDX 31 35 32 36 33 37 83 38 34 39 88 40 82 41 84 42 35 43 87 44
REMARK SMILES IDX 81 45 80 46 36 48 68 49 48 50 67 51 49 52 52 53 66 54 85 55
REMARK SMILES IDX 50 56 51 57 65 59 86 60 53 61 37 62 38 63 46 64 39 65 41 66
REMARK SMILES IDX 47 67 40 68 42 69 43 70 44 71 45 72 69 73 70 74 78 75 71 76
REMARK SMILES IDX 73 77 79 78 72 79 74 80 75 81 76 82 77 83 54 84 55 85 63 86
REMARK SMILES IDX 56 87 58 88 64 89 57 90 59 91 60 92 61 93 62 94
REMARK H PARENT 21 6 25 28 84 47 52 58
REMARK Flexibility Score: inf
ROOT
ATOM      1  C   UNL A   1      35.896  20.797  24.999  1.00  0.00     0.042 C 
ENDROOT
BRANCH   1   2
ATOM      2  C   UNL A   1      34.713  21.580  25.547  1.00  0.00     0.117 C 
BRANCH   2   3
ATOM      3  N   UNL A   1      34.812  23.005  25.333  1.00  0.00    -0.356 N 
ATOM      4  O   UNL A   1      33.699  23.069  23.308  1.00  0.00    -0.275 OA
ATOM      5  C   UNL A   1      34.245  23.636  24.249  1.00  0.00     0.222 C 
ATOM      6  H   UNL A   1      35.305  23.547  25.991  1.00  0.00     0.163 HD
BRANCH   5   7
ATOM      7  C   UNL A   1      34.344  25.138  24.325  1.00  0.00     0.128 C 
BRANCH   7   8
ATOM      8  C   UNL A   1      33.192  25.845  23.590  1.00  0.00     0.129 C 
ATOM      9  C   UNL A   1      33.656  27.236  23.123  1.00  0.00     0.255 C 
ATOM     10  N   UNL A   1      31.993  26.037  24.432  1.00  0.00    -0.357 N 
ATOM     11  O   UNL A   1      34.051  28.064  24.229  1.00  0.00    -0.489 OA
ATOM     12  C   UNL A   1      32.100  27.082  25.358  1.00  0.00     0.080 A 
ATOM     13  C   UNL A   1      33.147  28.027  25.272  1.00  0.00     0.142 A 
ATOM     14  C   UNL A   1      31.235  27.195  26.451  1.00  0.00     0.030 A 
ATOM     15  C   UNL A   1      33.352  28.983  26.272  1.00  0.00     0.048 A 
ATOM     16  C   UNL A   1      31.422  28.162  27.444  1.00  0.00     0.002 A 
ATOM     17  C   UNL A   1      32.490  29.047  27.363  1.00  0.00     0.004 A 
BRANCH  10  18
ATOM     18  C   UNL A   1      30.679  25.626  23.909  1.00  0.00     0.152 C 
BRANCH  18  19
ATOM     19  C   UNL A   1      29.791  26.788  23.514  1.00  0.00    -0.029 A 
ATOM     20  C   UNL A   1      28.437  26.822  23.879  1.00  0.00     0.005 A 
ATOM     21  C   UNL A   1      30.297  27.854  22.754  1.00  0.00     0.005 A 
ATOM     22  C   UNL A   1      27.632  27.915  23.543  1.00  0.00     0.000 A 
ATOM     23  C   UNL A   1      29.501  28.957  22.439  1.00  0.00     0.000 A 
ATOM     24  C   UNL A   1      28.169  28.991  22.839  1.00  0.00     0.000 A 
ENDBRANCH  18  19
ENDBRANCH  10  18
ENDBRANCH   7   8
ENDBRANCH   5   7
ENDBRANCH   2   3
ENDBRANCH   1   2
BRANCH   1  25
ATOM     25  C   UNL A   1      37.270  21.410  25.257  1.00  0.00     0.118 C 
BRANCH  25  26
ATOM     26  N   UNL A   1      38.351  20.442  25.404  1.00  0.00    -0.352 N 
ATOM     27  C   UNL A   1      39.549  20.574  26.068  1.00  0.00     0.251 C 
ATOM     28  H   UNL A   1      38.203  19.573  24.966  1.00  0.00     0.163 HD
ATOM     29  O   UNL A   1      40.350  19.642  26.102  1.00  0.00    -0.269 OA
BRANCH  27  30
ATOM     30  C   UNL A   1      39.896  21.866  26.703  1.00  0.00     0.039 A 
ATOM     31  C   UNL A   1      40.878  21.882  27.697  1.00  0.00     0.014 A 
ATOM     32  C   UNL A   1      39.313  23.060  26.271  1.00  0.00     0.014 A 
ATOM     33  C   UNL A   1      41.360  23.104  28.176  1.00  0.00     0.010 A 
ATOM     34  C   UNL A   1      39.835  24.277  26.705  1.00  0.00     0.010 A 
ATOM     35  C   UNL A   1      40.885  24.311  27.637  1.00  0.00    -0.014 A 
BRANCH  35  36
ATOM     36  C   UNL A   1      41.530  25.612  27.956  1.00  0.00     0.031 A 
ATOM     37  C   UNL A   1      40.758  26.703  28.643  1.00  0.00     0.074 A 
ATOM     38  C   UNL A   1      42.776  25.853  27.502  1.00  0.00     0.049 A 
ATOM     39  N   UNL A   1      41.120  27.932  28.897  1.00  0.00    -0.248 NA
ATOM     40  C   UNL A   1      39.390  26.376  29.078  1.00  0.00     0.031 C 
ATOM     41  C   UNL A   1      43.600  24.904  26.748  1.00  0.00     0.029 A 
ATOM     42  N   UNL A   1      43.554  26.983  27.570  1.00  0.00    -0.354 N 
ATOM     43  C   UNL A   1      40.019  28.539  29.487  1.00  0.00     0.074 A 
ATOM     44  C   UNL A   1      38.966  27.547  29.535  1.00  0.00     0.031 C 
ATOM     45  C   UNL A   1      44.760  25.493  26.416  1.00  0.00     0.029 A 
ATOM     46  C   UNL A   1      44.754  26.868  26.906  1.00  0.00     0.049 A 
ATOM     47  H   UNL A   1      43.281  27.798  28.050  1.00  0.00     0.167 HD
ATOM     48  C   UNL A   1      39.901  29.800  29.968  1.00  0.00     0.034 A 
ATOM     49  C   UNL A   1      45.735  27.770  26.699  1.00  0.00     0.034 A 
ATOM     50  C   UNL A   1      40.963  30.771  29.960  1.00  0.00     0.049 A 
ATOM     51  C   UNL A   1      45.593  29.151  27.277  1.00  0.00     0.074 A 
ATOM     52  C   UNL A   1      40.972  32.040  30.513  1.00  0.00     0.029 A 
ATOM     53  N   UNL A   1      42.200  30.587  29.364  1.00  0.00    -0.354 N 
ATOM     54  N   UNL A   1      44.609  29.651  27.983  1.00  0.00    -0.248 NA
ATOM     55  C   UNL A   1      46.709  30.083  27.057  1.00  0.00     0.031 C 
ATOM     56  C   UNL A   1      42.212  32.628  30.240  1.00  0.00     0.029 A 
ATOM     57  C   UNL A   1      42.978  31.721  29.525  1.00  0.00     0.049 A 
ATOM     58  H   UNL A   1      42.485  29.770  28.894  1.00  0.00     0.167 HD
ATOM     59  C   UNL A   1      44.996  30.943  28.316  1.00  0.00     0.074 A 
ATOM     60  C   UNL A   1      46.317  31.142  27.754  1.00  0.00     0.031 C 
ATOM     61  C   UNL A   1      44.312  31.888  29.008  1.00  0.00     0.034 A 
BRANCH  48  62
ATOM     62  C   UNL A   1      38.593  30.186  30.606  1.00  0.00     0.023 A 
ATOM     63  C   UNL A   1      38.350  29.828  31.948  1.00  0.00     0.012 A 
ATOM     64  C   UNL A   1      37.635  30.946  29.908  1.00  0.00     0.148 A 
ATOM     65  C   UNL A   1      37.161  30.193  32.577  1.00  0.00     0.002 A 
ATOM     66  C   UNL A   1      36.468  31.339  30.555  1.00  0.00     0.091 A 
ATOM     67  F   UNL A   1      37.873  31.257  28.626  1.00  0.00    -0.205 F 
ATOM     68  C   UNL A   1      36.226  30.956  31.885  1.00  0.00     0.022 A 
BRANCH  66  69
ATOM     69  S   UNL A   1      35.233  32.381  29.769  1.00  0.00     0.127 S 
ATOM     70  O   UNL A   1      34.328  32.658  30.883  1.00  0.00    -0.237 OA
ATOM     71  O   UNL A   1      36.029  33.528  29.329  1.00  0.00    -0.237 OA
ATOM     72  O   UNL A   1      34.671  31.585  28.686  1.00  0.00    -0.744 OA
ENDBRANCH  66  69
ENDBRANCH  48  62
BRANCH  49  73
ATOM     73  C   UNL A   1      46.968  27.370  25.964  1.00  0.00     0.023 A 
ATOM     74  C   UNL A   1      47.947  26.609  26.631  1.00  0.00     0.012 A 
ATOM     75  C   UNL A   1      47.161  27.702  24.609  1.00  0.00     0.148 A 
ATOM     76  C   UNL A   1      49.108  26.206  25.970  1.00  0.00     0.002 A 
ATOM     77  C   UNL A   1      48.296  27.252  23.942  1.00  0.00     0.091 A 
ATOM     78  F   UNL A   1      46.226  28.441  23.994  1.00  0.00    -0.205 F 
ATOM     79  C   UNL A   1      49.277  26.517  24.624  1.00  0.00     0.022 A 
BRANCH  77  80
ATOM     80  S   UNL A   1      48.528  27.496  22.176  1.00  0.00     0.127 S 
ATOM     81  O   UNL A   1      49.773  28.258  22.140  1.00  0.00    -0.237 OA
ATOM     82  O   UNL A   1      48.634  26.120  21.689  1.00  0.00    -0.237 OA
ATOM     83  O   UNL A   1      47.336  28.199  21.722  1.00  0.00    -0.744 OA
ENDBRANCH  77  80
ENDBRANCH  49  73
BRANCH  61  84
ATOM     84  C   UNL A   1      44.980  33.221  29.217  1.00  0.00     0.023 A 
ATOM     85  C   UNL A   1      45.773  33.428  30.362  1.00  0.00     0.012 A 
ATOM     86  C   UNL A   1      44.888  34.237  28.245  1.00  0.00     0.148 A 
ATOM     87  C   UNL A   1      46.448  34.633  30.550  1.00  0.00     0.002 A 
ATOM     88  C   UNL A   1      45.598  35.419  28.418  1.00  0.00     0.091 A 
ATOM     89  F   UNL A   1      44.111  34.029  27.172  1.00  0.00    -0.205 F 
ATOM     90  C   UNL A   1      46.371  35.623  29.574  1.00  0.00     0.022 A 
BRANCH  88  91
ATOM     91  S   UNL A   1      45.629  36.713  27.171  1.00  0.00     0.127 S 
ATOM     92  O   UNL A   1      46.494  37.711  27.796  1.00  0.00    -0.237 OA
ATOM     93  O   UNL A   1      46.221  36.026  26.022  1.00  0.00    -0.237 OA
ATOM     94  O   UNL A   1      44.243  37.116  26.980  1.00  0.00    -0.744 OA
ENDBRANCH  88  91
ENDBRANCH  61  84
ENDBRANCH  35  36
ENDBRANCH  27  30
ENDBRANCH  25  26
ENDBRANCH   1  25
TORSDOF 16
ENDMDL
MODEL 3
REMARK VINA RESULT:     -12.5      1.189      2.123
REMARK SMILES O=C(C[C@@H]1COc2ccccc2N1Cc1ccccc1)NCCCNC(=O)c1ccc(-c2c3nc(c(-c4cccc(S(=O)(=O)[O-])c4F)c4ccc([nH]4)c(-c4cccc(S(=O)(=O)[O-])c4F)c4nc(c(-c5cccc(S(=O)(=O)[O-])c5F)c5ccc2[nH]5)C=C4)C=C3)cc1
REMARK SMILES IDX 23 1 22 2 21 3 1 4 2 5 3 7 4 8 5 9 13 10 6 11 12 12 7 13
REMARK SMILES IDX 11 14 8 15 10 16 9 17 14 18 15 19 16 20 20 21 17 22 19 23
REMARK SMILES IDX 18 24 24 25 25 26 26 27 27 29 28 30 29 31 90 32 30 33 89 34
REMARK SMILES IDX 31 35 32 36 33 37 83 38 34 39 88 40 82 41 84 42 35 43 87 44
REMARK SMILES IDX 81 45 80 46 36 48 68 49 48 50 67 51 49 52 52 53 66 54 85 55
REMARK SMILES IDX 50 56 51 57 65 59 86 60 53 61 37 62 38 63 46 64 39 65 41 66
REMARK SMILES IDX 47 67 40 68 42 69 43 70 44 71 45 72 69 73 70 74 78 75 71 76
REMARK SMILES IDX 73 77 79 78 72 79 74 80 75 81 76 82 77 83 54 84 55 85 63 86
REMARK SMILES IDX 56 87 58 88 64 89 57 90 59 91 60 92 61 93 62 94
REMARK H PARENT 21 6 25 28 84 47 52 58
REMARK Flexibility Score: inf
ROOT
ATOM      1  C   UNL A   1      31.634  30.020  25.096  1.00  0.00     0.042 C 
ENDROOT
BRANCH   1   2
ATOM      2  C   UNL A   1      31.160  28.587  24.911  1.00  0.00     0.117 C 
BRANCH   2   3
ATOM      3  N   UNL A   1      32.182  27.600  25.173  1.00  0.00    -0.356 N 
ATOM      4  O   UNL A   1      31.073  26.483  26.866  1.00  0.00    -0.275 OA
ATOM      5  C   UNL A   1      32.024  26.593  26.099  1.00  0.00     0.222 C 
ATOM      6  H   UNL A   1      33.025  27.649  24.668  1.00  0.00     0.163 HD
BRANCH   5   7
ATOM      7  C   UNL A   1      33.154  25.597  26.082  1.00  0.00     0.128 C 
BRANCH   7   8
ATOM      8  C   UNL A   1      32.673  24.160  25.812  1.00  0.00     0.129 C 
ATOM      9  C   UNL A   1      33.202  23.225  26.913  1.00  0.00     0.255 C 
ATOM     10  N   UNL A   1      33.132  23.624  24.515  1.00  0.00    -0.357 N 
ATOM     11  O   UNL A   1      34.638  23.210  26.954  1.00  0.00    -0.489 OA
ATOM     12  C   UNL A   1      34.474  23.223  24.500  1.00  0.00     0.080 A 
ATOM     13  C   UNL A   1      35.205  23.082  25.701  1.00  0.00     0.142 A 
ATOM     14  C   UNL A   1      35.174  23.021  23.306  1.00  0.00     0.030 A 
ATOM     15  C   UNL A   1      36.580  22.828  25.692  1.00  0.00     0.048 A 
ATOM     16  C   UNL A   1      36.545  22.745  23.292  1.00  0.00     0.002 A 
ATOM     17  C   UNL A   1      37.253  22.664  24.484  1.00  0.00     0.004 A 
BRANCH  10  18
ATOM     18  C   UNL A   1      32.151  23.005  23.609  1.00  0.00     0.152 C 
BRANCH  18  19
ATOM     19  C   UNL A   1      32.222  21.492  23.578  1.00  0.00    -0.029 A 
ATOM     20  C   UNL A   1      32.125  20.786  22.370  1.00  0.00     0.005 A 
ATOM     21  C   UNL A   1      32.366  20.755  24.764  1.00  0.00     0.005 A 
ATOM     22  C   UNL A   1      32.228  19.391  22.345  1.00  0.00     0.000 A 
ATOM     23  C   UNL A   1      32.494  19.364  24.738  1.00  0.00     0.000 A 
ATOM     24  C   UNL A   1      32.431  18.682  23.527  1.00  0.00     0.000 A 
ENDBRANCH  18  19
ENDBRANCH  10  18
ENDBRANCH   7   8
ENDBRANCH   5   7
ENDBRANCH   2   3
ENDBRANCH   1   2
BRANCH   1  25
ATOM     25  C   UNL A   1      32.242  30.344  26.458  1.00  0.00     0.118 C 
BRANCH  25  26
ATOM     26  N   UNL A   1      32.077  31.729  26.885  1.00  0.00    -0.352 N 
ATOM     27  C   UNL A   1      32.990  32.567  27.483  1.00  0.00     0.251 C 
ATOM     28  H   UNL A   1      31.188  32.119  26.722  1.00  0.00     0.163 HD
ATOM     29  O   UNL A   1      32.684  33.722  27.769  1.00  0.00    -0.269 OA
BRANCH  27  30
ATOM     30  C   UNL A   1      34.336  32.055  27.830  1.00  0.00     0.039 A 
ATOM     31  C   UNL A   1      35.400  32.958  27.898  1.00  0.00     0.014 A 
ATOM     32  C   UNL A   1      34.533  30.711  28.159  1.00  0.00     0.014 A 
ATOM     33  C   UNL A   1      36.634  32.540  28.407  1.00  0.00     0.010 A 
ATOM     34  C   UNL A   1      35.743  30.311  28.721  1.00  0.00     0.010 A 
ATOM     35  C   UNL A   1      36.794  31.228  28.880  1.00  0.00    -0.014 A 
BRANCH  35  36
ATOM     36  C   UNL A   1      38.010  30.815  29.630  1.00  0.00     0.031 A 
ATOM     37  C   UNL A   1      38.959  29.803  29.055  1.00  0.00     0.074 A 
ATOM     38  C   UNL A   1      38.182  31.257  30.892  1.00  0.00     0.049 A 
ATOM     39  N   UNL A   1      40.002  29.244  29.610  1.00  0.00    -0.248 NA
ATOM     40  C   UNL A   1      38.686  29.340  27.684  1.00  0.00     0.031 C 
ATOM     41  C   UNL A   1      37.284  32.177  31.596  1.00  0.00     0.029 A 
ATOM     42  N   UNL A   1      39.146  30.961  31.824  1.00  0.00    -0.354 N 
ATOM     43  C   UNL A   1      40.490  28.338  28.677  1.00  0.00     0.074 A 
ATOM     44  C   UNL A   1      39.616  28.408  27.525  1.00  0.00     0.031 C 
ATOM     45  C   UNL A   1      37.733  32.362  32.847  1.00  0.00     0.029 A 
ATOM     46  C   UNL A   1      38.932  31.554  33.048  1.00  0.00     0.049 A 
ATOM     47  H   UNL A   1      39.919  30.381  31.636  1.00  0.00     0.167 HD
ATOM     48  C   UNL A   1      41.581  27.539  28.759  1.00  0.00     0.034 A 
ATOM     49  C   UNL A   1      39.613  31.450  34.207  1.00  0.00     0.034 A 
ATOM     50  C   UNL A   1      42.474  27.504  29.887  1.00  0.00     0.049 A 
ATOM     51  C   UNL A   1      40.842  30.584  34.259  1.00  0.00     0.074 A 
ATOM     52  C   UNL A   1      43.659  26.803  30.024  1.00  0.00     0.029 A 
ATOM     53  N   UNL A   1      42.279  28.193  31.074  1.00  0.00    -0.354 N 
ATOM     54  N   UNL A   1      41.384  29.866  33.306  1.00  0.00    -0.248 NA
ATOM     55  C   UNL A   1      41.570  30.538  35.535  1.00  0.00     0.031 C 
ATOM     56  C   UNL A   1      44.174  27.058  31.300  1.00  0.00     0.029 A 
ATOM     57  C   UNL A   1      43.314  27.926  31.953  1.00  0.00     0.049 A 
ATOM     58  H   UNL A   1      41.516  28.785  31.264  1.00  0.00     0.167 HD
ATOM     59  C   UNL A   1      42.531  29.306  33.856  1.00  0.00     0.074 A 
ATOM     60  C   UNL A   1      42.618  29.787  35.220  1.00  0.00     0.031 C 
ATOM     61  C   UNL A   1      43.419  28.453  33.290  1.00  0.00     0.034 A 
BRANCH  48  62
ATOM     62  C   UNL A   1      41.909  26.678  27.569  1.00  0.00     0.023 A 
ATOM     63  C   UNL A   1      42.548  27.261  26.455  1.00  0.00     0.012 A 
ATOM     64  C   UNL A   1      41.646  25.296  27.570  1.00  0.00     0.148 A 
ATOM     65  C   UNL A   1      42.891  26.487  25.347  1.00  0.00     0.002 A 
ATOM     66  C   UNL A   1      42.025  24.523  26.477  1.00  0.00     0.091 A 
ATOM     67  F   UNL A   1      41.018  24.764  28.629  1.00  0.00    -0.205 F 
ATOM     68  C   UNL A   1      42.639  25.119  25.363  1.00  0.00     0.022 A 
BRANCH  66  69
ATOM     69  S   UNL A   1      41.805  22.740  26.432  1.00  0.00     0.127 S 
ATOM     70  O   UNL A   1      40.350  22.621  26.505  1.00  0.00    -0.237 OA
ATOM     71  O   UNL A   1      42.381  22.390  25.133  1.00  0.00    -0.237 OA
ATOM     72  O   UNL A   1      42.537  22.219  27.578  1.00  0.00    -0.744 OA
ENDBRANCH  66  69
ENDBRANCH  48  62
BRANCH  49  73
ATOM     73  C   UNL A   1      39.183  32.241  35.394  1.00  0.00     0.023 A 
ATOM     74  C   UNL A   1      38.318  31.649  36.335  1.00  0.00     0.012 A 
ATOM     75  C   UNL A   1      39.650  33.550  35.619  1.00  0.00     0.148 A 
ATOM     76  C   UNL A   1      37.905  32.356  37.466  1.00  0.00     0.002 A 
ATOM     77  C   UNL A   1      39.276  34.230  36.774  1.00  0.00     0.091 A 
ATOM     78  F   UNL A   1      40.459  34.103  34.704  1.00  0.00    -0.205 F 
ATOM     79  C   UNL A   1      38.393  33.640  37.691  1.00  0.00     0.022 A 
BRANCH  77  80
ATOM     80  S   UNL A   1      39.962  35.834  37.204  1.00  0.00     0.127 S 
ATOM     81  O   UNL A   1      39.235  36.152  38.430  1.00  0.00    -0.237 OA
ATOM     82  O   UNL A   1      41.379  35.519  37.393  1.00  0.00    -0.237 OA
ATOM     83  O   UNL A   1      39.690  36.692  36.060  1.00  0.00    -0.744 OA
ENDBRANCH  77  80
ENDBRANCH  49  73
BRANCH  61  84
ATOM     84  C   UNL A   1      44.580  27.994  34.131  1.00  0.00     0.023 A 
ATOM     85  C   UNL A   1      45.764  28.757  34.157  1.00  0.00     0.012 A 
ATOM     86  C   UNL A   1      44.472  26.856  34.955  1.00  0.00     0.148 A 
ATOM     87  C   UNL A   1      46.831  28.384  34.972  1.00  0.00     0.002 A 
ATOM     88  C   UNL A   1      45.524  26.515  35.798  1.00  0.00     0.091 A 
ATOM     89  F   UNL A   1      43.345  26.131  34.902  1.00  0.00    -0.205 F 
ATOM     90  C   UNL A   1      46.707  27.272  35.801  1.00  0.00     0.022 A 
BRANCH  88  91
ATOM     91  S   UNL A   1      45.417  25.152  36.964  1.00  0.00     0.127 S 
ATOM     92  O   UNL A   1      45.275  24.005  36.070  1.00  0.00    -0.237 OA
ATOM     93  O   UNL A   1      46.704  25.230  37.657  1.00  0.00    -0.237 OA
ATOM     94  O   UNL A   1      44.264  25.436  37.806  1.00  0.00    -0.744 OA
ENDBRANCH  88  91
ENDBRANCH  61  84
ENDBRANCH  35  36
ENDBRANCH  27  30
ENDBRANCH  25  26
ENDBRANCH   1  25
TORSDOF 16
ENDMDL
