MODEL 1
REMARK VINA RESULT:     -11.3      0.000      0.000
REMARK SMILES CC(C)(C)c1ccc(OCC(=O)N/N=C/c2ccc(C(=O)NCCCNC(=O)c3ccc(-c4c5nc(c(-c6cccc(S(=O)(=O)[O-])c6F)c6ccc([nH]6)c(-c6cccc(S(=O)(=O)[O-])c6F)c6nc(c(-c7cccc(S(=O)(=O)[O-])c7F)c7ccc4[nH]7)C=C6)C=C5)cc3)cc2)cc1
REMARK SMILES IDX 20 1 21 2 22 3 19 5 16 6 17 7 93 8 18 9 92 10 15 11 14 12
REMARK SMILES IDX 13 13 11 14 12 15 10 17 9 18 8 19 5 20 6 21 95 22 7 23 94 24
REMARK SMILES IDX 2 25 1 26 3 27 4 28 23 29 24 30 25 31 26 32 27 33 28 35
REMARK SMILES IDX 29 36 30 37 91 38 31 39 90 40 32 41 33 42 34 43 84 44 35 45
REMARK SMILES IDX 89 46 83 47 85 48 36 49 88 50 82 51 81 52 37 54 69 55 49 56
REMARK SMILES IDX 68 57 50 58 53 59 67 60 86 61 51 62 52 63 66 65 87 66 54 67
REMARK SMILES IDX 38 68 39 69 47 70 40 71 42 72 48 73 41 74 43 75 44 76 45 77
REMARK SMILES IDX 46 78 70 79 71 80 79 81 72 82 74 83 80 84 73 85 75 86 76 87
REMARK SMILES IDX 77 88 78 89 55 90 56 91 64 92 57 93 59 94 65 95 58 96 60 97
REMARK SMILES IDX 61 98 62 99 63 100
REMARK H PARENT 22 4 13 16 26 34 85 53 53 64
REMARK Flexibility Score: inf
ROOT
ATOM      1  C   UNL A   1      31.095  28.399  22.490  1.00  0.00     0.251 C 
ATOM      2  O   UNL A   1      30.109  28.916  21.962  1.00  0.00    -0.269 OA
ATOM      3  N   UNL A   1      32.158  29.206  22.800  1.00  0.00    -0.352 N 
ATOM      4  H   UNL A   1      32.061  30.137  22.495  1.00  0.00     0.163 HD
ENDROOT
BRANCH   1   5
ATOM      5  C   UNL A   1      31.067  26.944  22.805  1.00  0.00     0.039 A 
ATOM      6  C   UNL A   1      31.178  24.213  23.328  1.00  0.00    -0.005 A 
ATOM      7  C   UNL A   1      32.035  24.756  22.373  1.00  0.00     0.010 A 
ATOM      8  C   UNL A   1      30.282  25.004  24.035  1.00  0.00     0.010 A 
ATOM      9  C   UNL A   1      31.963  26.122  22.100  1.00  0.00     0.014 A 
ATOM     10  C   UNL A   1      30.260  26.374  23.796  1.00  0.00     0.014 A 
BRANCH   6  11
ATOM     11  C   UNL A   1      31.352  22.826  23.752  1.00  0.00     0.141 C 
ATOM     12  N   UNL A   1      31.737  22.536  24.943  1.00  0.00    -0.181 NA
BRANCH  12  13
ATOM     13  N   UNL A   1      31.938  21.253  25.353  1.00  0.00    -0.244 N 
ATOM     14  C   UNL A   1      32.967  20.355  25.249  1.00  0.00     0.277 C 
ATOM     15  O   UNL A   1      32.834  19.256  25.808  1.00  0.00    -0.269 OA
ATOM     16  H   UNL A   1      31.164  20.885  25.838  1.00  0.00     0.193 HD
BRANCH  14  17
ATOM     17  C   UNL A   1      34.259  20.651  24.486  1.00  0.00     0.331 C 
BRANCH  17  18
ATOM     18  O   UNL A   1      34.593  22.015  24.271  1.00  0.00    -0.484 OA
BRANCH  18  19
ATOM     19  C   UNL A   1      35.668  22.510  24.949  1.00  0.00     0.120 A 
ATOM     20  C   UNL A   1      38.056  23.383  26.202  1.00  0.00    -0.042 A 
ATOM     21  C   UNL A   1      38.015  22.182  25.477  1.00  0.00     0.008 A 
ATOM     22  C   UNL A   1      36.855  24.105  26.318  1.00  0.00     0.008 A 
ATOM     23  C   UNL A   1      36.837  21.757  24.852  1.00  0.00     0.047 A 
ATOM     24  C   UNL A   1      35.682  23.685  25.688  1.00  0.00     0.047 A 
BRANCH  20  25
ATOM     25  C   UNL A   1      39.339  23.918  26.856  1.00  0.00    -0.013 C 
ATOM     26  C   UNL A   1      40.245  22.728  27.228  1.00  0.00     0.016 C 
ATOM     27  C   UNL A   1      38.996  24.717  28.136  1.00  0.00     0.016 C 
ATOM     28  C   UNL A   1      40.144  24.869  25.942  1.00  0.00     0.016 C 
ENDBRANCH  20  25
ENDBRANCH  18  19
ENDBRANCH  17  18
ENDBRANCH  14  17
ENDBRANCH  12  13
ENDBRANCH   6  11
ENDBRANCH   1   5
BRANCH   3  29
ATOM     29  C   UNL A   1      33.400  28.931  23.497  1.00  0.00     0.118 C 
BRANCH  29  30
ATOM     30  C   UNL A   1      33.139  28.431  24.917  1.00  0.00     0.042 C 
BRANCH  30  31
ATOM     31  C   UNL A   1      34.071  29.053  25.949  1.00  0.00     0.118 C 
BRANCH  31  32
ATOM     32  N   UNL A   1      33.664  30.408  26.288  1.00  0.00    -0.352 N 
ATOM     33  C   UNL A   1      34.053  31.199  27.338  1.00  0.00     0.251 C 
ATOM     34  H   UNL A   1      33.014  30.817  25.672  1.00  0.00     0.163 HD
ATOM     35  O   UNL A   1      33.412  32.215  27.595  1.00  0.00    -0.269 OA
BRANCH  33  36
ATOM     36  C   UNL A   1      35.230  30.835  28.154  1.00  0.00     0.039 A 
ATOM     37  C   UNL A   1      36.372  31.637  28.086  1.00  0.00     0.014 A 
ATOM     38  C   UNL A   1      35.227  29.684  28.948  1.00  0.00     0.014 A 
ATOM     39  C   UNL A   1      37.497  31.306  28.842  1.00  0.00     0.010 A 
ATOM     40  C   UNL A   1      36.322  29.397  29.758  1.00  0.00     0.010 A 
ATOM     41  C   UNL A   1      37.474  30.195  29.700  1.00  0.00    -0.014 A 
BRANCH  41  42
ATOM     42  C   UNL A   1      38.644  29.848  30.543  1.00  0.00     0.031 A 
ATOM     43  C   UNL A   1      38.820  30.488  31.894  1.00  0.00     0.074 A 
ATOM     44  C   UNL A   1      39.589  29.023  30.054  1.00  0.00     0.049 A 
ATOM     45  N   UNL A   1      39.803  30.356  32.745  1.00  0.00    -0.248 NA
ATOM     46  C   UNL A   1      37.768  31.420  32.333  1.00  0.00     0.031 C 
ATOM     47  C   UNL A   1      39.567  28.406  28.726  1.00  0.00     0.029 A 
ATOM     48  N   UNL A   1      40.767  28.585  30.604  1.00  0.00    -0.354 N 
ATOM     49  C   UNL A   1      39.510  31.214  33.799  1.00  0.00     0.074 A 
ATOM     50  C   UNL A   1      38.273  31.885  33.467  1.00  0.00     0.031 C 
ATOM     51  C   UNL A   1      40.678  27.669  28.565  1.00  0.00     0.029 A 
ATOM     52  C   UNL A   1      41.502  27.782  29.763  1.00  0.00     0.049 A 
ATOM     53  H   UNL A   1      41.058  28.822  31.514  1.00  0.00     0.167 HD
ATOM     54  C   UNL A   1      40.193  31.403  34.953  1.00  0.00     0.034 A 
ATOM     55  C   UNL A   1      42.709  27.208  29.937  1.00  0.00     0.034 A 
ATOM     56  C   UNL A   1      41.397  30.696  35.298  1.00  0.00     0.049 A 
ATOM     57  C   UNL A   1      43.422  27.394  31.249  1.00  0.00     0.074 A 
ATOM     58  C   UNL A   1      42.116  30.745  36.479  1.00  0.00     0.029 A 
ATOM     59  N   UNL A   1      42.064  29.816  34.460  1.00  0.00    -0.354 N 
ATOM     60  N   UNL A   1      43.047  28.081  32.299  1.00  0.00    -0.248 NA
ATOM     61  C   UNL A   1      44.704  26.695  31.413  1.00  0.00     0.031 C 
ATOM     62  C   UNL A   1      43.229  29.907  36.347  1.00  0.00     0.029 A 
ATOM     63  C   UNL A   1      43.190  29.319  35.093  1.00  0.00     0.049 A 
ATOM     64  H   UNL A   1      41.779  29.579  33.547  1.00  0.00     0.167 HD
ATOM     65  C   UNL A   1      44.026  27.870  33.263  1.00  0.00     0.074 A 
ATOM     66  C   UNL A   1      45.001  26.973  32.675  1.00  0.00     0.031 C 
ATOM     67  C   UNL A   1      44.120  28.384  34.513  1.00  0.00     0.034 A 
BRANCH  54  68
ATOM     68  C   UNL A   1      39.624  32.374  35.955  1.00  0.00     0.023 A 
ATOM     69  C   UNL A   1      38.664  31.926  36.886  1.00  0.00     0.012 A 
ATOM     70  C   UNL A   1      40.074  33.707  36.015  1.00  0.00     0.148 A 
ATOM     71  C   UNL A   1      38.136  32.798  37.837  1.00  0.00     0.002 A 
ATOM     72  C   UNL A   1      39.575  34.559  36.995  1.00  0.00     0.091 A 
ATOM     73  F   UNL A   1      40.971  34.122  35.108  1.00  0.00    -0.205 F 
ATOM     74  C   UNL A   1      38.599  34.109  37.898  1.00  0.00     0.022 A 
BRANCH  72  75
ATOM     75  S   UNL A   1      40.165  36.242  37.207  1.00  0.00     0.127 S 
ATOM     76  O   UNL A   1      41.578  36.023  37.514  1.00  0.00    -0.237 OA
ATOM     77  O   UNL A   1      39.911  36.826  35.890  1.00  0.00    -0.237 OA
ATOM     78  O   UNL A   1      39.371  36.813  38.286  1.00  0.00    -0.744 OA
ENDBRANCH  72  75
ENDBRANCH  54  68
BRANCH  55  79
ATOM     79  C   UNL A   1      43.279  26.343  28.866  1.00  0.00     0.023 A 
ATOM     80  C   UNL A   1      42.891  24.992  28.791  1.00  0.00     0.012 A 
ATOM     81  C   UNL A   1      44.167  26.857  27.901  1.00  0.00     0.148 A 
ATOM     82  C   UNL A   1      43.401  24.159  27.794  1.00  0.00     0.002 A 
ATOM     83  C   UNL A   1      44.628  26.037  26.878  1.00  0.00     0.091 A 
ATOM     84  F   UNL A   1      44.532  28.144  27.995  1.00  0.00    -0.205 F 
ATOM     85  C   UNL A   1      44.260  24.684  26.832  1.00  0.00     0.022 A 
BRANCH  83  86
ATOM     86  S   UNL A   1      45.626  26.661  25.521  1.00  0.00     0.127 S 
ATOM     87  O   UNL A   1      44.766  27.705  24.971  1.00  0.00    -0.237 OA
ATOM     88  O   UNL A   1      46.817  27.147  26.220  1.00  0.00    -0.237 OA
ATOM     89  O   UNL A   1      45.869  25.516  24.654  1.00  0.00    -0.744 OA
ENDBRANCH  83  86
ENDBRANCH  55  79
BRANCH  67  90
ATOM     90  C   UNL A   1      45.299  27.967  35.353  1.00  0.00     0.023 A 
ATOM     91  C   UNL A   1      46.470  28.751  35.353  1.00  0.00     0.012 A 
ATOM     92  C   UNL A   1      45.217  26.844  36.198  1.00  0.00     0.148 A 
ATOM     93  C   UNL A   1      47.554  28.405  36.159  1.00  0.00     0.002 A 
ATOM     94  C   UNL A   1      46.282  26.533  37.036  1.00  0.00     0.091 A 
ATOM     95  F   UNL A   1      44.102  26.100  36.170  1.00  0.00    -0.205 F 
ATOM     96  C   UNL A   1      47.455  27.305  37.009  1.00  0.00     0.022 A 
BRANCH  94  97
ATOM     97  S   UNL A   1      46.206  25.194  38.231  1.00  0.00     0.127 S 
ATOM     98  O   UNL A   1      46.387  24.021  37.376  1.00  0.00    -0.237 OA
ATOM     99  O   UNL A   1      47.341  25.493  39.105  1.00  0.00    -0.237 OA
ATOM    100  O   UNL A   1      44.903  25.304  38.874  1.00  0.00    -0.744 OA
ENDBRANCH  94  97
ENDBRANCH  67  90
ENDBRANCH  41  42
ENDBRANCH  33  36
ENDBRANCH  31  32
ENDBRANCH  30  31
ENDBRANCH  29  30
ENDBRANCH   3  29
TORSDOF 19
ENDMDL
MODEL 2
REMARK VINA RESULT:     -11.1      4.582     11.547
REMARK SMILES CC(C)(C)c1ccc(OCC(=O)N/N=C/c2ccc(C(=O)NCCCNC(=O)c3ccc(-c4c5nc(c(-c6cccc(S(=O)(=O)[O-])c6F)c6ccc([nH]6)c(-c6cccc(S(=O)(=O)[O-])c6F)c6nc(c(-c7cccc(S(=O)(=O)[O-])c7F)c7ccc4[nH]7)C=C6)C=C5)cc3)cc2)cc1
REMARK SMILES IDX 20 1 21 2 22 3 19 5 16 6 17 7 93 8 18 9 92 10 15 11 14 12
REMARK SMILES IDX 13 13 11 14 12 15 10 17 9 18 8 19 5 20 6 21 95 22 7 23 94 24
REMARK SMILES IDX 2 25 1 26 3 27 4 28 23 29 24 30 25 31 26 32 27 33 28 35
REMARK SMILES IDX 29 36 30 37 91 38 31 39 90 40 32 41 33 42 34 43 84 44 35 45
REMARK SMILES IDX 89 46 83 47 85 48 36 49 88 50 82 51 81 52 37 54 69 55 49 56
REMARK SMILES IDX 68 57 50 58 53 59 67 60 86 61 51 62 52 63 66 65 87 66 54 67
REMARK SMILES IDX 38 68 39 69 47 70 40 71 42 72 48 73 41 74 43 75 44 76 45 77
REMARK SMILES IDX 46 78 70 79 71 80 79 81 72 82 74 83 80 84 73 85 75 86 76 87
REMARK SMILES IDX 77 88 78 89 55 90 56 91 64 92 57 93 59 94 65 95 58 96 60 97
REMARK SMILES IDX 61 98 62 99 63 100
REMARK H PARENT 22 4 13 16 26 34 85 53 53 64
REMARK Flexibility Score: inf
ROOT
ATOM      1  C   UNL A   1      45.651  23.583  26.855  1.00  0.00     0.251 C 
ATOM      2  O   UNL A   1      46.788  23.234  26.538  1.00  0.00    -0.269 OA
ATOM      3  N   UNL A   1      44.640  23.388  25.950  1.00  0.00    -0.352 N 
ATOM      4  H   UNL A   1      44.940  23.045  25.077  1.00  0.00     0.163 HD
ENDROOT
BRANCH   1   5
ATOM      5  C   UNL A   1      45.421  24.153  28.211  1.00  0.00     0.039 A 
ATOM      6  C   UNL A   1      44.874  25.090  30.774  1.00  0.00    -0.005 A 
ATOM      7  C   UNL A   1      43.943  24.273  30.138  1.00  0.00     0.010 A 
ATOM      8  C   UNL A   1      46.075  25.434  30.168  1.00  0.00     0.010 A 
ATOM      9  C   UNL A   1      44.212  23.821  28.846  1.00  0.00     0.014 A 
ATOM     10  C   UNL A   1      46.358  24.930  28.902  1.00  0.00     0.014 A 
BRANCH   6  11
ATOM     11  C   UNL A   1      44.695  25.432  32.183  1.00  0.00     0.141 C 
ATOM     12  N   UNL A   1      43.854  26.332  32.549  1.00  0.00    -0.181 NA
BRANCH  12  13
ATOM     13  N   UNL A   1      43.692  26.692  33.852  1.00  0.00    -0.244 N 
ATOM     14  C   UNL A   1      43.247  27.817  34.495  1.00  0.00     0.277 C 
ATOM     15  O   UNL A   1      43.170  27.782  35.733  1.00  0.00    -0.269 OA
ATOM     16  H   UNL A   1      43.954  25.979  34.478  1.00  0.00     0.193 HD
BRANCH  14  17
ATOM     17  C   UNL A   1      42.841  29.094  33.760  1.00  0.00     0.331 C 
BRANCH  17  18
ATOM     18  O   UNL A   1      41.463  29.266  33.461  1.00  0.00    -0.484 OA
BRANCH  18  19
ATOM     19  C   UNL A   1      40.859  30.399  33.922  1.00  0.00     0.120 A 
ATOM     20  C   UNL A   1      39.399  32.597  34.959  1.00  0.00    -0.042 A 
ATOM     21  C   UNL A   1      38.760  31.390  34.636  1.00  0.00     0.008 A 
ATOM     22  C   UNL A   1      40.780  32.681  34.703  1.00  0.00     0.008 A 
ATOM     23  C   UNL A   1      39.485  30.303  34.132  1.00  0.00     0.047 A 
ATOM     24  C   UNL A   1      41.503  31.595  34.207  1.00  0.00     0.047 A 
BRANCH  20  25
ATOM     25  C   UNL A   1      38.657  33.795  35.568  1.00  0.00    -0.013 C 
ATOM     26  C   UNL A   1      38.290  33.467  37.029  1.00  0.00     0.016 C 
ATOM     27  C   UNL A   1      37.364  34.087  34.771  1.00  0.00     0.016 C 
ATOM     28  C   UNL A   1      39.486  35.099  35.561  1.00  0.00     0.016 C 
ENDBRANCH  20  25
ENDBRANCH  18  19
ENDBRANCH  17  18
ENDBRANCH  14  17
ENDBRANCH  12  13
ENDBRANCH   6  11
ENDBRANCH   1   5
BRANCH   3  29
ATOM     29  C   UNL A   1      43.208  23.597  26.051  1.00  0.00     0.118 C 
BRANCH  29  30
ATOM     30  C   UNL A   1      42.434  22.380  25.548  1.00  0.00     0.042 C 
BRANCH  30  31
ATOM     31  C   UNL A   1      41.419  21.859  26.557  1.00  0.00     0.118 C 
BRANCH  31  32
ATOM     32  N   UNL A   1      40.056  22.008  26.069  1.00  0.00    -0.352 N 
ATOM     33  C   UNL A   1      39.156  23.018  26.290  1.00  0.00     0.251 C 
ATOM     34  H   UNL A   1      39.734  21.276  25.496  1.00  0.00     0.163 HD
ATOM     35  O   UNL A   1      37.975  22.845  26.001  1.00  0.00    -0.269 OA
BRANCH  33  36
ATOM     36  C   UNL A   1      39.600  24.303  26.871  1.00  0.00     0.039 A 
ATOM     37  C   UNL A   1      40.086  25.297  26.017  1.00  0.00     0.014 A 
ATOM     38  C   UNL A   1      39.579  24.514  28.253  1.00  0.00     0.014 A 
ATOM     39  C   UNL A   1      40.518  26.514  26.546  1.00  0.00     0.010 A 
ATOM     40  C   UNL A   1      39.939  25.754  28.771  1.00  0.00     0.010 A 
ATOM     41  C   UNL A   1      40.428  26.760  27.925  1.00  0.00    -0.014 A 
BRANCH  41  42
ATOM     42  C   UNL A   1      40.843  28.061  28.504  1.00  0.00     0.031 A 
ATOM     43  C   UNL A   1      42.302  28.371  28.701  1.00  0.00     0.074 A 
ATOM     44  C   UNL A   1      39.902  28.924  28.932  1.00  0.00     0.049 A 
ATOM     45  N   UNL A   1      42.854  29.424  29.243  1.00  0.00    -0.248 NA
ATOM     46  C   UNL A   1      43.267  27.352  28.254  1.00  0.00     0.031 C 
ATOM     47  C   UNL A   1      38.456  28.698  28.869  1.00  0.00     0.029 A 
ATOM     48  N   UNL A   1      40.020  30.152  29.532  1.00  0.00    -0.354 N 
ATOM     49  C   UNL A   1      44.223  29.179  29.241  1.00  0.00     0.074 A 
ATOM     50  C   UNL A   1      44.416  27.864  28.670  1.00  0.00     0.031 C 
ATOM     51  C   UNL A   1      37.821  29.751  29.407  1.00  0.00     0.029 A 
ATOM     52  C   UNL A   1      38.812  30.713  29.878  1.00  0.00     0.049 A 
ATOM     53  H   UNL A   1      40.885  30.589  29.700  1.00  0.00     0.167 HD
ATOM     54  C   UNL A   1      45.229  29.989  29.647  1.00  0.00     0.034 A 
ATOM     55  C   UNL A   1      38.536  31.871  30.510  1.00  0.00     0.034 A 
ATOM     56  C   UNL A   1      45.032  31.315  30.168  1.00  0.00     0.049 A 
ATOM     57  C   UNL A   1      39.673  32.774  30.905  1.00  0.00     0.074 A 
ATOM     58  C   UNL A   1      45.987  32.252  30.522  1.00  0.00     0.029 A 
ATOM     59  N   UNL A   1      43.796  31.890  30.415  1.00  0.00    -0.354 N 
ATOM     60  N   UNL A   1      40.961  32.595  30.744  1.00  0.00    -0.248 NA
ATOM     61  C   UNL A   1      39.317  34.054  31.533  1.00  0.00     0.031 C 
ATOM     62  C   UNL A   1      45.326  33.388  31.001  1.00  0.00     0.029 A 
ATOM     63  C   UNL A   1      43.961  33.168  30.924  1.00  0.00     0.049 A 
ATOM     64  H   UNL A   1      42.927  31.455  30.253  1.00  0.00     0.167 HD
ATOM     65  C   UNL A   1      41.569  33.753  31.217  1.00  0.00     0.074 A 
ATOM     66  C   UNL A   1      40.504  34.634  31.651  1.00  0.00     0.031 C 
ATOM     67  C   UNL A   1      42.888  34.052  31.300  1.00  0.00     0.034 A 
BRANCH  54  68
ATOM     68  C   UNL A   1      46.641  29.485  29.492  1.00  0.00     0.023 A 
ATOM     69  C   UNL A   1      47.260  28.812  30.566  1.00  0.00     0.012 A 
ATOM     70  C   UNL A   1      47.335  29.624  28.274  1.00  0.00     0.148 A 
ATOM     71  C   UNL A   1      48.557  28.317  30.443  1.00  0.00     0.002 A 
ATOM     72  C   UNL A   1      48.612  29.089  28.144  1.00  0.00     0.091 A 
ATOM     73  F   UNL A   1      46.741  30.287  27.270  1.00  0.00    -0.205 F 
ATOM     74  C   UNL A   1      49.228  28.446  29.230  1.00  0.00     0.022 A 
BRANCH  72  75
ATOM     75  S   UNL A   1      49.529  29.134  26.600  1.00  0.00     0.127 S 
ATOM     76  O   UNL A   1      49.751  30.569  26.431  1.00  0.00    -0.237 OA
ATOM     77  O   UNL A   1      50.730  28.367  26.932  1.00  0.00    -0.237 OA
ATOM     78  O   UNL A   1      48.668  28.511  25.604  1.00  0.00    -0.744 OA
ENDBRANCH  72  75
ENDBRANCH  54  68
BRANCH  55  79
ATOM     79  C   UNL A   1      37.119  32.271  30.738  1.00  0.00     0.023 A 
ATOM     80  C   UNL A   1      36.546  32.082  32.011  1.00  0.00     0.012 A 
ATOM     81  C   UNL A   1      36.351  32.871  29.721  1.00  0.00     0.148 A 
ATOM     82  C   UNL A   1      35.225  32.454  32.259  1.00  0.00     0.002 A 
ATOM     83  C   UNL A   1      35.053  33.290  29.990  1.00  0.00     0.091 A 
ATOM     84  F   UNL A   1      36.911  33.033  28.514  1.00  0.00    -0.205 F 
ATOM     85  C   UNL A   1      34.483  33.068  31.253  1.00  0.00     0.022 A 
BRANCH  83  86
ATOM     86  S   UNL A   1      34.074  34.210  28.799  1.00  0.00     0.127 S 
ATOM     87  O   UNL A   1      33.813  33.198  27.779  1.00  0.00    -0.237 OA
ATOM     88  O   UNL A   1      32.910  34.597  29.597  1.00  0.00    -0.237 OA
ATOM     89  O   UNL A   1      34.911  35.328  28.384  1.00  0.00    -0.744 OA
ENDBRANCH  83  86
ENDBRANCH  55  79
BRANCH  67  90
ATOM     90  C   UNL A   1      43.263  35.403  31.849  1.00  0.00     0.023 A 
ATOM     91  C   UNL A   1      43.424  36.495  30.973  1.00  0.00     0.012 A 
ATOM     92  C   UNL A   1      43.380  35.607  33.238  1.00  0.00     0.148 A 
ATOM     93  C   UNL A   1      43.726  37.763  31.469  1.00  0.00     0.002 A 
ATOM     94  C   UNL A   1      43.633  36.883  33.729  1.00  0.00     0.091 A 
ATOM     95  F   UNL A   1      43.243  34.552  34.054  1.00  0.00    -0.205 F 
ATOM     96  C   UNL A   1      43.818  37.959  32.845  1.00  0.00     0.022 A 
BRANCH  94  97
ATOM     97  S   UNL A   1      43.672  37.246  35.487  1.00  0.00     0.127 S 
ATOM     98  O   UNL A   1      43.977  38.676  35.490  1.00  0.00    -0.237 OA
ATOM     99  O   UNL A   1      42.309  36.913  35.904  1.00  0.00    -0.237 OA
ATOM    100  O   UNL A   1      44.702  36.384  36.052  1.00  0.00    -0.744 OA
ENDBRANCH  94  97
ENDBRANCH  67  90
ENDBRANCH  41  42
ENDBRANCH  33  36
ENDBRANCH  31  32
ENDBRANCH  30  31
ENDBRANCH  29  30
ENDBRANCH   3  29
TORSDOF 19
ENDMDL
MODEL 3
REMARK VINA RESULT:     -11.0      5.381      8.853
REMARK SMILES CC(C)(C)c1ccc(OCC(=O)N/N=C/c2ccc(C(=O)NCCCNC(=O)c3ccc(-c4c5nc(c(-c6cccc(S(=O)(=O)[O-])c6F)c6ccc([nH]6)c(-c6cccc(S(=O)(=O)[O-])c6F)c6nc(c(-c7cccc(S(=O)(=O)[O-])c7F)c7ccc4[nH]7)C=C6)C=C5)cc3)cc2)cc1
REMARK SMILES IDX 20 1 21 2 22 3 19 5 16 6 17 7 93 8 18 9 92 10 15 11 14 12
REMARK SMILES IDX 13 13 11 14 12 15 10 17 9 18 8 19 5 20 6 21 95 22 7 23 94 24
REMARK SMILES IDX 2 25 1 26 3 27 4 28 23 29 24 30 25 31 26 32 27 33 28 35
REMARK SMILES IDX 29 36 30 37 91 38 31 39 90 40 32 41 33 42 34 43 84 44 35 45
REMARK SMILES IDX 89 46 83 47 85 48 36 49 88 50 82 51 81 52 37 54 69 55 49 56
REMARK SMILES IDX 68 57 50 58 53 59 67 60 86 61 51 62 52 63 66 65 87 66 54 67
REMARK SMILES IDX 38 68 39 69 47 70 40 71 42 72 48 73 41 74 43 75 44 76 45 77
REMARK SMILES IDX 46 78 70 79 71 80 79 81 72 82 74 83 80 84 73 85 75 86 76 87
REMARK SMILES IDX 77 88 78 89 55 90 56 91 64 92 57 93 59 94 65 95 58 96 60 97
REMARK SMILES IDX 61 98 62 99 63 100
REMARK H PARENT 22 4 13 16 26 34 85 53 53 64
REMARK Flexibility Score: inf
ROOT
ATOM      1  C   UNL A   1      34.768  20.660  24.793  1.00  0.00     0.251 C 
ATOM      2  O   UNL A   1      33.771  19.939  24.858  1.00  0.00    -0.269 OA
ATOM      3  N   UNL A   1      35.997  20.077  24.950  1.00  0.00    -0.352 N 
ATOM      4  H   UNL A   1      35.964  19.120  25.181  1.00  0.00     0.163 HD
ENDROOT
BRANCH   1   5
ATOM      5  C   UNL A   1      34.593  22.110  24.504  1.00  0.00     0.039 A 
ATOM      6  C   UNL A   1      34.130  24.779  23.861  1.00  0.00    -0.005 A 
ATOM      7  C   UNL A   1      33.643  23.783  23.017  1.00  0.00     0.010 A 
ATOM      8  C   UNL A   1      34.827  24.471  25.022  1.00  0.00     0.010 A 
ATOM      9  C   UNL A   1      33.893  22.448  23.333  1.00  0.00     0.014 A 
ATOM     10  C   UNL A   1      35.020  23.134  25.357  1.00  0.00     0.014 A 
BRANCH   6  11
ATOM     11  C   UNL A   1      33.736  26.168  23.645  1.00  0.00     0.141 C 
ATOM     12  N   UNL A   1      33.555  26.634  22.461  1.00  0.00    -0.181 NA
BRANCH  12  13
ATOM     13  N   UNL A   1      33.219  27.934  22.232  1.00  0.00    -0.244 N 
ATOM     14  C   UNL A   1      32.048  28.642  22.224  1.00  0.00     0.277 C 
ATOM     15  O   UNL A   1      32.113  29.865  22.030  1.00  0.00    -0.269 OA
ATOM     16  H   UNL A   1      34.001  28.496  22.025  1.00  0.00     0.193 HD
BRANCH  14  17
ATOM     17  C   UNL A   1      30.680  27.996  22.449  1.00  0.00     0.331 C 
BRANCH  17  18
ATOM     18  O   UNL A   1      30.177  27.977  23.778  1.00  0.00    -0.484 OA
BRANCH  18  19
ATOM     19  C   UNL A   1      30.328  26.823  24.488  1.00  0.00     0.120 A 
ATOM     20  C   UNL A   1      30.672  24.297  25.728  1.00  0.00    -0.042 A 
ATOM     21  C   UNL A   1      30.289  24.397  24.382  1.00  0.00     0.008 A 
ATOM     22  C   UNL A   1      30.831  25.498  26.442  1.00  0.00     0.008 A 
ATOM     23  C   UNL A   1      30.127  25.646  23.770  1.00  0.00     0.047 A 
ATOM     24  C   UNL A   1      30.678  26.743  25.829  1.00  0.00     0.047 A 
BRANCH  20  25
ATOM     25  C   UNL A   1      30.916  22.951  26.426  1.00  0.00    -0.013 C 
ATOM     26  C   UNL A   1      29.692  22.611  27.299  1.00  0.00     0.016 C 
ATOM     27  C   UNL A   1      32.174  23.033  27.323  1.00  0.00     0.016 C 
ATOM     28  C   UNL A   1      31.148  21.782  25.444  1.00  0.00     0.016 C 
ENDBRANCH  20  25
ENDBRANCH  18  19
ENDBRANCH  17  18
ENDBRANCH  14  17
ENDBRANCH  12  13
ENDBRANCH   6  11
ENDBRANCH   1   5
BRANCH   3  29
ATOM     29  C   UNL A   1      37.338  20.619  24.836  1.00  0.00     0.118 C 
BRANCH  29  30
ATOM     30  C   UNL A   1      38.394  19.536  25.055  1.00  0.00     0.042 C 
BRANCH  30  31
ATOM     31  C   UNL A   1      39.379  19.878  26.165  1.00  0.00     0.118 C 
BRANCH  31  32
ATOM     32  N   UNL A   1      40.598  19.090  26.058  1.00  0.00    -0.352 N 
ATOM     33  C   UNL A   1      41.904  19.505  26.011  1.00  0.00     0.251 C 
ATOM     34  H   UNL A   1      40.464  18.116  26.014  1.00  0.00     0.163 HD
ATOM     35  O   UNL A   1      42.775  18.710  25.668  1.00  0.00    -0.269 OA
BRANCH  33  36
ATOM     36  C   UNL A   1      42.261  20.895  26.368  1.00  0.00     0.039 A 
ATOM     37  C   UNL A   1      42.492  21.207  27.710  1.00  0.00     0.014 A 
ATOM     38  C   UNL A   1      42.325  21.894  25.393  1.00  0.00     0.014 A 
ATOM     39  C   UNL A   1      42.823  22.515  28.070  1.00  0.00     0.010 A 
ATOM     40  C   UNL A   1      42.728  23.180  25.743  1.00  0.00     0.010 A 
ATOM     41  C   UNL A   1      42.964  23.506  27.086  1.00  0.00    -0.014 A 
BRANCH  41  42
ATOM     42  C   UNL A   1      43.354  24.893  27.441  1.00  0.00     0.031 A 
ATOM     43  C   UNL A   1      42.333  25.848  27.997  1.00  0.00     0.074 A 
ATOM     44  C   UNL A   1      44.606  25.314  27.179  1.00  0.00     0.049 A 
ATOM     45  N   UNL A   1      42.470  27.110  28.308  1.00  0.00    -0.248 NA
ATOM     46  C   UNL A   1      40.972  25.324  28.204  1.00  0.00     0.031 C 
ATOM     47  C   UNL A   1      45.660  24.503  26.566  1.00  0.00     0.029 A 
ATOM     48  N   UNL A   1      45.197  26.538  27.367  1.00  0.00    -0.354 N 
ATOM     49  C   UNL A   1      41.210  27.541  28.709  1.00  0.00     0.074 A 
ATOM     50  C   UNL A   1      40.314  26.414  28.572  1.00  0.00     0.031 C 
ATOM     51  C   UNL A   1      46.768  25.250  26.429  1.00  0.00     0.029 A 
ATOM     52  C   UNL A   1      46.496  26.598  26.919  1.00  0.00     0.049 A 
ATOM     53  H   UNL A   1      44.735  27.301  27.784  1.00  0.00     0.167 HD
ATOM     54  C   UNL A   1      40.840  28.756  29.178  1.00  0.00     0.034 A 
ATOM     55  C   UNL A   1      47.367  27.625  26.898  1.00  0.00     0.034 A 
ATOM     56  C   UNL A   1      41.747  29.857  29.358  1.00  0.00     0.049 A 
ATOM     57  C   UNL A   1      46.945  28.950  27.472  1.00  0.00     0.074 A 
ATOM     58  C   UNL A   1      41.494  31.100  29.912  1.00  0.00     0.029 A 
ATOM     59  N   UNL A   1      43.081  29.852  28.982  1.00  0.00    -0.354 N 
ATOM     60  N   UNL A   1      45.794  29.290  27.998  1.00  0.00    -0.248 NA
ATOM     61  C   UNL A   1      47.951  30.020  27.485  1.00  0.00     0.031 C 
ATOM     62  C   UNL A   1      42.672  31.852  29.853  1.00  0.00     0.029 A 
ATOM     63  C   UNL A   1      43.664  31.070  29.284  1.00  0.00     0.049 A 
ATOM     64  H   UNL A   1      43.546  29.092  28.561  1.00  0.00     0.167 HD
ATOM     65  C   UNL A   1      45.947  30.600  28.438  1.00  0.00     0.074 A 
ATOM     66  C   UNL A   1      47.311  30.983  28.133  1.00  0.00     0.031 C 
ATOM     67  C   UNL A   1      45.038  31.417  29.024  1.00  0.00     0.034 A 
BRANCH  54  68
ATOM     68  C   UNL A   1      39.401  28.942  29.585  1.00  0.00     0.023 A 
ATOM     69  C   UNL A   1      38.996  28.583  30.888  1.00  0.00     0.012 A 
ATOM     70  C   UNL A   1      38.464  29.522  28.707  1.00  0.00     0.148 A 
ATOM     71  C   UNL A   1      37.676  28.764  31.297  1.00  0.00     0.002 A 
ATOM     72  C   UNL A   1      37.160  29.741  29.138  1.00  0.00     0.091 A 
ATOM     73  F   UNL A   1      38.861  29.837  27.465  1.00  0.00    -0.205 F 
ATOM     74  C   UNL A   1      36.762  29.352  30.427  1.00  0.00     0.022 A 
BRANCH  72  75
ATOM     75  S   UNL A   1      35.929  30.562  28.121  1.00  0.00     0.127 S 
ATOM     76  O   UNL A   1      35.719  29.579  27.059  1.00  0.00    -0.237 OA
ATOM     77  O   UNL A   1      34.806  30.704  29.049  1.00  0.00    -0.237 OA
ATOM     78  O   UNL A   1      36.530  31.820  27.700  1.00  0.00    -0.744 OA
ENDBRANCH  72  75
ENDBRANCH  54  68
BRANCH  55  79
ATOM     79  C   UNL A   1      48.749  27.415  26.380  1.00  0.00     0.023 A 
ATOM     80  C   UNL A   1      48.996  27.557  25.001  1.00  0.00     0.012 A 
ATOM     81  C   UNL A   1      49.821  27.117  27.243  1.00  0.00     0.148 A 
ATOM     82  C   UNL A   1      50.280  27.375  24.487  1.00  0.00     0.002 A 
ATOM     83  C   UNL A   1      51.107  26.993  26.732  1.00  0.00     0.091 A 
ATOM     84  F   UNL A   1      49.562  26.977  28.552  1.00  0.00    -0.205 F 
ATOM     85  C   UNL A   1      51.337  27.105  25.352  1.00  0.00     0.022 A 
BRANCH  83  86
ATOM     86  S   UNL A   1      52.545  26.780  27.788  1.00  0.00     0.127 S 
ATOM     87  O   UNL A   1      53.371  25.878  26.992  1.00  0.00    -0.237 OA
ATOM     88  O   UNL A   1      53.050  28.150  27.891  1.00  0.00    -0.237 OA
ATOM     89  O   UNL A   1      52.034  26.236  29.040  1.00  0.00    -0.744 OA
ENDBRANCH  83  86
ENDBRANCH  55  79
BRANCH  67  90
ATOM     90  C   UNL A   1      45.490  32.799  29.411  1.00  0.00     0.023 A 
ATOM     91  C   UNL A   1      46.069  33.018  30.677  1.00  0.00     0.012 A 
ATOM     92  C   UNL A   1      45.413  33.865  28.493  1.00  0.00     0.148 A 
ATOM     93  C   UNL A   1      46.535  34.282  31.035  1.00  0.00     0.002 A 
ATOM     94  C   UNL A   1      45.924  35.110  28.837  1.00  0.00     0.091 A 
ATOM     95  F   UNL A   1      44.842  33.641  27.300  1.00  0.00    -0.205 F 
ATOM     96  C   UNL A   1      46.475  35.324  30.112  1.00  0.00     0.022 A 
BRANCH  94  97
ATOM     97  S   UNL A   1      45.976  36.482  27.679  1.00  0.00     0.127 S 
ATOM     98  O   UNL A   1      44.554  36.738  27.456  1.00  0.00    -0.237 OA
ATOM     99  O   UNL A   1      46.669  37.515  28.450  1.00  0.00    -0.237 OA
ATOM    100  O   UNL A   1      46.714  35.999  26.519  1.00  0.00    -0.744 OA
ENDBRANCH  94  97
ENDBRANCH  67  90
ENDBRANCH  41  42
ENDBRANCH  33  36
ENDBRANCH  31  32
ENDBRANCH  30  31
ENDBRANCH  29  30
ENDBRANCH   3  29
TORSDOF 19
ENDMDL
