MODEL 1
REMARK VINA RESULT:     -11.6      0.000      0.000
REMARK SMILES O=C(NCCCNC(=O)c1ccc(CNC(=O)c2cnns2)o1)c1ccc(-c2c3nc(c(-c4cccc(S(=O)(=O)[O-])c4F)c4ccc([nH]4)c(-c4cccc(S(=O)(=O)[O-])c4F)c4nc(c(-c5cccc(S(=O)(=O)[O-])c5F)c5ccc2[nH]5)C=C4)C=C3)cc1
REMARK SMILES IDX 5 1 4 2 3 3 1 4 2 5 24 7 25 8 86 9 26 10 85 11 27 12 28 13
REMARK SMILES IDX 29 14 79 15 30 16 84 17 78 18 80 19 31 20 83 21 77 22 76 23
REMARK SMILES IDX 32 25 64 26 44 27 63 28 45 29 48 30 62 31 81 32 46 33 47 34
REMARK SMILES IDX 61 36 82 37 49 38 33 39 34 40 42 41 35 42 37 43 43 44 36 45
REMARK SMILES IDX 38 46 39 47 40 48 41 49 65 50 66 51 74 52 67 53 69 54 75 55
REMARK SMILES IDX 68 56 70 57 71 58 72 59 73 60 50 61 51 62 59 63 52 64 54 65
REMARK SMILES IDX 60 66 53 67 55 68 56 69 57 70 58 71 6 72 7 73 8 74 9 76
REMARK SMILES IDX 10 77 11 78 23 79 12 80 13 81 14 82 15 83 16 84 17 86 18 87
REMARK SMILES IDX 19 88 22 89 20 90 21 91
REMARK H PARENT 3 6 80 24 48 35 7 75 15 85
REMARK Flexibility Score: inf
ROOT
ATOM      1  C   UNL A   1      31.441  32.733  26.658  1.00  0.00     0.042 C 
ENDROOT
BRANCH   1   2
ATOM      2  C   UNL A   1      32.708  33.113  27.413  1.00  0.00     0.118 C 
BRANCH   2   3
ATOM      3  N   UNL A   1      32.677  34.486  27.900  1.00  0.00    -0.352 N 
ATOM      4  O   UNL A   1      33.015  36.200  29.308  1.00  0.00    -0.269 OA
ATOM      5  C   UNL A   1      33.358  35.080  28.935  1.00  0.00     0.251 C 
ATOM      6  H   UNL A   1      32.070  35.084  27.407  1.00  0.00     0.163 HD
BRANCH   5   7
ATOM      7  C   UNL A   1      34.474  34.378  29.607  1.00  0.00     0.039 A 
ATOM      8  C   UNL A   1      34.236  33.509  30.674  1.00  0.00     0.014 A 
ATOM      9  C   UNL A   1      35.779  34.560  29.138  1.00  0.00     0.014 A 
ATOM     10  C   UNL A   1      35.303  32.954  31.369  1.00  0.00     0.010 A 
ATOM     11  C   UNL A   1      36.845  33.920  29.778  1.00  0.00     0.010 A 
ATOM     12  C   UNL A   1      36.621  33.137  30.921  1.00  0.00    -0.014 A 
BRANCH  12  13
ATOM     13  C   UNL A   1      37.729  32.435  31.617  1.00  0.00     0.031 A 
ATOM     14  C   UNL A   1      38.473  31.302  30.967  1.00  0.00     0.074 A 
ATOM     15  C   UNL A   1      38.064  32.837  32.859  1.00  0.00     0.049 A 
ATOM     16  N   UNL A   1      39.484  30.611  31.430  1.00  0.00    -0.248 NA
ATOM     17  C   UNL A   1      38.024  30.878  29.630  1.00  0.00     0.031 C 
ATOM     18  C   UNL A   1      37.381  33.892  33.614  1.00  0.00     0.029 A 
ATOM     19  N   UNL A   1      39.057  32.416  33.705  1.00  0.00    -0.354 N 
ATOM     20  C   UNL A   1      39.767  29.651  30.468  1.00  0.00     0.074 A 
ATOM     21  C   UNL A   1      38.817  29.841  29.393  1.00  0.00     0.031 C 
ATOM     22  C   UNL A   1      37.990  34.053  34.797  1.00  0.00     0.029 A 
ATOM     23  C   UNL A   1      39.071  33.081  34.909  1.00  0.00     0.049 A 
ATOM     24  H   UNL A   1      39.698  31.704  33.475  1.00  0.00     0.167 HD
ATOM     25  C   UNL A   1      40.741  28.709  30.471  1.00  0.00     0.034 A 
ATOM     26  C   UNL A   1      39.854  32.921  35.992  1.00  0.00     0.034 A 
ATOM     27  C   UNL A   1      41.710  28.551  31.525  1.00  0.00     0.049 A 
ATOM     28  C   UNL A   1      40.946  31.892  35.954  1.00  0.00     0.074 A 
ATOM     29  C   UNL A   1      42.779  27.675  31.585  1.00  0.00     0.029 A 
ATOM     30  N   UNL A   1      41.723  29.277  32.706  1.00  0.00    -0.354 N 
ATOM     31  N   UNL A   1      41.283  31.087  34.975  1.00  0.00    -0.248 NA
ATOM     32  C   UNL A   1      41.782  31.765  37.154  1.00  0.00     0.031 C 
ATOM     33  C   UNL A   1      43.428  27.856  32.812  1.00  0.00     0.029 A 
ATOM     34  C   UNL A   1      42.774  28.862  33.507  1.00  0.00     0.049 A 
ATOM     35  H   UNL A   1      41.080  29.985  32.941  1.00  0.00     0.167 HD
ATOM     36  C   UNL A   1      42.383  30.374  35.433  1.00  0.00     0.074 A 
ATOM     37  C   UNL A   1      42.674  30.864  36.765  1.00  0.00     0.031 C 
ATOM     38  C   UNL A   1      43.078  29.388  34.813  1.00  0.00     0.034 A 
BRANCH  25  39
ATOM     39  C   UNL A   1      40.842  27.792  29.279  1.00  0.00     0.023 A 
ATOM     40  C   UNL A   1      40.037  26.637  29.221  1.00  0.00     0.012 A 
ATOM     41  C   UNL A   1      41.671  28.112  28.185  1.00  0.00     0.148 A 
ATOM     42  C   UNL A   1      40.073  25.801  28.105  1.00  0.00     0.002 A 
ATOM     43  C   UNL A   1      41.673  27.295  27.060  1.00  0.00     0.091 A 
ATOM     44  F   UNL A   1      42.445  29.203  28.268  1.00  0.00    -0.205 F 
ATOM     45  C   UNL A   1      40.882  26.135  27.022  1.00  0.00     0.022 A 
BRANCH  43  46
ATOM     46  S   UNL A   1      42.626  27.680  25.586  1.00  0.00     0.127 S 
ATOM     47  O   UNL A   1      43.982  27.764  26.126  1.00  0.00    -0.237 OA
ATOM     48  O   UNL A   1      42.378  26.509  24.743  1.00  0.00    -0.237 OA
ATOM     49  O   UNL A   1      42.077  28.926  25.070  1.00  0.00    -0.744 OA
ENDBRANCH  43  46
ENDBRANCH  25  39
BRANCH  26  50
ATOM     50  C   UNL A   1      39.653  33.796  37.181  1.00  0.00     0.023 A 
ATOM     51  C   UNL A   1      40.086  35.135  37.140  1.00  0.00     0.012 A 
ATOM     52  C   UNL A   1      38.980  33.326  38.325  1.00  0.00     0.148 A 
ATOM     53  C   UNL A   1      39.871  35.983  38.225  1.00  0.00     0.002 A 
ATOM     54  C   UNL A   1      38.716  34.192  39.378  1.00  0.00     0.091 A 
ATOM     55  F   UNL A   1      38.590  32.043  38.351  1.00  0.00    -0.205 F 
ATOM     56  C   UNL A   1      39.175  35.517  39.337  1.00  0.00     0.022 A 
BRANCH  54  57
ATOM     57  S   UNL A   1      37.697  33.713  40.778  1.00  0.00     0.127 S 
ATOM     58  O   UNL A   1      36.547  33.104  40.116  1.00  0.00    -0.237 OA
ATOM     59  O   UNL A   1      38.571  32.772  41.483  1.00  0.00    -0.237 OA
ATOM     60  O   UNL A   1      37.435  34.945  41.509  1.00  0.00    -0.744 OA
ENDBRANCH  54  57
ENDBRANCH  26  50
BRANCH  38  61
ATOM     61  C   UNL A   1      44.235  28.782  35.562  1.00  0.00     0.023 A 
ATOM     62  C   UNL A   1      45.538  29.276  35.349  1.00  0.00     0.012 A 
ATOM     63  C   UNL A   1      44.026  27.771  36.520  1.00  0.00     0.148 A 
ATOM     64  C   UNL A   1      46.619  28.750  36.055  1.00  0.00     0.002 A 
ATOM     65  C   UNL A   1      45.101  27.285  37.253  1.00  0.00     0.091 A 
ATOM     66  F   UNL A   1      42.782  27.301  36.692  1.00  0.00    -0.205 F 
ATOM     67  C   UNL A   1      46.399  27.764  37.014  1.00  0.00     0.022 A 
BRANCH  65  68
ATOM     68  S   UNL A   1      44.897  26.082  38.571  1.00  0.00     0.127 S 
ATOM     69  O   UNL A   1      44.575  24.869  37.821  1.00  0.00    -0.237 OA
ATOM     70  O   UNL A   1      46.220  26.078  39.197  1.00  0.00    -0.237 OA
ATOM     71  O   UNL A   1      43.832  26.596  39.421  1.00  0.00    -0.744 OA
ENDBRANCH  65  68
ENDBRANCH  38  61
ENDBRANCH  12  13
ENDBRANCH   5   7
ENDBRANCH   2   3
ENDBRANCH   1   2
BRANCH   1  72
ATOM     72  C   UNL A   1      31.301  31.235  26.410  1.00  0.00     0.118 C 
BRANCH  72  73
ATOM     73  N   UNL A   1      32.485  30.501  26.828  1.00  0.00    -0.349 N 
ATOM     74  C   UNL A   1      32.721  29.147  26.785  1.00  0.00     0.286 C 
ATOM     75  H   UNL A   1      33.218  31.048  27.192  1.00  0.00     0.163 HD
ATOM     76  O   UNL A   1      33.689  28.714  27.416  1.00  0.00    -0.266 OA
BRANCH  74  77
ATOM     77  C   UNL A   1      31.840  28.313  26.004  1.00  0.00     0.191 A 
ATOM     78  C   UNL A   1      31.339  27.039  26.208  1.00  0.00     0.056 A 
ATOM     79  O   UNL A   1      31.357  28.803  24.823  1.00  0.00    -0.454 OA
ATOM     80  C   UNL A   1      30.552  26.721  25.076  1.00  0.00     0.048 A 
ATOM     81  C   UNL A   1      30.599  27.825  24.253  1.00  0.00     0.124 A 
BRANCH  81  82
ATOM     82  C   UNL A   1      30.042  28.127  22.914  1.00  0.00     0.191 C 
BRANCH  82  83
ATOM     83  N   UNL A   1      28.600  28.038  22.972  1.00  0.00    -0.344 N 
ATOM     84  C   UNL A   1      27.671  29.044  23.062  1.00  0.00     0.265 C 
ATOM     85  H   UNL A   1      28.231  27.125  22.944  1.00  0.00     0.164 HD
ATOM     86  O   UNL A   1      26.508  28.716  23.302  1.00  0.00    -0.268 OA
BRANCH  84  87
ATOM     87  C   UNL A   1      28.076  30.406  22.854  1.00  0.00     0.133 A 
ATOM     88  C   UNL A   1      28.667  31.343  23.680  1.00  0.00     0.163 A 
ATOM     89  S   UNL A   1      27.916  31.134  21.311  1.00  0.00    -0.007 S 
ATOM     90  N   UNL A   1      28.916  32.575  23.101  1.00  0.00    -0.146 NA
ATOM     91  N   UNL A   1      28.552  32.595  21.830  1.00  0.00    -0.090 NA
ENDBRANCH  84  87
ENDBRANCH  82  83
ENDBRANCH  81  82
ENDBRANCH  74  77
ENDBRANCH  72  73
ENDBRANCH   1  72
TORSDOF 16
ENDMDL
MODEL 2
REMARK VINA RESULT:     -11.4      7.333     12.944
REMARK SMILES O=C(NCCCNC(=O)c1ccc(CNC(=O)c2cnns2)o1)c1ccc(-c2c3nc(c(-c4cccc(S(=O)(=O)[O-])c4F)c4ccc([nH]4)c(-c4cccc(S(=O)(=O)[O-])c4F)c4nc(c(-c5cccc(S(=O)(=O)[O-])c5F)c5ccc2[nH]5)C=C4)C=C3)cc1
REMARK SMILES IDX 5 1 4 2 3 3 1 4 2 5 24 7 25 8 86 9 26 10 85 11 27 12 28 13
REMARK SMILES IDX 29 14 79 15 30 16 84 17 78 18 80 19 31 20 83 21 77 22 76 23
REMARK SMILES IDX 32 25 64 26 44 27 63 28 45 29 48 30 62 31 81 32 46 33 47 34
REMARK SMILES IDX 61 36 82 37 49 38 33 39 34 40 42 41 35 42 37 43 43 44 36 45
REMARK SMILES IDX 38 46 39 47 40 48 41 49 65 50 66 51 74 52 67 53 69 54 75 55
REMARK SMILES IDX 68 56 70 57 71 58 72 59 73 60 50 61 51 62 59 63 52 64 54 65
REMARK SMILES IDX 60 66 53 67 55 68 56 69 57 70 58 71 6 72 7 73 8 74 9 76
REMARK SMILES IDX 10 77 11 78 23 79 12 80 13 81 14 82 15 83 16 84 17 86 18 87
REMARK SMILES IDX 19 88 22 89 20 90 21 91
REMARK H PARENT 3 6 80 24 48 35 7 75 15 85
REMARK Flexibility Score: inf
ROOT
ATOM      1  C   UNL A   1      38.508  19.593  24.959  1.00  0.00     0.042 C 
ENDROOT
BRANCH   1   2
ATOM      2  C   UNL A   1      39.475  19.996  26.064  1.00  0.00     0.118 C 
BRANCH   2   3
ATOM      3  N   UNL A   1      40.649  19.135  26.121  1.00  0.00    -0.352 N 
ATOM      4  O   UNL A   1      42.816  18.565  26.001  1.00  0.00    -0.269 OA
ATOM      5  C   UNL A   1      41.984  19.451  26.181  1.00  0.00     0.251 C 
ATOM      6  H   UNL A   1      40.452  18.170  26.114  1.00  0.00     0.163 HD
BRANCH   5   7
ATOM      7  C   UNL A   1      42.421  20.843  26.440  1.00  0.00     0.039 A 
ATOM      8  C   UNL A   1      42.570  21.753  25.392  1.00  0.00     0.014 A 
ATOM      9  C   UNL A   1      42.646  21.256  27.756  1.00  0.00     0.014 A 
ATOM     10  C   UNL A   1      43.095  23.016  25.638  1.00  0.00     0.010 A 
ATOM     11  C   UNL A   1      43.080  22.561  28.012  1.00  0.00     0.010 A 
ATOM     12  C   UNL A   1      43.341  23.443  26.953  1.00  0.00    -0.014 A 
BRANCH  12  13
ATOM     13  C   UNL A   1      43.791  24.839  27.191  1.00  0.00     0.031 A 
ATOM     14  C   UNL A   1      42.856  25.885  27.729  1.00  0.00     0.074 A 
ATOM     15  C   UNL A   1      45.072  25.156  26.915  1.00  0.00     0.049 A 
ATOM     16  N   UNL A   1      43.106  27.136  28.022  1.00  0.00    -0.248 NA
ATOM     17  C   UNL A   1      41.459  25.486  27.962  1.00  0.00     0.031 C 
ATOM     18  C   UNL A   1      46.060  24.238  26.340  1.00  0.00     0.029 A 
ATOM     19  N   UNL A   1      45.765  26.327  27.078  1.00  0.00    -0.354 N 
ATOM     20  C   UNL A   1      41.899  27.684  28.434  1.00  0.00     0.074 A 
ATOM     21  C   UNL A   1      40.909  26.631  28.348  1.00  0.00     0.031 C 
ATOM     22  C   UNL A   1      47.235  24.871  26.223  1.00  0.00     0.029 A 
ATOM     23  C   UNL A   1      47.075  26.252  26.664  1.00  0.00     0.049 A 
ATOM     24  H   UNL A   1      45.364  27.145  27.454  1.00  0.00     0.167 HD
ATOM     25  C   UNL A   1      41.641  28.944  28.862  1.00  0.00     0.034 A 
ATOM     26  C   UNL A   1      48.040  27.189  26.627  1.00  0.00     0.034 A 
ATOM     27  C   UNL A   1      42.638  29.976  28.984  1.00  0.00     0.049 A 
ATOM     28  C   UNL A   1      47.733  28.567  27.138  1.00  0.00     0.074 A 
ATOM     29  C   UNL A   1      42.489  31.260  29.477  1.00  0.00     0.029 A 
ATOM     30  N   UNL A   1      43.965  29.847  28.602  1.00  0.00    -0.354 N 
ATOM     31  N   UNL A   1      46.618  29.025  27.653  1.00  0.00    -0.248 NA
ATOM     32  C   UNL A   1      48.823  29.551  27.090  1.00  0.00     0.031 C 
ATOM     33  C   UNL A   1      43.721  31.916  29.374  1.00  0.00     0.029 A 
ATOM     34  C   UNL A   1      44.643  31.032  28.837  1.00  0.00     0.049 A 
ATOM     35  H   UNL A   1      44.366  29.033  28.221  1.00  0.00     0.167 HD
ATOM     36  C   UNL A   1      46.876  30.341  28.010  1.00  0.00     0.074 A 
ATOM     37  C   UNL A   1      48.264  30.599  27.680  1.00  0.00     0.031 C 
ATOM     38  C   UNL A   1      46.035  31.260  28.544  1.00  0.00     0.034 A 
BRANCH  25  39
ATOM     39  C   UNL A   1      40.229  29.276  29.272  1.00  0.00     0.023 A 
ATOM     40  C   UNL A   1      39.286  29.634  28.288  1.00  0.00     0.012 A 
ATOM     41  C   UNL A   1      39.817  29.160  30.614  1.00  0.00     0.148 A 
ATOM     42  C   UNL A   1      37.960  29.895  28.635  1.00  0.00     0.002 A 
ATOM     43  C   UNL A   1      38.486  29.383  30.948  1.00  0.00     0.091 A 
ATOM     44  F   UNL A   1      40.733  28.839  31.539  1.00  0.00    -0.205 F 
ATOM     45  C   UNL A   1      37.558  29.760  29.962  1.00  0.00     0.022 A 
BRANCH  43  46
ATOM     46  S   UNL A   1      37.855  29.163  32.616  1.00  0.00     0.127 S 
ATOM     47  O   UNL A   1      38.719  30.063  33.378  1.00  0.00    -0.237 OA
ATOM     48  O   UNL A   1      36.469  29.615  32.486  1.00  0.00    -0.237 OA
ATOM     49  O   UNL A   1      38.005  27.746  32.916  1.00  0.00    -0.744 OA
ENDBRANCH  43  46
ENDBRANCH  25  39
BRANCH  26  50
ATOM     50  C   UNL A   1      49.396  26.830  26.128  1.00  0.00     0.023 A 
ATOM     51  C   UNL A   1      50.232  26.014  26.913  1.00  0.00     0.012 A 
ATOM     52  C   UNL A   1      49.834  27.240  24.854  1.00  0.00     0.148 A 
ATOM     53  C   UNL A   1      51.490  25.632  26.447  1.00  0.00     0.002 A 
ATOM     54  C   UNL A   1      51.063  26.806  24.371  1.00  0.00     0.091 A 
ATOM     55  F   UNL A   1      49.030  28.030  24.128  1.00  0.00    -0.205 F 
ATOM     56  C   UNL A   1      51.899  26.014  25.173  1.00  0.00     0.022 A 
BRANCH  54  57
ATOM     57  S   UNL A   1      51.596  27.130  22.687  1.00  0.00     0.127 S 
ATOM     58  O   UNL A   1      50.442  26.679  21.915  1.00  0.00    -0.237 OA
ATOM     59  O   UNL A   1      51.798  28.580  22.705  1.00  0.00    -0.237 OA
ATOM     60  O   UNL A   1      52.820  26.360  22.511  1.00  0.00    -0.744 OA
ENDBRANCH  54  57
ENDBRANCH  26  50
BRANCH  38  61
ATOM     61  C   UNL A   1      46.595  32.630  28.824  1.00  0.00     0.023 A 
ATOM     62  C   UNL A   1      47.170  32.904  30.081  1.00  0.00     0.012 A 
ATOM     63  C   UNL A   1      46.609  33.622  27.826  1.00  0.00     0.148 A 
ATOM     64  C   UNL A   1      47.722  34.155  30.350  1.00  0.00     0.002 A 
ATOM     65  C   UNL A   1      47.203  34.851  28.085  1.00  0.00     0.091 A 
ATOM     66  F   UNL A   1      46.038  33.349  26.643  1.00  0.00    -0.205 F 
ATOM     67  C   UNL A   1      47.749  35.124  29.349  1.00  0.00     0.022 A 
BRANCH  65  68
ATOM     68  S   UNL A   1      47.365  36.124  26.827  1.00  0.00     0.127 S 
ATOM     69  O   UNL A   1      45.982  36.573  26.678  1.00  0.00    -0.237 OA
ATOM     70  O   UNL A   1      48.253  37.091  27.473  1.00  0.00    -0.237 OA
ATOM     71  O   UNL A   1      47.940  35.464  25.663  1.00  0.00    -0.744 OA
ENDBRANCH  65  68
ENDBRANCH  38  61
ENDBRANCH  12  13
ENDBRANCH   5   7
ENDBRANCH   2   3
ENDBRANCH   1   2
BRANCH   1  72
ATOM     72  C   UNL A   1      37.176  20.332  25.009  1.00  0.00     0.118 C 
BRANCH  72  73
ATOM     73  N   UNL A   1      37.220  21.585  24.272  1.00  0.00    -0.349 N 
ATOM     74  C   UNL A   1      36.177  22.369  23.839  1.00  0.00     0.286 C 
ATOM     75  H   UNL A   1      38.120  21.918  24.053  1.00  0.00     0.163 HD
ATOM     76  O   UNL A   1      36.429  23.258  23.021  1.00  0.00    -0.266 OA
BRANCH  74  77
ATOM     77  C   UNL A   1      34.856  22.121  24.364  1.00  0.00     0.191 A 
ATOM     78  C   UNL A   1      33.898  22.957  24.911  1.00  0.00     0.056 A 
ATOM     79  O   UNL A   1      34.382  20.839  24.353  1.00  0.00    -0.454 OA
ATOM     80  C   UNL A   1      32.807  22.139  25.291  1.00  0.00     0.048 A 
ATOM     81  C   UNL A   1      33.151  20.853  24.939  1.00  0.00     0.124 A 
BRANCH  81  82
ATOM     82  C   UNL A   1      32.490  19.537  25.100  1.00  0.00     0.191 C 
BRANCH  82  83
ATOM     83  N   UNL A   1      32.214  18.985  23.792  1.00  0.00    -0.344 N 
ATOM     84  C   UNL A   1      32.727  17.858  23.200  1.00  0.00     0.265 C 
ATOM     85  H   UNL A   1      31.565  19.489  23.249  1.00  0.00     0.164 HD
ATOM     86  O   UNL A   1      32.496  17.699  22.000  1.00  0.00    -0.268 OA
BRANCH  84  87
ATOM     87  C   UNL A   1      33.476  16.919  23.987  1.00  0.00     0.133 A 
ATOM     88  C   UNL A   1      34.830  16.723  24.172  1.00  0.00     0.163 A 
ATOM     89  S   UNL A   1      32.669  15.796  25.000  1.00  0.00    -0.007 S 
ATOM     90  N   UNL A   1      35.173  15.696  25.035  1.00  0.00    -0.146 NA
ATOM     91  N   UNL A   1      34.099  15.113  25.542  1.00  0.00    -0.090 NA
ENDBRANCH  84  87
ENDBRANCH  82  83
ENDBRANCH  81  82
ENDBRANCH  74  77
ENDBRANCH  72  73
ENDBRANCH   1  72
TORSDOF 16
ENDMDL
MODEL 3
REMARK VINA RESULT:     -11.3      6.092      9.116
REMARK SMILES O=C(NCCCNC(=O)c1ccc(CNC(=O)c2cnns2)o1)c1ccc(-c2c3nc(c(-c4cccc(S(=O)(=O)[O-])c4F)c4ccc([nH]4)c(-c4cccc(S(=O)(=O)[O-])c4F)c4nc(c(-c5cccc(S(=O)(=O)[O-])c5F)c5ccc2[nH]5)C=C4)C=C3)cc1
REMARK SMILES IDX 5 1 4 2 3 3 1 4 2 5 24 7 25 8 86 9 26 10 85 11 27 12 28 13
REMARK SMILES IDX 29 14 79 15 30 16 84 17 78 18 80 19 31 20 83 21 77 22 76 23
REMARK SMILES IDX 32 25 64 26 44 27 63 28 45 29 48 30 62 31 81 32 46 33 47 34
REMARK SMILES IDX 61 36 82 37 49 38 33 39 34 40 42 41 35 42 37 43 43 44 36 45
REMARK SMILES IDX 38 46 39 47 40 48 41 49 65 50 66 51 74 52 67 53 69 54 75 55
REMARK SMILES IDX 68 56 70 57 71 58 72 59 73 60 50 61 51 62 59 63 52 64 54 65
REMARK SMILES IDX 60 66 53 67 55 68 56 69 57 70 58 71 6 72 7 73 8 74 9 76
REMARK SMILES IDX 10 77 11 78 23 79 12 80 13 81 14 82 15 83 16 84 17 86 18 87
REMARK SMILES IDX 19 88 22 89 20 90 21 91
REMARK H PARENT 3 6 80 24 48 35 7 75 15 85
REMARK Flexibility Score: inf
ROOT
ATOM      1  C   UNL A   1      36.027  21.567  24.859  1.00  0.00     0.042 C 
ENDROOT
BRANCH   1   2
ATOM      2  C   UNL A   1      37.346  22.146  25.355  1.00  0.00     0.118 C 
BRANCH   2   3
ATOM      3  N   UNL A   1      38.255  21.121  25.850  1.00  0.00    -0.352 N 
ATOM      4  O   UNL A   1      40.185  20.218  26.552  1.00  0.00    -0.269 OA
ATOM      5  C   UNL A   1      39.506  21.232  26.405  1.00  0.00     0.251 C 
ATOM      6  H   UNL A   1      37.917  20.199  25.772  1.00  0.00     0.163 HD
BRANCH   5   7
ATOM      7  C   UNL A   1      40.042  22.553  26.804  1.00  0.00     0.039 A 
ATOM      8  C   UNL A   1      39.582  23.725  26.200  1.00  0.00     0.014 A 
ATOM      9  C   UNL A   1      40.990  22.627  27.829  1.00  0.00     0.014 A 
ATOM     10  C   UNL A   1      40.181  24.943  26.500  1.00  0.00     0.010 A 
ATOM     11  C   UNL A   1      41.520  23.866  28.201  1.00  0.00     0.010 A 
ATOM     12  C   UNL A   1      41.145  25.032  27.517  1.00  0.00    -0.014 A 
BRANCH  12  13
ATOM     13  C   UNL A   1      41.681  26.366  27.894  1.00  0.00     0.031 A 
ATOM     14  C   UNL A   1      43.082  26.779  27.541  1.00  0.00     0.074 A 
ATOM     15  C   UNL A   1      40.876  27.214  28.565  1.00  0.00     0.049 A 
ATOM     16  N   UNL A   1      43.684  27.919  27.769  1.00  0.00    -0.248 NA
ATOM     17  C   UNL A   1      43.925  25.788  26.852  1.00  0.00     0.031 C 
ATOM     18  C   UNL A   1      39.514  26.906  29.009  1.00  0.00     0.029 A 
ATOM     19  N   UNL A   1      41.080  28.501  28.991  1.00  0.00    -0.354 N 
ATOM     20  C   UNL A   1      44.980  27.773  27.292  1.00  0.00     0.074 A 
ATOM     21  C   UNL A   1      45.083  26.429  26.765  1.00  0.00     0.031 C 
ATOM     22  C   UNL A   1      38.995  27.980  29.619  1.00  0.00     0.029 A 
ATOM     23  C   UNL A   1      40.001  29.034  29.659  1.00  0.00     0.049 A 
ATOM     24  H   UNL A   1      41.917  28.996  28.836  1.00  0.00     0.167 HD
ATOM     25  C   UNL A   1      45.985  28.680  27.278  1.00  0.00     0.034 A 
ATOM     26  C   UNL A   1      39.840  30.232  30.251  1.00  0.00     0.034 A 
ATOM     27  C   UNL A   1      45.864  30.030  27.767  1.00  0.00     0.049 A 
ATOM     28  C   UNL A   1      40.960  31.229  30.190  1.00  0.00     0.074 A 
ATOM     29  C   UNL A   1      46.803  31.045  27.729  1.00  0.00     0.029 A 
ATOM     30  N   UNL A   1      44.739  30.550  28.390  1.00  0.00    -0.354 N 
ATOM     31  N   UNL A   1      42.131  31.117  29.611  1.00  0.00    -0.248 NA
ATOM     32  C   UNL A   1      40.731  32.527  30.840  1.00  0.00     0.031 C 
ATOM     33  C   UNL A   1      46.255  32.174  28.348  1.00  0.00     0.029 A 
ATOM     34  C   UNL A   1      44.965  31.868  28.753  1.00  0.00     0.049 A 
ATOM     35  H   UNL A   1      43.904  30.055  28.552  1.00  0.00     0.167 HD
ATOM     36  C   UNL A   1      42.770  32.335  29.806  1.00  0.00     0.074 A 
ATOM     37  C   UNL A   1      41.843  33.181  30.532  1.00  0.00     0.031 C 
ATOM     38  C   UNL A   1      44.018  32.711  29.435  1.00  0.00     0.034 A 
BRANCH  25  39
ATOM     39  C   UNL A   1      47.304  28.265  26.678  1.00  0.00     0.023 A 
ATOM     40  C   UNL A   1      48.398  27.993  27.525  1.00  0.00     0.012 A 
ATOM     41  C   UNL A   1      47.441  28.069  25.290  1.00  0.00     0.148 A 
ATOM     42  C   UNL A   1      49.613  27.556  26.998  1.00  0.00     0.002 A 
ATOM     43  C   UNL A   1      48.643  27.596  24.775  1.00  0.00     0.091 A 
ATOM     44  F   UNL A   1      46.396  28.353  24.498  1.00  0.00    -0.205 F 
ATOM     45  C   UNL A   1      49.732  27.348  25.627  1.00  0.00     0.022 A 
BRANCH  43  46
ATOM     46  S   UNL A   1      48.872  27.227  23.031  1.00  0.00     0.127 S 
ATOM     47  O   UNL A   1      50.329  27.176  22.931  1.00  0.00    -0.237 OA
ATOM     48  O   UNL A   1      48.207  25.930  22.899  1.00  0.00    -0.237 OA
ATOM     49  O   UNL A   1      48.230  28.314  22.305  1.00  0.00    -0.744 OA
ENDBRANCH  43  46
ENDBRANCH  25  39
BRANCH  26  50
ATOM     50  C   UNL A   1      38.545  30.559  30.909  1.00  0.00     0.023 A 
ATOM     51  C   UNL A   1      38.345  30.219  32.260  1.00  0.00     0.012 A 
ATOM     52  C   UNL A   1      37.536  31.261  30.221  1.00  0.00     0.148 A 
ATOM     53  C   UNL A   1      37.156  30.553  32.907  1.00  0.00     0.002 A 
ATOM     54  C   UNL A   1      36.379  31.643  30.888  1.00  0.00     0.091 A 
ATOM     55  F   UNL A   1      37.738  31.562  28.929  1.00  0.00    -0.205 F 
ATOM     56  C   UNL A   1      36.180  31.276  32.227  1.00  0.00     0.022 A 
BRANCH  54  57
ATOM     57  S   UNL A   1      35.143  32.702  30.129  1.00  0.00     0.127 S 
ATOM     58  O   UNL A   1      35.950  33.836  29.688  1.00  0.00    -0.237 OA
ATOM     59  O   UNL A   1      34.633  31.852  29.051  1.00  0.00    -0.237 OA
ATOM     60  O   UNL A   1      34.171  32.981  31.178  1.00  0.00    -0.744 OA
ENDBRANCH  54  57
ENDBRANCH  26  50
BRANCH  38  61
ATOM     61  C   UNL A   1      44.453  34.108  29.792  1.00  0.00     0.023 A 
ATOM     62  C   UNL A   1      45.155  34.334  30.992  1.00  0.00     0.012 A 
ATOM     63  C   UNL A   1      44.224  35.183  28.911  1.00  0.00     0.148 A 
ATOM     64  C   UNL A   1      45.595  35.614  31.326  1.00  0.00     0.002 A 
ATOM     65  C   UNL A   1      44.706  36.447  29.228  1.00  0.00     0.091 A 
ATOM     66  F   UNL A   1      43.535  34.951  27.784  1.00  0.00    -0.205 F 
ATOM     67  C   UNL A   1      45.380  36.667  30.440  1.00  0.00     0.022 A 
BRANCH  65  68
ATOM     68  S   UNL A   1      44.555  37.841  28.104  1.00  0.00     0.127 S 
ATOM     69  O   UNL A   1      45.268  37.352  26.926  1.00  0.00    -0.237 OA
ATOM     70  O   UNL A   1      43.105  37.952  27.938  1.00  0.00    -0.237 OA
ATOM     71  O   UNL A   1      45.171  38.972  28.786  1.00  0.00    -0.744 OA
ENDBRANCH  65  68
ENDBRANCH  38  61
ENDBRANCH  12  13
ENDBRANCH   5   7
ENDBRANCH   2   3
ENDBRANCH   1   2
BRANCH   1  72
ATOM     72  C   UNL A   1      34.986  21.383  25.957  1.00  0.00     0.118 C 
BRANCH  72  73
ATOM     73  N   UNL A   1      34.114  20.248  25.697  1.00  0.00    -0.349 N 
ATOM     74  C   UNL A   1      32.816  20.242  25.245  1.00  0.00     0.286 C 
ATOM     75  H   UNL A   1      34.509  19.362  25.867  1.00  0.00     0.163 HD
ATOM     76  O   UNL A   1      32.185  19.186  25.329  1.00  0.00    -0.266 OA
BRANCH  74  77
ATOM     77  C   UNL A   1      32.267  21.458  24.693  1.00  0.00     0.191 A 
ATOM     78  C   UNL A   1      32.128  21.911  23.393  1.00  0.00     0.056 A 
ATOM     79  O   UNL A   1      31.760  22.391  25.553  1.00  0.00    -0.454 OA
ATOM     80  C   UNL A   1      31.552  23.201  23.467  1.00  0.00     0.048 A 
ATOM     81  C   UNL A   1      31.352  23.456  24.806  1.00  0.00     0.124 A 
BRANCH  81  82
ATOM     82  C   UNL A   1      30.839  24.624  25.559  1.00  0.00     0.191 C 
BRANCH  82  83
ATOM     83  N   UNL A   1      29.702  25.176  24.857  1.00  0.00    -0.344 N 
ATOM     84  C   UNL A   1      29.614  26.330  24.119  1.00  0.00     0.265 C 
ATOM     85  H   UNL A   1      28.872  24.649  24.917  1.00  0.00     0.164 HD
ATOM     86  O   UNL A   1      28.487  26.697  23.784  1.00  0.00    -0.268 OA
BRANCH  84  87
ATOM     87  C   UNL A   1      30.811  27.034  23.756  1.00  0.00     0.133 A 
ATOM     88  C   UNL A   1      31.710  26.879  22.719  1.00  0.00     0.163 A 
ATOM     89  S   UNL A   1      31.321  28.401  24.655  1.00  0.00    -0.007 S 
ATOM     90  N   UNL A   1      32.762  27.779  22.701  1.00  0.00    -0.146 NA
ATOM     91  N   UNL A   1      32.672  28.647  23.695  1.00  0.00    -0.090 NA
ENDBRANCH  84  87
ENDBRANCH  82  83
ENDBRANCH  81  82
ENDBRANCH  74  77
ENDBRANCH  72  73
ENDBRANCH   1  72
TORSDOF 16
ENDMDL
