MODEL 1
REMARK VINA RESULT:     -13.8      0.000      0.000
REMARK SMILES C[C@@H](Oc1ccc(/C=C2\C(=O)[NH+]=C(NCCCNC(=O)c3ccc(-c4c5nc(c(-c6cccc(S(=O)(=O)[O-])c6F)c6ccc([nH]6)c(-c6cccc(S(=O)(=O)[O-])c6F)c6nc(c(-c7cccc(S(=O)(=O)[O-])c7F)c7ccc4[nH]7)C=C6)C=C5)cc3)N(c3ccc4c(c3)OCO4)C2=O)cc1)C(=O)[O-]
REMARK SMILES IDX 16 1 15 2 14 3 8 4 9 5 10 6 94 7 11 8 12 9 84 10 95 11 13 12
REMARK SMILES IDX 7 15 4 16 5 17 97 18 6 19 96 20 3 21 2 22 1 23 98 24 99 25
REMARK SMILES IDX 100 26 85 27 86 28 90 29 87 30 89 31 88 32 91 33 93 34 92 35
REMARK SMILES IDX 17 36 18 37 19 38 20 40 21 41 22 42 83 43 23 44 82 45 24 46
REMARK SMILES IDX 25 47 26 48 76 49 27 50 81 51 75 52 77 53 28 54 80 55 74 56
REMARK SMILES IDX 73 57 29 59 61 60 41 61 60 62 42 63 45 64 59 65 78 66 43 67
REMARK SMILES IDX 44 68 58 70 79 71 46 72 30 73 31 74 39 75 32 76 34 77 40 78
REMARK SMILES IDX 33 79 35 80 36 81 37 82 38 83 62 84 63 85 71 86 64 87 66 88
REMARK SMILES IDX 72 89 65 90 67 91 68 92 69 93 70 94 47 95 48 96 56 97 49 98
REMARK SMILES IDX 51 99 57 100 50 101 52 102 53 103 54 104 55 105
REMARK H PARENT 12 13 14 14 18 39 77 58 45 69
REMARK Flexibility Score: inf
ROOT
ATOM      1  C   UNL A   1      31.639  32.325  27.011  1.00  0.00     0.059 C 
ENDROOT
BRANCH   1   2
ATOM      2  C   UNL A   1      31.886  30.909  26.510  1.00  0.00     0.199 C 
BRANCH   2   3
ATOM      3  N   UNL A   1      31.077  30.625  25.341  1.00  0.00    -0.277 N 
ATOM      4  C   UNL A   1      30.429  25.684  23.510  1.00  0.00     0.031 C 
ATOM      5  C   UNL A   1      30.880  26.950  23.611  1.00  0.00     0.138 C 
ATOM      6  C   UNL A   1      32.122  27.390  24.264  1.00  0.00     0.321 C 
ATOM      7  C   UNL A   1      30.039  28.008  23.020  1.00  0.00     0.328 C 
ATOM      8  O   UNL A   1      33.155  26.734  24.212  1.00  0.00    -0.250 OA
ATOM      9  N   UNL A   1      32.014  28.560  24.953  1.00  0.00    -0.210 N 
ATOM     10  N   UNL A   1      30.256  29.268  23.566  1.00  0.00    -0.162 N 
ATOM     11  O   UNL A   1      29.203  27.747  22.154  1.00  0.00    -0.249 OA
ATOM     12  C   UNL A   1      31.147  29.463  24.615  1.00  0.00     0.366 C 
ATOM     13  H   UNL A   1      32.605  28.723  25.724  1.00  0.00     0.270 HD
ATOM     14  H   UNL A   1      30.434  31.312  25.048  1.00  0.00     0.260 HD
BRANCH   4  15
ATOM     15  C   UNL A   1      30.987  24.434  24.047  1.00  0.00    -0.024 A 
ATOM     16  C   UNL A   1      31.983  21.946  24.902  1.00  0.00     0.120 A 
ATOM     17  C   UNL A   1      31.376  22.805  25.812  1.00  0.00     0.047 A 
ATOM     18  C   UNL A   1      32.047  22.300  23.558  1.00  0.00     0.047 A 
ATOM     19  C   UNL A   1      30.867  24.037  25.384  1.00  0.00     0.012 A 
ATOM     20  C   UNL A   1      31.565  23.541  23.136  1.00  0.00     0.012 A 
BRANCH  16  21
ATOM     21  O   UNL A   1      32.361  20.710  25.343  1.00  0.00    -0.485 OA
BRANCH  21  22
ATOM     22  C   UNL A   1      33.544  20.192  24.719  1.00  0.00     0.216 C 
ATOM     23  C   UNL A   1      33.593  18.667  24.763  1.00  0.00     0.059 C 
BRANCH  22  24
ATOM     24  C   UNL A   1      34.753  20.705  25.492  1.00  0.00     0.082 C 
ATOM     25  O   UNL A   1      34.722  21.318  26.549  1.00  0.00    -0.546 OA
ATOM     26  O   UNL A   1      35.933  20.523  24.860  1.00  0.00    -0.546 OA
ENDBRANCH  22  24
ENDBRANCH  21  22
ENDBRANCH  16  21
ENDBRANCH   4  15
BRANCH  10  27
ATOM     27  C   UNL A   1      29.404  30.306  23.109  1.00  0.00     0.115 A 
ATOM     28  C   UNL A   1      29.208  31.456  23.904  1.00  0.00     0.048 A 
ATOM     29  C   UNL A   1      28.902  30.237  21.803  1.00  0.00     0.094 A 
ATOM     30  C   UNL A   1      28.558  32.574  23.369  1.00  0.00     0.054 A 
ATOM     31  C   UNL A   1      28.290  31.361  21.304  1.00  0.00     0.169 A 
ATOM     32  C   UNL A   1      28.139  32.503  22.057  1.00  0.00     0.166 A 
ATOM     33  O   UNL A   1      27.844  31.514  20.029  1.00  0.00    -0.453 OA
ATOM     34  O   UNL A   1      27.597  33.520  21.331  1.00  0.00    -0.454 OA
ATOM     35  C   UNL A   1      27.638  32.942  20.010  1.00  0.00     0.468 C 
ENDBRANCH  10  27
ENDBRANCH   2   3
ENDBRANCH   1   2
BRANCH   1  36
ATOM     36  C   UNL A   1      32.909  33.155  27.167  1.00  0.00     0.119 C 
BRANCH  36  37
ATOM     37  N   UNL A   1      32.665  34.451  27.785  1.00  0.00    -0.352 N 
ATOM     38  C   UNL A   1      33.167  34.996  28.940  1.00  0.00     0.251 C 
ATOM     39  H   UNL A   1      32.039  35.031  27.296  1.00  0.00     0.163 HD
ATOM     40  O   UNL A   1      32.679  36.042  29.364  1.00  0.00    -0.269 OA
BRANCH  38  41
ATOM     41  C   UNL A   1      34.274  34.344  29.676  1.00  0.00     0.039 A 
ATOM     42  C   UNL A   1      35.586  34.587  29.261  1.00  0.00     0.014 A 
ATOM     43  C   UNL A   1      34.033  33.456  30.728  1.00  0.00     0.014 A 
ATOM     44  C   UNL A   1      36.650  33.964  29.916  1.00  0.00     0.010 A 
ATOM     45  C   UNL A   1      35.098  32.909  31.440  1.00  0.00     0.010 A 
ATOM     46  C   UNL A   1      36.418  33.133  31.024  1.00  0.00    -0.014 A 
BRANCH  46  47
ATOM     47  C   UNL A   1      37.548  32.473  31.730  1.00  0.00     0.031 A 
ATOM     48  C   UNL A   1      38.304  31.345  31.074  1.00  0.00     0.074 A 
ATOM     49  C   UNL A   1      37.873  32.859  32.980  1.00  0.00     0.049 A 
ATOM     50  N   UNL A   1      39.324  30.662  31.526  1.00  0.00    -0.248 NA
ATOM     51  C   UNL A   1      37.839  30.908  29.745  1.00  0.00     0.031 C 
ATOM     52  C   UNL A   1      37.170  33.883  33.757  1.00  0.00     0.029 A 
ATOM     53  N   UNL A   1      38.867  32.429  33.820  1.00  0.00    -0.354 N 
ATOM     54  C   UNL A   1      39.601  29.702  30.560  1.00  0.00     0.074 A 
ATOM     55  C   UNL A   1      38.615  29.860  29.516  1.00  0.00     0.031 C 
ATOM     56  C   UNL A   1      37.767  34.014  34.952  1.00  0.00     0.029 A 
ATOM     57  C   UNL A   1      38.875  33.068  35.038  1.00  0.00     0.049 A 
ATOM     58  H   UNL A   1      39.515  31.729  33.575  1.00  0.00     0.167 HD
ATOM     59  C   UNL A   1      40.604  28.792  30.526  1.00  0.00     0.034 A 
ATOM     60  C   UNL A   1      39.684  32.910  36.104  1.00  0.00     0.034 A 
ATOM     61  C   UNL A   1      41.606  28.659  31.550  1.00  0.00     0.049 A 
ATOM     62  C   UNL A   1      40.817  31.925  36.022  1.00  0.00     0.074 A 
ATOM     63  C   UNL A   1      42.705  27.820  31.577  1.00  0.00     0.029 A 
ATOM     64  N   UNL A   1      41.626  29.379  32.735  1.00  0.00    -0.354 N 
ATOM     65  N   UNL A   1      41.152  31.129  35.035  1.00  0.00    -0.248 NA
ATOM     66  C   UNL A   1      41.715  31.851  37.183  1.00  0.00     0.031 C 
ATOM     67  C   UNL A   1      43.372  28.010  32.791  1.00  0.00     0.029 A 
ATOM     68  C   UNL A   1      42.715  29.001  33.501  1.00  0.00     0.049 A 
ATOM     69  H   UNL A   1      40.962  30.058  32.994  1.00  0.00     0.167 HD
ATOM     70  C   UNL A   1      42.324  30.496  35.437  1.00  0.00     0.074 A 
ATOM     71  C   UNL A   1      42.649  31.017  36.748  1.00  0.00     0.031 C 
ATOM     72  C   UNL A   1      43.059  29.563  34.782  1.00  0.00     0.034 A 
BRANCH  59  73
ATOM     73  C   UNL A   1      40.695  27.894  29.317  1.00  0.00     0.023 A 
ATOM     74  C   UNL A   1      39.879  26.747  29.235  1.00  0.00     0.012 A 
ATOM     75  C   UNL A   1      41.548  28.210  28.242  1.00  0.00     0.148 A 
ATOM     76  C   UNL A   1      39.938  25.908  28.123  1.00  0.00     0.002 A 
ATOM     77  C   UNL A   1      41.564  27.397  27.114  1.00  0.00     0.091 A 
ATOM     78  F   UNL A   1      42.332  29.292  28.345  1.00  0.00    -0.205 F 
ATOM     79  C   UNL A   1      40.772  26.239  27.059  1.00  0.00     0.022 A 
BRANCH  77  80
ATOM     80  S   UNL A   1      42.541  27.780  25.656  1.00  0.00     0.127 S 
ATOM     81  O   UNL A   1      42.303  26.602  24.824  1.00  0.00    -0.237 OA
ATOM     82  O   UNL A   1      41.903  29.006  25.173  1.00  0.00    -0.237 OA
ATOM     83  O   UNL A   1      43.910  27.950  26.121  1.00  0.00    -0.744 OA
ENDBRANCH  77  80
ENDBRANCH  59  73
BRANCH  60  84
ATOM     84  C   UNL A   1      39.497  33.757  37.316  1.00  0.00     0.023 A 
ATOM     85  C   UNL A   1      40.025  35.062  37.343  1.00  0.00     0.012 A 
ATOM     86  C   UNL A   1      38.790  33.281  38.437  1.00  0.00     0.148 A 
ATOM     87  C   UNL A   1      39.891  35.862  38.478  1.00  0.00     0.002 A 
ATOM     88  C   UNL A   1      38.609  34.103  39.542  1.00  0.00     0.091 A 
ATOM     89  F   UNL A   1      38.300  32.033  38.394  1.00  0.00    -0.205 F 
ATOM     90  C   UNL A   1      39.176  35.387  39.573  1.00  0.00     0.022 A 
BRANCH  88  91
ATOM     91  S   UNL A   1      37.595  33.624  40.944  1.00  0.00     0.127 S 
ATOM     92  O   UNL A   1      38.463  32.668  41.627  1.00  0.00    -0.237 OA
ATOM     93  O   UNL A   1      37.420  34.900  41.637  1.00  0.00    -0.237 OA
ATOM     94  O   UNL A   1      36.372  33.074  40.376  1.00  0.00    -0.744 OA
ENDBRANCH  88  91
ENDBRANCH  60  84
BRANCH  72  95
ATOM     95  C   UNL A   1      44.328  29.089  35.442  1.00  0.00     0.023 A 
ATOM     96  C   UNL A   1      45.562  29.699  35.137  1.00  0.00     0.012 A 
ATOM     97  C   UNL A   1      44.288  28.056  36.400  1.00  0.00     0.148 A 
ATOM     98  C   UNL A   1      46.740  29.254  35.738  1.00  0.00     0.002 A 
ATOM     99  C   UNL A   1      45.458  27.657  37.035  1.00  0.00     0.091 A 
ATOM    100  F   UNL A   1      43.110  27.472  36.664  1.00  0.00    -0.205 F 
ATOM    101  C   UNL A   1      46.686  28.242  36.692  1.00  0.00     0.022 A 
BRANCH  99 102
ATOM    102  S   UNL A   1      45.463  26.434  38.351  1.00  0.00     0.127 S 
ATOM    103  O   UNL A   1      46.859  26.468  38.783  1.00  0.00    -0.237 OA
ATOM    104  O   UNL A   1      44.514  27.002  39.308  1.00  0.00    -0.237 OA
ATOM    105  O   UNL A   1      45.025  25.187  37.738  1.00  0.00    -0.744 OA
ENDBRANCH  99 102
ENDBRANCH  72  95
ENDBRANCH  46  47
ENDBRANCH  38  41
ENDBRANCH  36  37
ENDBRANCH   1  36
TORSDOF 17
ENDMDL
MODEL 2
REMARK VINA RESULT:     -13.5      5.596      9.816
REMARK SMILES C[C@@H](Oc1ccc(/C=C2\C(=O)[NH+]=C(NCCCNC(=O)c3ccc(-c4c5nc(c(-c6cccc(S(=O)(=O)[O-])c6F)c6ccc([nH]6)c(-c6cccc(S(=O)(=O)[O-])c6F)c6nc(c(-c7cccc(S(=O)(=O)[O-])c7F)c7ccc4[nH]7)C=C6)C=C5)cc3)N(c3ccc4c(c3)OCO4)C2=O)cc1)C(=O)[O-]
REMARK SMILES IDX 16 1 15 2 14 3 8 4 9 5 10 6 94 7 11 8 12 9 84 10 95 11 13 12
REMARK SMILES IDX 7 15 4 16 5 17 97 18 6 19 96 20 3 21 2 22 1 23 98 24 99 25
REMARK SMILES IDX 100 26 85 27 86 28 90 29 87 30 89 31 88 32 91 33 93 34 92 35
REMARK SMILES IDX 17 36 18 37 19 38 20 40 21 41 22 42 83 43 23 44 82 45 24 46
REMARK SMILES IDX 25 47 26 48 76 49 27 50 81 51 75 52 77 53 28 54 80 55 74 56
REMARK SMILES IDX 73 57 29 59 61 60 41 61 60 62 42 63 45 64 59 65 78 66 43 67
REMARK SMILES IDX 44 68 58 70 79 71 46 72 30 73 31 74 39 75 32 76 34 77 40 78
REMARK SMILES IDX 33 79 35 80 36 81 37 82 38 83 62 84 63 85 71 86 64 87 66 88
REMARK SMILES IDX 72 89 65 90 67 91 68 92 69 93 70 94 47 95 48 96 56 97 49 98
REMARK SMILES IDX 51 99 57 100 50 101 52 102 53 103 54 104 55 105
REMARK H PARENT 12 13 14 14 18 39 77 58 45 69
REMARK Flexibility Score: inf
ROOT
ATOM      1  C   UNL A   1      36.639  23.766  24.788  1.00  0.00     0.059 C 
ENDROOT
BRANCH   1   2
ATOM      2  C   UNL A   1      36.214  22.939  23.584  1.00  0.00     0.199 C 
BRANCH   2   3
ATOM      3  N   UNL A   1      34.887  22.387  23.778  1.00  0.00    -0.277 N 
ATOM      4  C   UNL A   1      30.525  25.400  23.496  1.00  0.00     0.031 C 
ATOM      5  C   UNL A   1      31.536  24.679  24.018  1.00  0.00     0.138 C 
ATOM      6  C   UNL A   1      32.820  25.199  24.513  1.00  0.00     0.321 C 
ATOM      7  C   UNL A   1      31.348  23.218  24.091  1.00  0.00     0.328 C 
ATOM      8  O   UNL A   1      32.907  26.266  25.109  1.00  0.00    -0.250 OA
ATOM      9  N   UNL A   1      33.896  24.415  24.224  1.00  0.00    -0.210 N 
ATOM     10  N   UNL A   1      32.538  22.501  24.143  1.00  0.00    -0.162 N 
ATOM     11  O   UNL A   1      30.222  22.719  24.061  1.00  0.00    -0.249 OA
ATOM     12  C   UNL A   1      33.774  23.133  24.069  1.00  0.00     0.366 C 
ATOM     13  H   UNL A   1      34.785  24.830  24.130  1.00  0.00     0.270 HD
ATOM     14  H   UNL A   1      34.778  21.411  23.695  1.00  0.00     0.260 HD
BRANCH   4  15
ATOM     15  C   UNL A   1      30.431  26.842  23.224  1.00  0.00    -0.024 A 
ATOM     16  C   UNL A   1      30.050  29.570  22.651  1.00  0.00     0.120 A 
ATOM     17  C   UNL A   1      31.227  28.934  22.270  1.00  0.00     0.047 A 
ATOM     18  C   UNL A   1      29.041  28.838  23.268  1.00  0.00     0.047 A 
ATOM     19  C   UNL A   1      31.411  27.573  22.542  1.00  0.00     0.012 A 
ATOM     20  C   UNL A   1      29.236  27.488  23.565  1.00  0.00     0.012 A 
BRANCH  16  21
ATOM     21  O   UNL A   1      29.870  30.867  22.264  1.00  0.00    -0.485 OA
BRANCH  21  22
ATOM     22  C   UNL A   1      28.500  31.245  22.070  1.00  0.00     0.216 C 
ATOM     23  C   UNL A   1      27.992  30.864  20.682  1.00  0.00     0.059 C 
BRANCH  22  24
ATOM     24  C   UNL A   1      28.404  32.762  22.186  1.00  0.00     0.082 C 
ATOM     25  O   UNL A   1      27.733  33.495  21.474  1.00  0.00    -0.546 OA
ATOM     26  O   UNL A   1      29.225  33.300  23.113  1.00  0.00    -0.546 OA
ENDBRANCH  22  24
ENDBRANCH  21  22
ENDBRANCH  16  21
ENDBRANCH   4  15
BRANCH  10  27
ATOM     27  C   UNL A   1      32.421  21.088  24.110  1.00  0.00     0.115 A 
ATOM     28  C   UNL A   1      32.344  20.416  22.871  1.00  0.00     0.048 A 
ATOM     29  C   UNL A   1      32.547  20.374  25.309  1.00  0.00     0.094 A 
ATOM     30  C   UNL A   1      32.456  19.023  22.820  1.00  0.00     0.054 A 
ATOM     31  C   UNL A   1      32.677  19.010  25.220  1.00  0.00     0.169 A 
ATOM     32  C   UNL A   1      32.652  18.354  24.011  1.00  0.00     0.166 A 
ATOM     33  O   UNL A   1      32.918  18.172  26.264  1.00  0.00    -0.453 OA
ATOM     34  O   UNL A   1      32.897  17.022  24.153  1.00  0.00    -0.454 OA
ATOM     35  C   UNL A   1      33.287  16.979  25.541  1.00  0.00     0.468 C 
ENDBRANCH  10  27
ENDBRANCH   2   3
ENDBRANCH   1   2
BRANCH   1  36
ATOM     36  C   UNL A   1      36.802  22.953  26.068  1.00  0.00     0.119 C 
BRANCH  36  37
ATOM     37  N   UNL A   1      37.963  22.074  26.037  1.00  0.00    -0.352 N 
ATOM     38  C   UNL A   1      39.292  22.345  26.242  1.00  0.00     0.251 C 
ATOM     39  H   UNL A   1      37.761  21.132  25.836  1.00  0.00     0.163 HD
ATOM     40  O   UNL A   1      40.121  21.474  25.986  1.00  0.00    -0.269 OA
BRANCH  38  41
ATOM     41  C   UNL A   1      39.735  23.660  26.758  1.00  0.00     0.039 A 
ATOM     42  C   UNL A   1      39.919  23.809  28.135  1.00  0.00     0.014 A 
ATOM     43  C   UNL A   1      39.913  24.758  25.912  1.00  0.00     0.014 A 
ATOM     44  C   UNL A   1      40.308  25.045  28.656  1.00  0.00     0.010 A 
ATOM     45  C   UNL A   1      40.391  25.963  26.421  1.00  0.00     0.010 A 
ATOM     46  C   UNL A   1      40.565  26.130  27.802  1.00  0.00    -0.014 A 
BRANCH  46  47
ATOM     47  C   UNL A   1      40.986  27.446  28.350  1.00  0.00     0.031 A 
ATOM     48  C   UNL A   1      42.449  27.788  28.479  1.00  0.00     0.074 A 
ATOM     49  C   UNL A   1      40.054  28.324  28.771  1.00  0.00     0.049 A 
ATOM     50  N   UNL A   1      43.004  28.888  28.918  1.00  0.00    -0.248 NA
ATOM     51  C   UNL A   1      43.418  26.748  28.089  1.00  0.00     0.031 C 
ATOM     52  C   UNL A   1      38.609  28.085  28.775  1.00  0.00     0.029 A 
ATOM     53  N   UNL A   1      40.182  29.588  29.288  1.00  0.00    -0.354 N 
ATOM     54  C   UNL A   1      44.375  28.664  28.886  1.00  0.00     0.074 A 
ATOM     55  C   UNL A   1      44.570  27.308  28.428  1.00  0.00     0.031 C 
ATOM     56  C   UNL A   1      37.984  29.173  29.252  1.00  0.00     0.029 A 
ATOM     57  C   UNL A   1      38.982  30.175  29.614  1.00  0.00     0.049 A 
ATOM     58  H   UNL A   1      41.051  30.033  29.414  1.00  0.00     0.167 HD
ATOM     59  C   UNL A   1      45.385  29.518  29.180  1.00  0.00     0.034 A 
ATOM     60  C   UNL A   1      38.714  31.386  30.143  1.00  0.00     0.034 A 
ATOM     61  C   UNL A   1      45.192  30.879  29.604  1.00  0.00     0.049 A 
ATOM     62  C   UNL A   1      39.852  32.331  30.417  1.00  0.00     0.074 A 
ATOM     63  C   UNL A   1      46.147  31.848  29.855  1.00  0.00     0.029 A 
ATOM     64  N   UNL A   1      43.958  31.463  29.847  1.00  0.00    -0.354 N 
ATOM     65  N   UNL A   1      41.138  32.151  30.239  1.00  0.00    -0.248 NA
ATOM     66  C   UNL A   1      39.497  33.665  30.920  1.00  0.00     0.031 C 
ATOM     67  C   UNL A   1      45.493  33.008  30.280  1.00  0.00     0.029 A 
ATOM     68  C   UNL A   1      44.127  32.778  30.250  1.00  0.00     0.049 A 
ATOM     69  H   UNL A   1      43.090  31.010  29.749  1.00  0.00     0.167 HD
ATOM     70  C   UNL A   1      41.740  33.363  30.561  1.00  0.00     0.074 A 
ATOM     71  C   UNL A   1      40.674  34.272  30.926  1.00  0.00     0.031 C 
ATOM     72  C   UNL A   1      43.057  33.690  30.561  1.00  0.00     0.034 A 
BRANCH  59  73
ATOM     73  C   UNL A   1      46.799  29.018  29.010  1.00  0.00     0.023 A 
ATOM     74  C   UNL A   1      47.482  28.464  30.112  1.00  0.00     0.012 A 
ATOM     75  C   UNL A   1      47.432  29.048  27.752  1.00  0.00     0.148 A 
ATOM     76  C   UNL A   1      48.784  27.985  29.977  1.00  0.00     0.002 A 
ATOM     77  C   UNL A   1      48.712  28.522  27.613  1.00  0.00     0.091 A 
ATOM     78  F   UNL A   1      46.777  29.596  26.719  1.00  0.00    -0.205 F 
ATOM     79  C   UNL A   1      49.394  28.004  28.726  1.00  0.00     0.022 A 
BRANCH  77  80
ATOM     80  S   UNL A   1      49.553  28.424  26.029  1.00  0.00     0.127 S 
ATOM     81  O   UNL A   1      50.214  29.726  25.965  1.00  0.00    -0.237 OA
ATOM     82  O   UNL A   1      50.457  27.291  26.232  1.00  0.00    -0.237 OA
ATOM     83  O   UNL A   1      48.514  28.203  25.034  1.00  0.00    -0.744 OA
ENDBRANCH  77  80
ENDBRANCH  59  73
BRANCH  60  84
ATOM     84  C   UNL A   1      37.303  31.801  30.382  1.00  0.00     0.023 A 
ATOM     85  C   UNL A   1      36.779  31.771  31.689  1.00  0.00     0.012 A 
ATOM     86  C   UNL A   1      36.481  32.234  29.324  1.00  0.00     0.148 A 
ATOM     87  C   UNL A   1      35.452  32.123  31.933  1.00  0.00     0.002 A 
ATOM     88  C   UNL A   1      35.178  32.639  29.581  1.00  0.00     0.091 A 
ATOM     89  F   UNL A   1      36.996  32.249  28.086  1.00  0.00    -0.205 F 
ATOM     90  C   UNL A   1      34.654  32.566  30.882  1.00  0.00     0.022 A 
BRANCH  88  91
ATOM     91  S   UNL A   1      34.119  33.344  28.314  1.00  0.00     0.127 S 
ATOM     92  O   UNL A   1      35.061  34.173  27.566  1.00  0.00    -0.237 OA
ATOM     93  O   UNL A   1      33.657  32.148  27.610  1.00  0.00    -0.237 OA
ATOM     94  O   UNL A   1      33.074  34.063  29.030  1.00  0.00    -0.744 OA
ENDBRANCH  88  91
ENDBRANCH  60  84
BRANCH  72  95
ATOM     95  C   UNL A   1      43.421  35.111  30.906  1.00  0.00     0.023 A 
ATOM     96  C   UNL A   1      43.785  35.455  32.224  1.00  0.00     0.012 A 
ATOM     97  C   UNL A   1      43.438  36.103  29.905  1.00  0.00     0.148 A 
ATOM     98  C   UNL A   1      44.110  36.772  32.548  1.00  0.00     0.002 A 
ATOM     99  C   UNL A   1      43.819  37.400  30.225  1.00  0.00     0.091 A 
ATOM    100  F   UNL A   1      43.071  35.764  28.661  1.00  0.00    -0.205 F 
ATOM    101  C   UNL A   1      44.137  37.741  31.549  1.00  0.00     0.022 A 
BRANCH  99 102
ATOM    102  S   UNL A   1      43.981  38.685  28.979  1.00  0.00     0.127 S 
ATOM    103  O   UNL A   1      42.602  38.824  28.514  1.00  0.00    -0.237 OA
ATOM    104  O   UNL A   1      44.478  39.816  29.762  1.00  0.00    -0.237 OA
ATOM    105  O   UNL A   1      44.927  38.171  27.998  1.00  0.00    -0.744 OA
ENDBRANCH  99 102
ENDBRANCH  72  95
ENDBRANCH  46  47
ENDBRANCH  38  41
ENDBRANCH  36  37
ENDBRANCH   1  36
TORSDOF 17
ENDMDL
MODEL 3
REMARK VINA RESULT:     -13.4      1.638      7.358
REMARK SMILES C[C@@H](Oc1ccc(/C=C2\C(=O)[NH+]=C(NCCCNC(=O)c3ccc(-c4c5nc(c(-c6cccc(S(=O)(=O)[O-])c6F)c6ccc([nH]6)c(-c6cccc(S(=O)(=O)[O-])c6F)c6nc(c(-c7cccc(S(=O)(=O)[O-])c7F)c7ccc4[nH]7)C=C6)C=C5)cc3)N(c3ccc4c(c3)OCO4)C2=O)cc1)C(=O)[O-]
REMARK SMILES IDX 16 1 15 2 14 3 8 4 9 5 10 6 94 7 11 8 12 9 84 10 95 11 13 12
REMARK SMILES IDX 7 15 4 16 5 17 97 18 6 19 96 20 3 21 2 22 1 23 98 24 99 25
REMARK SMILES IDX 100 26 85 27 86 28 90 29 87 30 89 31 88 32 91 33 93 34 92 35
REMARK SMILES IDX 17 36 18 37 19 38 20 40 21 41 22 42 83 43 23 44 82 45 24 46
REMARK SMILES IDX 25 47 26 48 76 49 27 50 81 51 75 52 77 53 28 54 80 55 74 56
REMARK SMILES IDX 73 57 29 59 61 60 41 61 60 62 42 63 45 64 59 65 78 66 43 67
REMARK SMILES IDX 44 68 58 70 79 71 46 72 30 73 31 74 39 75 32 76 34 77 40 78
REMARK SMILES IDX 33 79 35 80 36 81 37 82 38 83 62 84 63 85 71 86 64 87 66 88
REMARK SMILES IDX 72 89 65 90 67 91 68 92 69 93 70 94 47 95 48 96 56 97 49 98
REMARK SMILES IDX 51 99 57 100 50 101 52 102 53 103 54 104 55 105
REMARK H PARENT 12 13 14 14 18 39 77 58 45 69
REMARK Flexibility Score: inf
ROOT
ATOM      1  C   UNL A   1      31.756  32.138  27.108  1.00  0.00     0.059 C 
ENDROOT
BRANCH   1   2
ATOM      2  C   UNL A   1      32.065  30.769  26.522  1.00  0.00     0.199 C 
BRANCH   2   3
ATOM      3  N   UNL A   1      31.233  30.503  25.363  1.00  0.00    -0.277 N 
ATOM      4  C   UNL A   1      30.583  25.596  23.444  1.00  0.00     0.031 C 
ATOM      5  C   UNL A   1      31.027  26.862  23.562  1.00  0.00     0.138 C 
ATOM      6  C   UNL A   1      32.278  27.297  24.199  1.00  0.00     0.321 C 
ATOM      7  C   UNL A   1      30.168  27.927  23.010  1.00  0.00     0.328 C 
ATOM      8  O   UNL A   1      33.315  26.650  24.112  1.00  0.00    -0.250 OA
ATOM      9  N   UNL A   1      32.177  28.453  24.914  1.00  0.00    -0.210 N 
ATOM     10  N   UNL A   1      30.387  29.176  23.578  1.00  0.00    -0.162 N 
ATOM     11  O   UNL A   1      29.315  27.677  22.155  1.00  0.00    -0.249 OA
ATOM     12  C   UNL A   1      31.297  29.357  24.612  1.00  0.00     0.366 C 
ATOM     13  H   UNL A   1      32.782  28.604  25.676  1.00  0.00     0.270 HD
ATOM     14  H   UNL A   1      30.581  31.191  25.098  1.00  0.00     0.260 HD
BRANCH   4  15
ATOM     15  C   UNL A   1      31.160  24.339  23.943  1.00  0.00    -0.024 A 
ATOM     16  C   UNL A   1      32.322  22.039  25.072  1.00  0.00     0.120 A 
ATOM     17  C   UNL A   1      32.477  22.306  23.715  1.00  0.00     0.047 A 
ATOM     18  C   UNL A   1      31.637  22.942  25.877  1.00  0.00     0.047 A 
ATOM     19  C   UNL A   1      31.911  23.458  23.156  1.00  0.00     0.012 A 
ATOM     20  C   UNL A   1      31.048  24.076  25.315  1.00  0.00     0.012 A 
BRANCH  16  21
ATOM     21  O   UNL A   1      32.987  20.965  25.591  1.00  0.00    -0.485 OA
BRANCH  21  22
ATOM     22  C   UNL A   1      34.023  20.443  24.748  1.00  0.00     0.216 C 
ATOM     23  C   UNL A   1      33.946  18.924  24.620  1.00  0.00     0.059 C 
BRANCH  22  24
ATOM     24  C   UNL A   1      35.368  20.774  25.385  1.00  0.00     0.082 C 
ATOM     25  O   UNL A   1      35.599  21.723  26.120  1.00  0.00    -0.546 OA
ATOM     26  O   UNL A   1      36.380  19.970  24.995  1.00  0.00    -0.546 OA
ENDBRANCH  22  24
ENDBRANCH  21  22
ENDBRANCH  16  21
ENDBRANCH   4  15
BRANCH  10  27
ATOM     27  C   UNL A   1      29.519  30.217  23.159  1.00  0.00     0.115 A 
ATOM     28  C   UNL A   1      29.343  31.357  23.974  1.00  0.00     0.048 A 
ATOM     29  C   UNL A   1      28.978  30.164  21.868  1.00  0.00     0.094 A 
ATOM     30  C   UNL A   1      28.675  32.480  23.473  1.00  0.00     0.054 A 
ATOM     31  C   UNL A   1      28.348  31.292  21.402  1.00  0.00     0.169 A 
ATOM     32  C   UNL A   1      28.216  32.424  22.173  1.00  0.00     0.166 A 
ATOM     33  O   UNL A   1      27.864  31.459  20.142  1.00  0.00    -0.453 OA
ATOM     34  O   UNL A   1      27.650  33.448  21.476  1.00  0.00    -0.454 OA
ATOM     35  C   UNL A   1      27.653  32.886  20.147  1.00  0.00     0.468 C 
ENDBRANCH  10  27
ENDBRANCH   2   3
ENDBRANCH   1   2
BRANCH   1  36
ATOM     36  C   UNL A   1      32.962  33.071  27.165  1.00  0.00     0.119 C 
BRANCH  36  37
ATOM     37  N   UNL A   1      32.757  34.209  28.052  1.00  0.00    -0.352 N 
ATOM     38  C   UNL A   1      33.392  34.556  29.216  1.00  0.00     0.251 C 
ATOM     39  H   UNL A   1      32.046  34.829  27.770  1.00  0.00     0.163 HD
ATOM     40  O   UNL A   1      32.928  35.469  29.896  1.00  0.00    -0.269 OA
BRANCH  38  41
ATOM     41  C   UNL A   1      34.615  33.850  29.662  1.00  0.00     0.039 A 
ATOM     42  C   UNL A   1      34.480  32.782  30.555  1.00  0.00     0.014 A 
ATOM     43  C   UNL A   1      35.888  34.260  29.260  1.00  0.00     0.014 A 
ATOM     44  C   UNL A   1      35.615  32.115  31.017  1.00  0.00     0.010 A 
ATOM     45  C   UNL A   1      37.012  33.534  29.648  1.00  0.00     0.010 A 
ATOM     46  C   UNL A   1      36.893  32.472  30.554  1.00  0.00    -0.014 A 
BRANCH  46  47
ATOM     47  C   UNL A   1      38.104  31.760  31.038  1.00  0.00     0.031 A 
ATOM     48  C   UNL A   1      38.725  32.122  32.363  1.00  0.00     0.074 A 
ATOM     49  C   UNL A   1      38.674  30.811  30.268  1.00  0.00     0.049 A 
ATOM     50  N   UNL A   1      39.770  31.601  32.955  1.00  0.00    -0.248 NA
ATOM     51  C   UNL A   1      38.109  33.231  33.113  1.00  0.00     0.031 C 
ATOM     52  C   UNL A   1      38.219  30.423  28.930  1.00  0.00     0.029 A 
ATOM     53  N   UNL A   1      39.764  30.010  30.492  1.00  0.00    -0.354 N 
ATOM     54  C   UNL A   1      39.953  32.333  34.121  1.00  0.00     0.074 A 
ATOM     55  C   UNL A   1      38.941  33.364  34.135  1.00  0.00     0.031 C 
ATOM     56  C   UNL A   1      39.012  29.446  28.463  1.00  0.00     0.029 A 
ATOM     57  C   UNL A   1      40.047  29.158  29.451  1.00  0.00     0.049 A 
ATOM     58  H   UNL A   1      40.295  30.043  31.321  1.00  0.00     0.167 HD
ATOM     59  C   UNL A   1      40.860  32.147  35.110  1.00  0.00     0.034 A 
ATOM     60  C   UNL A   1      41.029  28.245  29.308  1.00  0.00     0.034 A 
ATOM     61  C   UNL A   1      41.846  31.099  35.113  1.00  0.00     0.049 A 
ATOM     62  C   UNL A   1      41.994  28.028  30.441  1.00  0.00     0.074 A 
ATOM     63  C   UNL A   1      42.762  30.780  36.099  1.00  0.00     0.029 A 
ATOM     64  N   UNL A   1      42.051  30.204  34.074  1.00  0.00    -0.354 N 
ATOM     65  N   UNL A   1      42.058  28.634  31.602  1.00  0.00    -0.248 NA
ATOM     66  C   UNL A   1      42.995  26.967  30.262  1.00  0.00     0.031 C 
ATOM     67  C   UNL A   1      43.541  29.711  35.644  1.00  0.00     0.029 A 
ATOM     68  C   UNL A   1      43.080  29.335  34.392  1.00  0.00     0.049 A 
ATOM     69  H   UNL A   1      41.539  30.189  33.233  1.00  0.00     0.167 HD
ATOM     70  C   UNL A   1      43.071  27.995  32.309  1.00  0.00     0.074 A 
ATOM     71  C   UNL A   1      43.579  26.945  31.451  1.00  0.00     0.031 C 
ATOM     72  C   UNL A   1      43.543  28.260  33.553  1.00  0.00     0.034 A 
BRANCH  59  73
ATOM     73  C   UNL A   1      40.801  33.074  36.300  1.00  0.00     0.023 A 
ATOM     74  C   UNL A   1      41.593  34.241  36.317  1.00  0.00     0.012 A 
ATOM     75  C   UNL A   1      39.927  32.819  37.375  1.00  0.00     0.148 A 
ATOM     76  C   UNL A   1      41.547  35.118  37.400  1.00  0.00     0.002 A 
ATOM     77  C   UNL A   1      39.849  33.724  38.427  1.00  0.00     0.091 A 
ATOM     78  F   UNL A   1      39.196  31.696  37.352  1.00  0.00    -0.205 F 
ATOM     79  C   UNL A   1      40.667  34.864  38.449  1.00  0.00     0.022 A 
BRANCH  77  80
ATOM     80  S   UNL A   1      38.688  33.533  39.786  1.00  0.00     0.127 S 
ATOM     81  O   UNL A   1      38.896  34.775  40.527  1.00  0.00    -0.237 OA
ATOM     82  O   UNL A   1      37.406  33.450  39.084  1.00  0.00    -0.237 OA
ATOM     83  O   UNL A   1      39.080  32.317  40.483  1.00  0.00    -0.744 OA
ENDBRANCH  77  80
ENDBRANCH  59  73
BRANCH  60  84
ATOM     84  C   UNL A   1      41.104  27.416  28.072  1.00  0.00     0.023 A 
ATOM     85  C   UNL A   1      41.726  27.936  26.921  1.00  0.00     0.012 A 
ATOM     86  C   UNL A   1      40.571  26.113  28.034  1.00  0.00     0.148 A 
ATOM     87  C   UNL A   1      41.779  27.193  25.742  1.00  0.00     0.002 A 
ATOM     88  C   UNL A   1      40.678  25.355  26.875  1.00  0.00     0.091 A 
ATOM     89  F   UNL A   1      39.976  25.639  29.138  1.00  0.00    -0.205 F 
ATOM     90  C   UNL A   1      41.264  25.900  25.721  1.00  0.00     0.022 A 
BRANCH  88  91
ATOM     91  S   UNL A   1      40.160  23.639  26.795  1.00  0.00     0.127 S 
ATOM     92  O   UNL A   1      40.405  23.188  28.162  1.00  0.00    -0.237 OA
ATOM     93  O   UNL A   1      38.748  23.768  26.432  1.00  0.00    -0.237 OA
ATOM     94  O   UNL A   1      40.991  23.024  25.769  1.00  0.00    -0.744 OA
ENDBRANCH  88  91
ENDBRANCH  60  84
BRANCH  72  95
ATOM     95  C   UNL A   1      44.624  27.359  34.094  1.00  0.00     0.023 A 
ATOM     96  C   UNL A   1      45.981  27.713  33.959  1.00  0.00     0.012 A 
ATOM     97  C   UNL A   1      44.285  26.173  34.774  1.00  0.00     0.148 A 
ATOM     98  C   UNL A   1      46.984  26.876  34.448  1.00  0.00     0.002 A 
ATOM     99  C   UNL A   1      45.287  25.373  35.308  1.00  0.00     0.091 A 
ATOM    100  F   UNL A   1      42.990  25.840  34.877  1.00  0.00    -0.205 F 
ATOM    101  C   UNL A   1      46.637  25.712  35.130  1.00  0.00     0.022 A 
BRANCH  99 102
ATOM    102  S   UNL A   1      44.925  23.912  36.290  1.00  0.00     0.127 S 
ATOM    103  O   UNL A   1      43.867  23.280  35.504  1.00  0.00    -0.237 OA
ATOM    104  O   UNL A   1      46.204  23.202  36.275  1.00  0.00    -0.237 OA
ATOM    105  O   UNL A   1      44.526  24.403  37.602  1.00  0.00    -0.744 OA
ENDBRANCH  99 102
ENDBRANCH  72  95
ENDBRANCH  46  47
ENDBRANCH  38  41
ENDBRANCH  36  37
ENDBRANCH   1  36
TORSDOF 17
ENDMDL
