MODEL 1
REMARK VINA RESULT:     -10.7      0.000      0.000
REMARK SMILES CC(C)(C)C[C@@H](O)[C@@H](F)C(=O)NCCCNC(=O)c1ccc(-c2c3nc(c(-c4cccc(S(=O)(=O)[O-])c4F)c4ccc([nH]4)c(-c4cccc(S(=O)(=O)[O-])c4F)c4nc(c(-c5cccc(S(=O)(=O)[O-])c5F)c5ccc2[nH]5)C=C4)C=C3)cc1
REMARK SMILES IDX 14 1 13 2 12 3 10 4 11 5 8 7 9 8 6 9 5 10 2 11 1 12 3 13
REMARK SMILES IDX 4 14 7 15 15 17 16 18 17 19 18 21 19 22 20 23 81 24 21 25
REMARK SMILES IDX 80 26 22 27 23 28 24 29 74 30 25 31 79 32 73 33 75 34 26 35
REMARK SMILES IDX 78 36 72 37 71 38 27 40 59 41 39 42 58 43 40 44 43 45 57 46
REMARK SMILES IDX 76 47 41 48 42 49 56 51 77 52 44 53 28 54 29 55 37 56 30 57
REMARK SMILES IDX 32 58 38 59 31 60 33 61 34 62 35 63 36 64 60 65 61 66 69 67
REMARK SMILES IDX 62 68 64 69 70 70 63 71 65 72 66 73 67 74 68 75 45 76 46 77
REMARK SMILES IDX 54 78 47 79 49 80 55 81 48 82 50 83 51 84 52 85 53 86
REMARK H PARENT 12 6 7 16 16 20 75 39 43 50
REMARK Flexibility Score: inf
ROOT
ATOM      1  C   UNL A   1      33.265  27.584  26.695  1.00  0.00     0.042 C 
ENDROOT
BRANCH   1   2
ATOM      2  C   UNL A   1      32.980  26.410  25.761  1.00  0.00     0.117 C 
BRANCH   2   3
ATOM      3  N   UNL A   1      31.559  26.154  25.602  1.00  0.00    -0.353 N 
ATOM      4  C   UNL A   1      30.625  26.843  24.880  1.00  0.00     0.257 C 
ATOM      5  O   UNL A   1      29.477  26.388  24.851  1.00  0.00    -0.272 OA
ATOM      6  H   UNL A   1      31.219  25.368  26.087  1.00  0.00     0.163 HD
BRANCH   4   7
ATOM      7  C   UNL A   1      30.994  28.136  24.151  1.00  0.00     0.283 C 
ATOM      8  F   UNL A   1      31.020  29.193  25.020  1.00  0.00    -0.234 F 
BRANCH   7   9
ATOM      9  C   UNL A   1      30.018  28.428  22.998  1.00  0.00     0.159 C 
BRANCH   9  10
ATOM     10  C   UNL A   1      29.599  29.910  22.980  1.00  0.00     0.041 C 
BRANCH  10  11
ATOM     11  C   UNL A   1      28.105  30.211  22.654  1.00  0.00    -0.036 C 
ATOM     12  C   UNL A   1      27.899  30.651  21.197  1.00  0.00     0.011 C 
ATOM     13  C   UNL A   1      27.646  31.357  23.578  1.00  0.00     0.011 C 
ATOM     14  C   UNL A   1      27.220  28.982  22.938  1.00  0.00     0.011 C 
ENDBRANCH  10  11
ENDBRANCH   9  10
BRANCH   9  15
ATOM     15  O   UNL A   1      30.658  28.128  21.753  1.00  0.00    -0.390 OA
ATOM     16  H   UNL A   1      31.283  28.836  21.531  1.00  0.00     0.211 HD
ENDBRANCH   9  15
ENDBRANCH   7   9
ENDBRANCH   4   7
ENDBRANCH   2   3
ENDBRANCH   1   2
BRANCH   1  17
ATOM     17  C   UNL A   1      34.138  28.680  26.096  1.00  0.00     0.118 C 
BRANCH  17  18
ATOM     18  N   UNL A   1      33.873  29.986  26.675  1.00  0.00    -0.352 N 
ATOM     19  C   UNL A   1      34.544  30.674  27.654  1.00  0.00     0.251 C 
ATOM     20  H   UNL A   1      33.089  30.452  26.304  1.00  0.00     0.163 HD
ATOM     21  O   UNL A   1      34.037  31.696  28.112  1.00  0.00    -0.269 OA
BRANCH  19  22
ATOM     22  C   UNL A   1      35.852  30.204  28.173  1.00  0.00     0.039 A 
ATOM     23  C   UNL A   1      36.983  30.363  27.364  1.00  0.00     0.014 A 
ATOM     24  C   UNL A   1      35.971  29.554  29.404  1.00  0.00     0.014 A 
ATOM     25  C   UNL A   1      38.228  29.897  27.801  1.00  0.00     0.010 A 
ATOM     26  C   UNL A   1      37.225  29.164  29.874  1.00  0.00     0.010 A 
ATOM     27  C   UNL A   1      38.363  29.305  29.066  1.00  0.00    -0.014 A 
BRANCH  27  28
ATOM     28  C   UNL A   1      39.678  28.795  29.536  1.00  0.00     0.031 A 
ATOM     29  C   UNL A   1      40.413  29.498  30.649  1.00  0.00     0.074 A 
ATOM     30  C   UNL A   1      40.242  27.734  28.927  1.00  0.00     0.049 A 
ATOM     31  N   UNL A   1      41.575  29.214  31.179  1.00  0.00    -0.248 NA
ATOM     32  C   UNL A   1      39.773  30.693  31.222  1.00  0.00     0.031 C 
ATOM     33  C   UNL A   1      39.676  27.018  27.783  1.00  0.00     0.029 A 
ATOM     34  N   UNL A   1      41.428  27.088  29.171  1.00  0.00    -0.354 N 
ATOM     35  C   UNL A   1      41.818  30.208  32.119  1.00  0.00     0.074 A 
ATOM     36  C   UNL A   1      40.704  31.128  32.058  1.00  0.00     0.031 C 
ATOM     37  C   UNL A   1      40.514  26.030  27.425  1.00  0.00     0.029 A 
ATOM     38  C   UNL A   1      41.682  26.053  28.301  1.00  0.00     0.049 A 
ATOM     39  H   UNL A   1      42.040  27.341  29.899  1.00  0.00     0.167 HD
ATOM     40  C   UNL A   1      42.854  30.328  32.985  1.00  0.00     0.034 A 
ATOM     41  C   UNL A   1      42.733  25.215  28.220  1.00  0.00     0.034 A 
ATOM     42  C   UNL A   1      43.937  29.386  33.081  1.00  0.00     0.049 A 
ATOM     43  C   UNL A   1      43.836  25.323  29.238  1.00  0.00     0.074 A 
ATOM     44  C   UNL A   1      44.994  29.376  33.974  1.00  0.00     0.029 A 
ATOM     45  N   UNL A   1      44.100  28.284  32.256  1.00  0.00    -0.354 N 
ATOM     46  N   UNL A   1      43.969  26.178  30.222  1.00  0.00    -0.248 NA
ATOM     47  C   UNL A   1      44.909  24.320  29.166  1.00  0.00     0.031 C 
ATOM     48  C   UNL A   1      45.801  28.271  33.683  1.00  0.00     0.029 A 
ATOM     49  C   UNL A   1      45.235  27.583  32.622  1.00  0.00     0.049 A 
ATOM     50  H   UNL A   1      43.495  28.036  31.520  1.00  0.00     0.167 HD
ATOM     51  C   UNL A   1      45.117  25.796  30.908  1.00  0.00     0.074 A 
ATOM     52  C   UNL A   1      45.629  24.618  30.239  1.00  0.00     0.031 C 
ATOM     53  C   UNL A   1      45.702  26.378  31.984  1.00  0.00     0.034 A 
BRANCH  40  54
ATOM     54  C   UNL A   1      42.827  31.489  33.946  1.00  0.00     0.023 A 
ATOM     55  C   UNL A   1      43.390  32.723  33.556  1.00  0.00     0.012 A 
ATOM     56  C   UNL A   1      42.214  31.381  35.209  1.00  0.00     0.148 A 
ATOM     57  C   UNL A   1      43.380  33.817  34.420  1.00  0.00     0.002 A 
ATOM     58  C   UNL A   1      42.167  32.490  36.048  1.00  0.00     0.091 A 
ATOM     59  F   UNL A   1      41.702  30.197  35.574  1.00  0.00    -0.205 F 
ATOM     60  C   UNL A   1      42.759  33.703  35.662  1.00  0.00     0.022 A 
BRANCH  58  61
ATOM     61  S   UNL A   1      41.322  32.468  37.634  1.00  0.00     0.127 S 
ATOM     62  O   UNL A   1      39.993  31.989  37.253  1.00  0.00    -0.237 OA
ATOM     63  O   UNL A   1      42.120  31.508  38.397  1.00  0.00    -0.237 OA
ATOM     64  O   UNL A   1      41.377  33.834  38.134  1.00  0.00    -0.744 OA
ENDBRANCH  58  61
ENDBRANCH  40  54
BRANCH  41  65
ATOM     65  C   UNL A   1      42.747  24.146  27.180  1.00  0.00     0.023 A 
ATOM     66  C   UNL A   1      43.470  24.350  25.989  1.00  0.00     0.012 A 
ATOM     67  C   UNL A   1      42.088  22.919  27.384  1.00  0.00     0.148 A 
ATOM     68  C   UNL A   1      43.511  23.361  25.004  1.00  0.00     0.002 A 
ATOM     69  C   UNL A   1      42.178  21.919  26.423  1.00  0.00     0.091 A 
ATOM     70  F   UNL A   1      41.396  22.749  28.519  1.00  0.00    -0.205 F 
ATOM     71  C   UNL A   1      42.874  22.143  25.225  1.00  0.00     0.022 A 
BRANCH  69  72
ATOM     72  S   UNL A   1      41.508  20.272  26.684  1.00  0.00     0.127 S 
ATOM     73  O   UNL A   1      42.238  19.837  27.871  1.00  0.00    -0.237 OA
ATOM     74  O   UNL A   1      40.088  20.552  26.900  1.00  0.00    -0.237 OA
ATOM     75  O   UNL A   1      41.792  19.536  25.458  1.00  0.00    -0.744 OA
ENDBRANCH  69  72
ENDBRANCH  41  65
BRANCH  53  76
ATOM     76  C   UNL A   1      46.945  25.731  32.537  1.00  0.00     0.023 A 
ATOM     77  C   UNL A   1      48.210  26.112  32.048  1.00  0.00     0.012 A 
ATOM     78  C   UNL A   1      46.863  24.797  33.588  1.00  0.00     0.148 A 
ATOM     79  C   UNL A   1      49.372  25.547  32.571  1.00  0.00     0.002 A 
ATOM     80  C   UNL A   1      48.028  24.273  34.138  1.00  0.00     0.091 A 
ATOM     81  F   UNL A   1      45.650  24.430  34.027  1.00  0.00    -0.205 F 
ATOM     82  C   UNL A   1      49.282  24.638  33.624  1.00  0.00     0.022 A 
BRANCH  80  83
ATOM     83  S   UNL A   1      48.003  23.170  35.555  1.00  0.00     0.127 S 
ATOM     84  O   UNL A   1      49.430  22.990  35.819  1.00  0.00    -0.237 OA
ATOM     85  O   UNL A   1      47.294  23.964  36.559  1.00  0.00    -0.237 OA
ATOM     86  O   UNL A   1      47.288  21.979  35.118  1.00  0.00    -0.744 OA
ENDBRANCH  80  83
ENDBRANCH  53  76
ENDBRANCH  27  28
ENDBRANCH  19  22
ENDBRANCH  17  18
ENDBRANCH   1  17
TORSDOF 17
ENDMDL
MODEL 2
REMARK VINA RESULT:     -10.5      6.074     11.771
REMARK SMILES CC(C)(C)C[C@@H](O)[C@@H](F)C(=O)NCCCNC(=O)c1ccc(-c2c3nc(c(-c4cccc(S(=O)(=O)[O-])c4F)c4ccc([nH]4)c(-c4cccc(S(=O)(=O)[O-])c4F)c4nc(c(-c5cccc(S(=O)(=O)[O-])c5F)c5ccc2[nH]5)C=C4)C=C3)cc1
REMARK SMILES IDX 14 1 13 2 12 3 10 4 11 5 8 7 9 8 6 9 5 10 2 11 1 12 3 13
REMARK SMILES IDX 4 14 7 15 15 17 16 18 17 19 18 21 19 22 20 23 81 24 21 25
REMARK SMILES IDX 80 26 22 27 23 28 24 29 74 30 25 31 79 32 73 33 75 34 26 35
REMARK SMILES IDX 78 36 72 37 71 38 27 40 59 41 39 42 58 43 40 44 43 45 57 46
REMARK SMILES IDX 76 47 41 48 42 49 56 51 77 52 44 53 28 54 29 55 37 56 30 57
REMARK SMILES IDX 32 58 38 59 31 60 33 61 34 62 35 63 36 64 60 65 61 66 69 67
REMARK SMILES IDX 62 68 64 69 70 70 63 71 65 72 66 73 67 74 68 75 45 76 46 77
REMARK SMILES IDX 54 78 47 79 49 80 55 81 48 82 50 83 51 84 52 85 53 86
REMARK H PARENT 12 6 7 16 16 20 75 39 43 50
REMARK Flexibility Score: inf
ROOT
ATOM      1  C   UNL A   1      41.534  20.103  26.164  1.00  0.00     0.042 C 
ENDROOT
BRANCH   1   2
ATOM      2  C   UNL A   1      43.057  20.141  26.075  1.00  0.00     0.117 C 
BRANCH   2   3
ATOM      3  N   UNL A   1      43.571  19.382  24.948  1.00  0.00    -0.353 N 
ATOM      4  C   UNL A   1      44.702  19.581  24.206  1.00  0.00     0.257 C 
ATOM      5  O   UNL A   1      44.959  18.754  23.326  1.00  0.00    -0.272 OA
ATOM      6  H   UNL A   1      43.023  18.610  24.679  1.00  0.00     0.163 HD
BRANCH   4   7
ATOM      7  C   UNL A   1      45.599  20.795  24.453  1.00  0.00     0.283 C 
ATOM      8  F   UNL A   1      46.076  20.794  25.735  1.00  0.00    -0.234 F 
BRANCH   7   9
ATOM      9  C   UNL A   1      44.853  22.110  24.171  1.00  0.00     0.159 C 
BRANCH   9  10
ATOM     10  C   UNL A   1      45.703  23.332  24.566  1.00  0.00     0.041 C 
BRANCH  10  11
ATOM     11  C   UNL A   1      45.105  24.280  25.648  1.00  0.00    -0.036 C 
ATOM     12  C   UNL A   1      44.696  23.532  26.925  1.00  0.00     0.011 C 
ATOM     13  C   UNL A   1      43.847  24.941  25.049  1.00  0.00     0.011 C 
ATOM     14  C   UNL A   1      46.103  25.395  26.017  1.00  0.00     0.011 C 
ENDBRANCH  10  11
ENDBRANCH   9  10
BRANCH   9  15
ATOM     15  O   UNL A   1      44.564  22.198  22.771  1.00  0.00    -0.390 OA
ATOM     16  H   UNL A   1      43.837  22.823  22.629  1.00  0.00     0.211 HD
ENDBRANCH   9  15
ENDBRANCH   7   9
ENDBRANCH   4   7
ENDBRANCH   2   3
ENDBRANCH   1   2
BRANCH   1  17
ATOM     17  C   UNL A   1      40.892  21.376  26.702  1.00  0.00     0.118 C 
BRANCH  17  18
ATOM     18  N   UNL A   1      39.588  21.638  26.117  1.00  0.00    -0.352 N 
ATOM     19  C   UNL A   1      38.807  22.765  26.162  1.00  0.00     0.251 C 
ATOM     20  H   UNL A   1      39.205  20.888  25.607  1.00  0.00     0.163 HD
ATOM     21  O   UNL A   1      37.654  22.702  25.739  1.00  0.00    -0.269 OA
BRANCH  19  22
ATOM     22  C   UNL A   1      39.320  24.041  26.717  1.00  0.00     0.039 A 
ATOM     23  C   UNL A   1      39.059  24.333  28.061  1.00  0.00     0.014 A 
ATOM     24  C   UNL A   1      39.991  24.976  25.926  1.00  0.00     0.014 A 
ATOM     25  C   UNL A   1      39.492  25.544  28.611  1.00  0.00     0.010 A 
ATOM     26  C   UNL A   1      40.493  26.147  26.496  1.00  0.00     0.010 A 
ATOM     27  C   UNL A   1      40.226  26.456  27.837  1.00  0.00    -0.014 A 
BRANCH  27  28
ATOM     28  C   UNL A   1      40.681  27.752  28.407  1.00  0.00     0.031 A 
ATOM     29  C   UNL A   1      42.152  28.034  28.576  1.00  0.00     0.074 A 
ATOM     30  C   UNL A   1      39.773  28.655  28.828  1.00  0.00     0.049 A 
ATOM     31  N   UNL A   1      42.737  29.095  29.070  1.00  0.00    -0.248 NA
ATOM     32  C   UNL A   1      43.087  26.976  28.161  1.00  0.00     0.031 C 
ATOM     33  C   UNL A   1      38.321  28.469  28.801  1.00  0.00     0.029 A 
ATOM     34  N   UNL A   1      39.939  29.900  29.381  1.00  0.00    -0.354 N 
ATOM     35  C   UNL A   1      44.099  28.820  29.057  1.00  0.00     0.074 A 
ATOM     36  C   UNL A   1      44.252  27.475  28.546  1.00  0.00     0.031 C 
ATOM     37  C   UNL A   1      37.729  29.560  29.313  1.00  0.00     0.029 A 
ATOM     38  C   UNL A   1      38.757  30.515  29.720  1.00  0.00     0.049 A 
ATOM     39  H   UNL A   1      40.821  30.314  29.523  1.00  0.00     0.167 HD
ATOM     40  C   UNL A   1      45.135  29.622  29.401  1.00  0.00     0.034 A 
ATOM     41  C   UNL A   1      38.524  31.714  30.290  1.00  0.00     0.034 A 
ATOM     42  C   UNL A   1      44.986  30.977  29.861  1.00  0.00     0.049 A 
ATOM     43  C   UNL A   1      39.689  32.617  30.595  1.00  0.00     0.074 A 
ATOM     44  C   UNL A   1      45.974  31.898  30.162  1.00  0.00     0.029 A 
ATOM     45  N   UNL A   1      43.771  31.606  30.083  1.00  0.00    -0.354 N 
ATOM     46  N   UNL A   1      40.970  32.396  30.427  1.00  0.00    -0.248 NA
ATOM     47  C   UNL A   1      39.374  33.953  31.122  1.00  0.00     0.031 C 
ATOM     48  C   UNL A   1      45.354  33.083  30.576  1.00  0.00     0.029 A 
ATOM     49  C   UNL A   1      43.982  32.905  30.512  1.00  0.00     0.049 A 
ATOM     50  H   UNL A   1      42.888  31.190  29.953  1.00  0.00     0.167 HD
ATOM     51  C   UNL A   1      41.612  33.575  30.792  1.00  0.00     0.074 A 
ATOM     52  C   UNL A   1      40.575  34.514  31.168  1.00  0.00     0.031 C 
ATOM     53  C   UNL A   1      42.940  33.849  30.828  1.00  0.00     0.034 A 
BRANCH  40  54
ATOM     54  C   UNL A   1      46.529  29.075  29.225  1.00  0.00     0.023 A 
ATOM     55  C   UNL A   1      47.144  28.391  30.296  1.00  0.00     0.012 A 
ATOM     56  C   UNL A   1      47.214  29.194  28.001  1.00  0.00     0.148 A 
ATOM     57  C   UNL A   1      48.430  27.871  30.165  1.00  0.00     0.002 A 
ATOM     58  C   UNL A   1      48.479  28.632  27.863  1.00  0.00     0.091 A 
ATOM     59  F   UNL A   1      46.626  29.864  26.999  1.00  0.00    -0.205 F 
ATOM     60  C   UNL A   1      49.094  27.982  28.946  1.00  0.00     0.022 A 
BRANCH  58  61
ATOM     61  S   UNL A   1      49.384  28.653  26.310  1.00  0.00     0.127 S 
ATOM     62  O   UNL A   1      48.331  28.319  25.352  1.00  0.00    -0.237 OA
ATOM     63  O   UNL A   1      49.852  30.038  26.244  1.00  0.00    -0.237 OA
ATOM     64  O   UNL A   1      50.442  27.663  26.451  1.00  0.00    -0.744 OA
ENDBRANCH  58  61
ENDBRANCH  40  54
BRANCH  41  65
ATOM     65  C   UNL A   1      37.122  32.158  30.530  1.00  0.00     0.023 A 
ATOM     66  C   UNL A   1      36.561  32.015  31.814  1.00  0.00     0.012 A 
ATOM     67  C   UNL A   1      36.360  32.759  29.510  1.00  0.00     0.148 A 
ATOM     68  C   UNL A   1      35.255  32.434  32.070  1.00  0.00     0.002 A 
ATOM     69  C   UNL A   1      35.079  33.223  29.786  1.00  0.00     0.091 A 
ATOM     70  F   UNL A   1      36.908  32.876  28.292  1.00  0.00    -0.205 F 
ATOM     71  C   UNL A   1      34.518  33.047  31.060  1.00  0.00     0.022 A 
BRANCH  69  72
ATOM     72  S   UNL A   1      34.113  34.149  28.587  1.00  0.00     0.127 S 
ATOM     73  O   UNL A   1      32.883  34.407  29.328  1.00  0.00    -0.237 OA
ATOM     74  O   UNL A   1      34.956  35.323  28.359  1.00  0.00    -0.237 OA
ATOM     75  O   UNL A   1      33.986  33.272  27.428  1.00  0.00    -0.744 OA
ENDBRANCH  69  72
ENDBRANCH  41  65
BRANCH  53  76
ATOM     76  C   UNL A   1      43.355  35.232  31.252  1.00  0.00     0.023 A 
ATOM     77  C   UNL A   1      43.634  35.496  32.607  1.00  0.00     0.012 A 
ATOM     78  C   UNL A   1      43.536  36.253  30.297  1.00  0.00     0.148 A 
ATOM     79  C   UNL A   1      44.051  36.764  33.011  1.00  0.00     0.002 A 
ATOM     80  C   UNL A   1      43.998  37.501  30.702  1.00  0.00     0.091 A 
ATOM     81  F   UNL A   1      43.246  35.990  29.015  1.00  0.00    -0.205 F 
ATOM     82  C   UNL A   1      44.245  37.761  32.058  1.00  0.00     0.022 A 
BRANCH  80  83
ATOM     83  S   UNL A   1      44.364  38.810  29.527  1.00  0.00     0.127 S 
ATOM     84  O   UNL A   1      44.857  39.870  30.405  1.00  0.00    -0.237 OA
ATOM     85  O   UNL A   1      45.387  38.195  28.680  1.00  0.00    -0.237 OA
ATOM     86  O   UNL A   1      43.109  39.091  28.842  1.00  0.00    -0.744 OA
ENDBRANCH  80  83
ENDBRANCH  53  76
ENDBRANCH  27  28
ENDBRANCH  19  22
ENDBRANCH  17  18
ENDBRANCH   1  17
TORSDOF 17
ENDMDL
MODEL 3
REMARK VINA RESULT:     -10.5      3.039      5.027
REMARK SMILES CC(C)(C)C[C@@H](O)[C@@H](F)C(=O)NCCCNC(=O)c1ccc(-c2c3nc(c(-c4cccc(S(=O)(=O)[O-])c4F)c4ccc([nH]4)c(-c4cccc(S(=O)(=O)[O-])c4F)c4nc(c(-c5cccc(S(=O)(=O)[O-])c5F)c5ccc2[nH]5)C=C4)C=C3)cc1
REMARK SMILES IDX 14 1 13 2 12 3 10 4 11 5 8 7 9 8 6 9 5 10 2 11 1 12 3 13
REMARK SMILES IDX 4 14 7 15 15 17 16 18 17 19 18 21 19 22 20 23 81 24 21 25
REMARK SMILES IDX 80 26 22 27 23 28 24 29 74 30 25 31 79 32 73 33 75 34 26 35
REMARK SMILES IDX 78 36 72 37 71 38 27 40 59 41 39 42 58 43 40 44 43 45 57 46
REMARK SMILES IDX 76 47 41 48 42 49 56 51 77 52 44 53 28 54 29 55 37 56 30 57
REMARK SMILES IDX 32 58 38 59 31 60 33 61 34 62 35 63 36 64 60 65 61 66 69 67
REMARK SMILES IDX 62 68 64 69 70 70 63 71 65 72 66 73 67 74 68 75 45 76 46 77
REMARK SMILES IDX 54 78 47 79 49 80 55 81 48 82 50 83 51 84 52 85 53 86
REMARK H PARENT 12 6 7 16 16 20 75 39 43 50
REMARK Flexibility Score: inf
ROOT
ATOM      1  C   UNL A   1      34.755  32.884  29.779  1.00  0.00     0.042 C 
ENDROOT
BRANCH   1   2
ATOM      2  C   UNL A   1      36.177  33.059  30.305  1.00  0.00     0.117 C 
BRANCH   2   3
ATOM      3  N   UNL A   1      36.396  32.368  31.565  1.00  0.00    -0.353 N 
ATOM      4  C   UNL A   1      36.446  32.869  32.836  1.00  0.00     0.257 C 
ATOM      5  O   UNL A   1      36.586  32.063  33.761  1.00  0.00    -0.272 OA
ATOM      6  H   UNL A   1      36.528  31.396  31.491  1.00  0.00     0.163 HD
BRANCH   4   7
ATOM      7  C   UNL A   1      36.348  34.374  33.091  1.00  0.00     0.283 C 
ATOM      8  F   UNL A   1      37.372  34.799  33.892  1.00  0.00    -0.234 F 
BRANCH   7   9
ATOM      9  C   UNL A   1      34.996  34.749  33.722  1.00  0.00     0.159 C 
BRANCH   9  10
ATOM     10  C   UNL A   1      33.853  34.653  32.695  1.00  0.00     0.041 C 
BRANCH  10  11
ATOM     11  C   UNL A   1      33.189  35.994  32.260  1.00  0.00    -0.036 C 
ATOM     12  C   UNL A   1      33.933  37.223  32.803  1.00  0.00     0.011 C 
ATOM     13  C   UNL A   1      31.753  36.009  32.821  1.00  0.00     0.011 C 
ATOM     14  C   UNL A   1      33.105  36.096  30.725  1.00  0.00     0.011 C 
ENDBRANCH  10  11
ENDBRANCH   9  10
BRANCH   9  15
ATOM     15  O   UNL A   1      34.711  33.848  34.797  1.00  0.00    -0.390 OA
ATOM     16  H   UNL A   1      34.175  33.110  34.467  1.00  0.00     0.211 HD
ENDBRANCH   9  15
ENDBRANCH   7   9
ENDBRANCH   4   7
ENDBRANCH   2   3
ENDBRANCH   1   2
BRANCH   1  17
ATOM     17  C   UNL A   1      34.621  32.950  28.262  1.00  0.00     0.118 C 
BRANCH  17  18
ATOM     18  N   UNL A   1      33.956  31.784  27.706  1.00  0.00    -0.352 N 
ATOM     19  C   UNL A   1      34.424  30.511  27.501  1.00  0.00     0.251 C 
ATOM     20  H   UNL A   1      33.022  31.931  27.434  1.00  0.00     0.163 HD
ATOM     21  O   UNL A   1      33.736  29.726  26.851  1.00  0.00    -0.269 OA
BRANCH  19  22
ATOM     22  C   UNL A   1      35.737  30.073  28.035  1.00  0.00     0.039 A 
ATOM     23  C   UNL A   1      36.865  30.211  27.219  1.00  0.00     0.014 A 
ATOM     24  C   UNL A   1      35.864  29.473  29.290  1.00  0.00     0.014 A 
ATOM     25  C   UNL A   1      38.115  29.774  27.670  1.00  0.00     0.010 A 
ATOM     26  C   UNL A   1      37.123  29.113  29.772  1.00  0.00     0.010 A 
ATOM     27  C   UNL A   1      38.257  29.233  28.957  1.00  0.00    -0.014 A 
BRANCH  27  28
ATOM     28  C   UNL A   1      39.578  28.754  29.444  1.00  0.00     0.031 A 
ATOM     29  C   UNL A   1      40.288  29.481  30.558  1.00  0.00     0.074 A 
ATOM     30  C   UNL A   1      40.169  27.699  28.850  1.00  0.00     0.049 A 
ATOM     31  N   UNL A   1      41.451  29.224  31.101  1.00  0.00    -0.248 NA
ATOM     32  C   UNL A   1      39.618  30.667  31.115  1.00  0.00     0.031 C 
ATOM     33  C   UNL A   1      39.629  26.962  27.706  1.00  0.00     0.029 A 
ATOM     34  N   UNL A   1      41.366  27.079  29.110  1.00  0.00    -0.354 N 
ATOM     35  C   UNL A   1      41.664  30.231  32.036  1.00  0.00     0.074 A 
ATOM     36  C   UNL A   1      40.532  31.127  31.956  1.00  0.00     0.031 C 
ATOM     37  C   UNL A   1      40.490  25.989  27.364  1.00  0.00     0.029 A 
ATOM     38  C   UNL A   1      41.649  26.043  28.251  1.00  0.00     0.049 A 
ATOM     39  H   UNL A   1      41.965  27.350  29.842  1.00  0.00     0.167 HD
ATOM     40  C   UNL A   1      42.689  30.379  32.910  1.00  0.00     0.034 A 
ATOM     41  C   UNL A   1      42.717  25.225  28.187  1.00  0.00     0.034 A 
ATOM     42  C   UNL A   1      43.789  29.460  33.024  1.00  0.00     0.049 A 
ATOM     43  C   UNL A   1      43.808  25.364  29.215  1.00  0.00     0.074 A 
ATOM     44  C   UNL A   1      44.838  29.478  33.928  1.00  0.00     0.029 A 
ATOM     45  N   UNL A   1      43.982  28.354  32.210  1.00  0.00    -0.354 N 
ATOM     46  N   UNL A   1      43.914  26.229  30.193  1.00  0.00    -0.248 NA
ATOM     47  C   UNL A   1      44.901  24.382  29.161  1.00  0.00     0.031 C 
ATOM     48  C   UNL A   1      45.670  28.388  33.654  1.00  0.00     0.029 A 
ATOM     49  C   UNL A   1      45.129  27.679  32.593  1.00  0.00     0.049 A 
ATOM     50  H   UNL A   1      43.390  28.088  31.471  1.00  0.00     0.167 HD
ATOM     51  C   UNL A   1      45.063  25.877  30.893  1.00  0.00     0.074 A 
ATOM     52  C   UNL A   1      45.605  24.703  30.239  1.00  0.00     0.031 C 
ATOM     53  C   UNL A   1      45.626  26.479  31.970  1.00  0.00     0.034 A 
BRANCH  40  54
ATOM     54  C   UNL A   1      42.630  31.547  33.861  1.00  0.00     0.023 A 
ATOM     55  C   UNL A   1      43.171  32.789  33.466  1.00  0.00     0.012 A 
ATOM     56  C   UNL A   1      42.006  31.437  35.119  1.00  0.00     0.148 A 
ATOM     57  C   UNL A   1      43.130  33.889  34.321  1.00  0.00     0.002 A 
ATOM     58  C   UNL A   1      41.928  32.551  35.948  1.00  0.00     0.091 A 
ATOM     59  F   UNL A   1      41.514  30.245  35.489  1.00  0.00    -0.205 F 
ATOM     60  C   UNL A   1      42.500  33.773  35.557  1.00  0.00     0.022 A 
BRANCH  58  61
ATOM     61  S   UNL A   1      41.068  32.526  37.526  1.00  0.00     0.127 S 
ATOM     62  O   UNL A   1      41.921  31.635  38.312  1.00  0.00    -0.237 OA
ATOM     63  O   UNL A   1      41.119  33.931  37.929  1.00  0.00    -0.237 OA
ATOM     64  O   UNL A   1      39.730  32.026  37.242  1.00  0.00    -0.744 OA
ENDBRANCH  58  61
ENDBRANCH  40  54
BRANCH  41  65
ATOM     65  C   UNL A   1      42.763  24.148  27.157  1.00  0.00     0.023 A 
ATOM     66  C   UNL A   1      43.522  24.343  25.987  1.00  0.00     0.012 A 
ATOM     67  C   UNL A   1      42.098  22.923  27.349  1.00  0.00     0.148 A 
ATOM     68  C   UNL A   1      43.593  23.347  25.011  1.00  0.00     0.002 A 
ATOM     69  C   UNL A   1      42.216  21.915  26.399  1.00  0.00     0.091 A 
ATOM     70  F   UNL A   1      41.371  22.762  28.464  1.00  0.00    -0.205 F 
ATOM     71  C   UNL A   1      42.949  22.130  25.222  1.00  0.00     0.022 A 
BRANCH  69  72
ATOM     72  S   UNL A   1      41.538  20.271  26.653  1.00  0.00     0.127 S 
ATOM     73  O   UNL A   1      41.944  19.587  25.428  1.00  0.00    -0.237 OA
ATOM     74  O   UNL A   1      42.236  19.837  27.863  1.00  0.00    -0.237 OA
ATOM     75  O   UNL A   1      40.103  20.463  26.827  1.00  0.00    -0.744 OA
ENDBRANCH  69  72
ENDBRANCH  41  65
BRANCH  53  76
ATOM     76  C   UNL A   1      46.876  25.862  32.539  1.00  0.00     0.023 A 
ATOM     77  C   UNL A   1      48.139  26.306  32.101  1.00  0.00     0.012 A 
ATOM     78  C   UNL A   1      46.799  24.893  33.558  1.00  0.00     0.148 A 
ATOM     79  C   UNL A   1      49.306  25.768  32.642  1.00  0.00     0.002 A 
ATOM     80  C   UNL A   1      47.967  24.395  34.127  1.00  0.00     0.091 A 
ATOM     81  F   UNL A   1      45.589  24.466  33.948  1.00  0.00    -0.205 F 
ATOM     82  C   UNL A   1      49.221  24.823  33.662  1.00  0.00     0.022 A 
BRANCH  80  83
ATOM     83  S   UNL A   1      47.944  23.247  35.508  1.00  0.00     0.127 S 
ATOM     84  O   UNL A   1      49.358  22.899  35.631  1.00  0.00    -0.237 OA
ATOM     85  O   UNL A   1      47.423  24.076  36.596  1.00  0.00    -0.237 OA
ATOM     86  O   UNL A   1      47.060  22.161  35.106  1.00  0.00    -0.744 OA
ENDBRANCH  80  83
ENDBRANCH  53  76
ENDBRANCH  27  28
ENDBRANCH  19  22
ENDBRANCH  17  18
ENDBRANCH   1  17
TORSDOF 17
ENDMDL
