MODEL 1
REMARK VINA RESULT:     -12.2      0.000      0.000
REMARK SMILES CC[C@]1(C(=O)NCCCNC(=O)c2ccc(-c3c4nc(c(-c5cccc(S(=O)(=O)[O-])c5F)c5ccc([nH]5)c(-c5cccc(S(=O)(=O)[O-])c5F)c5nc(c(-c6cccc(S(=O)(=O)[O-])c6F)c6ccc3[nH]6)C=C5)C=C4)cc2)CCC[N@@H+](Cc2cc(OC)ccc2F)C1
REMARK SMILES IDX 8 1 7 2 6 3 4 4 5 5 3 7 76 8 90 9 77 10 79 11 78 12 2 14
REMARK SMILES IDX 1 15 80 16 81 17 82 18 88 19 83 20 87 21 89 22 86 23 84 24
REMARK SMILES IDX 85 25 9 26 10 27 11 28 12 30 13 31 14 32 75 33 15 34 74 35
REMARK SMILES IDX 16 36 17 37 18 38 68 39 19 40 73 41 67 42 69 43 20 44 72 45
REMARK SMILES IDX 66 46 65 47 21 49 53 50 33 51 52 52 34 53 37 54 51 55 70 56
REMARK SMILES IDX 35 57 36 58 50 60 71 61 38 62 22 63 23 64 31 65 24 66 26 67
REMARK SMILES IDX 32 68 25 69 27 70 28 71 29 72 30 73 54 74 55 75 63 76 56 77
REMARK SMILES IDX 58 78 64 79 57 80 59 81 60 82 61 83 62 84 39 85 40 86 48 87
REMARK SMILES IDX 41 88 43 89 49 90 42 91 44 92 45 93 46 94 47 95
REMARK H PARENT 6 6 79 13 10 29 69 48 37 59
REMARK Flexibility Score: inf
ROOT
ATOM      1  C   UNL A   1      37.027  19.564  24.906  1.00  0.00     0.042 C 
ENDROOT
BRANCH   1   2
ATOM      2  C   UNL A   1      35.756  20.414  24.983  1.00  0.00     0.117 C 
BRANCH   2   3
ATOM      3  N   UNL A   1      34.444  19.758  25.187  1.00  0.00    -0.355 N 
ATOM      4  C   UNL A   1      33.124  20.174  25.077  1.00  0.00     0.231 C 
ATOM      5  O   UNL A   1      32.247  19.309  25.046  1.00  0.00    -0.274 OA
ATOM      6  H   UNL A   1      34.526  18.817  25.464  1.00  0.00     0.163 HD
BRANCH   4   7
ATOM      7  C   UNL A   1      32.785  21.672  25.061  1.00  0.00     0.098 C 
ATOM      8  C   UNL A   1      31.375  21.794  25.706  1.00  0.00     0.028 C 
ATOM      9  C   UNL A   1      33.608  22.655  25.947  1.00  0.00     0.279 C 
ATOM     10  C   UNL A   1      30.763  23.163  25.508  1.00  0.00     0.063 C 
ATOM     11  N   UNL A   1      33.070  24.003  25.642  1.00  0.00    -0.330 N 
ATOM     12  C   UNL A   1      31.695  24.227  26.079  1.00  0.00     0.262 C 
ATOM     13  H   UNL A   1      33.007  23.965  24.624  1.00  0.00     0.348 HD
BRANCH   7  14
ATOM     14  C   UNL A   1      33.077  22.111  23.583  1.00  0.00     0.019 C 
ATOM     15  C   UNL A   1      32.140  21.487  22.530  1.00  0.00     0.005 C 
ENDBRANCH   7  14
BRANCH  11  16
ATOM     16  C   UNL A   1      33.966  25.135  25.798  1.00  0.00     0.302 C 
BRANCH  16  17
ATOM     17  C   UNL A   1      33.845  26.193  24.745  1.00  0.00     0.046 A 
ATOM     18  C   UNL A   1      33.656  25.850  23.398  1.00  0.00     0.059 A 
ATOM     19  C   UNL A   1      33.906  27.541  25.092  1.00  0.00     0.132 A 
ATOM     20  C   UNL A   1      33.544  26.840  22.423  1.00  0.00     0.119 A 
ATOM     21  C   UNL A   1      33.752  28.534  24.135  1.00  0.00     0.043 A 
ATOM     22  F   UNL A   1      34.116  27.902  26.365  1.00  0.00    -0.206 F 
ATOM     23  C   UNL A   1      33.564  28.185  22.797  1.00  0.00     0.049 A 
BRANCH  20  24
ATOM     24  O   UNL A   1      33.401  26.385  21.141  1.00  0.00    -0.497 OA
ATOM     25  C   UNL A   1      32.819  25.092  21.021  1.00  0.00     0.278 C 
ENDBRANCH  20  24
ENDBRANCH  16  17
ENDBRANCH  11  16
ENDBRANCH   4   7
ENDBRANCH   2   3
ENDBRANCH   1   2
BRANCH   1  26
ATOM     26  C   UNL A   1      38.288  20.330  25.242  1.00  0.00     0.118 C 
BRANCH  26  27
ATOM     27  N   UNL A   1      39.269  19.421  25.815  1.00  0.00    -0.352 N 
ATOM     28  C   UNL A   1      40.573  19.684  26.158  1.00  0.00     0.251 C 
ATOM     29  H   UNL A   1      38.958  18.501  25.978  1.00  0.00     0.163 HD
ATOM     30  O   UNL A   1      41.384  18.762  26.171  1.00  0.00    -0.269 OA
BRANCH  28  31
ATOM     31  C   UNL A   1      40.997  21.057  26.529  1.00  0.00     0.039 A 
ATOM     32  C   UNL A   1      40.443  22.149  25.852  1.00  0.00     0.014 A 
ATOM     33  C   UNL A   1      42.007  21.269  27.471  1.00  0.00     0.014 A 
ATOM     34  C   UNL A   1      40.897  23.444  26.127  1.00  0.00     0.010 A 
ATOM     35  C   UNL A   1      42.394  22.563  27.808  1.00  0.00     0.010 A 
ATOM     36  C   UNL A   1      41.874  23.662  27.112  1.00  0.00    -0.014 A 
BRANCH  36  37
ATOM     37  C   UNL A   1      42.405  25.022  27.392  1.00  0.00     0.031 A 
ATOM     38  C   UNL A   1      41.533  26.047  28.073  1.00  0.00     0.074 A 
ATOM     39  C   UNL A   1      43.639  25.359  26.971  1.00  0.00     0.049 A 
ATOM     40  N   UNL A   1      41.801  27.295  28.366  1.00  0.00    -0.248 NA
ATOM     41  C   UNL A   1      40.172  25.628  28.448  1.00  0.00     0.031 C 
ATOM     42  C   UNL A   1      44.548  24.486  26.227  1.00  0.00     0.029 A 
ATOM     43  N   UNL A   1      44.333  26.537  27.089  1.00  0.00    -0.354 N 
ATOM     44  C   UNL A   1      40.635  27.816  28.917  1.00  0.00     0.074 A 
ATOM     45  C   UNL A   1      39.645  26.763  28.884  1.00  0.00     0.031 C 
ATOM     46  C   UNL A   1      45.681  25.154  25.961  1.00  0.00     0.029 A 
ATOM     47  C   UNL A   1      45.573  26.509  26.495  1.00  0.00     0.049 A 
ATOM     48  H   UNL A   1      43.977  27.328  27.554  1.00  0.00     0.167 HD
ATOM     49  C   UNL A   1      40.416  29.047  29.437  1.00  0.00     0.034 A 
ATOM     50  C   UNL A   1      46.518  27.465  26.396  1.00  0.00     0.034 A 
ATOM     51  C   UNL A   1      41.420  30.072  29.524  1.00  0.00     0.049 A 
ATOM     52  C   UNL A   1      46.276  28.801  27.045  1.00  0.00     0.074 A 
ATOM     53  C   UNL A   1      41.328  31.320  30.116  1.00  0.00     0.029 A 
ATOM     54  N   UNL A   1      42.701  29.968  29.007  1.00  0.00    -0.354 N 
ATOM     55  N   UNL A   1      45.223  29.219  27.705  1.00  0.00    -0.248 NA
ATOM     56  C   UNL A   1      47.367  29.782  26.973  1.00  0.00     0.031 C 
ATOM     57  C   UNL A   1      42.553  31.975  29.944  1.00  0.00     0.029 A 
ATOM     58  C   UNL A   1      43.412  31.126  29.264  1.00  0.00     0.049 A 
ATOM     59  H   UNL A   1      43.054  29.184  28.527  1.00  0.00     0.167 HD
ATOM     60  C   UNL A   1      45.539  30.494  28.161  1.00  0.00     0.074 A 
ATOM     61  C   UNL A   1      46.890  30.771  27.717  1.00  0.00     0.031 C 
ATOM     62  C   UNL A   1      44.776  31.364  28.868  1.00  0.00     0.034 A 
BRANCH  49  63
ATOM     63  C   UNL A   1      39.053  29.332  30.017  1.00  0.00     0.023 A 
ATOM     64  C   UNL A   1      38.737  28.862  31.309  1.00  0.00     0.012 A 
ATOM     65  C   UNL A   1      38.107  30.104  29.315  1.00  0.00     0.148 A 
ATOM     66  C   UNL A   1      37.492  29.125  31.879  1.00  0.00     0.002 A 
ATOM     67  C   UNL A   1      36.884  30.401  29.907  1.00  0.00     0.091 A 
ATOM     68  F   UNL A   1      38.414  30.525  28.079  1.00  0.00    -0.205 F 
ATOM     69  C   UNL A   1      36.571  29.902  31.182  1.00  0.00     0.022 A 
BRANCH  67  70
ATOM     70  S   UNL A   1      35.661  31.460  29.127  1.00  0.00     0.127 S 
ATOM     71  O   UNL A   1      34.957  30.513  28.265  1.00  0.00    -0.237 OA
ATOM     72  O   UNL A   1      34.885  31.933  30.273  1.00  0.00    -0.237 OA
ATOM     73  O   UNL A   1      36.413  32.498  28.436  1.00  0.00    -0.744 OA
ENDBRANCH  67  70
ENDBRANCH  49  63
BRANCH  50  74
ATOM     74  C   UNL A   1      47.816  27.158  25.732  1.00  0.00     0.023 A 
ATOM     75  C   UNL A   1      48.854  26.576  26.485  1.00  0.00     0.012 A 
ATOM     76  C   UNL A   1      48.017  27.400  24.359  1.00  0.00     0.148 A 
ATOM     77  C   UNL A   1      50.079  26.270  25.893  1.00  0.00     0.002 A 
ATOM     78  C   UNL A   1      49.221  27.044  23.763  1.00  0.00     0.091 A 
ATOM     79  F   UNL A   1      47.022  27.965  23.662  1.00  0.00    -0.205 F 
ATOM     80  C   UNL A   1      50.259  26.494  24.531  1.00  0.00     0.022 A 
BRANCH  78  81
ATOM     81  S   UNL A   1      49.491  27.171  21.992  1.00  0.00     0.127 S 
ATOM     82  O   UNL A   1      48.546  26.188  21.473  1.00  0.00    -0.237 OA
ATOM     83  O   UNL A   1      49.139  28.567  21.729  1.00  0.00    -0.237 OA
ATOM     84  O   UNL A   1      50.903  26.864  21.790  1.00  0.00    -0.744 OA
ENDBRANCH  78  81
ENDBRANCH  50  74
BRANCH  62  85
ATOM     85  C   UNL A   1      45.391  32.686  29.244  1.00  0.00     0.023 A 
ATOM     86  C   UNL A   1      46.099  32.809  30.455  1.00  0.00     0.012 A 
ATOM     87  C   UNL A   1      45.330  33.783  28.363  1.00  0.00     0.148 A 
ATOM     88  C   UNL A   1      46.707  34.016  30.801  1.00  0.00     0.002 A 
ATOM     89  C   UNL A   1      45.979  34.967  28.691  1.00  0.00     0.091 A 
ATOM     90  F   UNL A   1      44.635  33.653  27.223  1.00  0.00    -0.205 F 
ATOM     91  C   UNL A   1      46.658  35.090  29.915  1.00  0.00     0.022 A 
BRANCH  89  92
ATOM     92  S   UNL A   1      46.046  36.366  27.566  1.00  0.00     0.127 S 
ATOM     93  O   UNL A   1      45.347  35.841  26.395  1.00  0.00    -0.237 OA
ATOM     94  O   UNL A   1      45.314  37.398  28.302  1.00  0.00    -0.237 OA
ATOM     95  O   UNL A   1      47.462  36.655  27.376  1.00  0.00    -0.744 OA
ENDBRANCH  89  92
ENDBRANCH  62  85
ENDBRANCH  36  37
ENDBRANCH  28  31
ENDBRANCH  26  27
ENDBRANCH   1  26
TORSDOF 17
ENDMDL
MODEL 2
REMARK VINA RESULT:     -12.1      5.081      8.431
REMARK SMILES CC[C@]1(C(=O)NCCCNC(=O)c2ccc(-c3c4nc(c(-c5cccc(S(=O)(=O)[O-])c5F)c5ccc([nH]5)c(-c5cccc(S(=O)(=O)[O-])c5F)c5nc(c(-c6cccc(S(=O)(=O)[O-])c6F)c6ccc3[nH]6)C=C5)C=C4)cc2)CCC[N@@H+](Cc2cc(OC)ccc2F)C1
REMARK SMILES IDX 8 1 7 2 6 3 4 4 5 5 3 7 76 8 90 9 77 10 79 11 78 12 2 14
REMARK SMILES IDX 1 15 80 16 81 17 82 18 88 19 83 20 87 21 89 22 86 23 84 24
REMARK SMILES IDX 85 25 9 26 10 27 11 28 12 30 13 31 14 32 75 33 15 34 74 35
REMARK SMILES IDX 16 36 17 37 18 38 68 39 19 40 73 41 67 42 69 43 20 44 72 45
REMARK SMILES IDX 66 46 65 47 21 49 53 50 33 51 52 52 34 53 37 54 51 55 70 56
REMARK SMILES IDX 35 57 36 58 50 60 71 61 38 62 22 63 23 64 31 65 24 66 26 67
REMARK SMILES IDX 32 68 25 69 27 70 28 71 29 72 30 73 54 74 55 75 63 76 56 77
REMARK SMILES IDX 58 78 64 79 57 80 59 81 60 82 61 83 62 84 39 85 40 86 48 87
REMARK SMILES IDX 41 88 43 89 49 90 42 91 44 92 45 93 46 94 47 95
REMARK H PARENT 6 6 79 13 10 29 69 48 37 59
REMARK Flexibility Score: inf
ROOT
ATOM      1  C   UNL A   1      32.834  28.359  27.164  1.00  0.00     0.042 C 
ENDROOT
BRANCH   1   2
ATOM      2  C   UNL A   1      31.443  28.123  26.573  1.00  0.00     0.117 C 
BRANCH   2   3
ATOM      3  N   UNL A   1      31.282  27.970  25.108  1.00  0.00    -0.355 N 
ATOM      4  C   UNL A   1      31.084  26.888  24.262  1.00  0.00     0.231 C 
ATOM      5  O   UNL A   1      30.711  27.117  23.110  1.00  0.00    -0.274 OA
ATOM      6  H   UNL A   1      31.326  28.828  24.627  1.00  0.00     0.163 HD
BRANCH   4   7
ATOM      7  C   UNL A   1      31.390  25.463  24.744  1.00  0.00     0.098 C 
ATOM      8  C   UNL A   1      30.333  25.150  25.840  1.00  0.00     0.028 C 
ATOM      9  C   UNL A   1      31.184  24.262  23.773  1.00  0.00     0.279 C 
ATOM     10  C   UNL A   1      30.665  23.901  26.626  1.00  0.00     0.063 C 
ATOM     11  N   UNL A   1      31.633  23.065  24.526  1.00  0.00    -0.330 N 
ATOM     12  C   UNL A   1      30.800  22.718  25.673  1.00  0.00     0.262 C 
ATOM     13  H   UNL A   1      32.501  23.407  24.939  1.00  0.00     0.348 HD
BRANCH   7  14
ATOM     14  C   UNL A   1      32.931  25.487  25.041  1.00  0.00     0.019 C 
ATOM     15  C   UNL A   1      33.808  25.928  23.851  1.00  0.00     0.005 C 
ENDBRANCH   7  14
BRANCH  11  16
ATOM     16  C   UNL A   1      32.141  21.941  23.760  1.00  0.00     0.302 C 
BRANCH  16  17
ATOM     17  C   UNL A   1      33.499  21.457  24.166  1.00  0.00     0.046 A 
ATOM     18  C   UNL A   1      34.586  22.340  24.240  1.00  0.00     0.059 A 
ATOM     19  C   UNL A   1      33.700  20.117  24.489  1.00  0.00     0.132 A 
ATOM     20  C   UNL A   1      35.848  21.883  24.618  1.00  0.00     0.119 A 
ATOM     21  C   UNL A   1      34.941  19.660  24.909  1.00  0.00     0.043 A 
ATOM     22  F   UNL A   1      32.689  19.241  24.399  1.00  0.00    -0.206 F 
ATOM     23  C   UNL A   1      36.018  20.545  24.980  1.00  0.00     0.049 A 
BRANCH  20  24
ATOM     24  O   UNL A   1      36.837  22.827  24.617  1.00  0.00    -0.497 OA
ATOM     25  C   UNL A   1      36.778  23.765  25.685  1.00  0.00     0.278 C 
ENDBRANCH  20  24
ENDBRANCH  16  17
ENDBRANCH  11  16
ENDBRANCH   4   7
ENDBRANCH   2   3
ENDBRANCH   1   2
BRANCH   1  26
ATOM     26  C   UNL A   1      33.772  29.094  26.230  1.00  0.00     0.118 C 
BRANCH  26  27
ATOM     27  N   UNL A   1      33.871  30.486  26.640  1.00  0.00    -0.352 N 
ATOM     28  C   UNL A   1      34.614  31.020  27.666  1.00  0.00     0.251 C 
ATOM     29  H   UNL A   1      33.338  31.127  26.116  1.00  0.00     0.163 HD
ATOM     30  O   UNL A   1      34.247  32.072  28.183  1.00  0.00    -0.269 OA
BRANCH  28  31
ATOM     31  C   UNL A   1      35.852  30.349  28.133  1.00  0.00     0.039 A 
ATOM     32  C   UNL A   1      35.833  29.644  29.340  1.00  0.00     0.014 A 
ATOM     33  C   UNL A   1      37.055  30.493  27.436  1.00  0.00     0.014 A 
ATOM     34  C   UNL A   1      37.013  29.081  29.839  1.00  0.00     0.010 A 
ATOM     35  C   UNL A   1      38.208  29.856  27.886  1.00  0.00     0.010 A 
ATOM     36  C   UNL A   1      38.211  29.179  29.112  1.00  0.00    -0.014 A 
BRANCH  36  37
ATOM     37  C   UNL A   1      39.487  28.629  29.641  1.00  0.00     0.031 A 
ATOM     38  C   UNL A   1      40.138  29.257  30.848  1.00  0.00     0.074 A 
ATOM     39  C   UNL A   1      40.097  27.615  28.997  1.00  0.00     0.049 A 
ATOM     40  N   UNL A   1      41.269  28.947  31.431  1.00  0.00    -0.248 NA
ATOM     41  C   UNL A   1      39.447  30.403  31.463  1.00  0.00     0.031 C 
ATOM     42  C   UNL A   1      39.613  26.978  27.771  1.00  0.00     0.029 A 
ATOM     43  N   UNL A   1      41.271  26.959  29.271  1.00  0.00    -0.354 N 
ATOM     44  C   UNL A   1      41.441  29.879  32.449  1.00  0.00     0.074 A 
ATOM     45  C   UNL A   1      40.321  30.791  32.381  1.00  0.00     0.031 C 
ATOM     46  C   UNL A   1      40.477  26.019  27.404  1.00  0.00     0.029 A 
ATOM     47  C   UNL A   1      41.586  25.986  28.352  1.00  0.00     0.049 A 
ATOM     48  H   UNL A   1      41.834  27.166  30.052  1.00  0.00     0.167 HD
ATOM     49  C   UNL A   1      42.423  29.952  33.379  1.00  0.00     0.034 A 
ATOM     50  C   UNL A   1      42.648  25.158  28.284  1.00  0.00     0.034 A 
ATOM     51  C   UNL A   1      43.502  29.009  33.482  1.00  0.00     0.049 A 
ATOM     52  C   UNL A   1      43.688  25.213  29.371  1.00  0.00     0.074 A 
ATOM     53  C   UNL A   1      44.496  28.938  34.443  1.00  0.00     0.029 A 
ATOM     54  N   UNL A   1      43.729  27.969  32.594  1.00  0.00    -0.354 N 
ATOM     55  N   UNL A   1      43.746  26.000  30.418  1.00  0.00    -0.248 NA
ATOM     56  C   UNL A   1      44.784  24.238  29.291  1.00  0.00     0.031 C 
ATOM     57  C   UNL A   1      45.332  27.860  34.128  1.00  0.00     0.029 A 
ATOM     58  C   UNL A   1      44.846  27.250  32.983  1.00  0.00     0.049 A 
ATOM     59  H   UNL A   1      43.177  27.771  31.803  1.00  0.00     0.167 HD
ATOM     60  C   UNL A   1      44.860  25.590  31.142  1.00  0.00     0.074 A 
ATOM     61  C   UNL A   1      45.436  24.472  30.422  1.00  0.00     0.031 C 
ATOM     62  C   UNL A   1      45.371  26.102  32.289  1.00  0.00     0.034 A 
BRANCH  49  63
ATOM     63  C   UNL A   1      42.337  31.054  34.405  1.00  0.00     0.023 A 
ATOM     64  C   UNL A   1      41.700  30.804  35.639  1.00  0.00     0.012 A 
ATOM     65  C   UNL A   1      42.927  32.312  34.178  1.00  0.00     0.148 A 
ATOM     66  C   UNL A   1      41.621  31.796  36.614  1.00  0.00     0.002 A 
ATOM     67  C   UNL A   1      42.884  33.283  35.173  1.00  0.00     0.091 A 
ATOM     68  F   UNL A   1      43.511  32.541  32.992  1.00  0.00    -0.205 F 
ATOM     69  C   UNL A   1      42.222  33.031  36.385  1.00  0.00     0.022 A 
BRANCH  67  70
ATOM     70  S   UNL A   1      43.696  34.877  35.007  1.00  0.00     0.127 S 
ATOM     71  O   UNL A   1      42.821  35.557  34.055  1.00  0.00    -0.237 OA
ATOM     72  O   UNL A   1      43.633  35.399  36.372  1.00  0.00    -0.237 OA
ATOM     73  O   UNL A   1      45.042  34.593  34.531  1.00  0.00    -0.744 OA
ENDBRANCH  67  70
ENDBRANCH  49  63
BRANCH  50  74
ATOM     74  C   UNL A   1      42.729  24.145  27.195  1.00  0.00     0.023 A 
ATOM     75  C   UNL A   1      43.493  24.428  26.046  1.00  0.00     0.012 A 
ATOM     76  C   UNL A   1      42.092  22.893  27.304  1.00  0.00     0.148 A 
ATOM     77  C   UNL A   1      43.596  23.499  25.012  1.00  0.00     0.002 A 
ATOM     78  C   UNL A   1      42.243  21.950  26.293  1.00  0.00     0.091 A 
ATOM     79  F   UNL A   1      41.360  22.646  28.399  1.00  0.00    -0.205 F 
ATOM     80  C   UNL A   1      42.980  22.258  25.139  1.00  0.00     0.022 A 
BRANCH  78  81
ATOM     81  S   UNL A   1      41.598  20.280  26.433  1.00  0.00     0.127 S 
ATOM     82  O   UNL A   1      40.161  20.502  26.314  1.00  0.00    -0.237 OA
ATOM     83  O   UNL A   1      42.219  19.617  25.285  1.00  0.00    -0.237 OA
ATOM     84  O   UNL A   1      42.061  19.790  27.726  1.00  0.00    -0.744 OA
ENDBRANCH  78  81
ENDBRANCH  50  74
BRANCH  62  85
ATOM     85  C   UNL A   1      46.595  25.439  32.865  1.00  0.00     0.023 A 
ATOM     86  C   UNL A   1      47.876  25.914  32.522  1.00  0.00     0.012 A 
ATOM     87  C   UNL A   1      46.471  24.394  33.801  1.00  0.00     0.148 A 
ATOM     88  C   UNL A   1      49.017  25.336  33.076  1.00  0.00     0.002 A 
ATOM     89  C   UNL A   1      47.611  23.855  34.385  1.00  0.00     0.091 A 
ATOM     90  F   UNL A   1      45.245  23.942  34.100  1.00  0.00    -0.205 F 
ATOM     91  C   UNL A   1      48.885  24.316  34.016  1.00  0.00     0.022 A 
BRANCH  89  92
ATOM     92  S   UNL A   1      47.527  22.606  35.674  1.00  0.00     0.127 S 
ATOM     93  O   UNL A   1      46.684  23.262  36.671  1.00  0.00    -0.237 OA
ATOM     94  O   UNL A   1      46.893  21.483  34.982  1.00  0.00    -0.237 OA
ATOM     95  O   UNL A   1      48.905  22.360  36.079  1.00  0.00    -0.744 OA
ENDBRANCH  89  92
ENDBRANCH  62  85
ENDBRANCH  36  37
ENDBRANCH  28  31
ENDBRANCH  26  27
ENDBRANCH   1  26
TORSDOF 17
ENDMDL
MODEL 3
REMARK VINA RESULT:     -12.1      5.406      8.619
REMARK SMILES CC[C@]1(C(=O)NCCCNC(=O)c2ccc(-c3c4nc(c(-c5cccc(S(=O)(=O)[O-])c5F)c5ccc([nH]5)c(-c5cccc(S(=O)(=O)[O-])c5F)c5nc(c(-c6cccc(S(=O)(=O)[O-])c6F)c6ccc3[nH]6)C=C5)C=C4)cc2)CCC[N@@H+](Cc2cc(OC)ccc2F)C1
REMARK SMILES IDX 8 1 7 2 6 3 4 4 5 5 3 7 76 8 90 9 77 10 79 11 78 12 2 14
REMARK SMILES IDX 1 15 80 16 81 17 82 18 88 19 83 20 87 21 89 22 86 23 84 24
REMARK SMILES IDX 85 25 9 26 10 27 11 28 12 30 13 31 14 32 75 33 15 34 74 35
REMARK SMILES IDX 16 36 17 37 18 38 68 39 19 40 73 41 67 42 69 43 20 44 72 45
REMARK SMILES IDX 66 46 65 47 21 49 53 50 33 51 52 52 34 53 37 54 51 55 70 56
REMARK SMILES IDX 35 57 36 58 50 60 71 61 38 62 22 63 23 64 31 65 24 66 26 67
REMARK SMILES IDX 32 68 25 69 27 70 28 71 29 72 30 73 54 74 55 75 63 76 56 77
REMARK SMILES IDX 58 78 64 79 57 80 59 81 60 82 61 83 62 84 39 85 40 86 48 87
REMARK SMILES IDX 41 88 43 89 49 90 42 91 44 92 45 93 46 94 47 95
REMARK H PARENT 6 6 79 13 10 29 69 48 37 59
REMARK Flexibility Score: inf
ROOT
ATOM      1  C   UNL A   1      32.450  30.212  25.437  1.00  0.00     0.042 C 
ENDROOT
BRANCH   1   2
ATOM      2  C   UNL A   1      31.439  29.089  25.194  1.00  0.00     0.117 C 
BRANCH   2   3
ATOM      3  N   UNL A   1      31.097  28.693  23.808  1.00  0.00    -0.355 N 
ATOM      4  C   UNL A   1      30.841  27.482  23.181  1.00  0.00     0.231 C 
ATOM      5  O   UNL A   1      30.312  27.509  22.068  1.00  0.00    -0.274 OA
ATOM      6  H   UNL A   1      31.039  29.461  23.195  1.00  0.00     0.163 HD
BRANCH   4   7
ATOM      7  C   UNL A   1      31.272  26.164  23.840  1.00  0.00     0.098 C 
ATOM      8  C   UNL A   1      30.443  26.054  25.151  1.00  0.00     0.028 C 
ATOM      9  C   UNL A   1      30.925  24.811  23.149  1.00  0.00     0.279 C 
ATOM     10  C   UNL A   1      30.949  24.963  26.068  1.00  0.00     0.063 C 
ATOM     11  N   UNL A   1      31.539  23.764  24.004  1.00  0.00    -0.330 N 
ATOM     12  C   UNL A   1      30.942  23.629  25.329  1.00  0.00     0.262 C 
ATOM     13  H   UNL A   1      32.458  24.170  24.183  1.00  0.00     0.348 HD
BRANCH   7  14
ATOM     14  C   UNL A   1      32.840  26.234  23.837  1.00  0.00     0.019 C 
ATOM     15  C   UNL A   1      33.482  26.192  22.435  1.00  0.00     0.005 C 
ENDBRANCH   7  14
BRANCH  11  16
ATOM     16  C   UNL A   1      31.930  22.520  23.366  1.00  0.00     0.302 C 
BRANCH  16  17
ATOM     17  C   UNL A   1      33.192  21.906  23.888  1.00  0.00     0.046 A 
ATOM     18  C   UNL A   1      34.378  22.652  23.963  1.00  0.00     0.059 A 
ATOM     19  C   UNL A   1      33.204  20.583  24.322  1.00  0.00     0.132 A 
ATOM     20  C   UNL A   1      35.550  22.074  24.451  1.00  0.00     0.119 A 
ATOM     21  C   UNL A   1      34.353  20.012  24.849  1.00  0.00     0.043 A 
ATOM     22  F   UNL A   1      32.095  19.834  24.236  1.00  0.00    -0.206 F 
ATOM     23  C   UNL A   1      35.529  20.760  24.921  1.00  0.00     0.049 A 
BRANCH  20  24
ATOM     24  O   UNL A   1      36.651  22.886  24.439  1.00  0.00    -0.497 OA
ATOM     25  C   UNL A   1      36.794  23.725  25.580  1.00  0.00     0.278 C 
ENDBRANCH  20  24
ENDBRANCH  16  17
ENDBRANCH  11  16
ENDBRANCH   4   7
ENDBRANCH   2   3
ENDBRANCH   1   2
BRANCH   1  26
ATOM     26  C   UNL A   1      32.499  30.681  26.875  1.00  0.00     0.118 C 
BRANCH  26  27
ATOM     27  N   UNL A   1      32.734  32.117  26.908  1.00  0.00    -0.352 N 
ATOM     28  C   UNL A   1      33.605  32.818  27.707  1.00  0.00     0.251 C 
ATOM     29  H   UNL A   1      32.202  32.654  26.277  1.00  0.00     0.163 HD
ATOM     30  O   UNL A   1      33.363  33.995  27.963  1.00  0.00    -0.269 OA
BRANCH  28  31
ATOM     31  C   UNL A   1      34.831  32.174  28.239  1.00  0.00     0.039 A 
ATOM     32  C   UNL A   1      34.747  30.884  28.773  1.00  0.00     0.014 A 
ATOM     33  C   UNL A   1      36.041  32.870  28.302  1.00  0.00     0.014 A 
ATOM     34  C   UNL A   1      35.875  30.297  29.360  1.00  0.00     0.010 A 
ATOM     35  C   UNL A   1      37.183  32.252  28.804  1.00  0.00     0.010 A 
ATOM     36  C   UNL A   1      37.104  30.976  29.376  1.00  0.00    -0.014 A 
BRANCH  36  37
ATOM     37  C   UNL A   1      38.304  30.393  30.031  1.00  0.00     0.031 A 
ATOM     38  C   UNL A   1      38.700  30.840  31.417  1.00  0.00     0.074 A 
ATOM     39  C   UNL A   1      39.078  29.521  29.358  1.00  0.00     0.049 A 
ATOM     40  N   UNL A   1      39.732  30.479  32.137  1.00  0.00    -0.248 NA
ATOM     41  C   UNL A   1      37.842  31.845  32.068  1.00  0.00     0.031 C 
ATOM     42  C   UNL A   1      38.851  29.074  27.983  1.00  0.00     0.029 A 
ATOM     43  N   UNL A   1      40.227  28.871  29.732  1.00  0.00    -0.354 N 
ATOM     44  C   UNL A   1      39.669  31.240  33.300  1.00  0.00     0.074 A 
ATOM     45  C   UNL A   1      38.521  32.109  33.175  1.00  0.00     0.031 C 
ATOM     46  C   UNL A   1      39.824  28.219  27.631  1.00  0.00     0.029 A 
ATOM     47  C   UNL A   1      40.756  28.072  28.746  1.00  0.00     0.049 A 
ATOM     48  H   UNL A   1      40.635  28.968  30.623  1.00  0.00     0.167 HD
ATOM     49  C   UNL A   1      40.472  31.196  34.390  1.00  0.00     0.034 A 
ATOM     50  C   UNL A   1      41.864  27.305  28.741  1.00  0.00     0.034 A 
ATOM     51  C   UNL A   1      41.577  30.288  34.537  1.00  0.00     0.049 A 
ATOM     52  C   UNL A   1      42.699  27.220  29.991  1.00  0.00     0.074 A 
ATOM     53  C   UNL A   1      42.395  30.097  35.637  1.00  0.00     0.029 A 
ATOM     54  N   UNL A   1      42.017  29.415  33.555  1.00  0.00    -0.354 N 
ATOM     55  N   UNL A   1      42.528  27.827  31.140  1.00  0.00    -0.248 NA
ATOM     56  C   UNL A   1      43.853  26.311  29.958  1.00  0.00     0.031 C 
ATOM     57  C   UNL A   1      43.339  29.116  35.313  1.00  0.00     0.029 A 
ATOM     58  C   UNL A   1      43.095  28.683  34.020  1.00  0.00     0.049 A 
ATOM     59  H   UNL A   1      41.621  29.328  32.657  1.00  0.00     0.167 HD
ATOM     60  C   UNL A   1      43.528  27.346  31.978  1.00  0.00     0.074 A 
ATOM     61  C   UNL A   1      44.287  26.382  31.209  1.00  0.00     0.031 C 
ATOM     62  C   UNL A   1      43.803  27.683  33.262  1.00  0.00     0.034 A 
BRANCH  49  63
ATOM     63  C   UNL A   1      40.143  32.112  35.542  1.00  0.00     0.023 A 
ATOM     64  C   UNL A   1      40.865  33.313  35.700  1.00  0.00     0.012 A 
ATOM     65  C   UNL A   1      39.092  31.819  36.432  1.00  0.00     0.148 A 
ATOM     66  C   UNL A   1      40.572  34.190  36.743  1.00  0.00     0.002 A 
ATOM     67  C   UNL A   1      38.775  32.719  37.444  1.00  0.00     0.091 A 
ATOM     68  F   UNL A   1      38.428  30.663  36.281  1.00  0.00    -0.205 F 
ATOM     69  C   UNL A   1      39.521  33.897  37.608  1.00  0.00     0.022 A 
BRANCH  67  70
ATOM     70  S   UNL A   1      37.389  32.473  38.560  1.00  0.00     0.127 S 
ATOM     71  O   UNL A   1      36.268  32.940  37.747  1.00  0.00    -0.237 OA
ATOM     72  O   UNL A   1      37.421  31.027  38.780  1.00  0.00    -0.237 OA
ATOM     73  O   UNL A   1      37.682  33.270  39.743  1.00  0.00    -0.744 OA
ENDBRANCH  67  70
ENDBRANCH  49  63
BRANCH  50  74
ATOM     74  C   UNL A   1      42.194  26.486  27.541  1.00  0.00     0.023 A 
ATOM     75  C   UNL A   1      42.886  27.082  26.469  1.00  0.00     0.012 A 
ATOM     76  C   UNL A   1      41.864  25.118  27.469  1.00  0.00     0.148 A 
ATOM     77  C   UNL A   1      43.217  26.342  25.335  1.00  0.00     0.002 A 
ATOM     78  C   UNL A   1      42.243  24.373  26.358  1.00  0.00     0.091 A 
ATOM     79  F   UNL A   1      41.194  24.571  28.493  1.00  0.00    -0.205 F 
ATOM     80  C   UNL A   1      42.905  24.986  25.283  1.00  0.00     0.022 A 
BRANCH  78  81
ATOM     81  S   UNL A   1      42.002  22.595  26.265  1.00  0.00     0.127 S 
ATOM     82  O   UNL A   1      42.644  22.142  27.495  1.00  0.00    -0.237 OA
ATOM     83  O   UNL A   1      40.543  22.486  26.252  1.00  0.00    -0.237 OA
ATOM     84  O   UNL A   1      42.643  22.179  25.023  1.00  0.00    -0.744 OA
ENDBRANCH  78  81
ENDBRANCH  50  74
BRANCH  62  85
ATOM     85  C   UNL A   1      44.950  26.979  33.938  1.00  0.00     0.023 A 
ATOM     86  C   UNL A   1      46.259  27.480  33.796  1.00  0.00     0.012 A 
ATOM     87  C   UNL A   1      44.720  25.868  34.771  1.00  0.00     0.148 A 
ATOM     88  C   UNL A   1      47.328  26.863  34.446  1.00  0.00     0.002 A 
ATOM     89  C   UNL A   1      45.783  25.287  35.453  1.00  0.00     0.091 A 
ATOM     90  F   UNL A   1      43.471  25.393  34.878  1.00  0.00    -0.205 F 
ATOM     91  C   UNL A   1      47.089  25.775  35.283  1.00  0.00     0.022 A 
BRANCH  89  92
ATOM     92  S   UNL A   1      45.550  23.945  36.625  1.00  0.00     0.127 S 
ATOM     93  O   UNL A   1      44.980  22.901  35.774  1.00  0.00    -0.237 OA
ATOM     94  O   UNL A   1      46.916  23.683  37.078  1.00  0.00    -0.237 OA
ATOM     95  O   UNL A   1      44.665  24.468  37.657  1.00  0.00    -0.744 OA
ENDBRANCH  89  92
ENDBRANCH  62  85
ENDBRANCH  36  37
ENDBRANCH  28  31
ENDBRANCH  26  27
ENDBRANCH   1  26
TORSDOF 17
ENDMDL
