MODEL 1
REMARK VINA RESULT:     -12.3      0.000      0.000
REMARK SMILES Cn1ccnc1[C@H]1[C@@H](C(=O)NCCCNC(=O)c2ccc(-c3c4nc(c(-c5cccc(S(=O)(=O)[O-])c5F)c5ccc([nH]5)c(-c5cccc(S(=O)(=O)[O-])c5F)c5nc(c(-c6cccc(S(=O)(=O)[O-])c6F)c6ccc3[nH]6)C=C5)C=C4)cc2)CCC(=O)N1CCNc1ncccn1
REMARK SMILES IDX 12 1 11 2 9 3 10 4 8 6 7 7 85 8 81 9 83 10 82 11 84 12 6 13
REMARK SMILES IDX 1 14 2 15 3 16 4 17 5 18 86 19 87 20 88 21 89 23 90 24 94 25
REMARK SMILES IDX 91 26 93 27 92 28 13 29 14 30 15 31 16 32 17 34 18 35 19 36
REMARK SMILES IDX 80 37 20 38 79 39 21 40 22 41 23 42 73 43 24 44 78 45 72 46
REMARK SMILES IDX 74 47 25 48 77 49 71 50 70 51 26 53 58 54 38 55 57 56 39 57
REMARK SMILES IDX 42 58 56 59 75 60 40 61 41 62 55 64 76 65 43 66 27 67 28 68
REMARK SMILES IDX 36 69 29 70 31 71 37 72 30 73 32 74 33 75 34 76 35 77 59 78
REMARK SMILES IDX 60 79 68 80 61 81 63 82 69 83 62 84 64 85 65 86 66 87 67 88
REMARK SMILES IDX 44 89 45 90 53 91 46 92 48 93 54 94 47 95 49 96 50 97 51 98
REMARK SMILES IDX 52 99
REMARK H PARENT 11 5 88 22 15 33 74 52 42 63
REMARK Flexibility Score: inf
ROOT
ATOM      1  C   UNL A   1      36.634  23.231  24.071  1.00  0.00     0.117 C 
ENDROOT
BRANCH   1   2
ATOM      2  N   UNL A   1      35.831  23.646  25.195  1.00  0.00    -0.356 N 
ATOM      3  C   UNL A   1      34.525  24.038  25.173  1.00  0.00     0.225 C 
ATOM      4  O   UNL A   1      33.888  23.970  26.229  1.00  0.00    -0.275 OA
ATOM      5  H   UNL A   1      36.273  23.644  26.074  1.00  0.00     0.163 HD
BRANCH   3   6
ATOM      6  C   UNL A   1      33.867  24.632  23.925  1.00  0.00     0.109 C 
ATOM      7  C   UNL A   1      33.675  26.156  23.865  1.00  0.00     0.164 C 
ATOM      8  N   UNL A   1      32.935  26.636  22.675  1.00  0.00    -0.330 N 
ATOM      9  C   UNL A   1      32.657  23.851  23.433  1.00  0.00     0.026 C 
ATOM     10  C   UNL A   1      32.161  25.797  21.873  1.00  0.00     0.223 C 
ATOM     11  C   UNL A   1      32.316  24.298  22.032  1.00  0.00     0.101 C 
ATOM     12  O   UNL A   1      31.439  26.230  20.972  1.00  0.00    -0.275 OA
BRANCH   7  13
ATOM     13  C   UNL A   1      33.206  26.818  25.144  1.00  0.00     0.132 A 
ATOM     14  C   UNL A   1      30.748  26.109  25.373  1.00  0.00     0.151 C 
ATOM     15  N   UNL A   1      31.952  26.820  25.732  1.00  0.00    -0.336 N 
ATOM     16  C   UNL A   1      32.011  27.626  26.845  1.00  0.00     0.107 A 
ATOM     17  C   UNL A   1      33.297  28.091  26.897  1.00  0.00     0.131 A 
ATOM     18  N   UNL A   1      34.026  27.575  25.862  1.00  0.00    -0.239 NA
ENDBRANCH   7  13
BRANCH   8  19
ATOM     19  C   UNL A   1      33.190  28.002  22.153  1.00  0.00     0.141 C 
BRANCH  19  20
ATOM     20  C   UNL A   1      32.489  29.208  22.812  1.00  0.00     0.137 C 
BRANCH  20  21
ATOM     21  N   UNL A   1      31.468  29.744  21.946  1.00  0.00    -0.352 N 
ATOM     22  H   UNL A   1      31.745  30.267  21.160  1.00  0.00     0.163 HD
BRANCH  21  23
ATOM     23  C   UNL A   1      30.132  29.557  22.166  1.00  0.00     0.222 A 
ATOM     24  N   UNL A   1      29.333  30.412  21.513  1.00  0.00    -0.222 NA
ATOM     25  N   UNL A   1      29.685  28.585  22.972  1.00  0.00    -0.222 NA
ATOM     26  C   UNL A   1      28.009  30.281  21.689  1.00  0.00     0.117 A 
ATOM     27  C   UNL A   1      28.348  28.499  23.125  1.00  0.00     0.117 A 
ATOM     28  C   UNL A   1      27.451  29.327  22.497  1.00  0.00     0.040 A 
ENDBRANCH  21  23
ENDBRANCH  20  21
ENDBRANCH  19  20
ENDBRANCH   8  19
ENDBRANCH   3   6
ENDBRANCH   1   2
BRANCH   1  29
ATOM     29  C   UNL A   1      37.165  21.821  24.121  1.00  0.00     0.042 C 
BRANCH  29  30
ATOM     30  C   UNL A   1      37.301  21.311  25.545  1.00  0.00     0.118 C 
BRANCH  30  31
ATOM     31  N   UNL A   1      38.474  20.449  25.748  1.00  0.00    -0.352 N 
ATOM     32  C   UNL A   1      39.731  20.731  26.233  1.00  0.00     0.251 C 
ATOM     33  H   UNL A   1      38.337  19.508  25.494  1.00  0.00     0.163 HD
ATOM     34  O   UNL A   1      40.614  19.878  26.185  1.00  0.00    -0.269 OA
BRANCH  32  35
ATOM     35  C   UNL A   1      40.020  22.073  26.773  1.00  0.00     0.039 A 
ATOM     36  C   UNL A   1      40.995  22.228  27.763  1.00  0.00     0.014 A 
ATOM     37  C   UNL A   1      39.376  23.187  26.245  1.00  0.00     0.014 A 
ATOM     38  C   UNL A   1      41.410  23.512  28.122  1.00  0.00     0.010 A 
ATOM     39  C   UNL A   1      39.890  24.449  26.493  1.00  0.00     0.010 A 
ATOM     40  C   UNL A   1      40.911  24.631  27.437  1.00  0.00    -0.014 A 
BRANCH  40  41
ATOM     41  C   UNL A   1      41.424  26.006  27.660  1.00  0.00     0.031 A 
ATOM     42  C   UNL A   1      42.833  26.344  27.247  1.00  0.00     0.074 A 
ATOM     43  C   UNL A   1      40.694  26.891  28.370  1.00  0.00     0.049 A 
ATOM     44  N   UNL A   1      43.550  27.397  27.536  1.00  0.00    -0.248 NA
ATOM     45  C   UNL A   1      43.556  25.331  26.454  1.00  0.00     0.031 C 
ATOM     46  C   UNL A   1      39.356  26.648  28.917  1.00  0.00     0.029 A 
ATOM     47  N   UNL A   1      40.993  28.163  28.791  1.00  0.00    -0.354 N 
ATOM     48  C   UNL A   1      44.819  27.140  27.032  1.00  0.00     0.074 A 
ATOM     49  C   UNL A   1      44.787  25.818  26.454  1.00  0.00     0.031 C 
ATOM     50  C   UNL A   1      38.946  27.738  29.587  1.00  0.00     0.029 A 
ATOM     51  C   UNL A   1      40.004  28.741  29.555  1.00  0.00     0.049 A 
ATOM     52  H   UNL A   1      41.836  28.620  28.567  1.00  0.00     0.167 HD
ATOM     53  C   UNL A   1      45.905  27.949  27.016  1.00  0.00     0.034 A 
ATOM     54  C   UNL A   1      39.960  29.942  30.164  1.00  0.00     0.034 A 
ATOM     55  C   UNL A   1      45.895  29.301  27.496  1.00  0.00     0.049 A 
ATOM     56  C   UNL A   1      41.136  30.869  30.023  1.00  0.00     0.074 A 
ATOM     57  C   UNL A   1      46.898  30.249  27.420  1.00  0.00     0.029 A 
ATOM     58  N   UNL A   1      44.816  29.906  28.121  1.00  0.00    -0.354 N 
ATOM     59  N   UNL A   1      42.278  30.663  29.411  1.00  0.00    -0.248 NA
ATOM     60  C   UNL A   1      41.008  32.205  30.621  1.00  0.00     0.031 C 
ATOM     61  C   UNL A   1      46.424  31.431  27.998  1.00  0.00     0.029 A 
ATOM     62  C   UNL A   1      45.122  31.220  28.424  1.00  0.00     0.049 A 
ATOM     63  H   UNL A   1      43.957  29.466  28.320  1.00  0.00     0.167 HD
ATOM     64  C   UNL A   1      42.986  31.854  29.514  1.00  0.00     0.074 A 
ATOM     65  C   UNL A   1      42.139  32.783  30.234  1.00  0.00     0.031 C 
ATOM     66  C   UNL A   1      44.232  32.148  29.071  1.00  0.00     0.034 A 
BRANCH  53  67
ATOM     67  C   UNL A   1      47.165  27.418  26.385  1.00  0.00     0.023 A 
ATOM     68  C   UNL A   1      47.445  27.720  25.036  1.00  0.00     0.012 A 
ATOM     69  C   UNL A   1      48.090  26.661  27.129  1.00  0.00     0.148 A 
ATOM     70  C   UNL A   1      48.605  27.244  24.426  1.00  0.00     0.002 A 
ATOM     71  C   UNL A   1      49.268  26.230  26.528  1.00  0.00     0.091 A 
ATOM     72  F   UNL A   1      47.796  26.363  28.404  1.00  0.00    -0.205 F 
ATOM     73  C   UNL A   1      49.519  26.509  25.174  1.00  0.00     0.022 A 
BRANCH  71  74
ATOM     74  S   UNL A   1      50.548  25.346  27.427  1.00  0.00     0.127 S 
ATOM     75  O   UNL A   1      51.512  25.064  26.365  1.00  0.00    -0.237 OA
ATOM     76  O   UNL A   1      50.987  26.347  28.400  1.00  0.00    -0.237 OA
ATOM     77  O   UNL A   1      49.896  24.181  28.008  1.00  0.00    -0.744 OA
ENDBRANCH  71  74
ENDBRANCH  53  67
BRANCH  54  78
ATOM     78  C   UNL A   1      38.723  30.371  30.879  1.00  0.00     0.023 A 
ATOM     79  C   UNL A   1      38.598  30.092  32.255  1.00  0.00     0.012 A 
ATOM     80  C   UNL A   1      37.694  31.077  30.227  1.00  0.00     0.148 A 
ATOM     81  C   UNL A   1      37.458  30.476  32.960  1.00  0.00     0.002 A 
ATOM     82  C   UNL A   1      36.583  31.503  30.949  1.00  0.00     0.091 A 
ATOM     83  F   UNL A   1      37.823  31.324  28.917  1.00  0.00    -0.205 F 
ATOM     84  C   UNL A   1      36.455  31.190  32.311  1.00  0.00     0.022 A 
BRANCH  82  85
ATOM     85  S   UNL A   1      35.313  32.546  30.221  1.00  0.00     0.127 S 
ATOM     86  O   UNL A   1      34.839  31.714  29.118  1.00  0.00    -0.237 OA
ATOM     87  O   UNL A   1      34.369  32.700  31.328  1.00  0.00    -0.237 OA
ATOM     88  O   UNL A   1      35.994  33.778  29.845  1.00  0.00    -0.744 OA
ENDBRANCH  82  85
ENDBRANCH  54  78
BRANCH  66  89
ATOM     89  C   UNL A   1      44.745  33.543  29.298  1.00  0.00     0.023 A 
ATOM     90  C   UNL A   1      45.423  33.851  30.494  1.00  0.00     0.012 A 
ATOM     91  C   UNL A   1      44.645  34.516  28.284  1.00  0.00     0.148 A 
ATOM     92  C   UNL A   1      45.975  35.116  30.685  1.00  0.00     0.002 A 
ATOM     93  C   UNL A   1      45.237  35.759  28.464  1.00  0.00     0.091 A 
ATOM     94  F   UNL A   1      43.976  34.205  27.164  1.00  0.00    -0.205 F 
ATOM     95  C   UNL A   1      45.894  36.065  29.668  1.00  0.00     0.022 A 
BRANCH  93  96
ATOM     96  S   UNL A   1      45.263  37.003  27.168  1.00  0.00     0.127 S 
ATOM     97  O   UNL A   1      46.013  36.319  26.116  1.00  0.00    -0.237 OA
ATOM     98  O   UNL A   1      43.840  37.187  26.883  1.00  0.00    -0.237 OA
ATOM     99  O   UNL A   1      45.916  38.169  27.748  1.00  0.00    -0.744 OA
ENDBRANCH  93  96
ENDBRANCH  66  89
ENDBRANCH  40  41
ENDBRANCH  32  35
ENDBRANCH  30  31
ENDBRANCH  29  30
ENDBRANCH   1  29
TORSDOF 18
ENDMDL
MODEL 2
REMARK VINA RESULT:     -12.2      5.037     10.340
REMARK SMILES Cn1ccnc1[C@H]1[C@@H](C(=O)NCCCNC(=O)c2ccc(-c3c4nc(c(-c5cccc(S(=O)(=O)[O-])c5F)c5ccc([nH]5)c(-c5cccc(S(=O)(=O)[O-])c5F)c5nc(c(-c6cccc(S(=O)(=O)[O-])c6F)c6ccc3[nH]6)C=C5)C=C4)cc2)CCC(=O)N1CCNc1ncccn1
REMARK SMILES IDX 12 1 11 2 9 3 10 4 8 6 7 7 85 8 81 9 83 10 82 11 84 12 6 13
REMARK SMILES IDX 1 14 2 15 3 16 4 17 5 18 86 19 87 20 88 21 89 23 90 24 94 25
REMARK SMILES IDX 91 26 93 27 92 28 13 29 14 30 15 31 16 32 17 34 18 35 19 36
REMARK SMILES IDX 80 37 20 38 79 39 21 40 22 41 23 42 73 43 24 44 78 45 72 46
REMARK SMILES IDX 74 47 25 48 77 49 71 50 70 51 26 53 58 54 38 55 57 56 39 57
REMARK SMILES IDX 42 58 56 59 75 60 40 61 41 62 55 64 76 65 43 66 27 67 28 68
REMARK SMILES IDX 36 69 29 70 31 71 37 72 30 73 32 74 33 75 34 76 35 77 59 78
REMARK SMILES IDX 60 79 68 80 61 81 63 82 69 83 62 84 64 85 65 86 66 87 67 88
REMARK SMILES IDX 44 89 45 90 53 91 46 92 48 93 54 94 47 95 49 96 50 97 51 98
REMARK SMILES IDX 52 99
REMARK H PARENT 11 5 88 22 15 33 74 52 42 63
REMARK Flexibility Score: inf
ROOT
ATOM      1  C   UNL A   1      33.427  28.389  25.532  1.00  0.00     0.117 C 
ENDROOT
BRANCH   1   2
ATOM      2  N   UNL A   1      33.225  27.696  24.284  1.00  0.00    -0.356 N 
ATOM      3  C   UNL A   1      32.283  26.748  24.011  1.00  0.00     0.225 C 
ATOM      4  O   UNL A   1      31.988  26.557  22.827  1.00  0.00    -0.275 OA
ATOM      5  H   UNL A   1      33.834  27.933  23.547  1.00  0.00     0.163 HD
BRANCH   3   6
ATOM      6  C   UNL A   1      31.661  25.872  25.101  1.00  0.00     0.109 C 
ATOM      7  C   UNL A   1      32.403  24.588  25.508  1.00  0.00     0.164 C 
ATOM      8  N   UNL A   1      31.681  23.746  26.489  1.00  0.00    -0.330 N 
ATOM      9  C   UNL A   1      30.158  25.680  24.958  1.00  0.00     0.026 C 
ATOM     10  C   UNL A   1      30.317  23.882  26.749  1.00  0.00     0.223 C 
ATOM     11  C   UNL A   1      29.605  25.121  26.247  1.00  0.00     0.101 C 
ATOM     12  O   UNL A   1      29.700  23.086  27.459  1.00  0.00    -0.275 OA
BRANCH   7  13
ATOM     13  C   UNL A   1      33.000  23.778  24.376  1.00  0.00     0.132 A 
ATOM     14  C   UNL A   1      35.537  24.095  24.626  1.00  0.00     0.151 C 
ATOM     15  N   UNL A   1      34.324  23.627  23.999  1.00  0.00    -0.336 N 
ATOM     16  C   UNL A   1      34.351  22.852  22.863  1.00  0.00     0.107 A 
ATOM     17  C   UNL A   1      33.043  22.560  22.583  1.00  0.00     0.131 A 
ATOM     18  N   UNL A   1      32.225  23.116  23.527  1.00  0.00    -0.239 NA
ENDBRANCH   7  13
BRANCH   8  19
ATOM     19  C   UNL A   1      32.448  22.874  27.415  1.00  0.00     0.141 C 
BRANCH  19  20
ATOM     20  C   UNL A   1      33.316  21.736  26.839  1.00  0.00     0.137 C 
BRANCH  20  21
ATOM     21  N   UNL A   1      32.552  20.917  25.931  1.00  0.00    -0.352 N 
ATOM     22  H   UNL A   1      31.680  21.250  25.618  1.00  0.00     0.163 HD
BRANCH  21  23
ATOM     23  C   UNL A   1      32.983  19.700  25.483  1.00  0.00     0.222 A 
ATOM     24  N   UNL A   1      34.170  19.723  24.859  1.00  0.00    -0.222 NA
ATOM     25  N   UNL A   1      32.260  18.589  25.671  1.00  0.00    -0.222 NA
ATOM     26  C   UNL A   1      34.647  18.558  24.395  1.00  0.00     0.117 A 
ATOM     27  C   UNL A   1      32.776  17.445  25.178  1.00  0.00     0.117 A 
ATOM     28  C   UNL A   1      33.983  17.368  24.527  1.00  0.00     0.040 A 
ENDBRANCH  21  23
ENDBRANCH  20  21
ENDBRANCH  19  20
ENDBRANCH   8  19
ENDBRANCH   3   6
ENDBRANCH   1   2
BRANCH   1  29
ATOM     29  C   UNL A   1      33.038  29.846  25.551  1.00  0.00     0.042 C 
BRANCH  29  30
ATOM     30  C   UNL A   1      32.542  30.288  26.917  1.00  0.00     0.118 C 
BRANCH  30  31
ATOM     31  N   UNL A   1      32.700  31.728  27.159  1.00  0.00    -0.352 N 
ATOM     32  C   UNL A   1      33.734  32.443  27.720  1.00  0.00     0.251 C 
ATOM     33  H   UNL A   1      31.935  32.276  26.871  1.00  0.00     0.163 HD
ATOM     34  O   UNL A   1      33.596  33.641  27.957  1.00  0.00    -0.269 OA
BRANCH  32  35
ATOM     35  C   UNL A   1      34.991  31.755  28.070  1.00  0.00     0.039 A 
ATOM     36  C   UNL A   1      36.186  32.478  28.127  1.00  0.00     0.014 A 
ATOM     37  C   UNL A   1      34.973  30.407  28.412  1.00  0.00     0.014 A 
ATOM     38  C   UNL A   1      37.330  31.875  28.654  1.00  0.00     0.010 A 
ATOM     39  C   UNL A   1      36.062  29.858  29.068  1.00  0.00     0.010 A 
ATOM     40  C   UNL A   1      37.256  30.581  29.196  1.00  0.00    -0.014 A 
BRANCH  40  41
ATOM     41  C   UNL A   1      38.390  29.943  29.911  1.00  0.00     0.031 A 
ATOM     42  C   UNL A   1      38.729  30.395  31.309  1.00  0.00     0.074 A 
ATOM     43  C   UNL A   1      39.204  29.089  29.258  1.00  0.00     0.049 A 
ATOM     44  N   UNL A   1      39.790  30.137  32.026  1.00  0.00    -0.248 NA
ATOM     45  C   UNL A   1      37.777  31.313  31.961  1.00  0.00     0.031 C 
ATOM     46  C   UNL A   1      39.043  28.653  27.867  1.00  0.00     0.029 A 
ATOM     47  N   UNL A   1      40.357  28.464  29.665  1.00  0.00    -0.354 N 
ATOM     48  C   UNL A   1      39.668  30.914  33.172  1.00  0.00     0.074 A 
ATOM     49  C   UNL A   1      38.454  31.684  33.037  1.00  0.00     0.031 C 
ATOM     50  C   UNL A   1      40.049  27.824  27.544  1.00  0.00     0.029 A 
ATOM     51  C   UNL A   1      40.948  27.700  28.684  1.00  0.00     0.049 A 
ATOM     52  H   UNL A   1      40.726  28.555  30.573  1.00  0.00     0.167 HD
ATOM     53  C   UNL A   1      40.476  30.957  34.258  1.00  0.00     0.034 A 
ATOM     54  C   UNL A   1      42.091  26.986  28.704  1.00  0.00     0.034 A 
ATOM     55  C   UNL A   1      41.621  30.108  34.429  1.00  0.00     0.049 A 
ATOM     56  C   UNL A   1      42.903  26.953  29.969  1.00  0.00     0.074 A 
ATOM     57  C   UNL A   1      42.439  29.979  35.536  1.00  0.00     0.029 A 
ATOM     58  N   UNL A   1      42.097  29.226  33.472  1.00  0.00    -0.354 N 
ATOM     59  N   UNL A   1      42.691  27.583  31.100  1.00  0.00    -0.248 NA
ATOM     60  C   UNL A   1      44.089  26.085  29.979  1.00  0.00     0.031 C 
ATOM     61  C   UNL A   1      43.408  29.014  35.249  1.00  0.00     0.029 A 
ATOM     62  C   UNL A   1      43.188  28.537  33.966  1.00  0.00     0.049 A 
ATOM     63  H   UNL A   1      41.713  29.106  32.572  1.00  0.00     0.167 HD
ATOM     64  C   UNL A   1      43.690  27.157  31.968  1.00  0.00     0.074 A 
ATOM     65  C   UNL A   1      44.499  26.204  31.236  1.00  0.00     0.031 C 
ATOM     66  C   UNL A   1      43.929  27.535  33.246  1.00  0.00     0.034 A 
BRANCH  53  67
ATOM     67  C   UNL A   1      40.096  31.890  35.377  1.00  0.00     0.023 A 
ATOM     68  C   UNL A   1      40.737  33.142  35.484  1.00  0.00     0.012 A 
ATOM     69  C   UNL A   1      39.082  31.554  36.293  1.00  0.00     0.148 A 
ATOM     70  C   UNL A   1      40.404  34.027  36.507  1.00  0.00     0.002 A 
ATOM     71  C   UNL A   1      38.722  32.461  37.284  1.00  0.00     0.091 A 
ATOM     72  F   UNL A   1      38.499  30.350  36.192  1.00  0.00    -0.205 F 
ATOM     73  C   UNL A   1      39.392  33.692  37.400  1.00  0.00     0.022 A 
BRANCH  71  74
ATOM     74  S   UNL A   1      37.374  32.159  38.433  1.00  0.00     0.127 S 
ATOM     75  O   UNL A   1      37.943  32.645  39.689  1.00  0.00    -0.237 OA
ATOM     76  O   UNL A   1      36.308  32.995  37.883  1.00  0.00    -0.237 OA
ATOM     77  O   UNL A   1      37.114  30.727  38.375  1.00  0.00    -0.744 OA
ENDBRANCH  71  74
ENDBRANCH  53  67
BRANCH  54  78
ATOM     78  C   UNL A   1      42.481  26.168  27.518  1.00  0.00     0.023 A 
ATOM     79  C   UNL A   1      43.267  26.759  26.510  1.00  0.00     0.012 A 
ATOM     80  C   UNL A   1      42.114  24.814  27.395  1.00  0.00     0.148 A 
ATOM     81  C   UNL A   1      43.653  26.030  25.385  1.00  0.00     0.002 A 
ATOM     82  C   UNL A   1      42.547  24.078  26.297  1.00  0.00     0.091 A 
ATOM     83  F   UNL A   1      41.357  24.270  28.357  1.00  0.00    -0.205 F 
ATOM     84  C   UNL A   1      43.301  24.688  25.283  1.00  0.00     0.022 A 
BRANCH  82  85
ATOM     85  S   UNL A   1      42.255  22.310  26.156  1.00  0.00     0.127 S 
ATOM     86  O   UNL A   1      42.803  21.815  27.415  1.00  0.00    -0.237 OA
ATOM     87  O   UNL A   1      40.796  22.246  26.051  1.00  0.00    -0.237 OA
ATOM     88  O   UNL A   1      42.956  21.898  24.948  1.00  0.00    -0.744 OA
ENDBRANCH  82  85
ENDBRANCH  54  78
BRANCH  66  89
ATOM     89  C   UNL A   1      45.077  26.883  33.966  1.00  0.00     0.023 A 
ATOM     90  C   UNL A   1      46.362  27.456  33.890  1.00  0.00     0.012 A 
ATOM     91  C   UNL A   1      44.859  25.767  34.797  1.00  0.00     0.148 A 
ATOM     92  C   UNL A   1      47.420  26.911  34.616  1.00  0.00     0.002 A 
ATOM     93  C   UNL A   1      45.908  25.258  35.552  1.00  0.00     0.091 A 
ATOM     94  F   UNL A   1      43.632  25.228  34.835  1.00  0.00    -0.205 F 
ATOM     95  C   UNL A   1      47.191  25.822  35.456  1.00  0.00     0.022 A 
BRANCH  93  96
ATOM     96  S   UNL A   1      45.678  23.922  36.730  1.00  0.00     0.127 S 
ATOM     97  O   UNL A   1      44.666  24.483  37.623  1.00  0.00    -0.237 OA
ATOM     98  O   UNL A   1      45.204  22.831  35.877  1.00  0.00    -0.237 OA
ATOM     99  O   UNL A   1      46.985  23.691  37.330  1.00  0.00    -0.744 OA
ENDBRANCH  93  96
ENDBRANCH  66  89
ENDBRANCH  40  41
ENDBRANCH  32  35
ENDBRANCH  30  31
ENDBRANCH  29  30
ENDBRANCH   1  29
TORSDOF 18
ENDMDL
MODEL 3
REMARK VINA RESULT:     -12.2      1.321      7.889
REMARK SMILES Cn1ccnc1[C@H]1[C@@H](C(=O)NCCCNC(=O)c2ccc(-c3c4nc(c(-c5cccc(S(=O)(=O)[O-])c5F)c5ccc([nH]5)c(-c5cccc(S(=O)(=O)[O-])c5F)c5nc(c(-c6cccc(S(=O)(=O)[O-])c6F)c6ccc3[nH]6)C=C5)C=C4)cc2)CCC(=O)N1CCNc1ncccn1
REMARK SMILES IDX 12 1 11 2 9 3 10 4 8 6 7 7 85 8 81 9 83 10 82 11 84 12 6 13
REMARK SMILES IDX 1 14 2 15 3 16 4 17 5 18 86 19 87 20 88 21 89 23 90 24 94 25
REMARK SMILES IDX 91 26 93 27 92 28 13 29 14 30 15 31 16 32 17 34 18 35 19 36
REMARK SMILES IDX 80 37 20 38 79 39 21 40 22 41 23 42 73 43 24 44 78 45 72 46
REMARK SMILES IDX 74 47 25 48 77 49 71 50 70 51 26 53 58 54 38 55 57 56 39 57
REMARK SMILES IDX 42 58 56 59 75 60 40 61 41 62 55 64 76 65 43 66 27 67 28 68
REMARK SMILES IDX 36 69 29 70 31 71 37 72 30 73 32 74 33 75 34 76 35 77 59 78
REMARK SMILES IDX 60 79 68 80 61 81 63 82 69 83 62 84 64 85 65 86 66 87 67 88
REMARK SMILES IDX 44 89 45 90 53 91 46 92 48 93 54 94 47 95 49 96 50 97 51 98
REMARK SMILES IDX 52 99
REMARK H PARENT 11 5 88 22 15 33 74 52 42 63
REMARK Flexibility Score: inf
ROOT
ATOM      1  C   UNL A   1      34.279  24.470  25.618  1.00  0.00     0.117 C 
ENDROOT
BRANCH   1   2
ATOM      2  N   UNL A   1      33.294  24.053  26.585  1.00  0.00    -0.356 N 
ATOM      3  C   UNL A   1      31.997  24.465  26.670  1.00  0.00     0.225 C 
ATOM      4  O   UNL A   1      31.203  23.737  27.274  1.00  0.00    -0.275 OA
ATOM      5  H   UNL A   1      33.591  23.398  27.258  1.00  0.00     0.163 HD
BRANCH   3   6
ATOM      6  C   UNL A   1      31.528  25.817  26.127  1.00  0.00     0.109 C 
ATOM      7  C   UNL A   1      30.977  25.867  24.692  1.00  0.00     0.164 C 
ATOM      8  N   UNL A   1      30.648  27.228  24.208  1.00  0.00    -0.330 N 
ATOM      9  C   UNL A   1      32.462  26.973  26.456  1.00  0.00     0.026 C 
ATOM     10  C   UNL A   1      31.123  28.387  24.819  1.00  0.00     0.223 C 
ATOM     11  C   UNL A   1      31.745  28.277  26.197  1.00  0.00     0.101 C 
ATOM     12  O   UNL A   1      30.960  29.505  24.327  1.00  0.00    -0.275 OA
BRANCH   7  13
ATOM     13  C   UNL A   1      31.730  25.051  23.662  1.00  0.00     0.132 A 
ATOM     14  C   UNL A   1      33.430  26.693  22.658  1.00  0.00     0.151 C 
ATOM     15  N   UNL A   1      32.728  25.438  22.784  1.00  0.00    -0.336 N 
ATOM     16  C   UNL A   1      33.039  24.354  21.996  1.00  0.00     0.107 A 
ATOM     17  C   UNL A   1      32.217  23.344  22.418  1.00  0.00     0.131 A 
ATOM     18  N   UNL A   1      31.433  23.776  23.451  1.00  0.00    -0.239 NA
ENDBRANCH   7  13
BRANCH   8  19
ATOM     19  C   UNL A   1      29.590  27.406  23.181  1.00  0.00     0.141 C 
BRANCH  19  20
ATOM     20  C   UNL A   1      28.115  27.498  23.621  1.00  0.00     0.137 C 
BRANCH  20  21
ATOM     21  N   UNL A   1      27.362  28.336  22.720  1.00  0.00    -0.352 N 
ATOM     22  H   UNL A   1      26.581  27.951  22.263  1.00  0.00     0.163 HD
BRANCH  21  23
ATOM     23  C   UNL A   1      27.685  29.641  22.473  1.00  0.00     0.222 A 
ATOM     24  N   UNL A   1      27.540  30.461  23.524  1.00  0.00    -0.222 NA
ATOM     25  N   UNL A   1      28.113  30.040  21.268  1.00  0.00    -0.222 NA
ATOM     26  C   UNL A   1      27.840  31.756  23.344  1.00  0.00     0.117 A 
ATOM     27  C   UNL A   1      28.391  31.352  21.133  1.00  0.00     0.117 A 
ATOM     28  C   UNL A   1      28.277  32.267  22.152  1.00  0.00     0.040 A 
ENDBRANCH  21  23
ENDBRANCH  20  21
ENDBRANCH  19  20
ENDBRANCH   8  19
ENDBRANCH   3   6
ENDBRANCH   1   2
BRANCH   1  29
ATOM     29  C   UNL A   1      35.159  23.382  25.057  1.00  0.00     0.042 C 
BRANCH  29  30
ATOM     30  C   UNL A   1      35.762  22.514  26.148  1.00  0.00     0.118 C 
BRANCH  30  31
ATOM     31  N   UNL A   1      36.797  21.593  25.660  1.00  0.00    -0.352 N 
ATOM     32  C   UNL A   1      38.170  21.658  25.723  1.00  0.00     0.251 C 
ATOM     33  H   UNL A   1      36.447  20.790  25.209  1.00  0.00     0.163 HD
ATOM     34  O   UNL A   1      38.854  20.837  25.117  1.00  0.00    -0.269 OA
BRANCH  32  35
ATOM     35  C   UNL A   1      38.814  22.742  26.489  1.00  0.00     0.039 A 
ATOM     36  C   UNL A   1      39.960  22.474  27.242  1.00  0.00     0.014 A 
ATOM     37  C   UNL A   1      38.321  24.041  26.403  1.00  0.00     0.014 A 
ATOM     38  C   UNL A   1      40.682  23.535  27.796  1.00  0.00     0.010 A 
ATOM     39  C   UNL A   1      39.112  25.096  26.824  1.00  0.00     0.010 A 
ATOM     40  C   UNL A   1      40.301  24.860  27.529  1.00  0.00    -0.014 A 
BRANCH  40  41
ATOM     41  C   UNL A   1      41.110  26.030  27.953  1.00  0.00     0.031 A 
ATOM     42  C   UNL A   1      40.456  27.129  28.751  1.00  0.00     0.074 A 
ATOM     43  C   UNL A   1      42.368  26.184  27.491  1.00  0.00     0.049 A 
ATOM     44  N   UNL A   1      40.904  28.322  29.037  1.00  0.00    -0.248 NA
ATOM     45  C   UNL A   1      39.087  26.874  29.238  1.00  0.00     0.031 C 
ATOM     46  C   UNL A   1      43.079  25.240  26.623  1.00  0.00     0.029 A 
ATOM     47  N   UNL A   1      43.261  27.214  27.653  1.00  0.00    -0.354 N 
ATOM     48  C   UNL A   1      39.852  28.979  29.664  1.00  0.00     0.074 A 
ATOM     49  C   UNL A   1      38.731  28.069  29.682  1.00  0.00     0.031 C 
ATOM     50  C   UNL A   1      44.298  25.728  26.342  1.00  0.00     0.029 A 
ATOM     51  C   UNL A   1      44.444  27.034  26.972  1.00  0.00     0.049 A 
ATOM     52  H   UNL A   1      43.072  28.008  28.205  1.00  0.00     0.167 HD
ATOM     53  C   UNL A   1      39.832  30.217  30.212  1.00  0.00     0.034 A 
ATOM     54  C   UNL A   1      45.521  27.838  26.865  1.00  0.00     0.034 A 
ATOM     55  C   UNL A   1      40.983  31.072  30.286  1.00  0.00     0.049 A 
ATOM     56  C   UNL A   1      45.516  29.156  27.589  1.00  0.00     0.074 A 
ATOM     57  C   UNL A   1      41.110  32.292  30.923  1.00  0.00     0.029 A 
ATOM     58  N   UNL A   1      42.215  30.782  29.721  1.00  0.00    -0.354 N 
ATOM     59  N   UNL A   1      44.560  29.698  28.306  1.00  0.00    -0.248 NA
ATOM     60  C   UNL A   1      46.746  29.957  27.526  1.00  0.00     0.031 C 
ATOM     61  C   UNL A   1      42.422  32.739  30.747  1.00  0.00     0.029 A 
ATOM     62  C   UNL A   1      43.114  31.793  30.007  1.00  0.00     0.049 A 
ATOM     63  H   UNL A   1      42.421  29.975  29.195  1.00  0.00     0.167 HD
ATOM     64  C   UNL A   1      45.086  30.882  28.811  1.00  0.00     0.074 A 
ATOM     65  C   UNL A   1      46.451  30.969  28.331  1.00  0.00     0.031 C 
ATOM     66  C   UNL A   1      44.490  31.819  29.585  1.00  0.00     0.034 A 
BRANCH  53  67
ATOM     67  C   UNL A   1      38.548  30.681  30.848  1.00  0.00     0.023 A 
ATOM     68  C   UNL A   1      38.335  30.457  32.225  1.00  0.00     0.012 A 
ATOM     69  C   UNL A   1      37.575  31.374  30.103  1.00  0.00     0.148 A 
ATOM     70  C   UNL A   1      37.158  30.878  32.841  1.00  0.00     0.002 A 
ATOM     71  C   UNL A   1      36.424  31.833  30.735  1.00  0.00     0.091 A 
ATOM     72  F   UNL A   1      37.783  31.558  28.791  1.00  0.00    -0.205 F 
ATOM     73  C   UNL A   1      36.209  31.574  32.099  1.00  0.00     0.022 A 
BRANCH  71  74
ATOM     74  S   UNL A   1      35.177  32.810  29.887  1.00  0.00     0.127 S 
ATOM     75  O   UNL A   1      34.244  33.104  30.973  1.00  0.00    -0.237 OA
ATOM     76  O   UNL A   1      35.952  33.961  29.422  1.00  0.00    -0.237 OA
ATOM     77  O   UNL A   1      34.657  31.960  28.825  1.00  0.00    -0.744 OA
ENDBRANCH  71  74
ENDBRANCH  53  67
BRANCH  54  78
ATOM     78  C   UNL A   1      46.727  27.374  26.120  1.00  0.00     0.023 A 
ATOM     79  C   UNL A   1      46.835  27.665  24.746  1.00  0.00     0.012 A 
ATOM     80  C   UNL A   1      47.775  26.682  26.758  1.00  0.00     0.148 A 
ATOM     81  C   UNL A   1      47.946  27.250  24.013  1.00  0.00     0.002 A 
ATOM     82  C   UNL A   1      48.904  26.317  26.032  1.00  0.00     0.091 A 
ATOM     83  F   UNL A   1      47.651  26.403  28.062  1.00  0.00    -0.205 F 
ATOM     84  C   UNL A   1      48.985  26.584  24.657  1.00  0.00     0.022 A 
BRANCH  82  85
ATOM     85  S   UNL A   1      50.345  25.580  26.814  1.00  0.00     0.127 S 
ATOM     86  O   UNL A   1      51.244  25.400  25.677  1.00  0.00    -0.237 OA
ATOM     87  O   UNL A   1      50.748  26.621  27.760  1.00  0.00    -0.237 OA
ATOM     88  O   UNL A   1      49.861  24.360  27.445  1.00  0.00    -0.744 OA
ENDBRANCH  82  85
ENDBRANCH  54  78
BRANCH  66  89
ATOM     89  C   UNL A   1      45.315  33.002  30.013  1.00  0.00     0.023 A 
ATOM     90  C   UNL A   1      46.078  32.927  31.194  1.00  0.00     0.012 A 
ATOM     91  C   UNL A   1      45.411  34.142  29.191  1.00  0.00     0.148 A 
ATOM     92  C   UNL A   1      46.911  33.983  31.563  1.00  0.00     0.002 A 
ATOM     93  C   UNL A   1      46.276  35.170  29.542  1.00  0.00     0.091 A 
ATOM     94  F   UNL A   1      44.658  34.197  28.083  1.00  0.00    -0.205 F 
ATOM     95  C   UNL A   1      47.020  35.097  30.732  1.00  0.00     0.022 A 
BRANCH  93  96
ATOM     96  S   UNL A   1      46.550  36.593  28.481  1.00  0.00     0.127 S 
ATOM     97  O   UNL A   1      45.233  37.229  28.489  1.00  0.00    -0.237 OA
ATOM     98  O   UNL A   1      47.588  37.328  29.205  1.00  0.00    -0.237 OA
ATOM     99  O   UNL A   1      46.979  36.055  27.197  1.00  0.00    -0.744 OA
ENDBRANCH  93  96
ENDBRANCH  66  89
ENDBRANCH  40  41
ENDBRANCH  32  35
ENDBRANCH  30  31
ENDBRANCH  29  30
ENDBRANCH   1  29
TORSDOF 18
ENDMDL
