MODEL 1
REMARK VINA RESULT:     -12.8      0.000      0.000
REMARK SMILES Cc1ccc(S(=O)(=O)Nc2ccc(N3CCNC3=O)cc2)cc1C(=O)NCCCNC(=O)c1ccc(-c2c3nc(c(-c4cccc(S(=O)(=O)[O-])c4F)c4ccc([nH]4)c(-c4cccc(S(=O)(=O)[O-])c4F)c4nc(c(-c5cccc(S(=O)(=O)[O-])c5F)c5ccc2[nH]5)C=C4)C=C3)cc1
REMARK SMILES IDX 27 1 26 2 24 3 25 4 23 6 1 7 2 8 3 9 4 10 22 11 5 12 6 13
REMARK SMILES IDX 7 14 8 15 9 16 10 18 11 19 21 20 12 21 20 22 13 23 14 24
REMARK SMILES IDX 15 25 18 26 16 27 17 28 19 29 28 31 29 32 30 33 31 34 32 36
REMARK SMILES IDX 33 37 34 38 95 39 35 40 94 41 36 42 37 43 38 44 88 45 39 46
REMARK SMILES IDX 93 47 87 48 89 49 40 50 92 51 86 52 85 53 41 55 73 56 53 57
REMARK SMILES IDX 72 58 54 59 57 60 71 61 90 62 55 63 56 64 70 66 91 67 58 68
REMARK SMILES IDX 42 69 43 70 51 71 44 72 46 73 52 74 45 75 47 76 48 77 49 78
REMARK SMILES IDX 50 79 74 80 75 81 83 82 76 83 78 84 84 85 77 86 79 87 80 88
REMARK SMILES IDX 81 89 82 90 59 91 60 92 68 93 61 94 63 95 69 96 62 97 64 98
REMARK SMILES IDX 65 99 66 100 67 101
REMARK H PARENT 26 5 9 17 17 30 30 35 89 54 57 65
REMARK Flexibility Score: inf
ROOT
ATOM      1  C   UNL A   1      31.745  30.679  26.282  1.00  0.00     0.118 C 
ENDROOT
BRANCH   1   2
ATOM      2  N   UNL A   1      32.496  30.162  25.165  1.00  0.00    -0.352 N 
ATOM      3  C   UNL A   1      32.284  29.214  24.208  1.00  0.00     0.251 C 
ATOM      4  O   UNL A   1      33.187  29.183  23.362  1.00  0.00    -0.269 OA
ATOM      5  H   UNL A   1      33.373  30.599  25.070  1.00  0.00     0.163 HD
BRANCH   3   6
ATOM      6  C   UNL A   1      31.114  28.262  24.032  1.00  0.00     0.044 A 
ATOM      7  C   UNL A   1      29.243  29.689  22.896  1.00  0.00     0.045 C 
ATOM      8  C   UNL A   1      29.844  28.433  23.434  1.00  0.00    -0.038 A 
ATOM      9  C   UNL A   1      28.921  27.362  23.432  1.00  0.00     0.005 A 
ATOM     10  C   UNL A   1      29.133  26.229  24.193  1.00  0.00     0.022 A 
ATOM     11  C   UNL A   1      31.322  27.042  24.740  1.00  0.00     0.036 A 
ATOM     12  C   UNL A   1      30.306  26.108  24.926  1.00  0.00     0.088 A 
BRANCH  12  13
ATOM     13  S   UNL A   1      30.260  24.856  26.181  1.00  0.00     0.261 S 
ATOM     14  O   UNL A   1      31.395  25.128  27.045  1.00  0.00    -0.201 OA
ATOM     15  O   UNL A   1      28.920  24.884  26.735  1.00  0.00    -0.201 OA
BRANCH  13  16
ATOM     16  N   UNL A   1      30.500  23.284  25.632  1.00  0.00    -0.280 N 
ATOM     17  H   UNL A   1      29.722  22.788  25.286  1.00  0.00     0.180 HD
BRANCH  16  18
ATOM     18  C   UNL A   1      31.766  22.632  25.641  1.00  0.00     0.049 A 
ATOM     19  C   UNL A   1      32.453  22.683  24.430  1.00  0.00     0.029 A 
ATOM     20  C   UNL A   1      32.285  21.904  26.708  1.00  0.00     0.029 A 
ATOM     21  C   UNL A   1      33.742  22.168  24.335  1.00  0.00     0.028 A 
ATOM     22  C   UNL A   1      33.574  21.357  26.599  1.00  0.00     0.028 A 
ATOM     23  C   UNL A   1      34.334  21.539  25.434  1.00  0.00     0.046 A 
BRANCH  23  24
ATOM     24  N   UNL A   1      35.700  21.201  25.384  1.00  0.00    -0.293 N 
ATOM     25  C   UNL A   1      36.160  19.877  25.018  1.00  0.00     0.149 C 
ATOM     26  C   UNL A   1      36.789  22.072  25.552  1.00  0.00     0.321 C 
ATOM     27  C   UNL A   1      37.612  20.096  24.619  1.00  0.00     0.139 C 
ATOM     28  N   UNL A   1      37.939  21.355  25.217  1.00  0.00    -0.336 N 
ATOM     29  O   UNL A   1      36.790  23.219  25.935  1.00  0.00    -0.248 OA
ATOM     30  H   UNL A   1      38.857  21.675  25.373  1.00  0.00     0.165 HD
ENDBRANCH  23  24
ENDBRANCH  16  18
ENDBRANCH  13  16
ENDBRANCH  12  13
ENDBRANCH   3   6
ENDBRANCH   1   2
BRANCH   1  31
ATOM     31  C   UNL A   1      32.661  31.417  27.241  1.00  0.00     0.042 C 
BRANCH  31  32
ATOM     32  C   UNL A   1      34.085  30.919  27.312  1.00  0.00     0.118 C 
BRANCH  32  33
ATOM     33  N   UNL A   1      34.885  31.719  28.233  1.00  0.00    -0.352 N 
ATOM     34  C   UNL A   1      35.887  31.330  29.109  1.00  0.00     0.251 C 
ATOM     35  H   UNL A   1      34.683  32.683  28.231  1.00  0.00     0.163 HD
ATOM     36  O   UNL A   1      36.319  32.126  29.934  1.00  0.00    -0.269 OA
BRANCH  34  37
ATOM     37  C   UNL A   1      36.522  30.004  28.908  1.00  0.00     0.039 A 
ATOM     38  C   UNL A   1      36.916  29.386  30.094  1.00  0.00     0.014 A 
ATOM     39  C   UNL A   1      37.202  29.758  27.722  1.00  0.00     0.014 A 
ATOM     40  C   UNL A   1      38.203  28.887  30.179  1.00  0.00     0.010 A 
ATOM     41  C   UNL A   1      38.522  29.378  27.828  1.00  0.00     0.010 A 
ATOM     42  C   UNL A   1      39.041  29.049  29.082  1.00  0.00    -0.014 A 
BRANCH  42  43
ATOM     43  C   UNL A   1      40.440  28.690  29.094  1.00  0.00     0.031 A 
ATOM     44  C   UNL A   1      40.722  27.265  28.866  1.00  0.00     0.074 A 
ATOM     45  C   UNL A   1      41.419  29.607  29.236  1.00  0.00     0.049 A 
ATOM     46  N   UNL A   1      41.831  26.692  29.163  1.00  0.00    -0.248 NA
ATOM     47  C   UNL A   1      39.709  26.348  28.349  1.00  0.00     0.031 C 
ATOM     48  C   UNL A   1      42.830  29.453  28.899  1.00  0.00     0.029 A 
ATOM     49  N   UNL A   1      41.391  30.876  29.783  1.00  0.00    -0.354 N 
ATOM     50  C   UNL A   1      41.790  25.435  28.604  1.00  0.00     0.074 A 
ATOM     51  C   UNL A   1      40.409  25.218  28.267  1.00  0.00     0.031 C 
ATOM     52  C   UNL A   1      43.534  30.452  29.461  1.00  0.00     0.029 A 
ATOM     53  C   UNL A   1      42.637  31.171  30.344  1.00  0.00     0.049 A 
ATOM     54  H   UNL A   1      40.613  31.479  29.779  1.00  0.00     0.167 HD
ATOM     55  C   UNL A   1      42.975  24.827  28.329  1.00  0.00     0.034 A 
ATOM     56  C   UNL A   1      42.839  31.341  31.694  1.00  0.00     0.034 A 
ATOM     57  C   UNL A   1      44.086  25.614  28.912  1.00  0.00     0.049 A 
ATOM     58  C   UNL A   1      43.722  30.249  32.303  1.00  0.00     0.074 A 
ATOM     59  C   UNL A   1      44.974  26.543  28.391  1.00  0.00     0.029 A 
ATOM     60  N   UNL A   1      44.142  25.773  30.293  1.00  0.00    -0.354 N 
ATOM     61  N   UNL A   1      44.264  29.268  31.634  1.00  0.00    -0.248 NA
ATOM     62  C   UNL A   1      43.947  30.126  33.741  1.00  0.00     0.031 C 
ATOM     63  C   UNL A   1      45.530  27.288  29.477  1.00  0.00     0.029 A 
ATOM     64  C   UNL A   1      45.021  26.787  30.663  1.00  0.00     0.049 A 
ATOM     65  H   UNL A   1      43.622  25.234  30.931  1.00  0.00     0.167 HD
ATOM     66  C   UNL A   1      44.725  28.311  32.505  1.00  0.00     0.074 A 
ATOM     67  C   UNL A   1      44.498  28.905  33.815  1.00  0.00     0.031 C 
ATOM     68  C   UNL A   1      45.193  27.088  32.086  1.00  0.00     0.034 A 
BRANCH  55  69
ATOM     69  C   UNL A   1      43.169  23.717  27.299  1.00  0.00     0.023 A 
ATOM     70  C   UNL A   1      43.876  24.066  26.127  1.00  0.00     0.012 A 
ATOM     71  C   UNL A   1      42.661  22.392  27.331  1.00  0.00     0.148 A 
ATOM     72  C   UNL A   1      44.008  23.197  25.036  1.00  0.00     0.002 A 
ATOM     73  C   UNL A   1      42.772  21.529  26.235  1.00  0.00     0.091 A 
ATOM     74  F   UNL A   1      42.090  21.913  28.433  1.00  0.00    -0.205 F 
ATOM     75  C   UNL A   1      43.441  21.934  25.080  1.00  0.00     0.022 A 
BRANCH  73  76
ATOM     76  S   UNL A   1      42.051  19.872  26.211  1.00  0.00     0.127 S 
ATOM     77  O   UNL A   1      42.532  19.310  27.475  1.00  0.00    -0.237 OA
ATOM     78  O   UNL A   1      40.617  20.155  26.181  1.00  0.00    -0.237 OA
ATOM     79  O   UNL A   1      42.573  19.206  25.024  1.00  0.00    -0.744 OA
ENDBRANCH  73  76
ENDBRANCH  55  69
BRANCH  56  80
ATOM     80  C   UNL A   1      41.645  31.928  32.390  1.00  0.00     0.023 A 
ATOM     81  C   UNL A   1      40.609  31.024  32.717  1.00  0.00     0.012 A 
ATOM     82  C   UNL A   1      41.792  33.089  33.163  1.00  0.00     0.148 A 
ATOM     83  C   UNL A   1      40.016  31.089  33.978  1.00  0.00     0.002 A 
ATOM     84  C   UNL A   1      41.175  33.160  34.401  1.00  0.00     0.091 A 
ATOM     85  F   UNL A   1      42.569  34.087  32.726  1.00  0.00    -0.205 F 
ATOM     86  C   UNL A   1      40.368  32.110  34.855  1.00  0.00     0.022 A 
BRANCH  84  87
ATOM     87  S   UNL A   1      41.501  34.574  35.450  1.00  0.00     0.127 S 
ATOM     88  O   UNL A   1      40.957  35.667  34.651  1.00  0.00    -0.237 OA
ATOM     89  O   UNL A   1      40.739  34.266  36.657  1.00  0.00    -0.237 OA
ATOM     90  O   UNL A   1      42.947  34.554  35.625  1.00  0.00    -0.744 OA
ENDBRANCH  84  87
ENDBRANCH  56  80
BRANCH  68  91
ATOM     91  C   UNL A   1      45.811  26.030  33.001  1.00  0.00     0.023 A 
ATOM     92  C   UNL A   1      47.202  25.857  33.125  1.00  0.00     0.012 A 
ATOM     93  C   UNL A   1      45.014  25.094  33.715  1.00  0.00     0.148 A 
ATOM     94  C   UNL A   1      47.771  24.952  34.029  1.00  0.00     0.002 A 
ATOM     95  C   UNL A   1      45.575  24.180  34.599  1.00  0.00     0.091 A 
ATOM     96  F   UNL A   1      43.700  25.021  33.489  1.00  0.00    -0.205 F 
ATOM     97  C   UNL A   1      46.955  24.132  34.788  1.00  0.00     0.022 A 
BRANCH  95  98
ATOM     98  S   UNL A   1      44.579  22.986  35.504  1.00  0.00     0.127 S 
ATOM     99  O   UNL A   1      44.327  21.980  34.472  1.00  0.00    -0.237 OA
ATOM    100  O   UNL A   1      45.503  22.563  36.556  1.00  0.00    -0.237 OA
ATOM    101  O   UNL A   1      43.405  23.704  35.975  1.00  0.00    -0.744 OA
ENDBRANCH  95  98
ENDBRANCH  68  91
ENDBRANCH  42  43
ENDBRANCH  34  37
ENDBRANCH  32  33
ENDBRANCH  31  32
ENDBRANCH   1  31
TORSDOF 17
ENDMDL
MODEL 2
REMARK VINA RESULT:     -12.7      1.987      2.347
REMARK SMILES Cc1ccc(S(=O)(=O)Nc2ccc(N3CCNC3=O)cc2)cc1C(=O)NCCCNC(=O)c1ccc(-c2c3nc(c(-c4cccc(S(=O)(=O)[O-])c4F)c4ccc([nH]4)c(-c4cccc(S(=O)(=O)[O-])c4F)c4nc(c(-c5cccc(S(=O)(=O)[O-])c5F)c5ccc2[nH]5)C=C4)C=C3)cc1
REMARK SMILES IDX 27 1 26 2 24 3 25 4 23 6 1 7 2 8 3 9 4 10 22 11 5 12 6 13
REMARK SMILES IDX 7 14 8 15 9 16 10 18 11 19 21 20 12 21 20 22 13 23 14 24
REMARK SMILES IDX 15 25 18 26 16 27 17 28 19 29 28 31 29 32 30 33 31 34 32 36
REMARK SMILES IDX 33 37 34 38 95 39 35 40 94 41 36 42 37 43 38 44 88 45 39 46
REMARK SMILES IDX 93 47 87 48 89 49 40 50 92 51 86 52 85 53 41 55 73 56 53 57
REMARK SMILES IDX 72 58 54 59 57 60 71 61 90 62 55 63 56 64 70 66 91 67 58 68
REMARK SMILES IDX 42 69 43 70 51 71 44 72 46 73 52 74 45 75 47 76 48 77 49 78
REMARK SMILES IDX 50 79 74 80 75 81 83 82 76 83 78 84 84 85 77 86 79 87 80 88
REMARK SMILES IDX 81 89 82 90 59 91 60 92 68 93 61 94 63 95 69 96 62 97 64 98
REMARK SMILES IDX 65 99 66 100 67 101
REMARK H PARENT 26 5 9 17 17 30 30 35 89 54 57 65
REMARK Flexibility Score: inf
ROOT
ATOM      1  C   UNL A   1      32.149  30.465  26.396  1.00  0.00     0.118 C 
ENDROOT
BRANCH   1   2
ATOM      2  N   UNL A   1      32.742  30.084  25.140  1.00  0.00    -0.352 N 
ATOM      3  C   UNL A   1      32.404  29.241  24.122  1.00  0.00     0.251 C 
ATOM      4  O   UNL A   1      33.184  29.315  23.165  1.00  0.00    -0.269 OA
ATOM      5  H   UNL A   1      33.599  30.541  24.976  1.00  0.00     0.163 HD
BRANCH   3   6
ATOM      6  C   UNL A   1      31.221  28.296  24.002  1.00  0.00     0.044 A 
ATOM      7  C   UNL A   1      29.286  29.752  23.022  1.00  0.00     0.045 C 
ATOM      8  C   UNL A   1      29.915  28.483  23.492  1.00  0.00    -0.038 A 
ATOM      9  C   UNL A   1      28.990  27.415  23.527  1.00  0.00     0.005 A 
ATOM     10  C   UNL A   1      29.247  26.265  24.247  1.00  0.00     0.022 A 
ATOM     11  C   UNL A   1      31.470  27.060  24.668  1.00  0.00     0.036 A 
ATOM     12  C   UNL A   1      30.465  26.125  24.900  1.00  0.00     0.088 A 
BRANCH  12  13
ATOM     13  S   UNL A   1      30.495  24.846  26.128  1.00  0.00     0.261 S 
ATOM     14  O   UNL A   1      31.635  25.147  26.977  1.00  0.00    -0.201 OA
ATOM     15  O   UNL A   1      29.167  24.806  26.707  1.00  0.00    -0.201 OA
BRANCH  13  16
ATOM     16  N   UNL A   1      30.790  23.297  25.540  1.00  0.00    -0.280 N 
ATOM     17  H   UNL A   1      30.023  22.761  25.234  1.00  0.00     0.180 HD
BRANCH  16  18
ATOM     18  C   UNL A   1      32.090  22.720  25.461  1.00  0.00     0.049 A 
ATOM     19  C   UNL A   1      32.867  23.184  24.403  1.00  0.00     0.029 A 
ATOM     20  C   UNL A   1      32.566  21.703  26.283  1.00  0.00     0.029 A 
ATOM     21  C   UNL A   1      34.189  22.770  24.272  1.00  0.00     0.028 A 
ATOM     22  C   UNL A   1      33.891  21.263  26.129  1.00  0.00     0.028 A 
ATOM     23  C   UNL A   1      34.729  21.838  25.163  1.00  0.00     0.046 A 
BRANCH  23  24
ATOM     24  N   UNL A   1      36.113  21.580  25.139  1.00  0.00    -0.293 N 
ATOM     25  C   UNL A   1      37.100  22.612  25.386  1.00  0.00     0.149 C 
ATOM     26  C   UNL A   1      36.734  20.327  25.001  1.00  0.00     0.321 C 
ATOM     27  C   UNL A   1      38.355  21.832  25.750  1.00  0.00     0.139 C 
ATOM     28  N   UNL A   1      38.095  20.520  25.240  1.00  0.00    -0.336 N 
ATOM     29  O   UNL A   1      36.238  19.265  24.707  1.00  0.00    -0.248 OA
ATOM     30  H   UNL A   1      38.788  19.839  25.077  1.00  0.00     0.165 HD
ENDBRANCH  23  24
ENDBRANCH  16  18
ENDBRANCH  13  16
ENDBRANCH  12  13
ENDBRANCH   3   6
ENDBRANCH   1   2
BRANCH   1  31
ATOM     31  C   UNL A   1      33.220  30.911  27.375  1.00  0.00     0.042 C 
BRANCH  31  32
ATOM     32  C   UNL A   1      34.645  30.831  26.879  1.00  0.00     0.118 C 
BRANCH  32  33
ATOM     33  N   UNL A   1      35.555  31.570  27.748  1.00  0.00    -0.352 N 
ATOM     34  C   UNL A   1      36.623  31.117  28.506  1.00  0.00     0.251 C 
ATOM     35  H   UNL A   1      35.384  32.538  27.802  1.00  0.00     0.163 HD
ATOM     36  O   UNL A   1      37.158  31.866  29.315  1.00  0.00    -0.269 OA
BRANCH  34  37
ATOM     37  C   UNL A   1      37.194  29.784  28.194  1.00  0.00     0.039 A 
ATOM     38  C   UNL A   1      37.271  28.934  29.297  1.00  0.00     0.014 A 
ATOM     39  C   UNL A   1      38.102  29.670  27.148  1.00  0.00     0.014 A 
ATOM     40  C   UNL A   1      38.470  28.293  29.549  1.00  0.00     0.010 A 
ATOM     41  C   UNL A   1      39.336  29.138  27.450  1.00  0.00     0.010 A 
ATOM     42  C   UNL A   1      39.539  28.546  28.699  1.00  0.00    -0.014 A 
BRANCH  42  43
ATOM     43  C   UNL A   1      40.873  28.041  28.930  1.00  0.00     0.031 A 
ATOM     44  C   UNL A   1      41.053  26.606  28.666  1.00  0.00     0.074 A 
ATOM     45  C   UNL A   1      41.894  28.843  29.297  1.00  0.00     0.049 A 
ATOM     46  N   UNL A   1      42.030  25.907  29.115  1.00  0.00    -0.248 NA
ATOM     47  C   UNL A   1      40.065  25.825  27.925  1.00  0.00     0.031 C 
ATOM     48  C   UNL A   1      43.321  28.556  29.200  1.00  0.00     0.029 A 
ATOM     49  N   UNL A   1      41.891  30.082  29.908  1.00  0.00    -0.354 N 
ATOM     50  C   UNL A   1      41.970  24.687  28.479  1.00  0.00     0.074 A 
ATOM     51  C   UNL A   1      40.657  24.632  27.896  1.00  0.00     0.031 C 
ATOM     52  C   UNL A   1      44.007  29.449  29.936  1.00  0.00     0.029 A 
ATOM     53  C   UNL A   1      43.039  30.218  30.694  1.00  0.00     0.049 A 
ATOM     54  H   UNL A   1      41.188  30.764  29.807  1.00  0.00     0.167 HD
ATOM     55  C   UNL A   1      43.120  23.970  28.376  1.00  0.00     0.034 A 
ATOM     56  C   UNL A   1      43.013  30.306  32.066  1.00  0.00     0.034 A 
ATOM     57  C   UNL A   1      44.180  24.609  29.190  1.00  0.00     0.049 A 
ATOM     58  C   UNL A   1      43.664  29.102  32.749  1.00  0.00     0.074 A 
ATOM     59  C   UNL A   1      45.232  25.461  28.890  1.00  0.00     0.029 A 
ATOM     60  N   UNL A   1      44.003  24.700  30.567  1.00  0.00    -0.354 N 
ATOM     61  N   UNL A   1      44.220  28.099  32.125  1.00  0.00    -0.248 NA
ATOM     62  C   UNL A   1      43.616  28.891  34.194  1.00  0.00     0.031 C 
ATOM     63  C   UNL A   1      45.654  26.094  30.100  1.00  0.00     0.029 A 
ATOM     64  C   UNL A   1      44.895  25.597  31.146  1.00  0.00     0.049 A 
ATOM     65  H   UNL A   1      43.329  24.191  31.072  1.00  0.00     0.167 HD
ATOM     66  C   UNL A   1      44.424  27.061  33.001  1.00  0.00     0.074 A 
ATOM     67  C   UNL A   1      44.025  27.617  34.286  1.00  0.00     0.031 C 
ATOM     68  C   UNL A   1      44.839  25.815  32.594  1.00  0.00     0.034 A 
BRANCH  55  69
ATOM     69  C   UNL A   1      43.388  22.893  27.328  1.00  0.00     0.023 A 
ATOM     70  C   UNL A   1      44.167  23.280  26.216  1.00  0.00     0.012 A 
ATOM     71  C   UNL A   1      42.887  21.565  27.287  1.00  0.00     0.148 A 
ATOM     72  C   UNL A   1      44.375  22.445  25.109  1.00  0.00     0.002 A 
ATOM     73  C   UNL A   1      43.074  20.736  26.175  1.00  0.00     0.091 A 
ATOM     74  F   UNL A   1      42.249  21.050  28.334  1.00  0.00    -0.205 F 
ATOM     75  C   UNL A   1      43.813  21.179  25.079  1.00  0.00     0.022 A 
BRANCH  73  76
ATOM     76  S   UNL A   1      42.366  19.077  26.055  1.00  0.00     0.127 S 
ATOM     77  O   UNL A   1      43.147  18.489  24.966  1.00  0.00    -0.237 OA
ATOM     78  O   UNL A   1      42.652  18.519  27.376  1.00  0.00    -0.237 OA
ATOM     79  O   UNL A   1      40.950  19.249  25.751  1.00  0.00    -0.744 OA
ENDBRANCH  73  76
ENDBRANCH  55  69
BRANCH  56  80
ATOM     80  C   UNL A   1      41.776  30.985  32.580  1.00  0.00     0.023 A 
ATOM     81  C   UNL A   1      41.489  32.254  32.030  1.00  0.00     0.012 A 
ATOM     82  C   UNL A   1      40.716  30.214  33.080  1.00  0.00     0.148 A 
ATOM     83  C   UNL A   1      40.181  32.555  31.648  1.00  0.00     0.002 A 
ATOM     84  C   UNL A   1      39.418  30.537  32.721  1.00  0.00     0.091 A 
ATOM     85  F   UNL A   1      40.971  29.147  33.845  1.00  0.00    -0.205 F 
ATOM     86  C   UNL A   1      39.158  31.651  31.915  1.00  0.00     0.022 A 
BRANCH  84  87
ATOM     87  S   UNL A   1      38.087  29.452  33.228  1.00  0.00     0.127 S 
ATOM     88  O   UNL A   1      38.622  28.141  32.876  1.00  0.00    -0.237 OA
ATOM     89  O   UNL A   1      37.992  29.703  34.664  1.00  0.00    -0.237 OA
ATOM     90  O   UNL A   1      36.943  29.916  32.456  1.00  0.00    -0.744 OA
ENDBRANCH  84  87
ENDBRANCH  56  80
BRANCH  68  91
ATOM     91  C   UNL A   1      45.179  24.659  33.534  1.00  0.00     0.023 A 
ATOM     92  C   UNL A   1      44.192  23.838  34.110  1.00  0.00     0.012 A 
ATOM     93  C   UNL A   1      46.511  24.398  33.957  1.00  0.00     0.148 A 
ATOM     94  C   UNL A   1      44.504  22.722  34.896  1.00  0.00     0.002 A 
ATOM     95  C   UNL A   1      46.824  23.304  34.755  1.00  0.00     0.091 A 
ATOM     96  F   UNL A   1      47.491  25.255  33.657  1.00  0.00    -0.205 F 
ATOM     97  C   UNL A   1      45.825  22.439  35.196  1.00  0.00     0.022 A 
BRANCH  95  98
ATOM     98  S   UNL A   1      48.504  22.966  35.303  1.00  0.00     0.127 S 
ATOM     99  O   UNL A   1      48.309  21.756  36.102  1.00  0.00    -0.237 OA
ATOM    100  O   UNL A   1      49.196  22.753  34.031  1.00  0.00    -0.237 OA
ATOM    101  O   UNL A   1      48.938  24.140  36.044  1.00  0.00    -0.744 OA
ENDBRANCH  95  98
ENDBRANCH  68  91
ENDBRANCH  42  43
ENDBRANCH  34  37
ENDBRANCH  32  33
ENDBRANCH  31  32
ENDBRANCH   1  31
TORSDOF 17
ENDMDL
MODEL 3
REMARK VINA RESULT:     -12.6      4.834     10.602
REMARK SMILES Cc1ccc(S(=O)(=O)Nc2ccc(N3CCNC3=O)cc2)cc1C(=O)NCCCNC(=O)c1ccc(-c2c3nc(c(-c4cccc(S(=O)(=O)[O-])c4F)c4ccc([nH]4)c(-c4cccc(S(=O)(=O)[O-])c4F)c4nc(c(-c5cccc(S(=O)(=O)[O-])c5F)c5ccc2[nH]5)C=C4)C=C3)cc1
REMARK SMILES IDX 27 1 26 2 24 3 25 4 23 6 1 7 2 8 3 9 4 10 22 11 5 12 6 13
REMARK SMILES IDX 7 14 8 15 9 16 10 18 11 19 21 20 12 21 20 22 13 23 14 24
REMARK SMILES IDX 15 25 18 26 16 27 17 28 19 29 28 31 29 32 30 33 31 34 32 36
REMARK SMILES IDX 33 37 34 38 95 39 35 40 94 41 36 42 37 43 38 44 88 45 39 46
REMARK SMILES IDX 93 47 87 48 89 49 40 50 92 51 86 52 85 53 41 55 73 56 53 57
REMARK SMILES IDX 72 58 54 59 57 60 71 61 90 62 55 63 56 64 70 66 91 67 58 68
REMARK SMILES IDX 42 69 43 70 51 71 44 72 46 73 52 74 45 75 47 76 48 77 49 78
REMARK SMILES IDX 50 79 74 80 75 81 83 82 76 83 78 84 84 85 77 86 79 87 80 88
REMARK SMILES IDX 81 89 82 90 59 91 60 92 68 93 61 94 63 95 69 96 62 97 64 98
REMARK SMILES IDX 65 99 66 100 67 101
REMARK H PARENT 26 5 9 17 17 30 30 35 89 54 57 65
REMARK Flexibility Score: inf
ROOT
ATOM      1  C   UNL A   1      43.410  19.065  25.272  1.00  0.00     0.118 C 
ENDROOT
BRANCH   1   2
ATOM      2  N   UNL A   1      42.827  18.904  26.580  1.00  0.00    -0.352 N 
ATOM      3  C   UNL A   1      41.882  19.565  27.311  1.00  0.00     0.251 C 
ATOM      4  O   UNL A   1      41.617  18.990  28.374  1.00  0.00    -0.269 OA
ATOM      5  H   UNL A   1      43.200  18.133  27.064  1.00  0.00     0.163 HD
BRANCH   3   6
ATOM      6  C   UNL A   1      41.119  20.835  26.981  1.00  0.00     0.044 A 
ATOM      7  C   UNL A   1      41.996  22.616  28.679  1.00  0.00     0.045 C 
ATOM      8  C   UNL A   1      41.192  22.143  27.514  1.00  0.00    -0.038 A 
ATOM      9  C   UNL A   1      40.327  23.148  27.025  1.00  0.00     0.005 A 
ATOM     10  C   UNL A   1      39.260  22.842  26.204  1.00  0.00     0.022 A 
ATOM     11  C   UNL A   1      40.049  20.581  26.072  1.00  0.00     0.036 A 
ATOM     12  C   UNL A   1      39.066  21.528  25.797  1.00  0.00     0.088 A 
BRANCH  12  13
ATOM     13  S   UNL A   1      37.453  21.194  25.141  1.00  0.00     0.261 S 
ATOM     14  O   UNL A   1      37.392  21.903  23.875  1.00  0.00    -0.201 OA
ATOM     15  O   UNL A   1      37.296  19.753  25.158  1.00  0.00    -0.201 OA
BRANCH  13  16
ATOM     16  N   UNL A   1      36.173  21.809  26.044  1.00  0.00    -0.280 N 
ATOM     17  H   UNL A   1      36.096  21.536  26.988  1.00  0.00     0.180 HD
BRANCH  16  18
ATOM     18  C   UNL A   1      35.196  22.701  25.517  1.00  0.00     0.049 A 
ATOM     19  C   UNL A   1      35.499  24.051  25.676  1.00  0.00     0.029 A 
ATOM     20  C   UNL A   1      33.976  22.319  24.968  1.00  0.00     0.029 A 
ATOM     21  C   UNL A   1      34.673  25.023  25.120  1.00  0.00     0.028 A 
ATOM     22  C   UNL A   1      33.128  23.305  24.436  1.00  0.00     0.028 A 
ATOM     23  C   UNL A   1      33.500  24.657  24.454  1.00  0.00     0.046 A 
BRANCH  23  24
ATOM     24  N   UNL A   1      32.783  25.629  23.731  1.00  0.00    -0.293 N 
ATOM     25  C   UNL A   1      31.723  26.416  24.329  1.00  0.00     0.149 C 
ATOM     26  C   UNL A   1      33.038  26.063  22.419  1.00  0.00     0.321 C 
ATOM     27  C   UNL A   1      31.593  27.613  23.399  1.00  0.00     0.139 C 
ATOM     28  N   UNL A   1      32.221  27.171  22.191  1.00  0.00    -0.336 N 
ATOM     29  O   UNL A   1      33.788  25.589  21.598  1.00  0.00    -0.248 OA
ATOM     30  H   UNL A   1      32.093  27.594  21.311  1.00  0.00     0.165 HD
ENDBRANCH  23  24
ENDBRANCH  16  18
ENDBRANCH  13  16
ENDBRANCH  12  13
ENDBRANCH   3   6
ENDBRANCH   1   2
BRANCH   1  31
ATOM     31  C   UNL A   1      44.913  18.867  25.333  1.00  0.00     0.042 C 
BRANCH  31  32
ATOM     32  C   UNL A   1      45.735  19.767  24.441  1.00  0.00     0.118 C 
BRANCH  32  33
ATOM     33  N   UNL A   1      44.905  20.769  23.782  1.00  0.00    -0.352 N 
ATOM     34  C   UNL A   1      44.637  22.080  24.147  1.00  0.00     0.251 C 
ATOM     35  H   UNL A   1      44.469  20.469  22.952  1.00  0.00     0.163 HD
ATOM     36  O   UNL A   1      43.767  22.711  23.559  1.00  0.00    -0.269 OA
BRANCH  34  37
ATOM     37  C   UNL A   1      45.531  22.733  25.134  1.00  0.00     0.039 A 
ATOM     38  C   UNL A   1      45.181  22.483  26.460  1.00  0.00     0.014 A 
ATOM     39  C   UNL A   1      46.169  23.916  24.781  1.00  0.00     0.014 A 
ATOM     40  C   UNL A   1      45.076  23.557  27.325  1.00  0.00     0.010 A 
ATOM     41  C   UNL A   1      45.951  25.008  25.594  1.00  0.00     0.010 A 
ATOM     42  C   UNL A   1      45.304  24.830  26.819  1.00  0.00    -0.014 A 
BRANCH  42  43
ATOM     43  C   UNL A   1      45.099  26.037  27.586  1.00  0.00     0.031 A 
ATOM     44  C   UNL A   1      43.765  26.641  27.458  1.00  0.00     0.074 A 
ATOM     45  C   UNL A   1      46.042  26.536  28.412  1.00  0.00     0.049 A 
ATOM     46  N   UNL A   1      43.488  27.854  27.770  1.00  0.00    -0.248 NA
ATOM     47  C   UNL A   1      42.640  25.916  26.871  1.00  0.00     0.031 C 
ATOM     48  C   UNL A   1      45.850  27.492  29.496  1.00  0.00     0.029 A 
ATOM     49  N   UNL A   1      47.412  26.353  28.428  1.00  0.00    -0.354 N 
ATOM     50  C   UNL A   1      42.117  27.973  27.722  1.00  0.00     0.074 A 
ATOM     51  C   UNL A   1      41.664  26.812  27.004  1.00  0.00     0.031 C 
ATOM     52  C   UNL A   1      47.045  27.975  29.882  1.00  0.00     0.029 A 
ATOM     53  C   UNL A   1      48.030  27.502  28.929  1.00  0.00     0.049 A 
ATOM     54  H   UNL A   1      47.880  25.539  28.133  1.00  0.00     0.167 HD
ATOM     55  C   UNL A   1      41.542  28.952  28.470  1.00  0.00     0.034 A 
ATOM     56  C   UNL A   1      48.841  28.317  28.173  1.00  0.00     0.034 A 
ATOM     57  C   UNL A   1      42.591  29.833  29.031  1.00  0.00     0.049 A 
ATOM     58  C   UNL A   1      48.243  29.709  27.955  1.00  0.00     0.074 A 
ATOM     59  C   UNL A   1      43.220  29.904  30.265  1.00  0.00     0.029 A 
ATOM     60  N   UNL A   1      43.396  30.556  28.156  1.00  0.00    -0.354 N 
ATOM     61  N   UNL A   1      47.104  30.118  28.445  1.00  0.00    -0.248 NA
ATOM     62  C   UNL A   1      48.841  30.693  27.056  1.00  0.00     0.031 C 
ATOM     63  C   UNL A   1      44.432  30.644  30.106  1.00  0.00     0.029 A 
ATOM     64  C   UNL A   1      44.524  31.065  28.791  1.00  0.00     0.049 A 
ATOM     65  H   UNL A   1      43.192  30.692  27.203  1.00  0.00     0.167 HD
ATOM     66  C   UNL A   1      46.718  31.278  27.819  1.00  0.00     0.074 A 
ATOM     67  C   UNL A   1      47.849  31.591  26.956  1.00  0.00     0.031 C 
ATOM     68  C   UNL A   1      45.483  31.850  28.008  1.00  0.00     0.034 A 
BRANCH  55  69
ATOM     69  C   UNL A   1      40.092  28.947  28.948  1.00  0.00     0.023 A 
ATOM     70  C   UNL A   1      39.101  29.047  27.947  1.00  0.00     0.012 A 
ATOM     71  C   UNL A   1      39.608  28.932  30.283  1.00  0.00     0.148 A 
ATOM     72  C   UNL A   1      37.739  29.198  28.241  1.00  0.00     0.002 A 
ATOM     73  C   UNL A   1      38.251  29.104  30.582  1.00  0.00     0.091 A 
ATOM     74  F   UNL A   1      40.437  28.714  31.300  1.00  0.00    -0.205 F 
ATOM     75  C   UNL A   1      37.314  29.245  29.559  1.00  0.00     0.022 A 
BRANCH  73  76
ATOM     76  S   UNL A   1      37.620  29.187  32.273  1.00  0.00     0.127 S 
ATOM     77  O   UNL A   1      38.527  30.157  32.891  1.00  0.00    -0.237 OA
ATOM     78  O   UNL A   1      36.256  29.673  32.074  1.00  0.00    -0.237 OA
ATOM     79  O   UNL A   1      37.720  27.840  32.823  1.00  0.00    -0.744 OA
ENDBRANCH  73  76
ENDBRANCH  55  69
BRANCH  56  80
ATOM     80  C   UNL A   1      49.600  27.564  27.119  1.00  0.00     0.023 A 
ATOM     81  C   UNL A   1      48.867  27.200  25.967  1.00  0.00     0.012 A 
ATOM     82  C   UNL A   1      50.987  27.732  27.007  1.00  0.00     0.148 A 
ATOM     83  C   UNL A   1      49.437  27.382  24.707  1.00  0.00     0.002 A 
ATOM     84  C   UNL A   1      51.552  27.882  25.751  1.00  0.00     0.091 A 
ATOM     85  F   UNL A   1      51.741  27.805  28.110  1.00  0.00    -0.205 F 
ATOM     86  C   UNL A   1      50.757  27.811  24.601  1.00  0.00     0.022 A 
BRANCH  84  87
ATOM     87  S   UNL A   1      53.297  28.259  25.627  1.00  0.00     0.127 S 
ATOM     88  O   UNL A   1      53.895  27.133  26.337  1.00  0.00    -0.237 OA
ATOM     89  O   UNL A   1      53.528  28.260  24.185  1.00  0.00    -0.237 OA
ATOM     90  O   UNL A   1      53.419  29.565  26.261  1.00  0.00    -0.744 OA
ENDBRANCH  84  87
ENDBRANCH  56  80
BRANCH  68  91
ATOM     91  C   UNL A   1      45.041  33.189  27.418  1.00  0.00     0.023 A 
ATOM     92  C   UNL A   1      44.264  33.281  26.249  1.00  0.00     0.012 A 
ATOM     93  C   UNL A   1      45.467  34.430  27.965  1.00  0.00     0.148 A 
ATOM     94  C   UNL A   1      43.781  34.500  25.759  1.00  0.00     0.002 A 
ATOM     95  C   UNL A   1      45.008  35.645  27.469  1.00  0.00     0.091 A 
ATOM     96  F   UNL A   1      46.391  34.457  28.929  1.00  0.00    -0.205 F 
ATOM     97  C   UNL A   1      44.131  35.682  26.386  1.00  0.00     0.022 A 
BRANCH  95  98
ATOM     98  S   UNL A   1      45.543  37.222  28.147  1.00  0.00     0.127 S 
ATOM     99  O   UNL A   1      45.139  37.087  29.546  1.00  0.00    -0.237 OA
ATOM    100  O   UNL A   1      46.988  37.170  27.920  1.00  0.00    -0.237 OA
ATOM    101  O   UNL A   1      44.845  38.252  27.392  1.00  0.00    -0.744 OA
ENDBRANCH  95  98
ENDBRANCH  68  91
ENDBRANCH  42  43
ENDBRANCH  34  37
ENDBRANCH  32  33
ENDBRANCH  31  32
ENDBRANCH   1  31
TORSDOF 17
ENDMDL
