MODEL 1
REMARK VINA RESULT:     -11.2      0.000      0.000
REMARK SMILES Cc1nc(CSCC(=O)N2CCCC[C@@H]2C(=O)NCCCNC(=O)c2ccc(-c3c4nc(c(-c5cccc(S(=O)(=O)[O-])c5F)c5ccc([nH]5)c(-c5cccc(S(=O)(=O)[O-])c5F)c5nc(c(-c6cccc(S(=O)(=O)[O-])c6F)c6ccc3[nH]6)C=C5)C=C4)cc2)cs1
REMARK SMILES IDX 19 1 18 2 16 3 17 4 15 6 10 7 11 8 12 9 14 10 13 11 8 12
REMARK SMILES IDX 9 13 7 14 6 15 5 16 4 17 1 18 2 19 3 20 89 21 88 22 20 23
REMARK SMILES IDX 21 24 22 25 23 26 24 28 25 29 26 30 87 31 27 32 86 33 28 34
REMARK SMILES IDX 29 35 30 36 80 37 31 38 85 39 79 40 81 41 32 42 84 43 78 44
REMARK SMILES IDX 77 45 33 47 65 48 45 49 64 50 46 51 49 52 63 53 82 54 47 55
REMARK SMILES IDX 48 56 62 58 83 59 50 60 34 61 35 62 43 63 36 64 38 65 44 66
REMARK SMILES IDX 37 67 39 68 40 69 41 70 42 71 66 72 67 73 75 74 68 75 70 76
REMARK SMILES IDX 76 77 69 78 71 79 72 80 73 81 74 82 51 83 52 84 60 85 53 86
REMARK SMILES IDX 55 87 61 88 54 89 56 90 57 91 58 92 59 93
REMARK H PARENT 18 5 22 27 81 46 49 57
REMARK Flexibility Score: inf
ROOT
ATOM      1  C   UNL A   1      32.804  26.719  26.121  1.00  0.00     0.117 C 
ENDROOT
BRANCH   1   2
ATOM      2  N   UNL A   1      31.807  25.809  26.674  1.00  0.00    -0.354 N 
ATOM      3  C   UNL A   1      31.756  24.445  26.647  1.00  0.00     0.242 C 
ATOM      4  O   UNL A   1      30.798  23.903  27.205  1.00  0.00    -0.273 OA
ATOM      5  H   UNL A   1      31.056  26.245  27.138  1.00  0.00     0.163 HD
BRANCH   3   6
ATOM      6  C   UNL A   1      32.719  23.622  25.763  1.00  0.00     0.174 C 
ATOM      7  N   UNL A   1      32.169  23.209  24.452  1.00  0.00    -0.330 N 
ATOM      8  C   UNL A   1      32.715  21.990  23.857  1.00  0.00     0.120 C 
ATOM      9  C   UNL A   1      32.785  20.818  24.817  1.00  0.00     0.022 C 
ATOM     10  C   UNL A   1      33.055  22.423  26.698  1.00  0.00     0.035 C 
ATOM     11  C   UNL A   1      33.628  21.193  26.021  1.00  0.00     0.004 C 
BRANCH   7  12
ATOM     12  C   UNL A   1      31.534  24.050  23.538  1.00  0.00     0.233 C 
ATOM     13  O   UNL A   1      30.379  23.780  23.185  1.00  0.00    -0.274 OA
BRANCH  12  14
ATOM     14  C   UNL A   1      32.303  25.103  22.752  1.00  0.00     0.170 C 
BRANCH  14  15
ATOM     15  S   UNL A   1      31.437  26.456  21.929  1.00  0.00    -0.146 SA
BRANCH  15  16
ATOM     16  C   UNL A   1      31.841  27.878  22.967  1.00  0.00     0.127 C 
BRANCH  16  17
ATOM     17  C   UNL A   1      30.877  29.010  22.979  1.00  0.00     0.061 A 
ATOM     18  C   UNL A   1      28.121  30.479  21.081  1.00  0.00     0.079 C 
ATOM     19  C   UNL A   1      29.168  30.096  22.068  1.00  0.00     0.090 A 
ATOM     20  N   UNL A   1      30.094  29.189  21.847  1.00  0.00    -0.246 NA
ATOM     21  S   UNL A   1      29.219  30.833  23.619  1.00  0.00    -0.127 S 
ATOM     22  C   UNL A   1      30.539  29.823  24.044  1.00  0.00     0.091 A 
ENDBRANCH  16  17
ENDBRANCH  15  16
ENDBRANCH  14  15
ENDBRANCH  12  14
ENDBRANCH   7  12
ENDBRANCH   3   6
ENDBRANCH   1   2
BRANCH   1  23
ATOM     23  C   UNL A   1      32.782  28.079  26.790  1.00  0.00     0.042 C 
BRANCH  23  24
ATOM     24  C   UNL A   1      33.731  29.088  26.159  1.00  0.00     0.118 C 
BRANCH  24  25
ATOM     25  N   UNL A   1      33.642  30.428  26.724  1.00  0.00    -0.352 N 
ATOM     26  C   UNL A   1      34.488  31.015  27.648  1.00  0.00     0.251 C 
ATOM     27  H   UNL A   1      32.891  30.981  26.409  1.00  0.00     0.163 HD
ATOM     28  O   UNL A   1      34.248  32.114  28.115  1.00  0.00    -0.269 OA
BRANCH  26  29
ATOM     29  C   UNL A   1      35.690  30.263  28.084  1.00  0.00     0.039 A 
ATOM     30  C   UNL A   1      36.831  30.273  27.279  1.00  0.00     0.014 A 
ATOM     31  C   UNL A   1      35.704  29.609  29.318  1.00  0.00     0.014 A 
ATOM     32  C   UNL A   1      38.010  29.685  27.748  1.00  0.00     0.010 A 
ATOM     33  C   UNL A   1      36.903  29.114  29.823  1.00  0.00     0.010 A 
ATOM     34  C   UNL A   1      38.067  29.133  29.040  1.00  0.00    -0.014 A 
BRANCH  34  35
ATOM     35  C   UNL A   1      39.331  28.572  29.589  1.00  0.00     0.031 A 
ATOM     36  C   UNL A   1      39.987  29.209  30.786  1.00  0.00     0.074 A 
ATOM     37  C   UNL A   1      39.944  27.549  28.959  1.00  0.00     0.049 A 
ATOM     38  N   UNL A   1      41.107  28.887  31.382  1.00  0.00    -0.248 NA
ATOM     39  C   UNL A   1      39.320  30.386  31.366  1.00  0.00     0.031 C 
ATOM     40  C   UNL A   1      39.478  26.915  27.725  1.00  0.00     0.029 A 
ATOM     41  N   UNL A   1      41.108  26.883  29.254  1.00  0.00    -0.354 N 
ATOM     42  C   UNL A   1      41.295  29.839  32.377  1.00  0.00     0.074 A 
ATOM     43  C   UNL A   1      40.202  30.780  32.271  1.00  0.00     0.031 C 
ATOM     44  C   UNL A   1      40.346  25.954  27.369  1.00  0.00     0.029 A 
ATOM     45  C   UNL A   1      41.439  25.913  28.337  1.00  0.00     0.049 A 
ATOM     46  H   UNL A   1      41.655  27.083  30.048  1.00  0.00     0.167 HD
ATOM     47  C   UNL A   1      42.261  29.905  33.324  1.00  0.00     0.034 A 
ATOM     48  C   UNL A   1      42.499  25.083  28.281  1.00  0.00     0.034 A 
ATOM     49  C   UNL A   1      43.315  28.938  33.465  1.00  0.00     0.049 A 
ATOM     50  C   UNL A   1      43.518  25.117  29.387  1.00  0.00     0.074 A 
ATOM     51  C   UNL A   1      44.279  28.852  34.453  1.00  0.00     0.029 A 
ATOM     52  N   UNL A   1      43.549  27.890  32.586  1.00  0.00    -0.354 N 
ATOM     53  N   UNL A   1      43.572  25.907  30.433  1.00  0.00    -0.248 NA
ATOM     54  C   UNL A   1      44.595  24.118  29.333  1.00  0.00     0.031 C 
ATOM     55  C   UNL A   1      45.104  27.759  34.164  1.00  0.00     0.029 A 
ATOM     56  C   UNL A   1      44.644  27.155  33.005  1.00  0.00     0.049 A 
ATOM     57  H   UNL A   1      43.013  27.698  31.783  1.00  0.00     0.167 HD
ATOM     58  C   UNL A   1      44.670  25.484  31.174  1.00  0.00     0.074 A 
ATOM     59  C   UNL A   1      45.238  24.353  30.471  1.00  0.00     0.031 C 
ATOM     60  C   UNL A   1      45.171  26.000  32.324  1.00  0.00     0.034 A 
BRANCH  47  61
ATOM     61  C   UNL A   1      42.172  31.026  34.325  1.00  0.00     0.023 A 
ATOM     62  C   UNL A   1      41.507  30.809  35.551  1.00  0.00     0.012 A 
ATOM     63  C   UNL A   1      42.760  32.281  34.075  1.00  0.00     0.148 A 
ATOM     64  C   UNL A   1      41.386  31.833  36.489  1.00  0.00     0.002 A 
ATOM     65  C   UNL A   1      42.677  33.283  35.035  1.00  0.00     0.091 A 
ATOM     66  F   UNL A   1      43.368  32.482  32.896  1.00  0.00    -0.205 F 
ATOM     67  C   UNL A   1      41.979  33.067  36.235  1.00  0.00     0.022 A 
BRANCH  65  68
ATOM     68  S   UNL A   1      43.478  34.879  34.832  1.00  0.00     0.127 S 
ATOM     69  O   UNL A   1      42.799  35.403  33.649  1.00  0.00    -0.237 OA
ATOM     70  O   UNL A   1      43.134  35.561  36.082  1.00  0.00    -0.237 OA
ATOM     71  O   UNL A   1      44.896  34.593  34.673  1.00  0.00    -0.744 OA
ENDBRANCH  65  68
ENDBRANCH  47  61
BRANCH  48  72
ATOM     72  C   UNL A   1      42.599  24.095  27.169  1.00  0.00     0.023 A 
ATOM     73  C   UNL A   1      43.359  24.411  26.027  1.00  0.00     0.012 A 
ATOM     74  C   UNL A   1      41.999  22.823  27.265  1.00  0.00     0.148 A 
ATOM     75  C   UNL A   1      43.502  23.488  24.989  1.00  0.00     0.002 A 
ATOM     76  C   UNL A   1      42.190  21.890  26.254  1.00  0.00     0.091 A 
ATOM     77  F   UNL A   1      41.271  22.547  28.356  1.00  0.00    -0.205 F 
ATOM     78  C   UNL A   1      42.929  22.225  25.107  1.00  0.00     0.022 A 
BRANCH  76  79
ATOM     79  S   UNL A   1      41.609  20.195  26.383  1.00  0.00     0.127 S 
ATOM     80  O   UNL A   1      40.171  20.355  26.183  1.00  0.00    -0.237 OA
ATOM     81  O   UNL A   1      42.317  19.547  25.279  1.00  0.00    -0.237 OA
ATOM     82  O   UNL A   1      42.017  19.739  27.706  1.00  0.00    -0.744 OA
ENDBRANCH  76  79
ENDBRANCH  48  72
BRANCH  60  83
ATOM     83  C   UNL A   1      46.390  25.339  32.916  1.00  0.00     0.023 A 
ATOM     84  C   UNL A   1      47.672  25.825  32.594  1.00  0.00     0.012 A 
ATOM     85  C   UNL A   1      46.261  24.295  33.852  1.00  0.00     0.148 A 
ATOM     86  C   UNL A   1      48.809  25.263  33.173  1.00  0.00     0.002 A 
ATOM     87  C   UNL A   1      47.395  23.771  34.461  1.00  0.00     0.091 A 
ATOM     88  F   UNL A   1      45.033  23.834  34.132  1.00  0.00    -0.205 F 
ATOM     89  C   UNL A   1      48.670  24.247  34.114  1.00  0.00     0.022 A 
BRANCH  87  90
ATOM     90  S   UNL A   1      47.305  22.524  35.751  1.00  0.00     0.127 S 
ATOM     91  O   UNL A   1      48.617  22.653  36.382  1.00  0.00    -0.237 OA
ATOM     92  O   UNL A   1      46.187  23.000  36.567  1.00  0.00    -0.237 OA
ATOM     93  O   UNL A   1      47.058  21.261  35.070  1.00  0.00    -0.744 OA
ENDBRANCH  87  90
ENDBRANCH  60  83
ENDBRANCH  34  35
ENDBRANCH  26  29
ENDBRANCH  24  25
ENDBRANCH  23  24
ENDBRANCH   1  23
TORSDOF 18
ENDMDL
MODEL 2
REMARK VINA RESULT:     -11.2      2.463      2.909
REMARK SMILES Cc1nc(CSCC(=O)N2CCCC[C@@H]2C(=O)NCCCNC(=O)c2ccc(-c3c4nc(c(-c5cccc(S(=O)(=O)[O-])c5F)c5ccc([nH]5)c(-c5cccc(S(=O)(=O)[O-])c5F)c5nc(c(-c6cccc(S(=O)(=O)[O-])c6F)c6ccc3[nH]6)C=C5)C=C4)cc2)cs1
REMARK SMILES IDX 19 1 18 2 16 3 17 4 15 6 10 7 11 8 12 9 14 10 13 11 8 12
REMARK SMILES IDX 9 13 7 14 6 15 5 16 4 17 1 18 2 19 3 20 89 21 88 22 20 23
REMARK SMILES IDX 21 24 22 25 23 26 24 28 25 29 26 30 87 31 27 32 86 33 28 34
REMARK SMILES IDX 29 35 30 36 80 37 31 38 85 39 79 40 81 41 32 42 84 43 78 44
REMARK SMILES IDX 77 45 33 47 65 48 45 49 64 50 46 51 49 52 63 53 82 54 47 55
REMARK SMILES IDX 48 56 62 58 83 59 50 60 34 61 35 62 43 63 36 64 38 65 44 66
REMARK SMILES IDX 37 67 39 68 40 69 41 70 42 71 66 72 67 73 75 74 68 75 70 76
REMARK SMILES IDX 76 77 69 78 71 79 72 80 73 81 74 82 51 83 52 84 60 85 53 86
REMARK SMILES IDX 55 87 61 88 54 89 56 90 57 91 58 92 59 93
REMARK H PARENT 18 5 22 27 81 46 49 57
REMARK Flexibility Score: inf
ROOT
ATOM      1  C   UNL A   1      33.263  28.183  25.684  1.00  0.00     0.117 C 
ENDROOT
BRANCH   1   2
ATOM      2  N   UNL A   1      32.642  27.001  26.273  1.00  0.00    -0.354 N 
ATOM      3  C   UNL A   1      32.820  25.680  25.977  1.00  0.00     0.242 C 
ATOM      4  O   UNL A   1      32.174  24.861  26.638  1.00  0.00    -0.273 OA
ATOM      5  H   UNL A   1      31.997  27.184  26.995  1.00  0.00     0.163 HD
BRANCH   3   6
ATOM      6  C   UNL A   1      33.608  25.234  24.726  1.00  0.00     0.174 C 
ATOM      7  N   UNL A   1      32.881  24.317  23.821  1.00  0.00    -0.330 N 
ATOM      8  C   UNL A   1      33.688  23.404  23.012  1.00  0.00     0.120 C 
ATOM      9  C   UNL A   1      34.756  22.669  23.799  1.00  0.00     0.022 C 
ATOM     10  C   UNL A   1      34.877  24.599  25.365  1.00  0.00     0.035 C 
ATOM     11  C   UNL A   1      35.677  23.671  24.470  1.00  0.00     0.004 C 
BRANCH   7  12
ATOM     12  C   UNL A   1      31.589  24.513  23.334  1.00  0.00     0.233 C 
ATOM     13  O   UNL A   1      30.803  23.556  23.329  1.00  0.00    -0.274 OA
BRANCH  12  14
ATOM     14  C   UNL A   1      31.210  25.762  22.550  1.00  0.00     0.170 C 
BRANCH  14  15
ATOM     15  S   UNL A   1      30.367  27.139  23.359  1.00  0.00    -0.146 SA
BRANCH  15  16
ATOM     16  C   UNL A   1      30.549  28.477  22.159  1.00  0.00     0.127 C 
BRANCH  16  17
ATOM     17  C   UNL A   1      29.648  29.651  22.303  1.00  0.00     0.061 A 
ATOM     18  C   UNL A   1      27.866  32.182  20.361  1.00  0.00     0.079 C 
ATOM     19  C   UNL A   1      28.435  31.272  21.393  1.00  0.00     0.090 A 
ATOM     20  N   UNL A   1      29.382  30.391  21.159  1.00  0.00    -0.246 NA
ATOM     21  S   UNL A   1      27.851  31.310  23.009  1.00  0.00    -0.127 S 
ATOM     22  C   UNL A   1      28.902  30.014  23.408  1.00  0.00     0.091 A 
ENDBRANCH  16  17
ENDBRANCH  15  16
ENDBRANCH  14  15
ENDBRANCH  12  14
ENDBRANCH   7  12
ENDBRANCH   3   6
ENDBRANCH   1   2
BRANCH   1  23
ATOM     23  C   UNL A   1      32.415  29.428  25.853  1.00  0.00     0.042 C 
BRANCH  23  24
ATOM     24  C   UNL A   1      32.563  30.091  27.215  1.00  0.00     0.118 C 
BRANCH  24  25
ATOM     25  N   UNL A   1      32.610  31.546  27.170  1.00  0.00    -0.352 N 
ATOM     26  C   UNL A   1      33.640  32.374  27.581  1.00  0.00     0.251 C 
ATOM     27  H   UNL A   1      31.814  31.994  26.802  1.00  0.00     0.163 HD
ATOM     28  O   UNL A   1      33.516  33.585  27.580  1.00  0.00    -0.269 OA
BRANCH  26  29
ATOM     29  C   UNL A   1      34.900  31.750  28.054  1.00  0.00     0.039 A 
ATOM     30  C   UNL A   1      36.049  32.536  28.169  1.00  0.00     0.014 A 
ATOM     31  C   UNL A   1      34.922  30.410  28.445  1.00  0.00     0.014 A 
ATOM     32  C   UNL A   1      37.202  31.991  28.745  1.00  0.00     0.010 A 
ATOM     33  C   UNL A   1      36.036  29.902  29.107  1.00  0.00     0.010 A 
ATOM     34  C   UNL A   1      37.193  30.681  29.254  1.00  0.00    -0.014 A 
BRANCH  34  35
ATOM     35  C   UNL A   1      38.383  30.107  29.940  1.00  0.00     0.031 A 
ATOM     36  C   UNL A   1      38.754  30.567  31.326  1.00  0.00     0.074 A 
ATOM     37  C   UNL A   1      39.186  29.244  29.287  1.00  0.00     0.049 A 
ATOM     38  N   UNL A   1      39.772  30.212  32.067  1.00  0.00    -0.248 NA
ATOM     39  C   UNL A   1      37.892  31.587  31.944  1.00  0.00     0.031 C 
ATOM     40  C   UNL A   1      39.008  28.805  27.901  1.00  0.00     0.029 A 
ATOM     41  N   UNL A   1      40.333  28.606  29.691  1.00  0.00    -0.354 N 
ATOM     42  C   UNL A   1      39.694  30.988  33.217  1.00  0.00     0.074 A 
ATOM     43  C   UNL A   1      38.559  31.870  33.053  1.00  0.00     0.031 C 
ATOM     44  C   UNL A   1      40.007  27.971  27.572  1.00  0.00     0.029 A 
ATOM     45  C   UNL A   1      40.907  27.827  28.713  1.00  0.00     0.049 A 
ATOM     46  H   UNL A   1      40.709  28.697  30.596  1.00  0.00     0.167 HD
ATOM     47  C   UNL A   1      40.465  30.946  34.330  1.00  0.00     0.034 A 
ATOM     48  C   UNL A   1      42.029  27.080  28.731  1.00  0.00     0.034 A 
ATOM     49  C   UNL A   1      41.557  30.032  34.516  1.00  0.00     0.049 A 
ATOM     50  C   UNL A   1      42.826  26.983  30.004  1.00  0.00     0.074 A 
ATOM     51  C   UNL A   1      42.332  29.833  35.645  1.00  0.00     0.029 A 
ATOM     52  N   UNL A   1      42.037  29.165  33.545  1.00  0.00    -0.354 N 
ATOM     53  N   UNL A   1      42.621  27.584  31.151  1.00  0.00    -0.248 NA
ATOM     54  C   UNL A   1      43.980  26.072  30.001  1.00  0.00     0.031 C 
ATOM     55  C   UNL A   1      43.289  28.855  35.352  1.00  0.00     0.029 A 
ATOM     56  C   UNL A   1      43.099  28.433  34.045  1.00  0.00     0.049 A 
ATOM     57  H   UNL A   1      41.674  29.083  32.634  1.00  0.00     0.167 HD
ATOM     58  C   UNL A   1      43.602  27.105  32.013  1.00  0.00     0.074 A 
ATOM     59  C   UNL A   1      44.385  26.145  31.263  1.00  0.00     0.031 C 
ATOM     60  C   UNL A   1      43.841  27.444  33.305  1.00  0.00     0.034 A 
BRANCH  47  61
ATOM     61  C   UNL A   1      40.099  31.873  35.459  1.00  0.00     0.023 A 
ATOM     62  C   UNL A   1      40.799  33.089  35.613  1.00  0.00     0.012 A 
ATOM     63  C   UNL A   1      39.054  31.564  36.352  1.00  0.00     0.148 A 
ATOM     64  C   UNL A   1      40.500  33.957  36.661  1.00  0.00     0.002 A 
ATOM     65  C   UNL A   1      38.730  32.457  37.367  1.00  0.00     0.091 A 
ATOM     66  F   UNL A   1      38.412  30.394  36.209  1.00  0.00    -0.205 F 
ATOM     67  C   UNL A   1      39.460  33.645  37.533  1.00  0.00     0.022 A 
BRANCH  65  68
ATOM     68  S   UNL A   1      37.354  32.180  38.489  1.00  0.00     0.127 S 
ATOM     69  O   UNL A   1      37.860  32.767  39.728  1.00  0.00    -0.237 OA
ATOM     70  O   UNL A   1      36.275  32.939  37.852  1.00  0.00    -0.237 OA
ATOM     71  O   UNL A   1      37.145  30.739  38.512  1.00  0.00    -0.744 OA
ENDBRANCH  65  68
ENDBRANCH  47  61
BRANCH  48  72
ATOM     72  C   UNL A   1      42.414  26.305  27.517  1.00  0.00     0.023 A 
ATOM     73  C   UNL A   1      43.168  26.930  26.506  1.00  0.00     0.012 A 
ATOM     74  C   UNL A   1      42.093  24.939  27.391  1.00  0.00     0.148 A 
ATOM     75  C   UNL A   1      43.575  26.215  25.378  1.00  0.00     0.002 A 
ATOM     76  C   UNL A   1      42.548  24.220  26.293  1.00  0.00     0.091 A 
ATOM     77  F   UNL A   1      41.366  24.367  28.362  1.00  0.00    -0.205 F 
ATOM     78  C   UNL A   1      43.278  24.859  25.277  1.00  0.00     0.022 A 
BRANCH  76  79
ATOM     79  S   UNL A   1      42.334  22.442  26.148  1.00  0.00     0.127 S 
ATOM     80  O   UNL A   1      42.946  21.964  27.386  1.00  0.00    -0.237 OA
ATOM     81  O   UNL A   1      40.877  22.317  26.093  1.00  0.00    -0.237 OA
ATOM     82  O   UNL A   1      43.015  22.062  24.918  1.00  0.00    -0.744 OA
ENDBRANCH  76  79
ENDBRANCH  48  72
BRANCH  60  83
ATOM     83  C   UNL A   1      44.986  26.763  34.008  1.00  0.00     0.023 A 
ATOM     84  C   UNL A   1      46.264  27.355  33.994  1.00  0.00     0.012 A 
ATOM     85  C   UNL A   1      44.779  25.583  34.749  1.00  0.00     0.148 A 
ATOM     86  C   UNL A   1      47.325  26.769  34.684  1.00  0.00     0.002 A 
ATOM     87  C   UNL A   1      45.829  25.030  35.472  1.00  0.00     0.091 A 
ATOM     88  F   UNL A   1      43.560  25.024  34.735  1.00  0.00    -0.205 F 
ATOM     89  C   UNL A   1      47.104  25.615  35.432  1.00  0.00     0.022 A 
BRANCH  87  90
ATOM     90  S   UNL A   1      45.614  23.599  36.537  1.00  0.00     0.127 S 
ATOM     91  O   UNL A   1      44.950  24.187  37.698  1.00  0.00    -0.237 OA
ATOM     92  O   UNL A   1      44.763  22.729  35.724  1.00  0.00    -0.237 OA
ATOM     93  O   UNL A   1      46.953  23.076  36.778  1.00  0.00    -0.744 OA
ENDBRANCH  87  90
ENDBRANCH  60  83
ENDBRANCH  34  35
ENDBRANCH  26  29
ENDBRANCH  24  25
ENDBRANCH  23  24
ENDBRANCH   1  23
TORSDOF 18
ENDMDL
MODEL 3
REMARK VINA RESULT:     -11.1      5.021     10.191
REMARK SMILES Cc1nc(CSCC(=O)N2CCCC[C@@H]2C(=O)NCCCNC(=O)c2ccc(-c3c4nc(c(-c5cccc(S(=O)(=O)[O-])c5F)c5ccc([nH]5)c(-c5cccc(S(=O)(=O)[O-])c5F)c5nc(c(-c6cccc(S(=O)(=O)[O-])c6F)c6ccc3[nH]6)C=C5)C=C4)cc2)cs1
REMARK SMILES IDX 19 1 18 2 16 3 17 4 15 6 10 7 11 8 12 9 14 10 13 11 8 12
REMARK SMILES IDX 9 13 7 14 6 15 5 16 4 17 1 18 2 19 3 20 89 21 88 22 20 23
REMARK SMILES IDX 21 24 22 25 23 26 24 28 25 29 26 30 87 31 27 32 86 33 28 34
REMARK SMILES IDX 29 35 30 36 80 37 31 38 85 39 79 40 81 41 32 42 84 43 78 44
REMARK SMILES IDX 77 45 33 47 65 48 45 49 64 50 46 51 49 52 63 53 82 54 47 55
REMARK SMILES IDX 48 56 62 58 83 59 50 60 34 61 35 62 43 63 36 64 38 65 44 66
REMARK SMILES IDX 37 67 39 68 40 69 41 70 42 71 66 72 67 73 75 74 68 75 70 76
REMARK SMILES IDX 76 77 69 78 71 79 72 80 73 81 74 82 51 83 52 84 60 85 53 86
REMARK SMILES IDX 55 87 61 88 54 89 56 90 57 91 58 92 59 93
REMARK H PARENT 18 5 22 27 81 46 49 57
REMARK Flexibility Score: inf
ROOT
ATOM      1  C   UNL A   1      35.679  22.926  25.812  1.00  0.00     0.117 C 
ENDROOT
BRANCH   1   2
ATOM      2  N   UNL A   1      35.236  23.389  24.502  1.00  0.00    -0.354 N 
ATOM      3  C   UNL A   1      34.497  24.487  24.165  1.00  0.00     0.242 C 
ATOM      4  O   UNL A   1      34.262  24.665  22.966  1.00  0.00    -0.273 OA
ATOM      5  H   UNL A   1      35.512  22.823  23.744  1.00  0.00     0.163 HD
BRANCH   3   6
ATOM      6  C   UNL A   1      33.788  25.340  25.240  1.00  0.00     0.174 C 
ATOM      7  N   UNL A   1      32.414  24.910  25.577  1.00  0.00    -0.330 N 
ATOM      8  C   UNL A   1      31.497  25.938  26.068  1.00  0.00     0.120 C 
ATOM      9  C   UNL A   1      31.488  27.202  25.230  1.00  0.00     0.022 C 
ATOM     10  C   UNL A   1      33.856  26.761  24.606  1.00  0.00     0.035 C 
ATOM     11  C   UNL A   1      32.887  27.785  25.168  1.00  0.00     0.004 C 
BRANCH   7  12
ATOM     12  C   UNL A   1      32.026  23.608  25.894  1.00  0.00     0.233 C 
ATOM     13  O   UNL A   1      32.403  23.120  26.967  1.00  0.00    -0.274 OA
BRANCH  12  14
ATOM     14  C   UNL A   1      31.413  22.680  24.854  1.00  0.00     0.170 C 
BRANCH  14  15
ATOM     15  S   UNL A   1      32.389  21.356  24.110  1.00  0.00    -0.146 SA
BRANCH  15  16
ATOM     16  C   UNL A   1      32.447  20.117  25.424  1.00  0.00     0.127 C 
BRANCH  16  17
ATOM     17  C   UNL A   1      32.925  18.757  25.059  1.00  0.00     0.061 A 
ATOM     18  C   UNL A   1      32.345  15.213  25.737  1.00  0.00     0.079 C 
ATOM     19  C   UNL A   1      32.776  16.549  25.241  1.00  0.00     0.090 A 
ATOM     20  N   UNL A   1      32.417  17.690  25.788  1.00  0.00    -0.246 NA
ATOM     21  S   UNL A   1      33.791  16.685  23.862  1.00  0.00    -0.127 S 
ATOM     22  C   UNL A   1      33.695  18.394  23.972  1.00  0.00     0.091 A 
ENDBRANCH  16  17
ENDBRANCH  15  16
ENDBRANCH  14  15
ENDBRANCH  12  14
ENDBRANCH   7  12
ENDBRANCH   3   6
ENDBRANCH   1   2
BRANCH   1  23
ATOM     23  C   UNL A   1      36.431  21.611  25.739  1.00  0.00     0.042 C 
BRANCH  23  24
ATOM     24  C   UNL A   1      37.841  21.743  25.180  1.00  0.00     0.118 C 
BRANCH  24  25
ATOM     25  N   UNL A   1      38.768  20.722  25.650  1.00  0.00    -0.352 N 
ATOM     26  C   UNL A   1      39.915  20.902  26.402  1.00  0.00     0.251 C 
ATOM     27  H   UNL A   1      38.552  19.794  25.403  1.00  0.00     0.163 HD
ATOM     28  O   UNL A   1      40.661  19.972  26.650  1.00  0.00    -0.269 OA
BRANCH  26  29
ATOM     29  C   UNL A   1      40.237  22.268  26.883  1.00  0.00     0.039 A 
ATOM     30  C   UNL A   1      41.098  22.424  27.972  1.00  0.00     0.014 A 
ATOM     31  C   UNL A   1      39.740  23.389  26.213  1.00  0.00     0.014 A 
ATOM     32  C   UNL A   1      41.517  23.707  28.341  1.00  0.00     0.010 A 
ATOM     33  C   UNL A   1      40.236  24.652  26.519  1.00  0.00     0.010 A 
ATOM     34  C   UNL A   1      41.119  24.829  27.595  1.00  0.00    -0.014 A 
BRANCH  34  35
ATOM     35  C   UNL A   1      41.613  26.194  27.922  1.00  0.00     0.031 A 
ATOM     36  C   UNL A   1      43.033  26.583  27.605  1.00  0.00     0.074 A 
ATOM     37  C   UNL A   1      40.820  27.055  28.591  1.00  0.00     0.049 A 
ATOM     38  N   UNL A   1      43.654  27.709  27.849  1.00  0.00    -0.248 NA
ATOM     39  C   UNL A   1      43.878  25.562  26.966  1.00  0.00     0.031 C 
ATOM     40  C   UNL A   1      39.464  26.766  29.063  1.00  0.00     0.029 A 
ATOM     41  N   UNL A   1      41.051  28.340  29.019  1.00  0.00    -0.354 N 
ATOM     42  C   UNL A   1      44.965  27.519  27.429  1.00  0.00     0.074 A 
ATOM     43  C   UNL A   1      45.063  26.153  26.964  1.00  0.00     0.031 C 
ATOM     44  C   UNL A   1      38.985  27.839  29.712  1.00  0.00     0.029 A 
ATOM     45  C   UNL A   1      40.002  28.887  29.720  1.00  0.00     0.049 A 
ATOM     46  H   UNL A   1      41.890  28.823  28.840  1.00  0.00     0.167 HD
ATOM     47  C   UNL A   1      45.987  28.407  27.390  1.00  0.00     0.034 A 
ATOM     48  C   UNL A   1      39.871  30.095  30.304  1.00  0.00     0.034 A 
ATOM     49  C   UNL A   1      45.874  29.780  27.799  1.00  0.00     0.049 A 
ATOM     50  C   UNL A   1      40.987  31.096  30.177  1.00  0.00     0.074 A 
ATOM     51  C   UNL A   1      46.815  30.789  27.699  1.00  0.00     0.029 A 
ATOM     52  N   UNL A   1      44.752  30.337  28.394  1.00  0.00    -0.354 N 
ATOM     53  N   UNL A   1      42.157  30.957  29.601  1.00  0.00    -0.248 NA
ATOM     54  C   UNL A   1      40.750  32.435  30.738  1.00  0.00     0.031 C 
ATOM     55  C   UNL A   1      46.266  31.953  28.248  1.00  0.00     0.029 A 
ATOM     56  C   UNL A   1      44.976  31.674  28.673  1.00  0.00     0.049 A 
ATOM     57  H   UNL A   1      43.917  29.852  28.590  1.00  0.00     0.167 HD
ATOM     58  C   UNL A   1      42.784  32.194  29.706  1.00  0.00     0.074 A 
ATOM     59  C   UNL A   1      41.855  33.077  30.379  1.00  0.00     0.031 C 
ATOM     60  C   UNL A   1      44.026  32.557  29.298  1.00  0.00     0.034 A 
BRANCH  47  61
ATOM     61  C   UNL A   1      47.295  27.930  26.815  1.00  0.00     0.023 A 
ATOM     62  C   UNL A   1      48.345  27.570  27.687  1.00  0.00     0.012 A 
ATOM     63  C   UNL A   1      47.485  27.813  25.424  1.00  0.00     0.148 A 
ATOM     64  C   UNL A   1      49.575  27.148  27.186  1.00  0.00     0.002 A 
ATOM     65  C   UNL A   1      48.699  27.346  24.933  1.00  0.00     0.091 A 
ATOM     66  F   UNL A   1      46.487  28.182  24.606  1.00  0.00    -0.205 F 
ATOM     67  C   UNL A   1      49.749  27.028  25.810  1.00  0.00     0.022 A 
BRANCH  65  68
ATOM     68  S   UNL A   1      48.990  27.081  23.180  1.00  0.00     0.127 S 
ATOM     69  O   UNL A   1      48.461  28.315  22.602  1.00  0.00    -0.237 OA
ATOM     70  O   UNL A   1      50.448  26.957  23.121  1.00  0.00    -0.237 OA
ATOM     71  O   UNL A   1      48.268  25.863  22.839  1.00  0.00    -0.744 OA
ENDBRANCH  65  68
ENDBRANCH  47  61
BRANCH  48  72
ATOM     72  C   UNL A   1      38.595  30.443  30.992  1.00  0.00     0.023 A 
ATOM     73  C   UNL A   1      38.417  30.087  32.342  1.00  0.00     0.012 A 
ATOM     74  C   UNL A   1      37.589  31.180  30.335  1.00  0.00     0.148 A 
ATOM     75  C   UNL A   1      37.247  30.436  33.021  1.00  0.00     0.002 A 
ATOM     76  C   UNL A   1      36.453  31.571  31.032  1.00  0.00     0.091 A 
ATOM     77  F   UNL A   1      37.776  31.500  29.047  1.00  0.00    -0.205 F 
ATOM     78  C   UNL A   1      36.272  31.188  32.372  1.00  0.00     0.022 A 
BRANCH  76  79
ATOM     79  S   UNL A   1      35.211  32.658  30.321  1.00  0.00     0.127 S 
ATOM     80  O   UNL A   1      36.008  33.831  29.965  1.00  0.00    -0.237 OA
ATOM     81  O   UNL A   1      34.735  31.870  29.185  1.00  0.00    -0.237 OA
ATOM     82  O   UNL A   1      34.219  32.861  31.368  1.00  0.00    -0.744 OA
ENDBRANCH  76  79
ENDBRANCH  48  72
BRANCH  60  83
ATOM     83  C   UNL A   1      44.456  33.980  29.546  1.00  0.00     0.023 A 
ATOM     84  C   UNL A   1      45.144  34.304  30.732  1.00  0.00     0.012 A 
ATOM     85  C   UNL A   1      44.254  34.975  28.570  1.00  0.00     0.148 A 
ATOM     86  C   UNL A   1      45.599  35.603  30.955  1.00  0.00     0.002 A 
ATOM     87  C   UNL A   1      44.751  36.257  28.779  1.00  0.00     0.091 A 
ATOM     88  F   UNL A   1      43.581  34.652  27.456  1.00  0.00    -0.205 F 
ATOM     89  C   UNL A   1      45.414  36.574  29.975  1.00  0.00     0.022 A 
BRANCH  87  90
ATOM     90  S   UNL A   1      44.640  37.546  27.532  1.00  0.00     0.127 S 
ATOM     91  O   UNL A   1      45.480  37.004  26.466  1.00  0.00    -0.237 OA
ATOM     92  O   UNL A   1      43.208  37.567  27.231  1.00  0.00    -0.237 OA
ATOM     93  O   UNL A   1      45.139  38.759  28.167  1.00  0.00    -0.744 OA
ENDBRANCH  87  90
ENDBRANCH  60  83
ENDBRANCH  34  35
ENDBRANCH  26  29
ENDBRANCH  24  25
ENDBRANCH  23  24
ENDBRANCH   1  23
TORSDOF 18
ENDMDL
