MODEL 1
REMARK VINA RESULT:     -11.2      0.000      0.000
REMARK SMILES O=C(NCCCNC(=O)[C@@]1(Cl)C=CC=C(c2ccccc2)[C@H]1Cl)c1ccc(-c2c3nc(c(-c4cccc(S(=O)(=O)[O-])c4F)c4ccc([nH]4)c(-c4cccc(S(=O)(=O)[O-])c4F)c4nc(c(-c5cccc(S(=O)(=O)[O-])c5F)c5ccc2[nH]5)C=C4)C=C3)cc1
REMARK SMILES IDX 4 1 3 2 1 3 2 4 24 6 25 7 86 8 26 9 85 10 27 11 28 12 29 13
REMARK SMILES IDX 79 14 30 15 84 16 78 17 80 18 31 19 83 20 77 21 76 22 32 24
REMARK SMILES IDX 64 25 44 26 63 27 45 28 48 29 62 30 81 31 46 32 47 33 61 35
REMARK SMILES IDX 82 36 49 37 33 38 34 39 42 40 35 41 37 42 43 43 36 44 38 45
REMARK SMILES IDX 39 46 40 47 41 48 65 49 66 50 74 51 67 52 69 53 75 54 68 55
REMARK SMILES IDX 70 56 71 57 72 58 73 59 50 60 51 61 59 62 52 63 54 64 60 65
REMARK SMILES IDX 53 66 55 67 56 68 57 69 58 70 5 71 6 72 7 73 8 74 9 76 10 77
REMARK SMILES IDX 11 78 12 79 22 80 13 81 15 82 23 83 14 84 16 85 17 86 21 87
REMARK SMILES IDX 18 88 20 89 19 90
REMARK H PARENT 3 5 80 23 48 34 7 75
REMARK Flexibility Score: inf
ROOT
ATOM      1  C   UNL A   1      34.445  32.914  28.852  1.00  0.00     0.118 C 
ENDROOT
BRANCH   1   2
ATOM      2  N   UNL A   1      33.833  31.960  27.940  1.00  0.00    -0.352 N 
ATOM      3  O   UNL A   1      33.799  30.237  26.493  1.00  0.00    -0.269 OA
ATOM      4  C   UNL A   1      34.356  30.797  27.424  1.00  0.00     0.251 C 
ATOM      5  H   UNL A   1      32.916  32.178  27.652  1.00  0.00     0.163 HD
BRANCH   4   6
ATOM      6  C   UNL A   1      35.606  30.256  28.002  1.00  0.00     0.039 A 
ATOM      7  C   UNL A   1      36.798  30.327  27.276  1.00  0.00     0.014 A 
ATOM      8  C   UNL A   1      35.587  29.679  29.272  1.00  0.00     0.014 A 
ATOM      9  C   UNL A   1      37.934  29.690  27.749  1.00  0.00     0.010 A 
ATOM     10  C   UNL A   1      36.764  29.138  29.798  1.00  0.00     0.010 A 
ATOM     11  C   UNL A   1      37.941  29.128  29.034  1.00  0.00    -0.014 A 
BRANCH  11  12
ATOM     12  C   UNL A   1      39.234  28.689  29.611  1.00  0.00     0.031 A 
ATOM     13  C   UNL A   1      39.857  29.389  30.782  1.00  0.00     0.074 A 
ATOM     14  C   UNL A   1      39.853  27.645  29.023  1.00  0.00     0.049 A 
ATOM     15  N   UNL A   1      40.991  29.128  31.377  1.00  0.00    -0.248 NA
ATOM     16  C   UNL A   1      39.128  30.532  31.357  1.00  0.00     0.031 C 
ATOM     17  C   UNL A   1      39.355  26.930  27.842  1.00  0.00     0.029 A 
ATOM     18  N   UNL A   1      41.032  27.013  29.316  1.00  0.00    -0.354 N 
ATOM     19  C   UNL A   1      41.141  30.097  32.362  1.00  0.00     0.074 A 
ATOM     20  C   UNL A   1      39.973  30.948  32.295  1.00  0.00     0.031 C 
ATOM     21  C   UNL A   1      40.212  25.955  27.519  1.00  0.00     0.029 A 
ATOM     22  C   UNL A   1      41.353  26.019  28.420  1.00  0.00     0.049 A 
ATOM     23  H   UNL A   1      41.594  27.247  30.089  1.00  0.00     0.167 HD
ATOM     24  C   UNL A   1      42.160  30.250  33.237  1.00  0.00     0.034 A 
ATOM     25  C   UNL A   1      42.463  25.268  28.306  1.00  0.00     0.034 A 
ATOM     26  C   UNL A   1      43.294  29.366  33.318  1.00  0.00     0.049 A 
ATOM     27  C   UNL A   1      43.565  25.460  29.304  1.00  0.00     0.074 A 
ATOM     28  C   UNL A   1      44.320  29.369  34.247  1.00  0.00     0.029 A 
ATOM     29  N   UNL A   1      43.566  28.340  32.426  1.00  0.00    -0.354 N 
ATOM     30  N   UNL A   1      43.606  26.266  30.337  1.00  0.00    -0.248 NA
ATOM     31  C   UNL A   1      44.764  24.629  29.137  1.00  0.00     0.031 C 
ATOM     32  C   UNL A   1      45.231  28.368  33.894  1.00  0.00     0.029 A 
ATOM     33  C   UNL A   1      44.762  27.727  32.760  1.00  0.00     0.049 A 
ATOM     34  H   UNL A   1      42.993  28.085  31.666  1.00  0.00     0.167 HD
ATOM     35  C   UNL A   1      44.830  26.036  30.947  1.00  0.00     0.074 A 
ATOM     36  C   UNL A   1      45.482  24.984  30.194  1.00  0.00     0.031 C 
ATOM     37  C   UNL A   1      45.379  26.657  32.019  1.00  0.00     0.034 A 
BRANCH  24  38
ATOM     38  C   UNL A   1      42.108  31.396  34.212  1.00  0.00     0.023 A 
ATOM     39  C   UNL A   1      42.874  32.553  33.972  1.00  0.00     0.012 A 
ATOM     40  C   UNL A   1      41.203  31.375  35.293  1.00  0.00     0.148 A 
ATOM     41  C   UNL A   1      42.746  33.670  34.798  1.00  0.00     0.002 A 
ATOM     42  C   UNL A   1      41.055  32.504  36.089  1.00  0.00     0.091 A 
ATOM     43  F   UNL A   1      40.498  30.256  35.511  1.00  0.00    -0.205 F 
ATOM     44  C   UNL A   1      41.829  33.651  35.846  1.00  0.00     0.022 A 
BRANCH  42  45
ATOM     45  S   UNL A   1      39.849  32.608  37.417  1.00  0.00     0.127 S 
ATOM     46  O   UNL A   1      40.654  32.226  38.576  1.00  0.00    -0.237 OA
ATOM     47  O   UNL A   1      39.471  34.021  37.377  1.00  0.00    -0.237 OA
ATOM     48  O   UNL A   1      38.783  31.680  37.069  1.00  0.00    -0.744 OA
ENDBRANCH  42  45
ENDBRANCH  24  38
BRANCH  25  49
ATOM     49  C   UNL A   1      42.579  24.279  27.199  1.00  0.00     0.023 A 
ATOM     50  C   UNL A   1      43.307  24.608  26.042  1.00  0.00     0.012 A 
ATOM     51  C   UNL A   1      42.002  22.997  27.308  1.00  0.00     0.148 A 
ATOM     52  C   UNL A   1      43.433  23.689  24.999  1.00  0.00     0.002 A 
ATOM     53  C   UNL A   1      42.186  22.066  26.294  1.00  0.00     0.091 A 
ATOM     54  F   UNL A   1      41.295  22.706  28.409  1.00  0.00    -0.205 F 
ATOM     55  C   UNL A   1      42.885  22.416  25.129  1.00  0.00     0.022 A 
BRANCH  53  56
ATOM     56  S   UNL A   1      41.640  20.364  26.465  1.00  0.00     0.127 S 
ATOM     57  O   UNL A   1      42.134  20.022  27.796  1.00  0.00    -0.237 OA
ATOM     58  O   UNL A   1      40.186  20.494  26.362  1.00  0.00    -0.237 OA
ATOM     59  O   UNL A   1      42.252  19.652  25.350  1.00  0.00    -0.744 OA
ENDBRANCH  53  56
ENDBRANCH  25  49
BRANCH  37  60
ATOM     60  C   UNL A   1      46.754  26.218  32.438  1.00  0.00     0.023 A 
ATOM     61  C   UNL A   1      47.881  26.870  31.900  1.00  0.00     0.012 A 
ATOM     62  C   UNL A   1      46.929  25.211  33.405  1.00  0.00     0.148 A 
ATOM     63  C   UNL A   1      49.166  26.505  32.297  1.00  0.00     0.002 A 
ATOM     64  C   UNL A   1      48.211  24.886  33.833  1.00  0.00     0.091 A 
ATOM     65  F   UNL A   1      45.842  24.593  33.890  1.00  0.00    -0.205 F 
ATOM     66  C   UNL A   1      49.329  25.523  33.271  1.00  0.00     0.022 A 
BRANCH  64  67
ATOM     67  S   UNL A   1      48.518  23.699  35.144  1.00  0.00     0.127 S 
ATOM     68  O   UNL A   1      47.733  24.257  36.243  1.00  0.00    -0.237 OA
ATOM     69  O   UNL A   1      47.980  22.464  34.575  1.00  0.00    -0.237 OA
ATOM     70  O   UNL A   1      49.961  23.692  35.351  1.00  0.00    -0.744 OA
ENDBRANCH  64  67
ENDBRANCH  37  60
ENDBRANCH  11  12
ENDBRANCH   4   6
ENDBRANCH   1   2
BRANCH   1  71
ATOM     71  C   UNL A   1      33.603  34.166  29.036  1.00  0.00     0.042 C 
BRANCH  71  72
ATOM     72  C   UNL A   1      33.988  34.990  30.256  1.00  0.00     0.117 C 
BRANCH  72  73
ATOM     73  N   UNL A   1      33.371  34.462  31.459  1.00  0.00    -0.354 N 
ATOM     74  C   UNL A   1      33.949  33.948  32.580  1.00  0.00     0.247 C 
ATOM     75  H   UNL A   1      32.386  34.479  31.466  1.00  0.00     0.163 HD
ATOM     76  O   UNL A   1      33.338  33.010  33.108  1.00  0.00    -0.273 OA
BRANCH  74  77
ATOM     77  C   UNL A   1      35.295  34.472  33.143  1.00  0.00     0.161 C 
ATOM     78  Cl  UNL A   1      35.077  36.283  33.245  1.00  0.00    -0.102 Cl
ATOM     79  C   UNL A   1      35.692  34.011  34.539  1.00  0.00     0.008 C 
ATOM     80  C   UNL A   1      36.430  34.150  32.111  1.00  0.00     0.146 C 
ATOM     81  C   UNL A   1      36.975  33.944  34.928  1.00  0.00    -0.002 C 
ATOM     82  C   UNL A   1      37.825  34.334  32.694  1.00  0.00    -0.020 C 
ATOM     83  Cl  UNL A   1      36.386  32.394  31.587  1.00  0.00    -0.115 Cl
ATOM     84  C   UNL A   1      38.046  34.269  34.020  1.00  0.00     0.006 C 
BRANCH  82  85
ATOM     85  C   UNL A   1      38.956  34.461  31.767  1.00  0.00    -0.021 A 
ATOM     86  C   UNL A   1      40.259  34.398  32.282  1.00  0.00     0.008 A 
ATOM     87  C   UNL A   1      38.767  34.600  30.390  1.00  0.00     0.008 A 
ATOM     88  C   UNL A   1      41.361  34.472  31.433  1.00  0.00     0.001 A 
ATOM     89  C   UNL A   1      39.874  34.682  29.542  1.00  0.00     0.001 A 
ATOM     90  C   UNL A   1      41.168  34.616  30.063  1.00  0.00     0.000 A 
ENDBRANCH  82  85
ENDBRANCH  74  77
ENDBRANCH  72  73
ENDBRANCH  71  72
ENDBRANCH   1  71
TORSDOF 14
ENDMDL
MODEL 2
REMARK VINA RESULT:     -11.0      6.024     10.154
REMARK SMILES O=C(NCCCNC(=O)[C@@]1(Cl)C=CC=C(c2ccccc2)[C@H]1Cl)c1ccc(-c2c3nc(c(-c4cccc(S(=O)(=O)[O-])c4F)c4ccc([nH]4)c(-c4cccc(S(=O)(=O)[O-])c4F)c4nc(c(-c5cccc(S(=O)(=O)[O-])c5F)c5ccc2[nH]5)C=C4)C=C3)cc1
REMARK SMILES IDX 4 1 3 2 1 3 2 4 24 6 25 7 86 8 26 9 85 10 27 11 28 12 29 13
REMARK SMILES IDX 79 14 30 15 84 16 78 17 80 18 31 19 83 20 77 21 76 22 32 24
REMARK SMILES IDX 64 25 44 26 63 27 45 28 48 29 62 30 81 31 46 32 47 33 61 35
REMARK SMILES IDX 82 36 49 37 33 38 34 39 42 40 35 41 37 42 43 43 36 44 38 45
REMARK SMILES IDX 39 46 40 47 41 48 65 49 66 50 74 51 67 52 69 53 75 54 68 55
REMARK SMILES IDX 70 56 71 57 72 58 73 59 50 60 51 61 59 62 52 63 54 64 60 65
REMARK SMILES IDX 53 66 55 67 56 68 57 69 58 70 5 71 6 72 7 73 8 74 9 76 10 77
REMARK SMILES IDX 11 78 12 79 22 80 13 81 15 82 23 83 14 84 16 85 17 86 21 87
REMARK SMILES IDX 18 88 20 89 19 90
REMARK H PARENT 3 5 80 23 48 34 7 75
REMARK Flexibility Score: inf
ROOT
ATOM      1  C   UNL A   1      38.914  20.107  25.751  1.00  0.00     0.118 C 
ENDROOT
BRANCH   1   2
ATOM      2  N   UNL A   1      40.067  19.238  25.937  1.00  0.00    -0.352 N 
ATOM      3  O   UNL A   1      42.257  18.731  26.044  1.00  0.00    -0.269 OA
ATOM      4  C   UNL A   1      41.384  19.580  26.140  1.00  0.00     0.251 C 
ATOM      5  H   UNL A   1      39.877  18.272  25.915  1.00  0.00     0.163 HD
BRANCH   4   6
ATOM      6  C   UNL A   1      41.719  20.986  26.452  1.00  0.00     0.039 A 
ATOM      7  C   UNL A   1      41.798  21.405  27.783  1.00  0.00     0.014 A 
ATOM      8  C   UNL A   1      41.958  21.887  25.414  1.00  0.00     0.014 A 
ATOM      9  C   UNL A   1      41.965  22.749  28.075  1.00  0.00     0.010 A 
ATOM     10  C   UNL A   1      42.241  23.222  25.715  1.00  0.00     0.010 A 
ATOM     11  C   UNL A   1      42.232  23.664  27.047  1.00  0.00    -0.014 A 
BRANCH  11  12
ATOM     12  C   UNL A   1      42.661  25.036  27.409  1.00  0.00     0.031 A 
ATOM     13  C   UNL A   1      41.730  26.008  28.071  1.00  0.00     0.074 A 
ATOM     14  C   UNL A   1      43.923  25.396  27.093  1.00  0.00     0.049 A 
ATOM     15  N   UNL A   1      41.962  27.244  28.426  1.00  0.00    -0.248 NA
ATOM     16  C   UNL A   1      40.364  25.546  28.367  1.00  0.00     0.031 C 
ATOM     17  C   UNL A   1      44.890  24.540  26.396  1.00  0.00     0.029 A 
ATOM     18  N   UNL A   1      44.604  26.566  27.293  1.00  0.00    -0.354 N 
ATOM     19  C   UNL A   1      40.766  27.727  28.941  1.00  0.00     0.074 A 
ATOM     20  C   UNL A   1      39.808  26.645  28.865  1.00  0.00     0.031 C 
ATOM     21  C   UNL A   1      46.039  25.207  26.238  1.00  0.00     0.029 A 
ATOM     22  C   UNL A   1      45.870  26.557  26.754  1.00  0.00     0.049 A 
ATOM     23  H   UNL A   1      44.226  27.337  27.774  1.00  0.00     0.167 HD
ATOM     24  C   UNL A   1      40.502  28.960  29.432  1.00  0.00     0.034 A 
ATOM     25  C   UNL A   1      46.783  27.540  26.644  1.00  0.00     0.034 A 
ATOM     26  C   UNL A   1      41.481  30.011  29.540  1.00  0.00     0.049 A 
ATOM     27  C   UNL A   1      46.457  28.888  27.213  1.00  0.00     0.074 A 
ATOM     28  C   UNL A   1      41.342  31.255  30.130  1.00  0.00     0.029 A 
ATOM     29  N   UNL A   1      42.767  29.954  29.026  1.00  0.00    -0.354 N 
ATOM     30  N   UNL A   1      45.380  29.270  27.855  1.00  0.00    -0.248 NA
ATOM     31  C   UNL A   1      47.475  29.934  27.062  1.00  0.00     0.031 C 
ATOM     32  C   UNL A   1      42.533  31.963  29.941  1.00  0.00     0.029 A 
ATOM     33  C   UNL A   1      43.421  31.153  29.254  1.00  0.00     0.049 A 
ATOM     34  H   UNL A   1      43.158  29.175  28.568  1.00  0.00     0.167 HD
ATOM     35  C   UNL A   1      45.591  30.599  28.190  1.00  0.00     0.074 A 
ATOM     36  C   UNL A   1      46.918  30.943  27.720  1.00  0.00     0.031 C 
ATOM     37  C   UNL A   1      44.754  31.466  28.808  1.00  0.00     0.034 A 
BRANCH  24  38
ATOM     38  C   UNL A   1      39.112  29.259  29.925  1.00  0.00     0.023 A 
ATOM     39  C   UNL A   1      38.718  28.832  31.207  1.00  0.00     0.012 A 
ATOM     40  C   UNL A   1      38.244  30.073  29.167  1.00  0.00     0.148 A 
ATOM     41  C   UNL A   1      37.478  29.203  31.728  1.00  0.00     0.002 A 
ATOM     42  C   UNL A   1      37.027  30.469  29.706  1.00  0.00     0.091 A 
ATOM     43  F   UNL A   1      38.635  30.453  27.942  1.00  0.00    -0.205 F 
ATOM     44  C   UNL A   1      36.639  30.032  30.984  1.00  0.00     0.022 A 
BRANCH  42  45
ATOM     45  S   UNL A   1      35.907  31.593  28.863  1.00  0.00     0.127 S 
ATOM     46  O   UNL A   1      34.877  31.801  29.879  1.00  0.00    -0.237 OA
ATOM     47  O   UNL A   1      36.765  32.753  28.618  1.00  0.00    -0.237 OA
ATOM     48  O   UNL A   1      35.464  30.898  27.663  1.00  0.00    -0.744 OA
ENDBRANCH  42  45
ENDBRANCH  24  38
BRANCH  25  49
ATOM     49  C   UNL A   1      48.079  27.275  25.962  1.00  0.00     0.023 A 
ATOM     50  C   UNL A   1      49.172  26.790  26.703  1.00  0.00     0.012 A 
ATOM     51  C   UNL A   1      48.220  27.465  24.572  1.00  0.00     0.148 A 
ATOM     52  C   UNL A   1      50.392  26.528  26.077  1.00  0.00     0.002 A 
ATOM     53  C   UNL A   1      49.416  27.140  23.946  1.00  0.00     0.091 A 
ATOM     54  F   UNL A   1      47.175  27.945  23.884  1.00  0.00    -0.205 F 
ATOM     55  C   UNL A   1      50.511  26.690  24.699  1.00  0.00     0.022 A 
BRANCH  53  56
ATOM     56  S   UNL A   1      49.587  27.179  22.159  1.00  0.00     0.127 S 
ATOM     57  O   UNL A   1      48.651  26.138  21.744  1.00  0.00    -0.237 OA
ATOM     58  O   UNL A   1      49.171  28.545  21.838  1.00  0.00    -0.237 OA
ATOM     59  O   UNL A   1      50.997  26.915  21.904  1.00  0.00    -0.744 OA
ENDBRANCH  53  56
ENDBRANCH  25  49
BRANCH  37  60
ATOM     60  C   UNL A   1      45.247  32.873  29.008  1.00  0.00     0.023 A 
ATOM     61  C   UNL A   1      45.944  33.199  30.187  1.00  0.00     0.012 A 
ATOM     62  C   UNL A   1      45.076  33.848  28.008  1.00  0.00     0.148 A 
ATOM     63  C   UNL A   1      46.441  34.486  30.382  1.00  0.00     0.002 A 
ATOM     64  C   UNL A   1      45.616  35.116  28.187  1.00  0.00     0.091 A 
ATOM     65  F   UNL A   1      44.394  33.518  26.901  1.00  0.00    -0.205 F 
ATOM     66  C   UNL A   1      46.287  35.440  29.378  1.00  0.00     0.022 A 
BRANCH  64  67
ATOM     67  S   UNL A   1      45.548  36.382  26.917  1.00  0.00     0.127 S 
ATOM     68  O   UNL A   1      46.045  35.660  25.748  1.00  0.00    -0.237 OA
ATOM     69  O   UNL A   1      44.121  36.702  26.876  1.00  0.00    -0.237 OA
ATOM     70  O   UNL A   1      46.399  37.469  27.385  1.00  0.00    -0.744 OA
ENDBRANCH  64  67
ENDBRANCH  37  60
ENDBRANCH  11  12
ENDBRANCH   4   6
ENDBRANCH   1   2
BRANCH   1  71
ATOM     71  C   UNL A   1      37.768  19.408  25.037  1.00  0.00     0.042 C 
BRANCH  71  72
ATOM     72  C   UNL A   1      36.710  20.359  24.499  1.00  0.00     0.117 C 
BRANCH  72  73
ATOM     73  N   UNL A   1      35.625  20.524  25.450  1.00  0.00    -0.354 N 
ATOM     74  C   UNL A   1      35.148  21.656  26.038  1.00  0.00     0.247 C 
ATOM     75  H   UNL A   1      35.164  19.693  25.708  1.00  0.00     0.163 HD
ATOM     76  O   UNL A   1      34.761  21.524  27.206  1.00  0.00    -0.273 OA
BRANCH  74  77
ATOM     77  C   UNL A   1      35.118  23.027  25.313  1.00  0.00     0.161 C 
ATOM     78  Cl  UNL A   1      36.786  23.722  25.576  1.00  0.00    -0.102 Cl
ATOM     79  C   UNL A   1      34.895  23.013  23.807  1.00  0.00     0.008 C 
ATOM     80  C   UNL A   1      34.062  23.944  26.020  1.00  0.00     0.146 C 
ATOM     81  C   UNL A   1      34.347  24.052  23.159  1.00  0.00    -0.002 C 
ATOM     82  C   UNL A   1      33.726  25.188  25.206  1.00  0.00    -0.020 C 
ATOM     83  Cl  UNL A   1      32.455  23.088  26.224  1.00  0.00    -0.115 Cl
ATOM     84  C   UNL A   1      33.903  25.223  23.873  1.00  0.00     0.006 C 
BRANCH  82  85
ATOM     85  C   UNL A   1      33.080  26.314  25.891  1.00  0.00    -0.021 A 
ATOM     86  C   UNL A   1      31.690  26.283  26.076  1.00  0.00     0.008 A 
ATOM     87  C   UNL A   1      33.817  27.388  26.395  1.00  0.00     0.008 A 
ATOM     88  C   UNL A   1      31.042  27.311  26.757  1.00  0.00     0.001 A 
ATOM     89  C   UNL A   1      33.163  28.422  27.072  1.00  0.00     0.001 A 
ATOM     90  C   UNL A   1      31.780  28.381  27.253  1.00  0.00     0.000 A 
ENDBRANCH  82  85
ENDBRANCH  74  77
ENDBRANCH  72  73
ENDBRANCH  71  72
ENDBRANCH   1  71
TORSDOF 14
ENDMDL
MODEL 3
REMARK VINA RESULT:     -11.0      3.404      9.736
REMARK SMILES O=C(NCCCNC(=O)[C@@]1(Cl)C=CC=C(c2ccccc2)[C@H]1Cl)c1ccc(-c2c3nc(c(-c4cccc(S(=O)(=O)[O-])c4F)c4ccc([nH]4)c(-c4cccc(S(=O)(=O)[O-])c4F)c4nc(c(-c5cccc(S(=O)(=O)[O-])c5F)c5ccc2[nH]5)C=C4)C=C3)cc1
REMARK SMILES IDX 4 1 3 2 1 3 2 4 24 6 25 7 86 8 26 9 85 10 27 11 28 12 29 13
REMARK SMILES IDX 79 14 30 15 84 16 78 17 80 18 31 19 83 20 77 21 76 22 32 24
REMARK SMILES IDX 64 25 44 26 63 27 45 28 48 29 62 30 81 31 46 32 47 33 61 35
REMARK SMILES IDX 82 36 49 37 33 38 34 39 42 40 35 41 37 42 43 43 36 44 38 45
REMARK SMILES IDX 39 46 40 47 41 48 65 49 66 50 74 51 67 52 69 53 75 54 68 55
REMARK SMILES IDX 70 56 71 57 72 58 73 59 50 60 51 61 59 62 52 63 54 64 60 65
REMARK SMILES IDX 53 66 55 67 56 68 57 69 58 70 5 71 6 72 7 73 8 74 9 76 10 77
REMARK SMILES IDX 11 78 12 79 22 80 13 81 15 82 23 83 14 84 16 85 17 86 21 87
REMARK SMILES IDX 18 88 20 89 19 90
REMARK H PARENT 3 5 80 23 48 34 7 75
REMARK Flexibility Score: inf
ROOT
ATOM      1  C   UNL A   1      32.759  32.612  26.892  1.00  0.00     0.118 C 
ENDROOT
BRANCH   1   2
ATOM      2  N   UNL A   1      32.634  33.930  27.496  1.00  0.00    -0.352 N 
ATOM      3  O   UNL A   1      32.908  35.486  29.099  1.00  0.00    -0.269 OA
ATOM      4  C   UNL A   1      33.299  34.450  28.582  1.00  0.00     0.251 C 
ATOM      5  H   UNL A   1      31.984  34.533  27.067  1.00  0.00     0.163 HD
BRANCH   4   6
ATOM      6  C   UNL A   1      34.472  33.727  29.119  1.00  0.00     0.039 A 
ATOM      7  C   UNL A   1      35.762  34.189  28.846  1.00  0.00     0.014 A 
ATOM      8  C   UNL A   1      34.283  32.585  29.899  1.00  0.00     0.014 A 
ATOM      9  C   UNL A   1      36.861  33.433  29.220  1.00  0.00     0.010 A 
ATOM     10  C   UNL A   1      35.395  31.886  30.374  1.00  0.00     0.010 A 
ATOM     11  C   UNL A   1      36.691  32.297  30.026  1.00  0.00    -0.014 A 
BRANCH  11  12
ATOM     12  C   UNL A   1      37.890  31.663  30.623  1.00  0.00     0.031 A 
ATOM     13  C   UNL A   1      38.697  30.640  29.881  1.00  0.00     0.074 A 
ATOM     14  C   UNL A   1      38.219  32.020  31.882  1.00  0.00     0.049 A 
ATOM     15  N   UNL A   1      39.756  29.988  30.285  1.00  0.00    -0.248 NA
ATOM     16  C   UNL A   1      38.263  30.290  28.518  1.00  0.00     0.031 C 
ATOM     17  C   UNL A   1      37.465  32.968  32.710  1.00  0.00     0.029 A 
ATOM     18  N   UNL A   1      39.250  31.624  32.692  1.00  0.00    -0.354 N 
ATOM     19  C   UNL A   1      40.089  29.118  29.254  1.00  0.00     0.074 A 
ATOM     20  C   UNL A   1      39.126  29.333  28.195  1.00  0.00     0.031 C 
ATOM     21  C   UNL A   1      38.062  33.088  33.902  1.00  0.00     0.029 A 
ATOM     22  C   UNL A   1      39.195  32.176  33.951  1.00  0.00     0.049 A 
ATOM     23  H   UNL A   1      39.959  31.005  32.403  1.00  0.00     0.167 HD
ATOM     24  C   UNL A   1      41.108  28.230  29.204  1.00  0.00     0.034 A 
ATOM     25  C   UNL A   1      39.946  31.944  35.043  1.00  0.00     0.034 A 
ATOM     26  C   UNL A   1      42.083  28.062  30.251  1.00  0.00     0.049 A 
ATOM     27  C   UNL A   1      41.074  30.962  34.942  1.00  0.00     0.074 A 
ATOM     28  C   UNL A   1      43.220  27.272  30.245  1.00  0.00     0.029 A 
ATOM     29  N   UNL A   1      42.025  28.670  31.495  1.00  0.00    -0.354 N 
ATOM     30  N   UNL A   1      41.479  30.280  33.898  1.00  0.00    -0.248 NA
ATOM     31  C   UNL A   1      41.861  30.730  36.160  1.00  0.00     0.031 C 
ATOM     32  C   UNL A   1      43.828  27.375  31.500  1.00  0.00     0.029 A 
ATOM     33  C   UNL A   1      43.085  28.247  32.279  1.00  0.00     0.049 A 
ATOM     34  H   UNL A   1      41.333  29.310  31.779  1.00  0.00     0.167 HD
ATOM     35  C   UNL A   1      42.571  29.542  34.329  1.00  0.00     0.074 A 
ATOM     36  C   UNL A   1      42.792  29.895  35.718  1.00  0.00     0.031 C 
ATOM     37  C   UNL A   1      43.309  28.635  33.647  1.00  0.00     0.034 A 
BRANCH  24  38
ATOM     38  C   UNL A   1      41.261  27.376  27.975  1.00  0.00     0.023 A 
ATOM     39  C   UNL A   1      41.817  27.928  26.805  1.00  0.00     0.012 A 
ATOM     40  C   UNL A   1      40.974  25.996  28.022  1.00  0.00     0.148 A 
ATOM     41  C   UNL A   1      42.079  27.122  25.696  1.00  0.00     0.002 A 
ATOM     42  C   UNL A   1      41.271  25.193  26.928  1.00  0.00     0.091 A 
ATOM     43  F   UNL A   1      40.430  25.496  29.141  1.00  0.00    -0.205 F 
ATOM     44  C   UNL A   1      41.818  25.755  25.763  1.00  0.00     0.022 A 
BRANCH  42  45
ATOM     45  S   UNL A   1      41.044  23.410  26.937  1.00  0.00     0.127 S 
ATOM     46  O   UNL A   1      39.590  23.298  26.836  1.00  0.00    -0.237 OA
ATOM     47  O   UNL A   1      41.773  23.003  25.735  1.00  0.00    -0.237 OA
ATOM     48  O   UNL A   1      41.617  22.937  28.189  1.00  0.00    -0.744 OA
ENDBRANCH  42  45
ENDBRANCH  24  38
BRANCH  25  49
ATOM     49  C   UNL A   1      39.642  32.653  36.316  1.00  0.00     0.023 A 
ATOM     50  C   UNL A   1      40.304  33.855  36.622  1.00  0.00     0.012 A 
ATOM     51  C   UNL A   1      38.668  32.158  37.207  1.00  0.00     0.148 A 
ATOM     52  C   UNL A   1      40.024  34.537  37.807  1.00  0.00     0.002 A 
ATOM     53  C   UNL A   1      38.348  32.876  38.352  1.00  0.00     0.091 A 
ATOM     54  F   UNL A   1      38.060  31.001  36.910  1.00  0.00    -0.205 F 
ATOM     55  C   UNL A   1      39.039  34.056  38.665  1.00  0.00     0.022 A 
BRANCH  53  56
ATOM     56  S   UNL A   1      36.985  32.394  39.418  1.00  0.00     0.127 S 
ATOM     57  O   UNL A   1      37.110  33.347  40.517  1.00  0.00    -0.237 OA
ATOM     58  O   UNL A   1      35.825  32.602  38.550  1.00  0.00    -0.237 OA
ATOM     59  O   UNL A   1      37.234  30.996  39.748  1.00  0.00    -0.744 OA
ENDBRANCH  53  56
ENDBRANCH  25  49
BRANCH  37  60
ATOM     60  C   UNL A   1      44.424  27.955  34.394  1.00  0.00     0.023 A 
ATOM     61  C   UNL A   1      45.696  28.558  34.435  1.00  0.00     0.012 A 
ATOM     62  C   UNL A   1      44.197  26.760  35.102  1.00  0.00     0.148 A 
ATOM     63  C   UNL A   1      46.737  27.966  35.148  1.00  0.00     0.002 A 
ATOM     64  C   UNL A   1      45.226  26.201  35.851  1.00  0.00     0.091 A 
ATOM     65  F   UNL A   1      42.982  26.195  35.034  1.00  0.00    -0.205 F 
ATOM     66  C   UNL A   1      46.498  26.796  35.864  1.00  0.00     0.022 A 
BRANCH  64  67
ATOM     67  S   UNL A   1      44.992  24.746  36.877  1.00  0.00     0.127 S 
ATOM     68  O   UNL A   1      43.950  25.195  37.798  1.00  0.00    -0.237 OA
ATOM     69  O   UNL A   1      44.555  23.748  35.901  1.00  0.00    -0.237 OA
ATOM     70  O   UNL A   1      46.286  24.472  37.487  1.00  0.00    -0.744 OA
ENDBRANCH  64  67
ENDBRANCH  37  60
ENDBRANCH  11  12
ENDBRANCH   4   6
ENDBRANCH   1   2
BRANCH   1  71
ATOM     71  C   UNL A   1      31.415  32.023  26.497  1.00  0.00     0.042 C 
BRANCH  71  72
ATOM     72  C   UNL A   1      31.414  30.505  26.402  1.00  0.00     0.117 C 
BRANCH  72  73
ATOM     73  N   UNL A   1      31.808  30.065  25.075  1.00  0.00    -0.354 N 
ATOM     74  C   UNL A   1      32.721  29.125  24.705  1.00  0.00     0.247 C 
ATOM     75  H   UNL A   1      31.345  30.514  24.331  1.00  0.00     0.163 HD
ATOM     76  O   UNL A   1      33.353  29.378  23.673  1.00  0.00    -0.273 OA
BRANCH  74  77
ATOM     77  C   UNL A   1      32.980  27.839  25.533  1.00  0.00     0.161 C 
ATOM     78  Cl  UNL A   1      34.059  28.383  26.902  1.00  0.00    -0.102 Cl
ATOM     79  C   UNL A   1      31.773  27.173  26.180  1.00  0.00     0.008 C 
ATOM     80  C   UNL A   1      33.762  26.816  24.639  1.00  0.00     0.146 C 
ATOM     81  C   UNL A   1      31.749  25.860  26.457  1.00  0.00    -0.002 C 
ATOM     82  C   UNL A   1      33.792  25.416  25.236  1.00  0.00    -0.020 C 
ATOM     83  Cl  UNL A   1      32.957  26.596  23.007  1.00  0.00    -0.115 Cl
ATOM     84  C   UNL A   1      32.858  25.006  26.113  1.00  0.00     0.006 C 
BRANCH  82  85
ATOM     85  C   UNL A   1      34.797  24.468  24.738  1.00  0.00    -0.021 A 
ATOM     86  C   UNL A   1      35.802  24.031  25.613  1.00  0.00     0.008 A 
ATOM     87  C   UNL A   1      34.751  23.963  23.437  1.00  0.00     0.008 A 
ATOM     88  C   UNL A   1      36.751  23.101  25.195  1.00  0.00     0.001 A 
ATOM     89  C   UNL A   1      35.708  23.036  23.018  1.00  0.00     0.001 A 
ATOM     90  C   UNL A   1      36.704  22.605  23.896  1.00  0.00     0.000 A 
ENDBRANCH  82  85
ENDBRANCH  74  77
ENDBRANCH  72  73
ENDBRANCH  71  72
ENDBRANCH   1  71
TORSDOF 14
ENDMDL
