MODEL 1
REMARK VINA RESULT:     -11.3      0.000      0.000
REMARK SMILES Cc1n[nH]c(CN(C)C(=O)N[C@](C)(C(=O)NCCCNC(=O)c2ccc(-c3c4nc(c(-c5cccc(S(=O)(=O)[O-])c5F)c5ccc([nH]5)c(-c5cccc(S(=O)(=O)[O-])c5F)c5nc(c(-c6cccc(S(=O)(=O)[O-])c6F)c6ccc3[nH]6)C=C5)C=C4)cc2)C(F)(F)F)n1
REMARK SMILES IDX 17 1 16 2 14 3 15 4 12 6 13 7 11 8 9 9 10 10 7 12 8 13 6 14
REMARK SMILES IDX 5 15 1 16 2 17 3 18 90 19 4 20 86 22 87 23 88 24 89 25 18 26
REMARK SMILES IDX 19 27 20 28 21 29 22 31 23 32 24 33 85 34 25 35 84 36 26 37
REMARK SMILES IDX 27 38 28 39 78 40 29 41 83 42 77 43 79 44 30 45 82 46 76 47
REMARK SMILES IDX 75 48 31 50 63 51 43 52 62 53 44 54 47 55 61 56 80 57 45 58
REMARK SMILES IDX 46 59 60 61 81 62 48 63 32 64 33 65 41 66 34 67 36 68 42 69
REMARK SMILES IDX 35 70 37 71 38 72 39 73 40 74 64 75 65 76 73 77 66 78 68 79
REMARK SMILES IDX 74 80 67 81 69 82 70 83 71 84 72 85 49 86 50 87 58 88 51 89
REMARK SMILES IDX 53 90 59 91 52 92 54 93 55 94 56 95 57 96
REMARK H PARENT 16 5 11 11 4 21 20 30 79 49 47 60
REMARK Flexibility Score: inf
ROOT
ATOM      1  C   UNL A   1      36.556  20.832  25.138  1.00  0.00     0.117 C 
ENDROOT
BRANCH   1   2
ATOM      2  N   UNL A   1      35.197  20.349  24.894  1.00  0.00    -0.354 N 
ATOM      3  C   UNL A   1      33.983  20.992  24.843  1.00  0.00     0.255 C 
ATOM      4  O   UNL A   1      33.034  20.327  24.427  1.00  0.00    -0.272 OA
ATOM      5  H   UNL A   1      35.141  19.379  24.737  1.00  0.00     0.163 HD
BRANCH   3   6
ATOM      6  C   UNL A   1      33.810  22.425  25.398  1.00  0.00     0.213 C 
ATOM      7  C   UNL A   1      35.045  23.193  24.924  1.00  0.00     0.056 C 
BRANCH   6   8
ATOM      8  N   UNL A   1      32.448  22.873  24.939  1.00  0.00    -0.316 N 
ATOM      9  C   UNL A   1      31.781  23.535  23.995  1.00  0.00     0.318 C 
ATOM     10  O   UNL A   1      30.563  23.625  24.199  1.00  0.00    -0.249 OA
ATOM     11  H   UNL A   1      31.791  22.548  25.596  1.00  0.00     0.166 HD
BRANCH   9  12
ATOM     12  N   UNL A   1      32.321  24.017  22.849  1.00  0.00    -0.320 N 
ATOM     13  C   UNL A   1      33.178  23.323  21.917  1.00  0.00     0.149 C 
BRANCH  12  14
ATOM     14  C   UNL A   1      32.129  25.442  22.579  1.00  0.00     0.197 C 
BRANCH  14  15
ATOM     15  C   UNL A   1      32.375  26.284  23.786  1.00  0.00     0.144 A 
ATOM     16  C   UNL A   1      34.050  28.028  26.368  1.00  0.00     0.092 C 
ATOM     17  C   UNL A   1      33.106  27.371  25.442  1.00  0.00     0.147 A 
ATOM     18  N   UNL A   1      31.780  27.438  25.612  1.00  0.00    -0.159 NA
ATOM     19  N   UNL A   1      33.512  26.656  24.343  1.00  0.00    -0.215 NA
ATOM     20  N   UNL A   1      31.341  26.780  24.529  1.00  0.00    -0.262 N 
ATOM     21  H   UNL A   1      30.390  26.669  24.297  1.00  0.00     0.192 HD
ENDBRANCH  14  15
ENDBRANCH  12  14
ENDBRANCH   9  12
ENDBRANCH   6   8
BRANCH   6  22
ATOM     22  C   UNL A   1      33.829  22.345  26.939  1.00  0.00     0.420 C 
ATOM     23  F   UNL A   1      32.824  23.013  27.536  1.00  0.00    -0.168 F 
ATOM     24  F   UNL A   1      33.707  21.043  27.330  1.00  0.00    -0.168 F 
ATOM     25  F   UNL A   1      35.005  22.776  27.456  1.00  0.00    -0.168 F 
ENDBRANCH   6  22
ENDBRANCH   3   6
ENDBRANCH   1   2
BRANCH   1  26
ATOM     26  C   UNL A   1      37.654  19.771  25.062  1.00  0.00     0.042 C 
BRANCH  26  27
ATOM     27  C   UNL A   1      38.993  20.275  25.555  1.00  0.00     0.118 C 
BRANCH  27  28
ATOM     28  N   UNL A   1      40.007  19.225  25.624  1.00  0.00    -0.352 N 
ATOM     29  C   UNL A   1      41.337  19.349  25.986  1.00  0.00     0.251 C 
ATOM     30  H   UNL A   1      39.708  18.318  25.384  1.00  0.00     0.163 HD
ATOM     31  O   UNL A   1      42.132  18.460  25.744  1.00  0.00    -0.269 OA
BRANCH  29  32
ATOM     32  C   UNL A   1      41.771  20.599  26.642  1.00  0.00     0.039 A 
ATOM     33  C   UNL A   1      42.369  21.617  25.896  1.00  0.00     0.014 A 
ATOM     34  C   UNL A   1      41.520  20.768  28.000  1.00  0.00     0.014 A 
ATOM     35  C   UNL A   1      42.631  22.838  26.513  1.00  0.00     0.010 A 
ATOM     36  C   UNL A   1      41.628  22.015  28.562  1.00  0.00     0.010 A 
ATOM     37  C   UNL A   1      42.232  23.042  27.843  1.00  0.00    -0.014 A 
BRANCH  37  38
ATOM     38  C   UNL A   1      42.346  24.362  28.456  1.00  0.00     0.031 A 
ATOM     39  C   UNL A   1      41.205  25.283  28.195  1.00  0.00     0.074 A 
ATOM     40  C   UNL A   1      43.291  24.668  29.373  1.00  0.00     0.049 A 
ATOM     41  N   UNL A   1      41.225  26.402  27.547  1.00  0.00    -0.248 NA
ATOM     42  C   UNL A   1      39.858  24.855  28.605  1.00  0.00     0.031 C 
ATOM     43  C   UNL A   1      44.284  23.772  29.983  1.00  0.00     0.029 A 
ATOM     44  N   UNL A   1      43.459  25.821  30.076  1.00  0.00    -0.354 N 
ATOM     45  C   UNL A   1      39.940  26.931  27.667  1.00  0.00     0.074 A 
ATOM     46  C   UNL A   1      39.107  25.863  28.158  1.00  0.00     0.031 C 
ATOM     47  C   UNL A   1      44.739  24.321  31.128  1.00  0.00     0.029 A 
ATOM     48  C   UNL A   1      44.223  25.671  31.229  1.00  0.00     0.049 A 
ATOM     49  H   UNL A   1      43.074  26.683  29.795  1.00  0.00     0.167 HD
ATOM     50  C   UNL A   1      39.707  28.271  27.585  1.00  0.00     0.034 A 
ATOM     51  C   UNL A   1      44.385  26.578  32.220  1.00  0.00     0.034 A 
ATOM     52  C   UNL A   1      40.832  28.975  27.027  1.00  0.00     0.049 A 
ATOM     53  C   UNL A   1      44.039  27.902  31.661  1.00  0.00     0.074 A 
ATOM     54  C   UNL A   1      41.541  28.908  25.845  1.00  0.00     0.029 A 
ATOM     55  N   UNL A   1      41.628  29.667  27.905  1.00  0.00    -0.354 N 
ATOM     56  N   UNL A   1      44.731  28.495  30.730  1.00  0.00    -0.248 NA
ATOM     57  C   UNL A   1      42.686  28.396  31.850  1.00  0.00     0.031 C 
ATOM     58  C   UNL A   1      42.899  29.125  26.222  1.00  0.00     0.029 A 
ATOM     59  C   UNL A   1      42.929  29.373  27.597  1.00  0.00     0.049 A 
ATOM     60  H   UNL A   1      41.320  30.266  28.623  1.00  0.00     0.167 HD
ATOM     61  C   UNL A   1      43.775  29.095  29.922  1.00  0.00     0.074 A 
ATOM     62  C   UNL A   1      42.557  29.112  30.730  1.00  0.00     0.031 C 
ATOM     63  C   UNL A   1      43.983  29.253  28.581  1.00  0.00     0.034 A 
BRANCH  50  64
ATOM     64  C   UNL A   1      38.612  29.003  28.324  1.00  0.00     0.023 A 
ATOM     65  C   UNL A   1      37.753  29.836  27.571  1.00  0.00     0.012 A 
ATOM     66  C   UNL A   1      38.546  29.125  29.730  1.00  0.00     0.148 A 
ATOM     67  C   UNL A   1      36.903  30.763  28.184  1.00  0.00     0.002 A 
ATOM     68  C   UNL A   1      37.635  29.981  30.337  1.00  0.00     0.091 A 
ATOM     69  F   UNL A   1      39.460  28.521  30.496  1.00  0.00    -0.205 F 
ATOM     70  C   UNL A   1      36.833  30.827  29.569  1.00  0.00     0.022 A 
BRANCH  68  71
ATOM     71  S   UNL A   1      37.457  30.042  32.125  1.00  0.00     0.127 S 
ATOM     72  O   UNL A   1      37.229  28.637  32.444  1.00  0.00    -0.237 OA
ATOM     73  O   UNL A   1      38.757  30.571  32.538  1.00  0.00    -0.237 OA
ATOM     74  O   UNL A   1      36.343  30.950  32.368  1.00  0.00    -0.744 OA
ENDBRANCH  68  71
ENDBRANCH  50  64
BRANCH  51  75
ATOM     75  C   UNL A   1      44.602  26.366  33.667  1.00  0.00     0.023 A 
ATOM     76  C   UNL A   1      45.883  26.574  34.216  1.00  0.00     0.012 A 
ATOM     77  C   UNL A   1      43.508  26.238  34.551  1.00  0.00     0.148 A 
ATOM     78  C   UNL A   1      46.062  26.691  35.599  1.00  0.00     0.002 A 
ATOM     79  C   UNL A   1      43.692  26.352  35.926  1.00  0.00     0.091 A 
ATOM     80  F   UNL A   1      42.277  26.101  34.039  1.00  0.00    -0.205 F 
ATOM     81  C   UNL A   1      44.968  26.592  36.453  1.00  0.00     0.022 A 
BRANCH  79  82
ATOM     82  S   UNL A   1      42.323  26.267  37.089  1.00  0.00     0.127 S 
ATOM     83  O   UNL A   1      43.011  26.380  38.375  1.00  0.00    -0.237 OA
ATOM     84  O   UNL A   1      41.533  27.436  36.711  1.00  0.00    -0.237 OA
ATOM     85  O   UNL A   1      41.689  24.974  36.859  1.00  0.00    -0.744 OA
ENDBRANCH  79  82
ENDBRANCH  51  75
BRANCH  63  86
ATOM     86  C   UNL A   1      45.373  29.009  28.041  1.00  0.00     0.023 A 
ATOM     87  C   UNL A   1      46.388  29.988  28.097  1.00  0.00     0.012 A 
ATOM     88  C   UNL A   1      45.711  27.710  27.628  1.00  0.00     0.148 A 
ATOM     89  C   UNL A   1      47.702  29.684  27.726  1.00  0.00     0.002 A 
ATOM     90  C   UNL A   1      47.026  27.398  27.307  1.00  0.00     0.091 A 
ATOM     91  F   UNL A   1      44.738  26.786  27.583  1.00  0.00    -0.205 F 
ATOM     92  C   UNL A   1      48.024  28.384  27.345  1.00  0.00     0.022 A 
BRANCH  90  93
ATOM     93  S   UNL A   1      47.526  25.715  26.936  1.00  0.00     0.127 S 
ATOM     94  O   UNL A   1      46.966  24.973  28.063  1.00  0.00    -0.237 OA
ATOM     95  O   UNL A   1      46.870  25.464  25.652  1.00  0.00    -0.237 OA
ATOM     96  O   UNL A   1      48.983  25.739  26.861  1.00  0.00    -0.744 OA
ENDBRANCH  90  93
ENDBRANCH  63  86
ENDBRANCH  37  38
ENDBRANCH  29  32
ENDBRANCH  27  28
ENDBRANCH  26  27
ENDBRANCH   1  26
TORSDOF 18
ENDMDL
MODEL 2
REMARK VINA RESULT:     -11.2      3.054      7.890
REMARK SMILES Cc1n[nH]c(CN(C)C(=O)N[C@](C)(C(=O)NCCCNC(=O)c2ccc(-c3c4nc(c(-c5cccc(S(=O)(=O)[O-])c5F)c5ccc([nH]5)c(-c5cccc(S(=O)(=O)[O-])c5F)c5nc(c(-c6cccc(S(=O)(=O)[O-])c6F)c6ccc3[nH]6)C=C5)C=C4)cc2)C(F)(F)F)n1
REMARK SMILES IDX 17 1 16 2 14 3 15 4 12 6 13 7 11 8 9 9 10 10 7 12 8 13 6 14
REMARK SMILES IDX 5 15 1 16 2 17 3 18 90 19 4 20 86 22 87 23 88 24 89 25 18 26
REMARK SMILES IDX 19 27 20 28 21 29 22 31 23 32 24 33 85 34 25 35 84 36 26 37
REMARK SMILES IDX 27 38 28 39 78 40 29 41 83 42 77 43 79 44 30 45 82 46 76 47
REMARK SMILES IDX 75 48 31 50 63 51 43 52 62 53 44 54 47 55 61 56 80 57 45 58
REMARK SMILES IDX 46 59 60 61 81 62 48 63 32 64 33 65 41 66 34 67 36 68 42 69
REMARK SMILES IDX 35 70 37 71 38 72 39 73 40 74 64 75 65 76 73 77 66 78 68 79
REMARK SMILES IDX 74 80 67 81 69 82 70 83 71 84 72 85 49 86 50 87 58 88 51 89
REMARK SMILES IDX 53 90 59 91 52 92 54 93 55 94 56 95 57 96
REMARK H PARENT 16 5 11 11 4 21 20 30 79 49 47 60
REMARK Flexibility Score: inf
ROOT
ATOM      1  C   UNL A   1      33.166  29.407  26.131  1.00  0.00     0.117 C 
ENDROOT
BRANCH   1   2
ATOM      2  N   UNL A   1      31.940  28.802  25.609  1.00  0.00    -0.354 N 
ATOM      3  C   UNL A   1      31.681  27.572  25.055  1.00  0.00     0.255 C 
ATOM      4  O   UNL A   1      30.494  27.293  24.883  1.00  0.00    -0.272 OA
ATOM      5  H   UNL A   1      31.152  29.388  25.667  1.00  0.00     0.163 HD
BRANCH   3   6
ATOM      6  C   UNL A   1      32.826  26.656  24.561  1.00  0.00     0.213 C 
ATOM      7  C   UNL A   1      33.885  26.704  25.663  1.00  0.00     0.056 C 
BRANCH   6   8
ATOM      8  N   UNL A   1      32.174  25.341  24.228  1.00  0.00    -0.316 N 
ATOM      9  C   UNL A   1      32.389  24.044  24.010  1.00  0.00     0.318 C 
ATOM     10  O   UNL A   1      31.375  23.405  23.699  1.00  0.00    -0.249 OA
ATOM     11  H   UNL A   1      31.207  25.503  24.133  1.00  0.00     0.166 HD
BRANCH   9  12
ATOM     12  N   UNL A   1      33.574  23.410  24.181  1.00  0.00    -0.320 N 
ATOM     13  C   UNL A   1      34.655  23.287  23.233  1.00  0.00     0.149 C 
BRANCH  12  14
ATOM     14  C   UNL A   1      33.739  22.645  25.418  1.00  0.00     0.197 C 
BRANCH  14  15
ATOM     15  C   UNL A   1      33.489  21.187  25.219  1.00  0.00     0.144 A 
ATOM     16  C   UNL A   1      34.023  17.768  24.485  1.00  0.00     0.092 C 
ATOM     17  C   UNL A   1      33.514  19.117  24.804  1.00  0.00     0.147 A 
ATOM     18  N   UNL A   1      32.219  19.349  25.050  1.00  0.00    -0.159 NA
ATOM     19  N   UNL A   1      34.324  20.223  24.879  1.00  0.00    -0.215 NA
ATOM     20  N   UNL A   1      32.238  20.656  25.352  1.00  0.00    -0.262 N 
ATOM     21  H   UNL A   1      31.446  21.170  25.636  1.00  0.00     0.192 HD
ENDBRANCH  14  15
ENDBRANCH  12  14
ENDBRANCH   9  12
ENDBRANCH   6   8
BRANCH   6  22
ATOM     22  C   UNL A   1      33.411  27.276  23.275  1.00  0.00     0.420 C 
ATOM     23  F   UNL A   1      33.865  26.372  22.386  1.00  0.00    -0.168 F 
ATOM     24  F   UNL A   1      32.443  27.991  22.631  1.00  0.00    -0.168 F 
ATOM     25  F   UNL A   1      34.404  28.159  23.542  1.00  0.00    -0.168 F 
ENDBRANCH   6  22
ENDBRANCH   3   6
ENDBRANCH   1   2
BRANCH   1  26
ATOM     26  C   UNL A   1      32.979  30.351  27.318  1.00  0.00     0.042 C 
BRANCH  26  27
ATOM     27  C   UNL A   1      34.166  31.265  27.535  1.00  0.00     0.118 C 
BRANCH  27  28
ATOM     28  N   UNL A   1      34.128  31.953  28.823  1.00  0.00    -0.352 N 
ATOM     29  C   UNL A   1      35.025  31.847  29.871  1.00  0.00     0.251 C 
ATOM     30  H   UNL A   1      33.372  32.568  28.963  1.00  0.00     0.163 HD
ATOM     31  O   UNL A   1      34.738  32.261  30.979  1.00  0.00    -0.269 OA
BRANCH  29  32
ATOM     32  C   UNL A   1      36.324  31.192  29.618  1.00  0.00     0.039 A 
ATOM     33  C   UNL A   1      37.483  31.957  29.466  1.00  0.00     0.014 A 
ATOM     34  C   UNL A   1      36.383  29.802  29.595  1.00  0.00     0.014 A 
ATOM     35  C   UNL A   1      38.711  31.307  29.378  1.00  0.00     0.010 A 
ATOM     36  C   UNL A   1      37.599  29.172  29.669  1.00  0.00     0.010 A 
ATOM     37  C   UNL A   1      38.767  29.910  29.507  1.00  0.00    -0.014 A 
BRANCH  37  38
ATOM     38  C   UNL A   1      40.054  29.225  29.583  1.00  0.00     0.031 A 
ATOM     39  C   UNL A   1      40.572  28.999  30.962  1.00  0.00     0.074 A 
ATOM     40  C   UNL A   1      40.638  28.635  28.517  1.00  0.00     0.049 A 
ATOM     41  N   UNL A   1      41.643  29.490  31.494  1.00  0.00    -0.248 NA
ATOM     42  C   UNL A   1      39.742  28.226  31.899  1.00  0.00     0.031 C 
ATOM     43  C   UNL A   1      40.096  28.483  27.159  1.00  0.00     0.029 A 
ATOM     44  N   UNL A   1      41.782  27.901  28.465  1.00  0.00    -0.354 N 
ATOM     45  C   UNL A   1      41.742  28.904  32.755  1.00  0.00     0.074 A 
ATOM     46  C   UNL A   1      40.465  28.291  33.018  1.00  0.00     0.031 C 
ATOM     47  C   UNL A   1      40.755  27.492  26.522  1.00  0.00     0.029 A 
ATOM     48  C   UNL A   1      41.874  27.082  27.344  1.00  0.00     0.049 A 
ATOM     49  H   UNL A   1      42.481  27.945  29.157  1.00  0.00     0.167 HD
ATOM     50  C   UNL A   1      42.942  28.757  33.384  1.00  0.00     0.034 A 
ATOM     51  C   UNL A   1      42.782  26.102  27.127  1.00  0.00     0.034 A 
ATOM     52  C   UNL A   1      43.965  29.567  32.778  1.00  0.00     0.049 A 
ATOM     53  C   UNL A   1      43.934  26.368  28.015  1.00  0.00     0.074 A 
ATOM     54  C   UNL A   1      44.129  30.914  32.528  1.00  0.00     0.029 A 
ATOM     55  N   UNL A   1      44.869  28.922  31.970  1.00  0.00    -0.354 N 
ATOM     56  N   UNL A   1      44.717  27.401  27.890  1.00  0.00    -0.248 NA
ATOM     57  C   UNL A   1      43.977  25.699  29.303  1.00  0.00     0.031 C 
ATOM     58  C   UNL A   1      44.759  30.975  31.251  1.00  0.00     0.029 A 
ATOM     59  C   UNL A   1      44.998  29.665  30.827  1.00  0.00     0.049 A 
ATOM     60  H   UNL A   1      45.338  28.081  32.175  1.00  0.00     0.167 HD
ATOM     61  C   UNL A   1      44.991  27.785  29.195  1.00  0.00     0.074 A 
ATOM     62  C   UNL A   1      44.622  26.630  30.011  1.00  0.00     0.031 C 
ATOM     63  C   UNL A   1      45.211  29.095  29.514  1.00  0.00     0.034 A 
BRANCH  50  64
ATOM     64  C   UNL A   1      43.291  27.627  34.325  1.00  0.00     0.023 A 
ATOM     65  C   UNL A   1      43.582  27.955  35.668  1.00  0.00     0.012 A 
ATOM     66  C   UNL A   1      43.603  26.314  33.906  1.00  0.00     0.148 A 
ATOM     67  C   UNL A   1      44.184  27.037  36.536  1.00  0.00     0.002 A 
ATOM     68  C   UNL A   1      44.116  25.377  34.797  1.00  0.00     0.091 A 
ATOM     69  F   UNL A   1      43.542  25.993  32.611  1.00  0.00    -0.205 F 
ATOM     70  C   UNL A   1      44.439  25.742  36.105  1.00  0.00     0.022 A 
BRANCH  68  71
ATOM     71  S   UNL A   1      44.390  23.671  34.303  1.00  0.00     0.127 S 
ATOM     72  O   UNL A   1      45.350  23.832  33.216  1.00  0.00    -0.237 OA
ATOM     73  O   UNL A   1      44.932  23.087  35.530  1.00  0.00    -0.237 OA
ATOM     74  O   UNL A   1      43.074  23.162  33.935  1.00  0.00    -0.744 OA
ENDBRANCH  68  71
ENDBRANCH  50  64
BRANCH  51  75
ATOM     75  C   UNL A   1      42.643  24.836  26.376  1.00  0.00     0.023 A 
ATOM     76  C   UNL A   1      43.646  24.456  25.462  1.00  0.00     0.012 A 
ATOM     77  C   UNL A   1      41.683  23.872  26.756  1.00  0.00     0.148 A 
ATOM     78  C   UNL A   1      43.714  23.146  24.974  1.00  0.00     0.002 A 
ATOM     79  C   UNL A   1      41.753  22.571  26.264  1.00  0.00     0.091 A 
ATOM     80  F   UNL A   1      40.761  24.205  27.670  1.00  0.00    -0.205 F 
ATOM     81  C   UNL A   1      42.777  22.201  25.382  1.00  0.00     0.022 A 
BRANCH  79  82
ATOM     82  S   UNL A   1      40.598  21.290  26.770  1.00  0.00     0.127 S 
ATOM     83  O   UNL A   1      40.783  21.272  28.222  1.00  0.00    -0.237 OA
ATOM     84  O   UNL A   1      39.322  21.840  26.322  1.00  0.00    -0.237 OA
ATOM     85  O   UNL A   1      41.035  20.074  26.095  1.00  0.00    -0.744 OA
ENDBRANCH  79  82
ENDBRANCH  51  75
BRANCH  63  86
ATOM     86  C   UNL A   1      45.418  30.079  28.386  1.00  0.00     0.023 A 
ATOM     87  C   UNL A   1      44.340  30.690  27.710  1.00  0.00     0.012 A 
ATOM     88  C   UNL A   1      46.722  30.528  28.122  1.00  0.00     0.148 A 
ATOM     89  C   UNL A   1      44.562  31.707  26.775  1.00  0.00     0.002 A 
ATOM     90  C   UNL A   1      46.935  31.571  27.229  1.00  0.00     0.091 A 
ATOM     91  F   UNL A   1      47.738  29.943  28.775  1.00  0.00    -0.205 F 
ATOM     92  C   UNL A   1      45.859  32.157  26.545  1.00  0.00     0.022 A 
BRANCH  90  93
ATOM     93  S   UNL A   1      48.566  32.281  26.990  1.00  0.00     0.127 S 
ATOM     94  O   UNL A   1      48.324  33.256  25.929  1.00  0.00    -0.237 OA
ATOM     95  O   UNL A   1      48.854  32.864  28.302  1.00  0.00    -0.237 OA
ATOM     96  O   UNL A   1      49.437  31.167  26.634  1.00  0.00    -0.744 OA
ENDBRANCH  90  93
ENDBRANCH  63  86
ENDBRANCH  37  38
ENDBRANCH  29  32
ENDBRANCH  27  28
ENDBRANCH  26  27
ENDBRANCH   1  26
TORSDOF 18
ENDMDL
MODEL 3
REMARK VINA RESULT:     -10.7      3.165      7.638
REMARK SMILES Cc1n[nH]c(CN(C)C(=O)N[C@](C)(C(=O)NCCCNC(=O)c2ccc(-c3c4nc(c(-c5cccc(S(=O)(=O)[O-])c5F)c5ccc([nH]5)c(-c5cccc(S(=O)(=O)[O-])c5F)c5nc(c(-c6cccc(S(=O)(=O)[O-])c6F)c6ccc3[nH]6)C=C5)C=C4)cc2)C(F)(F)F)n1
REMARK SMILES IDX 17 1 16 2 14 3 15 4 12 6 13 7 11 8 9 9 10 10 7 12 8 13 6 14
REMARK SMILES IDX 5 15 1 16 2 17 3 18 90 19 4 20 86 22 87 23 88 24 89 25 18 26
REMARK SMILES IDX 19 27 20 28 21 29 22 31 23 32 24 33 85 34 25 35 84 36 26 37
REMARK SMILES IDX 27 38 28 39 78 40 29 41 83 42 77 43 79 44 30 45 82 46 76 47
REMARK SMILES IDX 75 48 31 50 63 51 43 52 62 53 44 54 47 55 61 56 80 57 45 58
REMARK SMILES IDX 46 59 60 61 81 62 48 63 32 64 33 65 41 66 34 67 36 68 42 69
REMARK SMILES IDX 35 70 37 71 38 72 39 73 40 74 64 75 65 76 73 77 66 78 68 79
REMARK SMILES IDX 74 80 67 81 69 82 70 83 71 84 72 85 49 86 50 87 58 88 51 89
REMARK SMILES IDX 53 90 59 91 52 92 54 93 55 94 56 95 57 96
REMARK H PARENT 16 5 11 11 4 21 20 30 79 49 47 60
REMARK Flexibility Score: inf
ROOT
ATOM      1  C   UNL A   1      33.267  27.330  26.435  1.00  0.00     0.117 C 
ENDROOT
BRANCH   1   2
ATOM      2  N   UNL A   1      32.093  26.481  26.634  1.00  0.00    -0.354 N 
ATOM      3  C   UNL A   1      31.697  25.300  26.052  1.00  0.00     0.255 C 
ATOM      4  O   UNL A   1      30.738  24.732  26.575  1.00  0.00    -0.272 OA
ATOM      5  H   UNL A   1      31.467  26.819  27.314  1.00  0.00     0.163 HD
BRANCH   3   6
ATOM      6  C   UNL A   1      32.344  24.794  24.742  1.00  0.00     0.213 C 
ATOM      7  C   UNL A   1      32.033  25.867  23.697  1.00  0.00     0.056 C 
BRANCH   6   8
ATOM      8  N   UNL A   1      33.780  24.503  25.088  1.00  0.00    -0.316 N 
ATOM      9  C   UNL A   1      34.588  23.752  25.835  1.00  0.00     0.318 C 
ATOM     10  O   UNL A   1      35.790  24.025  25.717  1.00  0.00    -0.249 OA
ATOM     11  H   UNL A   1      34.344  25.104  24.551  1.00  0.00     0.166 HD
BRANCH   9  12
ATOM     12  N   UNL A   1      34.194  22.712  26.609  1.00  0.00    -0.320 N 
ATOM     13  C   UNL A   1      33.310  22.745  27.750  1.00  0.00     0.149 C 
BRANCH  12  14
ATOM     14  C   UNL A   1      34.831  21.420  26.351  1.00  0.00     0.197 C 
BRANCH  14  15
ATOM     15  C   UNL A   1      33.935  20.487  25.606  1.00  0.00     0.144 A 
ATOM     16  C   UNL A   1      32.275  18.847  22.947  1.00  0.00     0.092 C 
ATOM     17  C   UNL A   1      32.783  19.376  24.229  1.00  0.00     0.147 A 
ATOM     18  N   UNL A   1      32.328  18.938  25.409  1.00  0.00    -0.159 NA
ATOM     19  N   UNL A   1      33.757  20.340  24.306  1.00  0.00    -0.215 NA
ATOM     20  N   UNL A   1      33.103  19.625  26.262  1.00  0.00    -0.262 N 
ATOM     21  H   UNL A   1      33.076  19.520  27.241  1.00  0.00     0.192 HD
ENDBRANCH  14  15
ENDBRANCH  12  14
ENDBRANCH   9  12
ENDBRANCH   6   8
BRANCH   6  22
ATOM     22  C   UNL A   1      31.640  23.481  24.338  1.00  0.00     0.420 C 
ATOM     23  F   UNL A   1      31.400  22.648  25.368  1.00  0.00    -0.168 F 
ATOM     24  F   UNL A   1      30.423  23.767  23.788  1.00  0.00    -0.168 F 
ATOM     25  F   UNL A   1      32.327  22.808  23.383  1.00  0.00    -0.168 F 
ENDBRANCH   6  22
ENDBRANCH   3   6
ENDBRANCH   1   2
BRANCH   1  26
ATOM     26  C   UNL A   1      33.286  28.626  27.244  1.00  0.00     0.042 C 
BRANCH  26  27
ATOM     27  C   UNL A   1      34.633  29.316  27.219  1.00  0.00     0.118 C 
BRANCH  27  28
ATOM     28  N   UNL A   1      34.535  30.766  27.375  1.00  0.00    -0.352 N 
ATOM     29  C   UNL A   1      35.476  31.630  27.905  1.00  0.00     0.251 C 
ATOM     30  H   UNL A   1      33.696  31.178  27.065  1.00  0.00     0.163 HD
ATOM     31  O   UNL A   1      35.169  32.764  28.224  1.00  0.00    -0.269 OA
BRANCH  29  32
ATOM     32  C   UNL A   1      36.852  31.132  28.103  1.00  0.00     0.039 A 
ATOM     33  C   UNL A   1      37.636  31.619  29.151  1.00  0.00     0.014 A 
ATOM     34  C   UNL A   1      37.331  30.128  27.266  1.00  0.00     0.014 A 
ATOM     35  C   UNL A   1      38.870  31.025  29.401  1.00  0.00     0.010 A 
ATOM     36  C   UNL A   1      38.467  29.440  27.610  1.00  0.00     0.010 A 
ATOM     37  C   UNL A   1      39.270  29.914  28.643  1.00  0.00    -0.014 A 
BRANCH  37  38
ATOM     38  C   UNL A   1      40.479  29.175  28.994  1.00  0.00     0.031 A 
ATOM     39  C   UNL A   1      40.624  28.844  30.439  1.00  0.00     0.074 A 
ATOM     40  C   UNL A   1      41.303  28.630  28.071  1.00  0.00     0.049 A 
ATOM     41  N   UNL A   1      41.535  29.259  31.258  1.00  0.00    -0.248 NA
ATOM     42  C   UNL A   1      39.565  28.048  31.079  1.00  0.00     0.031 C 
ATOM     43  C   UNL A   1      41.122  28.583  26.613  1.00  0.00     0.029 A 
ATOM     44  N   UNL A   1      42.406  27.855  28.259  1.00  0.00    -0.354 N 
ATOM     45  C   UNL A   1      41.295  28.593  32.459  1.00  0.00     0.074 A 
ATOM     46  C   UNL A   1      39.980  28.016  32.347  1.00  0.00     0.031 C 
ATOM     47  C   UNL A   1      41.899  27.608  26.096  1.00  0.00     0.029 A 
ATOM     48  C   UNL A   1      42.762  27.104  27.144  1.00  0.00     0.049 A 
ATOM     49  H   UNL A   1      42.906  27.830  29.107  1.00  0.00     0.167 HD
ATOM     50  C   UNL A   1      42.291  28.361  33.359  1.00  0.00     0.034 A 
ATOM     51  C   UNL A   1      43.673  26.104  27.096  1.00  0.00     0.034 A 
ATOM     52  C   UNL A   1      43.453  29.166  33.089  1.00  0.00     0.049 A 
ATOM     53  C   UNL A   1      44.566  26.270  28.263  1.00  0.00     0.074 A 
ATOM     54  C   UNL A   1      43.706  30.518  32.984  1.00  0.00     0.029 A 
ATOM     55  N   UNL A   1      44.519  28.536  32.493  1.00  0.00    -0.354 N 
ATOM     56  N   UNL A   1      45.378  27.277  28.412  1.00  0.00    -0.248 NA
ATOM     57  C   UNL A   1      44.265  25.521  29.470  1.00  0.00     0.031 C 
ATOM     58  C   UNL A   1      44.642  30.632  31.915  1.00  0.00     0.029 A 
ATOM     59  C   UNL A   1      44.952  29.343  31.475  1.00  0.00     0.049 A 
ATOM     60  H   UNL A   1      44.901  27.667  32.751  1.00  0.00     0.167 HD
ATOM     61  C   UNL A   1      45.319  27.568  29.768  1.00  0.00     0.074 A 
ATOM     62  C   UNL A   1      44.728  26.381  30.381  1.00  0.00     0.031 C 
ATOM     63  C   UNL A   1      45.480  28.847  30.222  1.00  0.00     0.034 A 
BRANCH  50  64
ATOM     64  C   UNL A   1      42.364  27.162  34.276  1.00  0.00     0.023 A 
ATOM     65  C   UNL A   1      41.845  27.302  35.584  1.00  0.00     0.012 A 
ATOM     66  C   UNL A   1      43.139  26.010  34.017  1.00  0.00     0.148 A 
ATOM     67  C   UNL A   1      42.115  26.363  36.586  1.00  0.00     0.002 A 
ATOM     68  C   UNL A   1      43.328  25.034  34.990  1.00  0.00     0.091 A 
ATOM     69  F   UNL A   1      43.822  25.908  32.873  1.00  0.00    -0.205 F 
ATOM     70  C   UNL A   1      42.846  25.221  36.287  1.00  0.00     0.022 A 
BRANCH  68  71
ATOM     71  S   UNL A   1      44.202  23.507  34.625  1.00  0.00     0.127 S 
ATOM     72  O   UNL A   1      43.276  22.852  33.707  1.00  0.00    -0.237 OA
ATOM     73  O   UNL A   1      45.435  24.004  34.016  1.00  0.00    -0.237 OA
ATOM     74  O   UNL A   1      44.398  22.860  35.917  1.00  0.00    -0.744 OA
ENDBRANCH  68  71
ENDBRANCH  50  64
BRANCH  51  75
ATOM     75  C   UNL A   1      43.702  24.893  26.248  1.00  0.00     0.023 A 
ATOM     76  C   UNL A   1      44.776  24.693  25.358  1.00  0.00     0.012 A 
ATOM     77  C   UNL A   1      42.838  23.807  26.510  1.00  0.00     0.148 A 
ATOM     78  C   UNL A   1      45.005  23.440  24.779  1.00  0.00     0.002 A 
ATOM     79  C   UNL A   1      43.068  22.564  25.928  1.00  0.00     0.091 A 
ATOM     80  F   UNL A   1      41.850  23.969  27.400  1.00  0.00    -0.205 F 
ATOM     81  C   UNL A   1      44.159  22.373  25.071  1.00  0.00     0.022 A 
BRANCH  79  82
ATOM     82  S   UNL A   1      42.039  21.132  26.282  1.00  0.00     0.127 S 
ATOM     83  O   UNL A   1      42.256  20.952  27.718  1.00  0.00    -0.237 OA
ATOM     84  O   UNL A   1      40.710  21.619  25.920  1.00  0.00    -0.237 OA
ATOM     85  O   UNL A   1      42.565  20.053  25.456  1.00  0.00    -0.744 OA
ENDBRANCH  79  82
ENDBRANCH  51  75
BRANCH  63  86
ATOM     86  C   UNL A   1      45.989  29.890  29.255  1.00  0.00     0.023 A 
ATOM     87  C   UNL A   1      47.362  30.054  28.975  1.00  0.00     0.012 A 
ATOM     88  C   UNL A   1      45.054  30.599  28.483  1.00  0.00     0.148 A 
ATOM     89  C   UNL A   1      47.792  30.923  27.967  1.00  0.00     0.002 A 
ATOM     90  C   UNL A   1      45.481  31.424  27.450  1.00  0.00     0.091 A 
ATOM     91  F   UNL A   1      43.750  30.431  28.755  1.00  0.00    -0.205 F 
ATOM     92  C   UNL A   1      46.850  31.598  27.195  1.00  0.00     0.022 A 
BRANCH  90  93
ATOM     93  S   UNL A   1      44.315  32.214  26.339  1.00  0.00     0.127 S 
ATOM     94  O   UNL A   1      43.426  31.109  25.990  1.00  0.00    -0.237 OA
ATOM     95  O   UNL A   1      43.710  33.240  27.190  1.00  0.00    -0.237 OA
ATOM     96  O   UNL A   1      45.112  32.751  25.241  1.00  0.00    -0.744 OA
ENDBRANCH  90  93
ENDBRANCH  63  86
ENDBRANCH  37  38
ENDBRANCH  29  32
ENDBRANCH  27  28
ENDBRANCH  26  27
ENDBRANCH   1  26
TORSDOF 18
ENDMDL
