MODEL 1
REMARK VINA RESULT:     -12.3      0.000      0.000
REMARK SMILES C[C@H](NS(=O)(=O)c1ccc(-c2cc(-c3ccccc3)c3cc([N+](=O)[O-])ccc3n2)cc1)C(=O)NCCCNC(=O)c1ccc(-c2c3nc(c(-c4cccc(S(=O)(=O)[O-])c4F)c4ccc([nH]4)c(-c4cccc(S(=O)(=O)[O-])c4F)c4nc(c(-c5cccc(S(=O)(=O)[O-])c5F)c5ccc2[nH]5)C=C4)C=C3)cc1
REMARK SMILES IDX 35 1 34 2 32 3 33 4 2 6 1 7 3 8 4 10 5 11 6 12 7 13 8 14
REMARK SMILES IDX 31 15 9 16 30 17 10 18 11 19 12 20 29 21 13 22 28 23 20 24
REMARK SMILES IDX 27 25 21 26 26 27 22 28 14 29 15 30 19 31 16 32 18 33 17 34
REMARK SMILES IDX 23 35 24 36 25 37 36 38 37 39 38 40 39 41 40 43 41 44 42 45
REMARK SMILES IDX 103 46 43 47 102 48 44 49 45 50 46 51 96 52 47 53 101 54
REMARK SMILES IDX 95 55 97 56 48 57 100 58 94 59 93 60 49 62 81 63 61 64 80 65
REMARK SMILES IDX 62 66 65 67 79 68 98 69 63 70 64 71 78 73 99 74 66 75 50 76
REMARK SMILES IDX 51 77 59 78 52 79 54 80 60 81 53 82 55 83 56 84 57 85 58 86
REMARK SMILES IDX 82 87 83 88 91 89 84 90 86 91 92 92 85 93 87 94 88 95 89 96
REMARK SMILES IDX 90 97 67 98 68 99 76 100 69 101 71 102 77 103 70 104 72 105
REMARK SMILES IDX 73 106 74 107 75 108
REMARK H PARENT 34 5 3 9 38 42 97 61 65 72
REMARK Flexibility Score: inf
ROOT
ATOM      1  C   UNL A   1      34.240  33.299  33.585  1.00  0.00     0.117 C 
ENDROOT
BRANCH   1   2
ATOM      2  N   UNL A   1      33.757  34.222  32.574  1.00  0.00    -0.355 N 
ATOM      3  C   UNL A   1      34.177  34.393  31.291  1.00  0.00     0.237 C 
ATOM      4  O   UNL A   1      33.757  35.384  30.686  1.00  0.00    -0.273 OA
ATOM      5  H   UNL A   1      33.019  34.808  32.858  1.00  0.00     0.163 HD
BRANCH   3   6
ATOM      6  C   UNL A   1      35.091  33.371  30.596  1.00  0.00     0.155 C 
ATOM      7  C   UNL A   1      36.236  34.096  29.900  1.00  0.00     0.036 C 
BRANCH   6   8
ATOM      8  N   UNL A   1      34.341  32.435  29.750  1.00  0.00    -0.199 NA
ATOM      9  H   UNL A   1      33.399  32.397  30.140  1.00  0.00     0.142 HD
BRANCH   8  10
ATOM     10  S   UNL A   1      34.146  32.647  28.092  1.00  0.00     0.241 S 
ATOM     11  O   UNL A   1      33.081  33.603  27.939  1.00  0.00    -0.207 OA
ATOM     12  O   UNL A   1      35.461  32.876  27.519  1.00  0.00    -0.207 OA
BRANCH  10  13
ATOM     13  C   UNL A   1      33.556  31.083  27.466  1.00  0.00     0.082 A 
ATOM     14  C   UNL A   1      34.187  29.893  27.837  1.00  0.00     0.022 A 
ATOM     15  C   UNL A   1      32.446  31.043  26.620  1.00  0.00     0.022 A 
ATOM     16  C   UNL A   1      33.854  28.697  27.180  1.00  0.00     0.012 A 
ATOM     17  C   UNL A   1      32.100  29.843  25.987  1.00  0.00     0.012 A 
ATOM     18  C   UNL A   1      32.908  28.689  26.135  1.00  0.00     0.000 A 
BRANCH  18  19
ATOM     19  C   UNL A   1      33.226  27.887  24.890  1.00  0.00     0.072 A 
ATOM     20  C   UNL A   1      34.282  26.978  24.832  1.00  0.00     0.038 A 
ATOM     21  N   UNL A   1      32.022  27.483  24.402  1.00  0.00    -0.248 NA
ATOM     22  C   UNL A   1      33.935  25.625  24.828  1.00  0.00    -0.007 A 
ATOM     23  C   UNL A   1      31.643  26.268  24.796  1.00  0.00     0.072 A 
ATOM     24  C   UNL A   1      32.606  25.349  25.196  1.00  0.00     0.015 A 
ATOM     25  C   UNL A   1      30.307  25.940  24.962  1.00  0.00     0.036 A 
ATOM     26  C   UNL A   1      32.250  24.246  25.998  1.00  0.00     0.096 A 
ATOM     27  C   UNL A   1      29.934  24.832  25.736  1.00  0.00     0.088 A 
ATOM     28  C   UNL A   1      30.918  24.046  26.332  1.00  0.00     0.270 A 
BRANCH  22  29
ATOM     29  C   UNL A   1      34.765  24.471  24.420  1.00  0.00    -0.018 A 
ATOM     30  C   UNL A   1      35.873  24.154  25.254  1.00  0.00     0.009 A 
ATOM     31  C   UNL A   1      34.622  23.743  23.241  1.00  0.00     0.009 A 
ATOM     32  C   UNL A   1      36.872  23.268  24.867  1.00  0.00     0.001 A 
ATOM     33  C   UNL A   1      35.613  22.819  22.865  1.00  0.00     0.001 A 
ATOM     34  C   UNL A   1      36.748  22.610  23.657  1.00  0.00     0.000 A 
ENDBRANCH  22  29
BRANCH  28  35
ATOM     35  N   UNL A   1      30.575  23.089  27.385  1.00  0.00     0.062 N 
ATOM     36  O   UNL A   1      31.505  22.461  27.914  1.00  0.00    -0.258 OA
ATOM     37  O   UNL A   1      29.387  23.001  27.720  1.00  0.00    -0.258 OA
ENDBRANCH  28  35
ENDBRANCH  18  19
ENDBRANCH  10  13
ENDBRANCH   8  10
ENDBRANCH   6   8
ENDBRANCH   3   6
ENDBRANCH   1   2
BRANCH   1  38
ATOM     38  C   UNL A   1      35.526  33.808  34.216  1.00  0.00     0.042 C 
BRANCH  38  39
ATOM     39  C   UNL A   1      36.750  32.971  33.866  1.00  0.00     0.118 C 
BRANCH  39  40
ATOM     40  N   UNL A   1      36.409  31.596  33.530  1.00  0.00    -0.352 N 
ATOM     41  C   UNL A   1      36.949  30.762  32.581  1.00  0.00     0.251 C 
ATOM     42  H   UNL A   1      35.681  31.204  34.064  1.00  0.00     0.163 HD
ATOM     43  O   UNL A   1      36.370  29.715  32.300  1.00  0.00    -0.269 OA
BRANCH  41  44
ATOM     44  C   UNL A   1      38.211  31.119  31.900  1.00  0.00     0.039 A 
ATOM     45  C   UNL A   1      39.367  31.304  32.662  1.00  0.00     0.014 A 
ATOM     46  C   UNL A   1      38.252  31.308  30.516  1.00  0.00     0.014 A 
ATOM     47  C   UNL A   1      40.566  31.641  32.030  1.00  0.00     0.010 A 
ATOM     48  C   UNL A   1      39.467  31.531  29.879  1.00  0.00     0.010 A 
ATOM     49  C   UNL A   1      40.631  31.738  30.630  1.00  0.00    -0.014 A 
BRANCH  49  50
ATOM     50  C   UNL A   1      41.895  32.105  29.944  1.00  0.00     0.031 A 
ATOM     51  C   UNL A   1      42.151  33.537  29.546  1.00  0.00     0.074 A 
ATOM     52  C   UNL A   1      42.788  31.147  29.630  1.00  0.00     0.049 A 
ATOM     53  N   UNL A   1      43.193  34.053  28.947  1.00  0.00    -0.248 NA
ATOM     54  C   UNL A   1      41.084  34.514  29.826  1.00  0.00     0.031 C 
ATOM     55  C   UNL A   1      42.613  29.713  29.875  1.00  0.00     0.029 A 
ATOM     56  N   UNL A   1      44.017  31.232  29.027  1.00  0.00    -0.354 N 
ATOM     57  C   UNL A   1      42.893  35.396  28.748  1.00  0.00     0.074 A 
ATOM     58  C   UNL A   1      41.551  35.607  29.241  1.00  0.00     0.031 C 
ATOM     59  C   UNL A   1      43.704  29.057  29.445  1.00  0.00     0.029 A 
ATOM     60  C   UNL A   1      44.644  30.018  28.876  1.00  0.00     0.049 A 
ATOM     61  H   UNL A   1      44.412  32.083  28.728  1.00  0.00     0.167 HD
ATOM     62  C   UNL A   1      43.674  36.377  28.238  1.00  0.00     0.034 A 
ATOM     63  C   UNL A   1      45.846  29.714  28.349  1.00  0.00     0.034 A 
ATOM     64  C   UNL A   1      45.027  36.173  27.797  1.00  0.00     0.049 A 
ATOM     65  C   UNL A   1      46.726  30.833  27.859  1.00  0.00     0.074 A 
ATOM     66  C   UNL A   1      45.937  37.110  27.343  1.00  0.00     0.029 A 
ATOM     67  N   UNL A   1      45.665  34.943  27.755  1.00  0.00    -0.354 N 
ATOM     68  N   UNL A   1      46.484  32.121  27.826  1.00  0.00    -0.248 NA
ATOM     69  C   UNL A   1      48.065  30.460  27.382  1.00  0.00     0.031 C 
ATOM     70  C   UNL A   1      47.119  36.443  27.006  1.00  0.00     0.029 A 
ATOM     71  C   UNL A   1      46.957  35.095  27.284  1.00  0.00     0.049 A 
ATOM     72  H   UNL A   1      45.259  34.087  28.023  1.00  0.00     0.167 HD
ATOM     73  C   UNL A   1      47.653  32.718  27.368  1.00  0.00     0.074 A 
ATOM     74  C   UNL A   1      48.608  31.648  27.157  1.00  0.00     0.031 C 
ATOM     75  C   UNL A   1      47.912  34.028  27.132  1.00  0.00     0.034 A 
BRANCH  62  76
ATOM     76  C   UNL A   1      43.102  37.771  28.185  1.00  0.00     0.023 A 
ATOM     77  C   UNL A   1      42.454  38.216  27.013  1.00  0.00     0.012 A 
ATOM     78  C   UNL A   1      43.165  38.625  29.304  1.00  0.00     0.148 A 
ATOM     79  C   UNL A   1      41.915  39.500  26.941  1.00  0.00     0.002 A 
ATOM     80  C   UNL A   1      42.582  39.885  29.241  1.00  0.00     0.091 A 
ATOM     81  F   UNL A   1      43.804  38.196  30.401  1.00  0.00    -0.205 F 
ATOM     82  C   UNL A   1      41.969  40.329  28.057  1.00  0.00     0.022 A 
BRANCH  80  83
ATOM     83  S   UNL A   1      42.523  40.999  30.649  1.00  0.00     0.127 S 
ATOM     84  O   UNL A   1      43.198  42.182  30.118  1.00  0.00    -0.237 OA
ATOM     85  O   UNL A   1      41.083  41.159  30.855  1.00  0.00    -0.237 OA
ATOM     86  O   UNL A   1      43.220  40.316  31.730  1.00  0.00    -0.744 OA
ENDBRANCH  80  83
ENDBRANCH  62  76
BRANCH  63  87
ATOM     87  C   UNL A   1      46.324  28.303  28.342  1.00  0.00     0.023 A 
ATOM     88  C   UNL A   1      46.999  27.792  29.468  1.00  0.00     0.012 A 
ATOM     89  C   UNL A   1      46.096  27.460  27.238  1.00  0.00     0.148 A 
ATOM     90  C   UNL A   1      47.473  26.481  29.479  1.00  0.00     0.002 A 
ATOM     91  C   UNL A   1      46.522  26.137  27.278  1.00  0.00     0.091 A 
ATOM     92  F   UNL A   1      45.458  27.967  26.173  1.00  0.00    -0.205 F 
ATOM     93  C   UNL A   1      47.227  25.650  28.389  1.00  0.00     0.022 A 
BRANCH  91  94
ATOM     94  S   UNL A   1      46.136  24.962  25.976  1.00  0.00     0.127 S 
ATOM     95  O   UNL A   1      47.075  23.880  26.262  1.00  0.00    -0.237 OA
ATOM     96  O   UNL A   1      44.734  24.651  26.256  1.00  0.00    -0.237 OA
ATOM     97  O   UNL A   1      46.355  25.676  24.726  1.00  0.00    -0.744 OA
ENDBRANCH  91  94
ENDBRANCH  63  87
BRANCH  75  98
ATOM     98  C   UNL A   1      49.300  34.390  26.673  1.00  0.00     0.023 A 
ATOM     99  C   UNL A   1      49.581  34.507  25.297  1.00  0.00     0.012 A 
ATOM    100  C   UNL A   1      50.314  34.661  27.611  1.00  0.00     0.148 A 
ATOM    101  C   UNL A   1      50.865  34.841  24.863  1.00  0.00     0.002 A 
ATOM    102  C   UNL A   1      51.574  35.047  27.173  1.00  0.00     0.091 A 
ATOM    103  F   UNL A   1      50.034  34.526  28.917  1.00  0.00    -0.205 F 
ATOM    104  C   UNL A   1      51.857  35.121  25.799  1.00  0.00     0.022 A 
BRANCH 102 105
ATOM    105  S   UNL A   1      52.876  35.524  28.314  1.00  0.00     0.127 S 
ATOM    106  O   UNL A   1      52.992  34.332  29.152  1.00  0.00    -0.237 OA
ATOM    107  O   UNL A   1      54.011  35.751  27.417  1.00  0.00    -0.237 OA
ATOM    108  O   UNL A   1      52.395  36.723  28.987  1.00  0.00    -0.744 OA
ENDBRANCH 102 105
ENDBRANCH  75  98
ENDBRANCH  49  50
ENDBRANCH  41  44
ENDBRANCH  39  40
ENDBRANCH  38  39
ENDBRANCH   1  38
TORSDOF 19
ENDMDL
MODEL 2
REMARK VINA RESULT:     -12.1      3.341      9.484
REMARK SMILES C[C@H](NS(=O)(=O)c1ccc(-c2cc(-c3ccccc3)c3cc([N+](=O)[O-])ccc3n2)cc1)C(=O)NCCCNC(=O)c1ccc(-c2c3nc(c(-c4cccc(S(=O)(=O)[O-])c4F)c4ccc([nH]4)c(-c4cccc(S(=O)(=O)[O-])c4F)c4nc(c(-c5cccc(S(=O)(=O)[O-])c5F)c5ccc2[nH]5)C=C4)C=C3)cc1
REMARK SMILES IDX 35 1 34 2 32 3 33 4 2 6 1 7 3 8 4 10 5 11 6 12 7 13 8 14
REMARK SMILES IDX 31 15 9 16 30 17 10 18 11 19 12 20 29 21 13 22 28 23 20 24
REMARK SMILES IDX 27 25 21 26 26 27 22 28 14 29 15 30 19 31 16 32 18 33 17 34
REMARK SMILES IDX 23 35 24 36 25 37 36 38 37 39 38 40 39 41 40 43 41 44 42 45
REMARK SMILES IDX 103 46 43 47 102 48 44 49 45 50 46 51 96 52 47 53 101 54
REMARK SMILES IDX 95 55 97 56 48 57 100 58 94 59 93 60 49 62 81 63 61 64 80 65
REMARK SMILES IDX 62 66 65 67 79 68 98 69 63 70 64 71 78 73 99 74 66 75 50 76
REMARK SMILES IDX 51 77 59 78 52 79 54 80 60 81 53 82 55 83 56 84 57 85 58 86
REMARK SMILES IDX 82 87 83 88 91 89 84 90 86 91 92 92 85 93 87 94 88 95 89 96
REMARK SMILES IDX 90 97 67 98 68 99 76 100 69 101 71 102 77 103 70 104 72 105
REMARK SMILES IDX 73 106 74 107 75 108
REMARK H PARENT 34 5 3 9 38 42 97 61 65 72
REMARK Flexibility Score: inf
ROOT
ATOM      1  C   UNL A   1      38.262  23.451  25.814  1.00  0.00     0.117 C 
ENDROOT
BRANCH   1   2
ATOM      2  N   UNL A   1      38.073  22.055  25.466  1.00  0.00    -0.355 N 
ATOM      3  C   UNL A   1      36.965  21.429  24.985  1.00  0.00     0.237 C 
ATOM      4  O   UNL A   1      36.977  20.194  24.962  1.00  0.00    -0.273 OA
ATOM      5  H   UNL A   1      38.859  21.478  25.599  1.00  0.00     0.163 HD
BRANCH   3   6
ATOM      6  C   UNL A   1      35.765  22.217  24.435  1.00  0.00     0.155 C 
ATOM      7  C   UNL A   1      36.168  22.944  23.159  1.00  0.00     0.036 C 
BRANCH   6   8
ATOM      8  N   UNL A   1      35.133  23.059  25.459  1.00  0.00    -0.199 NA
ATOM      9  H   UNL A   1      34.877  23.928  24.988  1.00  0.00     0.142 HD
BRANCH   8  10
ATOM     10  S   UNL A   1      33.773  22.586  26.328  1.00  0.00     0.241 S 
ATOM     11  O   UNL A   1      33.563  21.199  26.007  1.00  0.00    -0.207 OA
ATOM     12  O   UNL A   1      33.947  23.030  27.699  1.00  0.00    -0.207 OA
BRANCH  10  13
ATOM     13  C   UNL A   1      32.408  23.507  25.638  1.00  0.00     0.082 A 
ATOM     14  C   UNL A   1      31.629  22.954  24.619  1.00  0.00     0.022 A 
ATOM     15  C   UNL A   1      32.102  24.777  26.131  1.00  0.00     0.022 A 
ATOM     16  C   UNL A   1      30.699  23.759  23.941  1.00  0.00     0.012 A 
ATOM     17  C   UNL A   1      31.154  25.567  25.469  1.00  0.00     0.012 A 
ATOM     18  C   UNL A   1      30.561  25.125  24.262  1.00  0.00     0.000 A 
BRANCH  18  19
ATOM     19  C   UNL A   1      30.454  26.119  23.124  1.00  0.00     0.072 A 
ATOM     20  C   UNL A   1      29.435  27.068  23.049  1.00  0.00     0.038 A 
ATOM     21  N   UNL A   1      31.726  26.543  22.893  1.00  0.00    -0.248 NA
ATOM     22  C   UNL A   1      29.800  28.390  23.308  1.00  0.00    -0.007 A 
ATOM     23  C   UNL A   1      32.058  27.668  23.525  1.00  0.00     0.072 A 
ATOM     24  C   UNL A   1      31.059  28.554  23.913  1.00  0.00     0.015 A 
ATOM     25  C   UNL A   1      33.357  27.914  23.941  1.00  0.00     0.036 A 
ATOM     26  C   UNL A   1      31.304  29.507  24.922  1.00  0.00     0.096 A 
ATOM     27  C   UNL A   1      33.623  28.876  24.927  1.00  0.00     0.088 A 
ATOM     28  C   UNL A   1      32.571  29.600  25.481  1.00  0.00     0.270 A 
BRANCH  22  29
ATOM     29  C   UNL A   1      29.063  29.626  22.965  1.00  0.00    -0.018 A 
ATOM     30  C   UNL A   1      29.505  30.334  21.813  1.00  0.00     0.009 A 
ATOM     31  C   UNL A   1      28.054  30.210  23.728  1.00  0.00     0.009 A 
ATOM     32  C   UNL A   1      29.078  31.623  21.517  1.00  0.00     0.001 A 
ATOM     33  C   UNL A   1      27.594  31.500  23.409  1.00  0.00     0.001 A 
ATOM     34  C   UNL A   1      28.129  32.215  22.331  1.00  0.00     0.000 A 
ENDBRANCH  22  29
BRANCH  28  35
ATOM     35  N   UNL A   1      32.760  30.372  26.711  1.00  0.00     0.062 N 
ATOM     36  O   UNL A   1      33.648  29.999  27.492  1.00  0.00    -0.258 OA
ATOM     37  O   UNL A   1      32.058  31.379  26.873  1.00  0.00    -0.258 OA
ENDBRANCH  28  35
ENDBRANCH  18  19
ENDBRANCH  10  13
ENDBRANCH   8  10
ENDBRANCH   6   8
ENDBRANCH   3   6
ENDBRANCH   1   2
BRANCH   1  38
ATOM     38  C   UNL A   1      39.564  23.652  26.572  1.00  0.00     0.042 C 
BRANCH  38  39
ATOM     39  C   UNL A   1      40.327  22.359  26.829  1.00  0.00     0.118 C 
BRANCH  39  40
ATOM     40  N   UNL A   1      41.434  22.171  25.901  1.00  0.00    -0.352 N 
ATOM     41  C   UNL A   1      42.373  23.069  25.457  1.00  0.00     0.251 C 
ATOM     42  H   UNL A   1      41.524  21.260  25.538  1.00  0.00     0.163 HD
ATOM     43  O   UNL A   1      43.086  22.772  24.502  1.00  0.00    -0.269 OA
BRANCH  41  44
ATOM     44  C   UNL A   1      42.524  24.384  26.117  1.00  0.00     0.039 A 
ATOM     45  C   UNL A   1      42.298  25.546  25.376  1.00  0.00     0.014 A 
ATOM     46  C   UNL A   1      42.921  24.475  27.452  1.00  0.00     0.014 A 
ATOM     47  C   UNL A   1      42.436  26.794  25.988  1.00  0.00     0.010 A 
ATOM     48  C   UNL A   1      42.947  25.710  28.089  1.00  0.00     0.010 A 
ATOM     49  C   UNL A   1      42.742  26.887  27.356  1.00  0.00    -0.014 A 
BRANCH  49  50
ATOM     50  C   UNL A   1      42.902  28.205  28.020  1.00  0.00     0.031 A 
ATOM     51  C   UNL A   1      44.271  28.822  28.156  1.00  0.00     0.074 A 
ATOM     52  C   UNL A   1      41.827  28.823  28.546  1.00  0.00     0.049 A 
ATOM     53  N   UNL A   1      44.611  29.964  28.696  1.00  0.00    -0.248 NA
ATOM     54  C   UNL A   1      45.414  28.041  27.651  1.00  0.00     0.031 C 
ATOM     55  C   UNL A   1      40.465  28.285  28.564  1.00  0.00     0.029 A 
ATOM     56  N   UNL A   1      41.713  30.035  29.179  1.00  0.00    -0.354 N 
ATOM     57  C   UNL A   1      45.999  30.019  28.628  1.00  0.00     0.074 A 
ATOM     58  C   UNL A   1      46.444  28.775  28.043  1.00  0.00     0.031 C 
ATOM     59  C   UNL A   1      39.649  29.173  29.158  1.00  0.00     0.029 A 
ATOM     60  C   UNL A   1      40.431  30.329  29.581  1.00  0.00     0.049 A 
ATOM     61  H   UNL A   1      42.477  30.636  29.332  1.00  0.00     0.167 HD
ATOM     62  C   UNL A   1      46.830  31.028  28.982  1.00  0.00     0.034 A 
ATOM     63  C   UNL A   1      39.940  31.415  30.209  1.00  0.00     0.034 A 
ATOM     64  C   UNL A   1      46.378  32.284  29.514  1.00  0.00     0.049 A 
ATOM     65  C   UNL A   1      40.873  32.555  30.523  1.00  0.00     0.074 A 
ATOM     66  C   UNL A   1      47.124  33.406  29.827  1.00  0.00     0.029 A 
ATOM     67  N   UNL A   1      45.059  32.586  29.813  1.00  0.00    -0.354 N 
ATOM     68  N   UNL A   1      42.161  32.652  30.305  1.00  0.00    -0.248 NA
ATOM     69  C   UNL A   1      40.272  33.754  31.122  1.00  0.00     0.031 C 
ATOM     70  C   UNL A   1      46.257  34.379  30.336  1.00  0.00     0.029 A 
ATOM     71  C   UNL A   1      44.967  33.875  30.307  1.00  0.00     0.049 A 
ATOM     72  H   UNL A   1      44.298  31.972  29.691  1.00  0.00     0.167 HD
ATOM     73  C   UNL A   1      42.520  33.936  30.698  1.00  0.00     0.074 A 
ATOM     74  C   UNL A   1      41.304  34.586  31.147  1.00  0.00     0.031 C 
ATOM     75  C   UNL A   1      43.742  34.524  30.697  1.00  0.00     0.034 A 
BRANCH  62  76
ATOM     76  C   UNL A   1      48.307  30.834  28.749  1.00  0.00     0.023 A 
ATOM     77  C   UNL A   1      49.037  29.963  29.585  1.00  0.00     0.012 A 
ATOM     78  C   UNL A   1      48.964  31.474  27.680  1.00  0.00     0.148 A 
ATOM     79  C   UNL A   1      50.404  29.765  29.388  1.00  0.00     0.002 A 
ATOM     80  C   UNL A   1      50.315  31.233  27.460  1.00  0.00     0.091 A 
ATOM     81  F   UNL A   1      48.261  32.315  26.909  1.00  0.00    -0.205 F 
ATOM     82  C   UNL A   1      51.039  30.391  28.321  1.00  0.00     0.022 A 
BRANCH  80  83
ATOM     83  S   UNL A   1      51.209  31.923  26.063  1.00  0.00     0.127 S 
ATOM     84  O   UNL A   1      52.372  32.517  26.720  1.00  0.00    -0.237 OA
ATOM     85  O   UNL A   1      51.502  30.731  25.266  1.00  0.00    -0.237 OA
ATOM     86  O   UNL A   1      50.299  32.868  25.431  1.00  0.00    -0.744 OA
ENDBRANCH  80  83
ENDBRANCH  62  76
BRANCH  63  87
ATOM     87  C   UNL A   1      38.483  31.514  30.501  1.00  0.00     0.023 A 
ATOM     88  C   UNL A   1      37.972  30.951  31.686  1.00  0.00     0.012 A 
ATOM     89  C   UNL A   1      37.606  32.180  29.624  1.00  0.00     0.148 A 
ATOM     90  C   UNL A   1      36.608  31.013  31.974  1.00  0.00     0.002 A 
ATOM     91  C   UNL A   1      36.257  32.288  29.944  1.00  0.00     0.091 A 
ATOM     92  F   UNL A   1      38.110  32.704  28.498  1.00  0.00    -0.205 F 
ATOM     93  C   UNL A   1      35.752  31.689  31.109  1.00  0.00     0.022 A 
BRANCH  91  94
ATOM     94  S   UNL A   1      35.106  33.249  28.955  1.00  0.00     0.127 S 
ATOM     95  O   UNL A   1      33.839  32.984  29.630  1.00  0.00    -0.237 OA
ATOM     96  O   UNL A   1      35.624  34.607  29.125  1.00  0.00    -0.237 OA
ATOM     97  O   UNL A   1      35.223  32.728  27.601  1.00  0.00    -0.744 OA
ENDBRANCH  91  94
ENDBRANCH  63  87
BRANCH  75  98
ATOM     98  C   UNL A   1      43.822  35.960  31.145  1.00  0.00     0.023 A 
ATOM     99  C   UNL A   1      44.016  36.267  32.507  1.00  0.00     0.012 A 
ATOM    100  C   UNL A   1      43.753  37.005  30.204  1.00  0.00     0.148 A 
ATOM    101  C   UNL A   1      44.090  37.594  32.929  1.00  0.00     0.002 A 
ATOM    102  C   UNL A   1      43.884  38.322  30.625  1.00  0.00     0.091 A 
ATOM    103  F   UNL A   1      43.549  36.696  28.914  1.00  0.00    -0.205 F 
ATOM    104  C   UNL A   1      44.035  38.620  31.989  1.00  0.00     0.022 A 
BRANCH 102 105
ATOM    105  S   UNL A   1      43.927  39.694  29.467  1.00  0.00     0.127 S 
ATOM    106  O   UNL A   1      44.795  39.170  28.414  1.00  0.00    -0.237 OA
ATOM    107  O   UNL A   1      42.519  39.827  29.086  1.00  0.00    -0.237 OA
ATOM    108  O   UNL A   1      44.455  40.827  30.214  1.00  0.00    -0.744 OA
ENDBRANCH 102 105
ENDBRANCH  75  98
ENDBRANCH  49  50
ENDBRANCH  41  44
ENDBRANCH  39  40
ENDBRANCH  38  39
ENDBRANCH   1  38
TORSDOF 19
ENDMDL
MODEL 3
REMARK VINA RESULT:     -12.0      3.649      9.606
REMARK SMILES C[C@H](NS(=O)(=O)c1ccc(-c2cc(-c3ccccc3)c3cc([N+](=O)[O-])ccc3n2)cc1)C(=O)NCCCNC(=O)c1ccc(-c2c3nc(c(-c4cccc(S(=O)(=O)[O-])c4F)c4ccc([nH]4)c(-c4cccc(S(=O)(=O)[O-])c4F)c4nc(c(-c5cccc(S(=O)(=O)[O-])c5F)c5ccc2[nH]5)C=C4)C=C3)cc1
REMARK SMILES IDX 35 1 34 2 32 3 33 4 2 6 1 7 3 8 4 10 5 11 6 12 7 13 8 14
REMARK SMILES IDX 31 15 9 16 30 17 10 18 11 19 12 20 29 21 13 22 28 23 20 24
REMARK SMILES IDX 27 25 21 26 26 27 22 28 14 29 15 30 19 31 16 32 18 33 17 34
REMARK SMILES IDX 23 35 24 36 25 37 36 38 37 39 38 40 39 41 40 43 41 44 42 45
REMARK SMILES IDX 103 46 43 47 102 48 44 49 45 50 46 51 96 52 47 53 101 54
REMARK SMILES IDX 95 55 97 56 48 57 100 58 94 59 93 60 49 62 81 63 61 64 80 65
REMARK SMILES IDX 62 66 65 67 79 68 98 69 63 70 64 71 78 73 99 74 66 75 50 76
REMARK SMILES IDX 51 77 59 78 52 79 54 80 60 81 53 82 55 83 56 84 57 85 58 86
REMARK SMILES IDX 82 87 83 88 91 89 84 90 86 91 92 92 85 93 87 94 88 95 89 96
REMARK SMILES IDX 90 97 67 98 68 99 76 100 69 101 71 102 77 103 70 104 72 105
REMARK SMILES IDX 73 106 74 107 75 108
REMARK H PARENT 34 5 3 9 38 42 97 61 65 72
REMARK Flexibility Score: inf
ROOT
ATOM      1  C   UNL A   1      35.081  24.423  25.130  1.00  0.00     0.117 C 
ENDROOT
BRANCH   1   2
ATOM      2  N   UNL A   1      34.167  24.246  24.017  1.00  0.00    -0.355 N 
ATOM      3  C   UNL A   1      32.891  24.695  23.869  1.00  0.00     0.237 C 
ATOM      4  O   UNL A   1      32.237  24.242  22.925  1.00  0.00    -0.273 OA
ATOM      5  H   UNL A   1      34.521  23.725  23.261  1.00  0.00     0.163 HD
BRANCH   3   6
ATOM      6  C   UNL A   1      32.297  25.765  24.799  1.00  0.00     0.155 C 
ATOM      7  C   UNL A   1      31.427  25.100  25.858  1.00  0.00     0.036 C 
BRANCH   6   8
ATOM      8  N   UNL A   1      31.650  26.855  24.056  1.00  0.00    -0.199 NA
ATOM      9  H   UNL A   1      30.801  27.082  24.574  1.00  0.00     0.142 HD
BRANCH   8  10
ATOM     10  S   UNL A   1      32.405  28.324  23.737  1.00  0.00     0.241 S 
ATOM     11  O   UNL A   1      33.577  28.007  22.965  1.00  0.00    -0.207 OA
ATOM     12  O   UNL A   1      31.394  29.242  23.242  1.00  0.00    -0.207 OA
BRANCH  10  13
ATOM     13  C   UNL A   1      32.958  28.942  25.319  1.00  0.00     0.082 A 
ATOM     14  C   UNL A   1      32.105  29.718  26.108  1.00  0.00     0.022 A 
ATOM     15  C   UNL A   1      34.237  28.630  25.782  1.00  0.00     0.022 A 
ATOM     16  C   UNL A   1      32.614  30.371  27.243  1.00  0.00     0.012 A 
ATOM     17  C   UNL A   1      34.731  29.262  26.930  1.00  0.00     0.012 A 
ATOM     18  C   UNL A   1      33.979  30.270  27.580  1.00  0.00     0.000 A 
BRANCH  18  19
ATOM     19  C   UNL A   1      34.705  31.531  28.002  1.00  0.00     0.072 A 
ATOM     20  C   UNL A   1      34.357  32.252  29.144  1.00  0.00     0.038 A 
ATOM     21  N   UNL A   1      36.025  31.272  27.801  1.00  0.00    -0.248 NA
ATOM     22  C   UNL A   1      35.236  32.160  30.226  1.00  0.00    -0.007 A 
ATOM     23  C   UNL A   1      36.674  30.827  28.876  1.00  0.00     0.072 A 
ATOM     24  C   UNL A   1      36.180  31.121  30.142  1.00  0.00     0.015 A 
ATOM     25  C   UNL A   1      37.744  29.953  28.771  1.00  0.00     0.036 A 
ATOM     26  C   UNL A   1      36.564  30.346  31.255  1.00  0.00     0.096 A 
ATOM     27  C   UNL A   1      38.157  29.192  29.875  1.00  0.00     0.088 A 
ATOM     28  C   UNL A   1      37.492  29.328  31.091  1.00  0.00     0.270 A 
BRANCH  22  29
ATOM     29  C   UNL A   1      35.337  33.056  31.398  1.00  0.00    -0.018 A 
ATOM     30  C   UNL A   1      36.462  33.927  31.442  1.00  0.00     0.009 A 
ATOM     31  C   UNL A   1      34.494  33.043  32.507  1.00  0.00     0.009 A 
ATOM     32  C   UNL A   1      36.818  34.633  32.585  1.00  0.00     0.001 A 
ATOM     33  C   UNL A   1      34.833  33.786  33.652  1.00  0.00     0.001 A 
ATOM     34  C   UNL A   1      36.006  34.548  33.701  1.00  0.00     0.000 A 
ENDBRANCH  22  29
BRANCH  28  35
ATOM     35  N   UNL A   1      37.679  28.345  32.160  1.00  0.00     0.062 N 
ATOM     36  O   UNL A   1      38.339  27.329  31.896  1.00  0.00    -0.258 OA
ATOM     37  O   UNL A   1      37.211  28.611  33.275  1.00  0.00    -0.258 OA
ENDBRANCH  28  35
ENDBRANCH  18  19
ENDBRANCH  10  13
ENDBRANCH   8  10
ENDBRANCH   6   8
ENDBRANCH   3   6
ENDBRANCH   1   2
BRANCH   1  38
ATOM     38  C   UNL A   1      36.356  23.622  24.921  1.00  0.00     0.042 C 
BRANCH  38  39
ATOM     39  C   UNL A   1      37.319  23.688  26.100  1.00  0.00     0.118 C 
BRANCH  39  40
ATOM     40  N   UNL A   1      38.087  22.462  26.262  1.00  0.00    -0.352 N 
ATOM     41  C   UNL A   1      39.432  22.287  26.476  1.00  0.00     0.251 C 
ATOM     42  H   UNL A   1      37.561  21.630  26.212  1.00  0.00     0.163 HD
ATOM     43  O   UNL A   1      39.920  21.166  26.360  1.00  0.00    -0.269 OA
BRANCH  41  44
ATOM     44  C   UNL A   1      40.289  23.436  26.840  1.00  0.00     0.039 A 
ATOM     45  C   UNL A   1      41.258  23.275  27.832  1.00  0.00     0.014 A 
ATOM     46  C   UNL A   1      40.115  24.681  26.231  1.00  0.00     0.014 A 
ATOM     47  C   UNL A   1      42.074  24.353  28.183  1.00  0.00     0.010 A 
ATOM     48  C   UNL A   1      41.001  25.718  26.500  1.00  0.00     0.010 A 
ATOM     49  C   UNL A   1      41.965  25.579  27.506  1.00  0.00    -0.014 A 
BRANCH  49  50
ATOM     50  C   UNL A   1      42.818  26.737  27.874  1.00  0.00     0.031 A 
ATOM     51  C   UNL A   1      44.154  26.936  27.202  1.00  0.00     0.074 A 
ATOM     52  C   UNL A   1      42.419  27.580  28.846  1.00  0.00     0.049 A 
ATOM     53  N   UNL A   1      45.034  27.886  27.382  1.00  0.00    -0.248 NA
ATOM     54  C   UNL A   1      44.573  25.916  26.224  1.00  0.00     0.031 C 
ATOM     55  C   UNL A   1      41.194  27.441  29.637  1.00  0.00     0.029 A 
ATOM     56  N   UNL A   1      43.008  28.714  29.344  1.00  0.00    -0.354 N 
ATOM     57  C   UNL A   1      46.117  27.561  26.573  1.00  0.00     0.074 A 
ATOM     58  C   UNL A   1      45.809  26.299  25.941  1.00  0.00     0.031 C 
ATOM     59  C   UNL A   1      41.113  28.464  30.505  1.00  0.00     0.029 A 
ATOM     60  C   UNL A   1      42.287  29.316  30.348  1.00  0.00     0.049 A 
ATOM     61  H   UNL A   1      43.866  29.065  29.013  1.00  0.00     0.167 HD
ATOM     62  C   UNL A   1      47.252  28.264  26.343  1.00  0.00     0.034 A 
ATOM     63  C   UNL A   1      42.538  30.435  31.055  1.00  0.00     0.034 A 
ATOM     64  C   UNL A   1      47.530  29.544  26.935  1.00  0.00     0.049 A 
ATOM     65  C   UNL A   1      43.767  31.239  30.726  1.00  0.00     0.074 A 
ATOM     66  C   UNL A   1      48.606  30.383  26.708  1.00  0.00     0.029 A 
ATOM     67  N   UNL A   1      46.725  30.172  27.873  1.00  0.00    -0.354 N 
ATOM     68  N   UNL A   1      44.703  30.994  29.841  1.00  0.00    -0.248 NA
ATOM     69  C   UNL A   1      43.947  32.500  31.458  1.00  0.00     0.031 C 
ATOM     70  C   UNL A   1      48.462  31.509  27.526  1.00  0.00     0.029 A 
ATOM     71  C   UNL A   1      47.278  31.387  28.235  1.00  0.00     0.049 A 
ATOM     72  H   UNL A   1      45.883  29.806  28.229  1.00  0.00     0.167 HD
ATOM     73  C   UNL A   1      45.559  32.089  29.877  1.00  0.00     0.074 A 
ATOM     74  C   UNL A   1      45.015  33.007  30.858  1.00  0.00     0.031 C 
ATOM     75  C   UNL A   1      46.695  32.313  29.172  1.00  0.00     0.034 A 
BRANCH  62  76
ATOM     76  C   UNL A   1      48.247  27.690  25.368  1.00  0.00     0.023 A 
ATOM     77  C   UNL A   1      49.366  26.978  25.849  1.00  0.00     0.012 A 
ATOM     78  C   UNL A   1      48.055  27.813  23.977  1.00  0.00     0.148 A 
ATOM     79  C   UNL A   1      50.299  26.435  24.966  1.00  0.00     0.002 A 
ATOM     80  C   UNL A   1      48.963  27.227  23.103  1.00  0.00     0.091 A 
ATOM     81  F   UNL A   1      47.000  28.512  23.537  1.00  0.00    -0.205 F 
ATOM     82  C   UNL A   1      50.092  26.550  23.595  1.00  0.00     0.022 A 
BRANCH  80  83
ATOM     83  S   UNL A   1      48.744  27.245  21.321  1.00  0.00     0.127 S 
ATOM     84  O   UNL A   1      47.409  27.826  21.193  1.00  0.00    -0.237 OA
ATOM     85  O   UNL A   1      49.833  28.119  20.885  1.00  0.00    -0.237 OA
ATOM     86  O   UNL A   1      48.866  25.860  20.887  1.00  0.00    -0.744 OA
ENDBRANCH  80  83
ENDBRANCH  62  76
BRANCH  63  87
ATOM     87  C   UNL A   1      41.563  30.908  32.077  1.00  0.00     0.023 A 
ATOM     88  C   UNL A   1      40.441  31.657  31.671  1.00  0.00     0.012 A 
ATOM     89  C   UNL A   1      41.728  30.603  33.441  1.00  0.00     0.148 A 
ATOM     90  C   UNL A   1      39.523  32.129  32.610  1.00  0.00     0.002 A 
ATOM     91  C   UNL A   1      40.779  31.028  34.365  1.00  0.00     0.091 A 
ATOM     92  F   UNL A   1      42.805  29.895  33.807  1.00  0.00    -0.205 F 
ATOM     93  C   UNL A   1      39.686  31.807  33.954  1.00  0.00     0.022 A 
BRANCH  91  94
ATOM     94  S   UNL A   1      40.839  30.552  36.095  1.00  0.00     0.127 S 
ATOM     95  O   UNL A   1      39.777  31.374  36.668  1.00  0.00    -0.237 OA
ATOM     96  O   UNL A   1      40.541  29.121  36.024  1.00  0.00    -0.237 OA
ATOM     97  O   UNL A   1      42.190  30.862  36.540  1.00  0.00    -0.744 OA
ENDBRANCH  91  94
ENDBRANCH  63  87
BRANCH  75  98
ATOM     98  C   UNL A   1      47.402  33.625  29.392  1.00  0.00     0.023 A 
ATOM     99  C   UNL A   1      48.402  33.733  30.379  1.00  0.00     0.012 A 
ATOM    100  C   UNL A   1      47.106  34.738  28.584  1.00  0.00     0.148 A 
ATOM    101  C   UNL A   1      49.061  34.945  30.589  1.00  0.00     0.002 A 
ATOM    102  C   UNL A   1      47.804  35.926  28.761  1.00  0.00     0.091 A 
ATOM    103  F   UNL A   1      46.137  34.624  27.661  1.00  0.00    -0.205 F 
ATOM    104  C   UNL A   1      48.770  36.037  29.775  1.00  0.00     0.022 A 
BRANCH 102 105
ATOM    105  S   UNL A   1      47.562  37.345  27.688  1.00  0.00     0.127 S 
ATOM    106  O   UNL A   1      46.543  38.100  28.415  1.00  0.00    -0.237 OA
ATOM    107  O   UNL A   1      48.890  37.963  27.682  1.00  0.00    -0.237 OA
ATOM    108  O   UNL A   1      47.148  36.803  26.401  1.00  0.00    -0.744 OA
ENDBRANCH 102 105
ENDBRANCH  75  98
ENDBRANCH  49  50
ENDBRANCH  41  44
ENDBRANCH  39  40
ENDBRANCH  38  39
ENDBRANCH   1  38
TORSDOF 19
ENDMDL
