MODEL 1
REMARK VINA RESULT:     -11.4      0.000      0.000
REMARK SMILES O=C(CCNc1cc(N2CCC3(CC2)OCCO3)c2noc3c2c1C(=O)c1ccccc1-3)NCCCNC(=O)c1ccc(-c2c3nc(c(-c4cccc(S(=O)(=O)[O-])c4F)c4ccc([nH]4)c(-c4cccc(S(=O)(=O)[O-])c4F)c4nc(c(-c5cccc(S(=O)(=O)[O-])c5F)c5ccc2[nH]5)C=C4)C=C3)cc1
REMARK SMILES IDX 34 1 33 2 1 3 2 4 3 6 4 7 5 8 6 10 7 11 24 12 8 13 23 14
REMARK SMILES IDX 25 15 19 16 22 17 26 18 27 19 20 20 21 21 32 22 28 23 31 24
REMARK SMILES IDX 29 25 30 26 9 27 10 28 14 29 11 30 13 31 12 32 15 33 18 34
REMARK SMILES IDX 16 35 17 36 35 37 36 38 37 39 38 40 39 42 40 43 41 44 102 45
REMARK SMILES IDX 42 46 101 47 43 48 44 49 45 50 95 51 46 52 100 53 94 54
REMARK SMILES IDX 96 55 47 56 99 57 93 58 92 59 48 61 80 62 60 63 79 64 61 65
REMARK SMILES IDX 64 66 78 67 97 68 62 69 63 70 77 72 98 73 65 74 49 75 50 76
REMARK SMILES IDX 58 77 51 78 53 79 59 80 52 81 54 82 55 83 56 84 57 85 81 86
REMARK SMILES IDX 82 87 90 88 83 89 85 90 91 91 84 92 86 93 87 94 88 95 89 96
REMARK SMILES IDX 66 97 67 98 75 99 68 100 70 101 76 102 69 103 71 104 72 105
REMARK SMILES IDX 73 106 74 107
REMARK H PARENT 33 5 5 9 37 41 96 60 64 71
REMARK Flexibility Score: inf
ROOT
ATOM      1  C   UNL A   1      41.989  26.711  36.792  1.00  0.00     0.117 C 
ENDROOT
BRANCH   1   2
ATOM      2  N   UNL A   1      41.408  27.796  36.025  1.00  0.00    -0.356 N 
ATOM      3  O   UNL A   1      42.487  29.602  36.960  1.00  0.00    -0.275 OA
ATOM      4  C   UNL A   1      41.664  29.131  36.186  1.00  0.00     0.221 C 
ATOM      5  H   UNL A   1      40.767  27.549  35.320  1.00  0.00     0.163 HD
BRANCH   4   6
ATOM      6  C   UNL A   1      40.749  29.998  35.346  1.00  0.00     0.121 C 
BRANCH   6   7
ATOM      7  C   UNL A   1      40.799  31.468  35.747  1.00  0.00     0.123 C 
BRANCH   7   8
ATOM      8  N   UNL A   1      39.836  32.281  34.975  1.00  0.00    -0.384 N 
ATOM      9  H   UNL A   1      38.951  32.493  35.350  1.00  0.00     0.160 HD
BRANCH   8  10
ATOM     10  C   UNL A   1      40.198  32.749  33.699  1.00  0.00     0.048 A 
ATOM     11  C   UNL A   1      41.557  33.244  33.562  1.00  0.00     0.054 A 
ATOM     12  C   UNL A   1      39.278  32.892  32.642  1.00  0.00     0.059 A 
ATOM     13  C   UNL A   1      42.138  33.880  32.407  1.00  0.00     0.069 A 
ATOM     14  C   UNL A   1      39.878  33.476  31.545  1.00  0.00     0.065 A 
ATOM     15  C   UNL A   1      37.826  32.564  32.559  1.00  0.00     0.196 C 
ATOM     16  C   UNL A   1      41.193  33.973  31.351  1.00  0.00     0.138 A 
ATOM     17  C   UNL A   1      39.195  33.639  30.389  1.00  0.00     0.176 A 
ATOM     18  O   UNL A   1      37.177  32.225  33.538  1.00  0.00    -0.288 OA
ATOM     19  C   UNL A   1      37.145  32.680  31.221  1.00  0.00     0.034 A 
ATOM     20  N   UNL A   1      41.264  34.454  30.084  1.00  0.00    -0.077 NA
ATOM     21  O   UNL A   1      40.012  34.231  29.486  1.00  0.00    -0.355 OA
ATOM     22  C   UNL A   1      37.840  33.233  30.120  1.00  0.00     0.032 A 
ATOM     23  C   UNL A   1      35.832  32.228  31.074  1.00  0.00     0.013 A 
ATOM     24  C   UNL A   1      37.214  33.322  28.879  1.00  0.00     0.013 A 
ATOM     25  C   UNL A   1      35.213  32.316  29.829  1.00  0.00     0.001 A 
ATOM     26  C   UNL A   1      35.900  32.860  28.738  1.00  0.00     0.001 A 
BRANCH  13  27
ATOM     27  N   UNL A   1      43.436  34.343  32.419  1.00  0.00    -0.369 N 
ATOM     28  C   UNL A   1      43.780  35.651  32.964  1.00  0.00     0.122 C 
ATOM     29  C   UNL A   1      44.482  33.659  31.668  1.00  0.00     0.122 C 
ATOM     30  C   UNL A   1      44.963  35.472  33.915  1.00  0.00     0.087 C 
ATOM     31  C   UNL A   1      45.673  33.427  32.583  1.00  0.00     0.087 C 
ATOM     32  C   UNL A   1      46.124  34.731  33.245  1.00  0.00     0.171 C 
ATOM     33  O   UNL A   1      46.739  35.581  32.254  1.00  0.00    -0.347 OA
ATOM     34  O   UNL A   1      47.101  34.413  34.254  1.00  0.00    -0.347 OA
ATOM     35  C   UNL A   1      48.000  35.949  32.819  1.00  0.00     0.192 C 
ATOM     36  C   UNL A   1      48.356  34.774  33.684  1.00  0.00     0.192 C 
ENDBRANCH  13  27
ENDBRANCH   8  10
ENDBRANCH   7   8
ENDBRANCH   6   7
ENDBRANCH   4   6
ENDBRANCH   1   2
BRANCH   1  37
ATOM     37  C   UNL A   1      41.215  25.415  36.560  1.00  0.00     0.042 C 
BRANCH  37  38
ATOM     38  C   UNL A   1      41.879  24.485  35.537  1.00  0.00     0.118 C 
BRANCH  38  39
ATOM     39  N   UNL A   1      43.004  23.722  36.048  1.00  0.00    -0.352 N 
ATOM     40  C   UNL A   1      44.299  23.682  35.582  1.00  0.00     0.251 C 
ATOM     41  H   UNL A   1      42.815  23.157  36.832  1.00  0.00     0.163 HD
ATOM     42  O   UNL A   1      45.137  22.987  36.134  1.00  0.00    -0.269 OA
BRANCH  40  43
ATOM     43  C   UNL A   1      44.630  24.463  34.374  1.00  0.00     0.039 A 
ATOM     44  C   UNL A   1      45.186  25.740  34.492  1.00  0.00     0.014 A 
ATOM     45  C   UNL A   1      44.299  23.934  33.124  1.00  0.00     0.014 A 
ATOM     46  C   UNL A   1      45.297  26.543  33.366  1.00  0.00     0.010 A 
ATOM     47  C   UNL A   1      44.455  24.724  31.989  1.00  0.00     0.010 A 
ATOM     48  C   UNL A   1      44.926  26.037  32.114  1.00  0.00    -0.014 A 
BRANCH  48  49
ATOM     49  C   UNL A   1      45.182  26.892  30.949  1.00  0.00     0.031 A 
ATOM     50  C   UNL A   1      45.283  26.138  29.669  1.00  0.00     0.074 A 
ATOM     51  C   UNL A   1      44.854  28.199  30.914  1.00  0.00     0.049 A 
ATOM     52  N   UNL A   1      44.229  25.777  28.999  1.00  0.00    -0.248 NA
ATOM     53  C   UNL A   1      46.521  25.504  29.221  1.00  0.00     0.031 C 
ATOM     54  C   UNL A   1      43.753  28.792  31.684  1.00  0.00     0.029 A 
ATOM     55  N   UNL A   1      45.237  29.193  30.044  1.00  0.00    -0.354 N 
ATOM     56  C   UNL A   1      44.633  24.817  28.094  1.00  0.00     0.074 A 
ATOM     57  C   UNL A   1      46.067  24.700  28.246  1.00  0.00     0.031 C 
ATOM     58  C   UNL A   1      43.417  29.968  31.114  1.00  0.00     0.029 A 
ATOM     59  C   UNL A   1      44.380  30.290  30.066  1.00  0.00     0.049 A 
ATOM     60  H   UNL A   1      46.033  29.135  29.468  1.00  0.00     0.167 HD
ATOM     61  C   UNL A   1      43.767  24.154  27.285  1.00  0.00     0.034 A 
ATOM     62  C   UNL A   1      44.143  31.113  29.008  1.00  0.00     0.034 A 
ATOM     63  C   UNL A   1      42.386  24.516  27.423  1.00  0.00     0.049 A 
ATOM     64  C   UNL A   1      43.376  30.188  28.091  1.00  0.00     0.074 A 
ATOM     65  C   UNL A   1      41.291  24.045  28.115  1.00  0.00     0.029 A 
ATOM     66  N   UNL A   1      41.959  25.690  26.848  1.00  0.00    -0.354 N 
ATOM     67  N   UNL A   1      42.119  29.850  28.216  1.00  0.00    -0.248 NA
ATOM     68  C   UNL A   1      44.156  29.314  27.212  1.00  0.00     0.031 C 
ATOM     69  C   UNL A   1      40.428  25.175  28.287  1.00  0.00     0.029 A 
ATOM     70  C   UNL A   1      41.070  26.273  27.717  1.00  0.00     0.049 A 
ATOM     71  H   UNL A   1      42.239  26.047  25.974  1.00  0.00     0.167 HD
ATOM     72  C   UNL A   1      42.031  28.557  27.693  1.00  0.00     0.074 A 
ATOM     73  C   UNL A   1      43.316  28.298  27.074  1.00  0.00     0.031 C 
ATOM     74  C   UNL A   1      40.993  27.703  27.931  1.00  0.00     0.034 A 
BRANCH  61  75
ATOM     75  C   UNL A   1      44.211  23.256  26.200  1.00  0.00     0.023 A 
ATOM     76  C   UNL A   1      44.805  23.867  25.079  1.00  0.00     0.012 A 
ATOM     77  C   UNL A   1      43.944  21.877  26.185  1.00  0.00     0.148 A 
ATOM     78  C   UNL A   1      45.101  23.127  23.939  1.00  0.00     0.002 A 
ATOM     79  C   UNL A   1      44.246  21.141  25.043  1.00  0.00     0.091 A 
ATOM     80  F   UNL A   1      43.380  21.320  27.266  1.00  0.00    -0.205 F 
ATOM     81  C   UNL A   1      44.815  21.767  23.919  1.00  0.00     0.022 A 
BRANCH  79  82
ATOM     82  S   UNL A   1      43.928  19.379  24.892  1.00  0.00     0.127 S 
ATOM     83  O   UNL A   1      42.490  19.307  25.147  1.00  0.00    -0.237 OA
ATOM     84  O   UNL A   1      44.315  19.121  23.505  1.00  0.00    -0.237 OA
ATOM     85  O   UNL A   1      44.772  18.731  25.887  1.00  0.00    -0.744 OA
ENDBRANCH  79  82
ENDBRANCH  61  75
BRANCH  62  86
ATOM     86  C   UNL A   1      45.335  31.922  28.567  1.00  0.00     0.023 A 
ATOM     87  C   UNL A   1      46.584  31.610  29.165  1.00  0.00     0.012 A 
ATOM     88  C   UNL A   1      45.319  32.961  27.619  1.00  0.00     0.148 A 
ATOM     89  C   UNL A   1      47.773  32.216  28.759  1.00  0.00     0.002 A 
ATOM     90  C   UNL A   1      46.516  33.527  27.174  1.00  0.00     0.091 A 
ATOM     91  F   UNL A   1      44.144  33.388  27.143  1.00  0.00    -0.205 F 
ATOM     92  C   UNL A   1      47.742  33.156  27.741  1.00  0.00     0.022 A 
BRANCH  90  93
ATOM     93  S   UNL A   1      46.586  34.690  25.805  1.00  0.00     0.127 S 
ATOM     94  O   UNL A   1      46.216  35.949  26.451  1.00  0.00    -0.237 OA
ATOM     95  O   UNL A   1      47.990  34.588  25.413  1.00  0.00    -0.237 OA
ATOM     96  O   UNL A   1      45.629  34.202  24.821  1.00  0.00    -0.744 OA
ENDBRANCH  90  93
ENDBRANCH  62  86
BRANCH  74  97
ATOM     97  C   UNL A   1      39.793  28.281  28.616  1.00  0.00     0.023 A 
ATOM     98  C   UNL A   1      38.756  28.789  27.813  1.00  0.00     0.012 A 
ATOM     99  C   UNL A   1      39.629  28.248  30.015  1.00  0.00     0.148 A 
ATOM    100  C   UNL A   1      37.564  29.231  28.383  1.00  0.00     0.002 A 
ATOM    101  C   UNL A   1      38.427  28.665  30.578  1.00  0.00     0.091 A 
ATOM    102  F   UNL A   1      40.631  27.776  30.774  1.00  0.00    -0.205 F 
ATOM    103  C   UNL A   1      37.394  29.158  29.762  1.00  0.00     0.022 A 
BRANCH 101 104
ATOM    104  S   UNL A   1      38.083  28.565  32.339  1.00  0.00     0.127 S 
ATOM    105  O   UNL A   1      39.134  29.410  32.907  1.00  0.00    -0.237 OA
ATOM    106  O   UNL A   1      36.738  29.137  32.416  1.00  0.00    -0.237 OA
ATOM    107  O   UNL A   1      38.180  27.157  32.697  1.00  0.00    -0.744 OA
ENDBRANCH 101 104
ENDBRANCH  74  97
ENDBRANCH  48  49
ENDBRANCH  40  43
ENDBRANCH  38  39
ENDBRANCH  37  38
ENDBRANCH   1  37
TORSDOF 17
ENDMDL
MODEL 2
REMARK VINA RESULT:     -11.3      1.242      4.374
REMARK SMILES O=C(CCNc1cc(N2CCC3(CC2)OCCO3)c2noc3c2c1C(=O)c1ccccc1-3)NCCCNC(=O)c1ccc(-c2c3nc(c(-c4cccc(S(=O)(=O)[O-])c4F)c4ccc([nH]4)c(-c4cccc(S(=O)(=O)[O-])c4F)c4nc(c(-c5cccc(S(=O)(=O)[O-])c5F)c5ccc2[nH]5)C=C4)C=C3)cc1
REMARK SMILES IDX 34 1 33 2 1 3 2 4 3 6 4 7 5 8 6 10 7 11 24 12 8 13 23 14
REMARK SMILES IDX 25 15 19 16 22 17 26 18 27 19 20 20 21 21 32 22 28 23 31 24
REMARK SMILES IDX 29 25 30 26 9 27 10 28 14 29 11 30 13 31 12 32 15 33 18 34
REMARK SMILES IDX 16 35 17 36 35 37 36 38 37 39 38 40 39 42 40 43 41 44 102 45
REMARK SMILES IDX 42 46 101 47 43 48 44 49 45 50 95 51 46 52 100 53 94 54
REMARK SMILES IDX 96 55 47 56 99 57 93 58 92 59 48 61 80 62 60 63 79 64 61 65
REMARK SMILES IDX 64 66 78 67 97 68 62 69 63 70 77 72 98 73 65 74 49 75 50 76
REMARK SMILES IDX 58 77 51 78 53 79 59 80 52 81 54 82 55 83 56 84 57 85 81 86
REMARK SMILES IDX 82 87 90 88 83 89 85 90 91 91 84 92 86 93 87 94 88 95 89 96
REMARK SMILES IDX 66 97 67 98 75 99 68 100 70 101 76 102 69 103 71 104 72 105
REMARK SMILES IDX 73 106 74 107
REMARK H PARENT 33 5 5 9 37 41 96 60 64 71
REMARK Flexibility Score: inf
ROOT
ATOM      1  C   UNL A   1      42.878  26.448  37.281  1.00  0.00     0.117 C 
ENDROOT
BRANCH   1   2
ATOM      2  N   UNL A   1      42.924  27.488  36.272  1.00  0.00    -0.356 N 
ATOM      3  O   UNL A   1      40.797  28.350  36.453  1.00  0.00    -0.275 OA
ATOM      4  C   UNL A   1      41.895  28.317  35.914  1.00  0.00     0.221 C 
ATOM      5  H   UNL A   1      43.778  27.610  35.798  1.00  0.00     0.163 HD
BRANCH   4   6
ATOM      6  C   UNL A   1      42.230  29.159  34.700  1.00  0.00     0.121 C 
BRANCH   6   7
ATOM      7  C   UNL A   1      41.980  30.645  34.928  1.00  0.00     0.123 C 
BRANCH   7   8
ATOM      8  N   UNL A   1      43.084  31.476  34.401  1.00  0.00    -0.384 N 
ATOM      9  H   UNL A   1      43.999  31.360  34.742  1.00  0.00     0.160 HD
BRANCH   8  10
ATOM     10  C   UNL A   1      42.810  32.433  33.408  1.00  0.00     0.048 A 
ATOM     11  C   UNL A   1      41.408  32.641  33.090  1.00  0.00     0.054 A 
ATOM     12  C   UNL A   1      43.814  33.053  32.638  1.00  0.00     0.059 A 
ATOM     13  C   UNL A   1      40.868  33.468  32.042  1.00  0.00     0.069 A 
ATOM     14  C   UNL A   1      43.260  33.859  31.666  1.00  0.00     0.065 A 
ATOM     15  C   UNL A   1      45.299  32.934  32.691  1.00  0.00     0.196 C 
ATOM     16  C   UNL A   1      41.907  34.104  31.312  1.00  0.00     0.138 A 
ATOM     17  C   UNL A   1      44.045  34.609  30.859  1.00  0.00     0.176 A 
ATOM     18  O   UNL A   1      45.863  32.102  33.389  1.00  0.00    -0.288 OA
ATOM     19  C   UNL A   1      46.119  33.861  31.834  1.00  0.00     0.034 A 
ATOM     20  N   UNL A   1      41.910  34.978  30.274  1.00  0.00    -0.077 NA
ATOM     21  O   UNL A   1      43.252  35.298  30.005  1.00  0.00    -0.355 OA
ATOM     22  C   UNL A   1      45.481  34.708  30.899  1.00  0.00     0.032 A 
ATOM     23  C   UNL A   1      47.508  33.887  31.980  1.00  0.00     0.013 A 
ATOM     24  C   UNL A   1      46.240  35.579  30.121  1.00  0.00     0.013 A 
ATOM     25  C   UNL A   1      48.261  34.763  31.201  1.00  0.00     0.001 A 
ATOM     26  C   UNL A   1      47.631  35.604  30.278  1.00  0.00     0.001 A 
BRANCH  13  27
ATOM     27  N   UNL A   1      39.511  33.549  31.817  1.00  0.00    -0.369 N 
ATOM     28  C   UNL A   1      38.870  32.836  30.718  1.00  0.00     0.122 C 
ATOM     29  C   UNL A   1      38.694  34.539  32.510  1.00  0.00     0.122 C 
ATOM     30  C   UNL A   1      37.655  32.096  31.278  1.00  0.00     0.087 C 
ATOM     31  C   UNL A   1      37.486  33.844  33.115  1.00  0.00     0.087 C 
ATOM     32  C   UNL A   1      36.730  33.033  32.061  1.00  0.00     0.171 C 
ATOM     33  O   UNL A   1      36.064  33.934  31.152  1.00  0.00    -0.347 OA
ATOM     34  O   UNL A   1      35.737  32.233  32.731  1.00  0.00    -0.347 OA
ATOM     35  C   UNL A   1      34.706  33.487  31.121  1.00  0.00     0.192 C 
ATOM     36  C   UNL A   1      34.498  32.893  32.485  1.00  0.00     0.192 C 
ENDBRANCH  13  27
ENDBRANCH   8  10
ENDBRANCH   7   8
ENDBRANCH   6   7
ENDBRANCH   4   6
ENDBRANCH   1   2
BRANCH   1  37
ATOM     37  C   UNL A   1      44.271  26.197  37.857  1.00  0.00     0.042 C 
BRANCH  37  38
ATOM     38  C   UNL A   1      45.213  25.488  36.877  1.00  0.00     0.118 C 
BRANCH  38  39
ATOM     39  N   UNL A   1      44.898  24.092  36.628  1.00  0.00    -0.352 N 
ATOM     40  C   UNL A   1      44.791  23.437  35.421  1.00  0.00     0.251 C 
ATOM     41  H   UNL A   1      44.740  23.542  37.429  1.00  0.00     0.163 HD
ATOM     42  O   UNL A   1      44.523  22.247  35.383  1.00  0.00    -0.269 OA
BRANCH  40  43
ATOM     43  C   UNL A   1      44.960  24.222  34.183  1.00  0.00     0.039 A 
ATOM     44  C   UNL A   1      46.237  24.606  33.763  1.00  0.00     0.014 A 
ATOM     45  C   UNL A   1      43.820  24.639  33.494  1.00  0.00     0.014 A 
ATOM     46  C   UNL A   1      46.368  25.514  32.722  1.00  0.00     0.010 A 
ATOM     47  C   UNL A   1      43.956  25.514  32.420  1.00  0.00     0.010 A 
ATOM     48  C   UNL A   1      45.227  25.973  32.053  1.00  0.00    -0.014 A 
BRANCH  48  49
ATOM     49  C   UNL A   1      45.443  26.835  30.885  1.00  0.00     0.031 A 
ATOM     50  C   UNL A   1      45.531  26.085  29.602  1.00  0.00     0.074 A 
ATOM     51  C   UNL A   1      45.089  28.135  30.859  1.00  0.00     0.049 A 
ATOM     52  N   UNL A   1      44.470  25.706  28.953  1.00  0.00    -0.248 NA
ATOM     53  C   UNL A   1      46.771  25.475  29.127  1.00  0.00     0.031 C 
ATOM     54  C   UNL A   1      43.994  28.706  31.654  1.00  0.00     0.029 A 
ATOM     55  N   UNL A   1      45.435  29.138  29.984  1.00  0.00    -0.354 N 
ATOM     56  C   UNL A   1      44.872  24.754  28.038  1.00  0.00     0.074 A 
ATOM     57  C   UNL A   1      46.311  24.664  28.160  1.00  0.00     0.031 C 
ATOM     58  C   UNL A   1      43.624  29.876  31.094  1.00  0.00     0.029 A 
ATOM     59  C   UNL A   1      44.558  30.219  30.027  1.00  0.00     0.049 A 
ATOM     60  H   UNL A   1      46.220  29.095  29.391  1.00  0.00     0.167 HD
ATOM     61  C   UNL A   1      44.002  24.077  27.246  1.00  0.00     0.034 A 
ATOM     62  C   UNL A   1      44.284  31.039  28.975  1.00  0.00     0.034 A 
ATOM     63  C   UNL A   1      42.618  24.412  27.413  1.00  0.00     0.049 A 
ATOM     64  C   UNL A   1      43.515  30.101  28.072  1.00  0.00     0.074 A 
ATOM     65  C   UNL A   1      41.546  23.920  28.128  1.00  0.00     0.029 A 
ATOM     66  N   UNL A   1      42.157  25.579  26.850  1.00  0.00    -0.354 N 
ATOM     67  N   UNL A   1      42.268  29.740  28.223  1.00  0.00    -0.248 NA
ATOM     68  C   UNL A   1      44.293  29.244  27.176  1.00  0.00     0.031 C 
ATOM     69  C   UNL A   1      40.666  25.033  28.320  1.00  0.00     0.029 A 
ATOM     70  C   UNL A   1      41.276  26.145  27.739  1.00  0.00     0.049 A 
ATOM     71  H   UNL A   1      42.412  25.943  25.972  1.00  0.00     0.167 HD
ATOM     72  C   UNL A   1      42.193  28.446  27.699  1.00  0.00     0.074 A 
ATOM     73  C   UNL A   1      43.470  28.212  27.053  1.00  0.00     0.031 C 
ATOM     74  C   UNL A   1      41.176  27.573  27.957  1.00  0.00     0.034 A 
BRANCH  61  75
ATOM     75  C   UNL A   1      44.440  23.190  26.150  1.00  0.00     0.023 A 
ATOM     76  C   UNL A   1      45.078  23.805  25.057  1.00  0.00     0.012 A 
ATOM     77  C   UNL A   1      44.128  21.821  26.097  1.00  0.00     0.148 A 
ATOM     78  C   UNL A   1      45.374  23.082  23.906  1.00  0.00     0.002 A 
ATOM     79  C   UNL A   1      44.430  21.100  24.945  1.00  0.00     0.091 A 
ATOM     80  F   UNL A   1      43.523  21.258  27.154  1.00  0.00    -0.205 F 
ATOM     81  C   UNL A   1      45.044  21.733  23.848  1.00  0.00     0.022 A 
BRANCH  79  82
ATOM     82  S   UNL A   1      44.058  19.354  24.747  1.00  0.00     0.127 S 
ATOM     83  O   UNL A   1      42.632  19.310  25.066  1.00  0.00    -0.237 OA
ATOM     84  O   UNL A   1      44.374  19.138  23.335  1.00  0.00    -0.237 OA
ATOM     85  O   UNL A   1      44.929  18.649  25.678  1.00  0.00    -0.744 OA
ENDBRANCH  79  82
ENDBRANCH  61  75
BRANCH  62  86
ATOM     86  C   UNL A   1      45.451  31.871  28.511  1.00  0.00     0.023 A 
ATOM     87  C   UNL A   1      46.723  31.560  29.058  1.00  0.00     0.012 A 
ATOM     88  C   UNL A   1      45.391  32.930  27.587  1.00  0.00     0.148 A 
ATOM     89  C   UNL A   1      47.891  32.189  28.624  1.00  0.00     0.002 A 
ATOM     90  C   UNL A   1      46.565  33.519  27.114  1.00  0.00     0.091 A 
ATOM     91  F   UNL A   1      44.195  33.354  27.162  1.00  0.00    -0.205 F 
ATOM     92  C   UNL A   1      47.815  33.150  27.629  1.00  0.00     0.022 A 
BRANCH  90  93
ATOM     93  S   UNL A   1      46.575  34.712  25.769  1.00  0.00     0.127 S 
ATOM     94  O   UNL A   1      45.513  34.206  24.901  1.00  0.00    -0.237 OA
ATOM     95  O   UNL A   1      46.252  35.949  26.480  1.00  0.00    -0.237 OA
ATOM     96  O   UNL A   1      47.913  34.656  25.198  1.00  0.00    -0.744 OA
ENDBRANCH  90  93
ENDBRANCH  62  86
BRANCH  74  97
ATOM     97  C   UNL A   1      39.981  28.127  28.669  1.00  0.00     0.023 A 
ATOM     98  C   UNL A   1      38.895  28.567  27.890  1.00  0.00     0.012 A 
ATOM     99  C   UNL A   1      39.870  28.134  30.074  1.00  0.00     0.148 A 
ATOM    100  C   UNL A   1      37.708  28.982  28.490  1.00  0.00     0.002 A 
ATOM    101  C   UNL A   1      38.673  28.524  30.668  1.00  0.00     0.091 A 
ATOM    102  F   UNL A   1      40.917  27.727  30.808  1.00  0.00    -0.205 F 
ATOM    103  C   UNL A   1      37.592  28.949  29.877  1.00  0.00     0.022 A 
BRANCH 101 104
ATOM    104  S   UNL A   1      38.399  28.471  32.443  1.00  0.00     0.127 S 
ATOM    105  O   UNL A   1      39.363  29.456  32.934  1.00  0.00    -0.237 OA
ATOM    106  O   UNL A   1      37.000  28.890  32.544  1.00  0.00    -0.237 OA
ATOM    107  O   UNL A   1      38.668  27.101  32.859  1.00  0.00    -0.744 OA
ENDBRANCH 101 104
ENDBRANCH  74  97
ENDBRANCH  48  49
ENDBRANCH  40  43
ENDBRANCH  38  39
ENDBRANCH  37  38
ENDBRANCH   1  37
TORSDOF 17
ENDMDL
MODEL 3
REMARK VINA RESULT:     -11.2      5.248     12.190
REMARK SMILES O=C(CCNc1cc(N2CCC3(CC2)OCCO3)c2noc3c2c1C(=O)c1ccccc1-3)NCCCNC(=O)c1ccc(-c2c3nc(c(-c4cccc(S(=O)(=O)[O-])c4F)c4ccc([nH]4)c(-c4cccc(S(=O)(=O)[O-])c4F)c4nc(c(-c5cccc(S(=O)(=O)[O-])c5F)c5ccc2[nH]5)C=C4)C=C3)cc1
REMARK SMILES IDX 34 1 33 2 1 3 2 4 3 6 4 7 5 8 6 10 7 11 24 12 8 13 23 14
REMARK SMILES IDX 25 15 19 16 22 17 26 18 27 19 20 20 21 21 32 22 28 23 31 24
REMARK SMILES IDX 29 25 30 26 9 27 10 28 14 29 11 30 13 31 12 32 15 33 18 34
REMARK SMILES IDX 16 35 17 36 35 37 36 38 37 39 38 40 39 42 40 43 41 44 102 45
REMARK SMILES IDX 42 46 101 47 43 48 44 49 45 50 95 51 46 52 100 53 94 54
REMARK SMILES IDX 96 55 47 56 99 57 93 58 92 59 48 61 80 62 60 63 79 64 61 65
REMARK SMILES IDX 64 66 78 67 97 68 62 69 63 70 77 72 98 73 65 74 49 75 50 76
REMARK SMILES IDX 58 77 51 78 53 79 59 80 52 81 54 82 55 83 56 84 57 85 81 86
REMARK SMILES IDX 82 87 90 88 83 89 85 90 91 91 84 92 86 93 87 94 88 95 89 96
REMARK SMILES IDX 66 97 67 98 75 99 68 100 70 101 76 102 69 103 71 104 72 105
REMARK SMILES IDX 73 106 74 107
REMARK H PARENT 33 5 5 9 37 41 96 60 64 71
REMARK Flexibility Score: inf
ROOT
ATOM      1  C   UNL A   1      41.590  23.342  27.384  1.00  0.00     0.117 C 
ENDROOT
BRANCH   1   2
ATOM      2  N   UNL A   1      40.334  23.341  26.661  1.00  0.00    -0.356 N 
ATOM      3  O   UNL A   1      39.121  24.847  27.910  1.00  0.00    -0.275 OA
ATOM      4  C   UNL A   1      39.208  24.046  26.989  1.00  0.00     0.221 C 
ATOM      5  H   UNL A   1      40.286  22.778  25.854  1.00  0.00     0.163 HD
BRANCH   4   6
ATOM      6  C   UNL A   1      38.021  23.670  26.126  1.00  0.00     0.121 C 
BRANCH   6   7
ATOM      7  C   UNL A   1      38.076  22.224  25.647  1.00  0.00     0.123 C 
BRANCH   7   8
ATOM      8  N   UNL A   1      37.315  22.030  24.395  1.00  0.00    -0.384 N 
ATOM      9  H   UNL A   1      37.784  21.972  23.532  1.00  0.00     0.160 HD
BRANCH   8  10
ATOM     10  C   UNL A   1      35.913  21.929  24.451  1.00  0.00     0.048 A 
ATOM     11  C   UNL A   1      35.182  23.185  24.456  1.00  0.00     0.054 A 
ATOM     12  C   UNL A   1      35.236  20.710  24.652  1.00  0.00     0.059 A 
ATOM     13  C   UNL A   1      33.763  23.363  24.625  1.00  0.00     0.069 A 
ATOM     14  C   UNL A   1      33.879  20.918  24.778  1.00  0.00     0.065 A 
ATOM     15  C   UNL A   1      35.750  19.317  24.784  1.00  0.00     0.196 C 
ATOM     16  C   UNL A   1      33.111  22.112  24.788  1.00  0.00     0.138 A 
ATOM     17  C   UNL A   1      33.027  19.874  24.903  1.00  0.00     0.176 A 
ATOM     18  O   UNL A   1      36.944  19.068  24.876  1.00  0.00    -0.288 OA
ATOM     19  C   UNL A   1      34.752  18.191  24.828  1.00  0.00     0.034 A 
ATOM     20  N   UNL A   1      31.810  21.759  24.950  1.00  0.00    -0.077 NA
ATOM     21  O   UNL A   1      31.767  20.355  25.009  1.00  0.00    -0.355 OA
ATOM     22  C   UNL A   1      33.369  18.475  24.895  1.00  0.00     0.032 A 
ATOM     23  C   UNL A   1      35.202  16.869  24.789  1.00  0.00     0.013 A 
ATOM     24  C   UNL A   1      32.447  17.432  24.916  1.00  0.00     0.013 A 
ATOM     25  C   UNL A   1      34.274  15.830  24.806  1.00  0.00     0.001 A 
ATOM     26  C   UNL A   1      32.905  16.110  24.869  1.00  0.00     0.001 A 
BRANCH  13  27
ATOM     27  N   UNL A   1      33.195  24.618  24.651  1.00  0.00    -0.369 N 
ATOM     28  C   UNL A   1      32.450  25.101  25.808  1.00  0.00     0.122 C 
ATOM     29  C   UNL A   1      33.099  25.423  23.438  1.00  0.00     0.122 C 
ATOM     30  C   UNL A   1      32.969  26.495  26.159  1.00  0.00     0.087 C 
ATOM     31  C   UNL A   1      33.638  26.815  23.728  1.00  0.00     0.087 C 
ATOM     32  C   UNL A   1      32.949  27.431  24.947  1.00  0.00     0.171 C 
ATOM     33  O   UNL A   1      31.585  27.762  24.608  1.00  0.00    -0.347 OA
ATOM     34  O   UNL A   1      33.645  28.642  25.298  1.00  0.00    -0.347 OA
ATOM     35  C   UNL A   1      31.432  29.129  24.997  1.00  0.00     0.192 C 
ATOM     36  C   UNL A   1      32.812  29.700  24.833  1.00  0.00     0.192 C 
ENDBRANCH  13  27
ENDBRANCH   8  10
ENDBRANCH   7   8
ENDBRANCH   6   7
ENDBRANCH   4   6
ENDBRANCH   1   2
BRANCH   1  37
ATOM     37  C   UNL A   1      42.596  24.274  26.712  1.00  0.00     0.042 C 
BRANCH  37  38
ATOM     38  C   UNL A   1      42.316  25.759  26.972  1.00  0.00     0.118 C 
BRANCH  38  39
ATOM     39  N   UNL A   1      42.454  26.619  25.810  1.00  0.00    -0.352 N 
ATOM     40  C   UNL A   1      42.090  27.940  25.670  1.00  0.00     0.251 C 
ATOM     41  H   UNL A   1      42.861  26.201  25.017  1.00  0.00     0.163 HD
ATOM     42  O   UNL A   1      42.283  28.529  24.618  1.00  0.00    -0.269 OA
BRANCH  40  43
ATOM     43  C   UNL A   1      41.423  28.605  26.806  1.00  0.00     0.039 A 
ATOM     44  C   UNL A   1      42.180  29.144  27.850  1.00  0.00     0.014 A 
ATOM     45  C   UNL A   1      40.027  28.606  26.853  1.00  0.00     0.014 A 
ATOM     46  C   UNL A   1      41.542  29.575  29.004  1.00  0.00     0.010 A 
ATOM     47  C   UNL A   1      39.386  29.083  27.993  1.00  0.00     0.010 A 
ATOM     48  C   UNL A   1      40.144  29.540  29.078  1.00  0.00    -0.014 A 
BRANCH  48  49
ATOM     49  C   UNL A   1      39.527  30.123  30.276  1.00  0.00     0.031 A 
ATOM     50  C   UNL A   1      39.851  29.386  31.529  1.00  0.00     0.074 A 
ATOM     51  C   UNL A   1      39.162  31.417  30.354  1.00  0.00     0.049 A 
ATOM     52  N   UNL A   1      40.962  29.583  32.174  1.00  0.00    -0.248 NA
ATOM     53  C   UNL A   1      39.106  28.208  31.967  1.00  0.00     0.031 C 
ATOM     54  C   UNL A   1      39.799  32.500  29.593  1.00  0.00     0.029 A 
ATOM     55  N   UNL A   1      38.358  32.065  31.263  1.00  0.00    -0.354 N 
ATOM     56  C   UNL A   1      41.116  28.526  33.048  1.00  0.00     0.074 A 
ATOM     57  C   UNL A   1      39.927  27.713  32.907  1.00  0.00     0.031 C 
ATOM     58  C   UNL A   1      39.520  33.672  30.202  1.00  0.00     0.029 A 
ATOM     59  C   UNL A   1      38.554  33.444  31.271  1.00  0.00     0.049 A 
ATOM     60  H   UNL A   1      37.713  31.603  31.845  1.00  0.00     0.167 HD
ATOM     61  C   UNL A   1      42.219  28.363  33.823  1.00  0.00     0.034 A 
ATOM     62  C   UNL A   1      38.378  34.249  32.356  1.00  0.00     0.034 A 
ATOM     63  C   UNL A   1      43.231  29.369  33.684  1.00  0.00     0.049 A 
ATOM     64  C   UNL A   1      39.528  33.806  33.231  1.00  0.00     0.074 A 
ATOM     65  C   UNL A   1      44.396  29.525  32.962  1.00  0.00     0.029 A 
ATOM     66  N   UNL A   1      43.032  30.585  34.295  1.00  0.00    -0.354 N 
ATOM     67  N   UNL A   1      40.783  34.144  33.079  1.00  0.00    -0.248 NA
ATOM     68  C   UNL A   1      39.312  32.637  34.086  1.00  0.00     0.031 C 
ATOM     69  C   UNL A   1      44.576  30.939  32.822  1.00  0.00     0.029 A 
ATOM     70  C   UNL A   1      43.487  31.556  33.438  1.00  0.00     0.049 A 
ATOM     71  H   UNL A   1      42.635  30.731  35.184  1.00  0.00     0.167 HD
ATOM     72  C   UNL A   1      41.517  33.054  33.555  1.00  0.00     0.074 A 
ATOM     73  C   UNL A   1      40.549  32.173  34.178  1.00  0.00     0.031 C 
ATOM     74  C   UNL A   1      42.836  32.838  33.275  1.00  0.00     0.034 A 
BRANCH  61  75
ATOM     75  C   UNL A   1      42.310  27.336  34.880  1.00  0.00     0.023 A 
ATOM     76  C   UNL A   1      41.529  27.545  36.033  1.00  0.00     0.012 A 
ATOM     77  C   UNL A   1      43.223  26.269  34.838  1.00  0.00     0.148 A 
ATOM     78  C   UNL A   1      41.675  26.727  37.148  1.00  0.00     0.002 A 
ATOM     79  C   UNL A   1      43.361  25.450  35.955  1.00  0.00     0.091 A 
ATOM     80  F   UNL A   1      43.952  26.090  33.727  1.00  0.00    -0.205 F 
ATOM     81  C   UNL A   1      42.595  25.686  37.112  1.00  0.00     0.022 A 
BRANCH  79  82
ATOM     82  S   UNL A   1      44.511  24.073  36.033  1.00  0.00     0.127 S 
ATOM     83  O   UNL A   1      45.630  24.565  35.232  1.00  0.00    -0.237 OA
ATOM     84  O   UNL A   1      44.781  23.987  37.469  1.00  0.00    -0.237 OA
ATOM     85  O   UNL A   1      43.803  22.926  35.480  1.00  0.00    -0.744 OA
ENDBRANCH  79  82
ENDBRANCH  61  75
BRANCH  62  86
ATOM     86  C   UNL A   1      36.953  34.343  32.838  1.00  0.00     0.023 A 
ATOM     87  C   UNL A   1      36.727  34.149  34.225  1.00  0.00     0.012 A 
ATOM     88  C   UNL A   1      35.829  34.602  32.034  1.00  0.00     0.148 A 
ATOM     89  C   UNL A   1      35.468  34.319  34.803  1.00  0.00     0.002 A 
ATOM     90  C   UNL A   1      34.581  34.827  32.620  1.00  0.00     0.091 A 
ATOM     91  F   UNL A   1      35.976  34.642  30.704  1.00  0.00    -0.205 F 
ATOM     92  C   UNL A   1      34.399  34.687  34.001  1.00  0.00     0.022 A 
BRANCH  90  93
ATOM     93  S   UNL A   1      33.157  35.388  31.676  1.00  0.00     0.127 S 
ATOM     94  O   UNL A   1      33.446  36.811  31.499  1.00  0.00    -0.237 OA
ATOM     95  O   UNL A   1      33.278  34.579  30.465  1.00  0.00    -0.237 OA
ATOM     96  O   UNL A   1      31.994  35.097  32.504  1.00  0.00    -0.744 OA
ENDBRANCH  90  93
ENDBRANCH  62  86
BRANCH  74  97
ATOM     97  C   UNL A   1      43.569  33.955  32.598  1.00  0.00     0.023 A 
ATOM     98  C   UNL A   1      44.316  34.836  33.401  1.00  0.00     0.012 A 
ATOM     99  C   UNL A   1      43.611  34.095  31.196  1.00  0.00     0.148 A 
ATOM    100  C   UNL A   1      45.115  35.822  32.826  1.00  0.00     0.002 A 
ATOM    101  C   UNL A   1      44.431  35.064  30.626  1.00  0.00     0.091 A 
ATOM    102  F   UNL A   1      42.882  33.260  30.440  1.00  0.00    -0.205 F 
ATOM    103  C   UNL A   1      45.183  35.928  31.440  1.00  0.00     0.022 A 
BRANCH 101 104
ATOM    104  S   UNL A   1      44.632  35.253  28.850  1.00  0.00     0.127 S 
ATOM    105  O   UNL A   1      45.317  34.014  28.482  1.00  0.00    -0.237 OA
ATOM    106  O   UNL A   1      43.243  35.335  28.397  1.00  0.00    -0.237 OA
ATOM    107  O   UNL A   1      45.420  36.463  28.653  1.00  0.00    -0.744 OA
ENDBRANCH 101 104
ENDBRANCH  74  97
ENDBRANCH  48  49
ENDBRANCH  40  43
ENDBRANCH  38  39
ENDBRANCH  37  38
ENDBRANCH   1  37
TORSDOF 17
ENDMDL
