MODEL 1
REMARK VINA RESULT:     -12.7      0.000      0.000
REMARK SMILES O=C(COc1ccccc1Br)Nc1cccc(C(=O)Nc2ccc(C(=O)NCCCNC(=O)c3ccc(-c4c5nc(c(-c6cccc(S(=O)(=O)[O-])c6F)c6ccc([nH]6)c(-c6cccc(S(=O)(=O)[O-])c6F)c6nc(c(-c7cccc(S(=O)(=O)[O-])c7F)c7ccc4[nH]7)C=C6)C=C5)cc3)cc2)c1
REMARK SMILES IDX 25 1 26 2 27 3 24 5 21 6 22 7 98 8 23 9 97 10 20 11 18 12
REMARK SMILES IDX 19 13 17 15 13 16 14 17 99 18 15 19 16 20 12 21 1 22 2 23
REMARK SMILES IDX 3 25 4 26 5 27 6 28 10 29 7 30 9 31 11 32 8 33 28 34 29 35
REMARK SMILES IDX 30 36 31 37 32 38 33 40 34 41 35 42 96 43 36 44 95 45 37 46
REMARK SMILES IDX 38 47 39 48 89 49 40 50 94 51 88 52 90 53 41 54 93 55 87 56
REMARK SMILES IDX 86 57 42 59 74 60 54 61 73 62 55 63 58 64 72 65 91 66 56 67
REMARK SMILES IDX 57 68 71 70 92 71 59 72 43 73 44 74 52 75 45 76 47 77 53 78
REMARK SMILES IDX 46 79 48 80 49 81 50 82 51 83 75 84 76 85 84 86 77 87 79 88
REMARK SMILES IDX 85 89 78 90 80 91 81 92 82 93 83 94 60 95 61 96 69 97 62 98
REMARK SMILES IDX 64 99 70 100 63 101 65 102 66 103 67 104 68 105
REMARK H PARENT 27 4 20 14 12 24 31 39 90 58 58 69
REMARK Flexibility Score: inf
ROOT
ATOM      1  C   UNL A   1      32.601  28.862  24.688  1.00  0.00     0.251 C 
ATOM      2  O   UNL A   1      33.218  28.831  23.623  1.00  0.00    -0.269 OA
ATOM      3  N   UNL A   1      32.499  30.075  25.326  1.00  0.00    -0.352 N 
ATOM      4  H   UNL A   1      32.987  30.802  24.874  1.00  0.00     0.163 HD
ENDROOT
BRANCH   1   5
ATOM      5  C   UNL A   1      31.930  27.628  25.179  1.00  0.00     0.039 A 
ATOM      6  C   UNL A   1      31.056  25.066  25.884  1.00  0.00     0.041 A 
ATOM      7  C   UNL A   1      32.145  25.627  26.550  1.00  0.00     0.027 A 
ATOM      8  C   UNL A   1      30.295  25.851  25.015  1.00  0.00     0.027 A 
ATOM      9  C   UNL A   1      32.599  26.893  26.170  1.00  0.00     0.016 A 
ATOM     10  C   UNL A   1      30.715  27.146  24.690  1.00  0.00     0.016 A 
BRANCH   6  11
ATOM     11  N   UNL A   1      30.844  23.687  26.030  1.00  0.00    -0.322 N 
ATOM     12  C   UNL A   1      31.516  22.635  25.426  1.00  0.00     0.255 C 
ATOM     13  O   UNL A   1      31.077  21.490  25.543  1.00  0.00    -0.269 OA
ATOM     14  H   UNL A   1      30.120  23.429  26.646  1.00  0.00     0.170 HD
BRANCH  12  15
ATOM     15  C   UNL A   1      32.827  22.832  24.736  1.00  0.00     0.042 A 
ATOM     16  C   UNL A   1      35.256  23.001  24.793  1.00  0.00     0.042 A 
ATOM     17  C   UNL A   1      35.259  23.272  23.421  1.00  0.00     0.026 A 
ATOM     18  C   UNL A   1      34.046  22.720  25.419  1.00  0.00     0.040 A 
ATOM     19  C   UNL A   1      34.063  23.259  22.698  1.00  0.00     0.003 A 
ATOM     20  C   UNL A   1      32.848  23.051  23.355  1.00  0.00     0.014 A 
BRANCH  16  21
ATOM     21  N   UNL A   1      36.491  22.990  25.466  1.00  0.00    -0.323 N 
ATOM     22  O   UNL A   1      37.428  20.940  24.832  1.00  0.00    -0.271 OA
ATOM     23  C   UNL A   1      37.490  22.029  25.392  1.00  0.00     0.262 C 
ATOM     24  H   UNL A   1      36.670  23.756  26.059  1.00  0.00     0.170 HD
BRANCH  23  25
ATOM     25  C   UNL A   1      38.762  22.456  26.115  1.00  0.00     0.329 C 
BRANCH  25  26
ATOM     26  O   UNL A   1      39.426  21.305  26.655  1.00  0.00    -0.483 OA
BRANCH  26  27
ATOM     27  C   UNL A   1      40.610  21.671  27.233  1.00  0.00     0.134 A 
ATOM     28  C   UNL A   1      40.633  22.878  27.937  1.00  0.00     0.047 A 
ATOM     29  C   UNL A   1      41.776  20.910  27.103  1.00  0.00     0.060 A 
ATOM     30  C   UNL A   1      41.812  23.300  28.547  1.00  0.00     0.004 A 
ATOM     31  C   UNL A   1      42.948  21.329  27.730  1.00  0.00     0.019 A 
ATOM     32  Br  UNL A   1      41.873  19.322  26.077  1.00  0.00    -0.047 Br
ATOM     33  C   UNL A   1      42.965  22.521  28.453  1.00  0.00     0.001 A 
ENDBRANCH  26  27
ENDBRANCH  25  26
ENDBRANCH  23  25
ENDBRANCH  16  21
ENDBRANCH  12  15
ENDBRANCH   6  11
ENDBRANCH   1   5
BRANCH   3  34
ATOM     34  C   UNL A   1      31.814  30.491  26.536  1.00  0.00     0.118 C 
BRANCH  34  35
ATOM     35  C   UNL A   1      31.670  32.005  26.601  1.00  0.00     0.042 C 
BRANCH  35  36
ATOM     36  C   UNL A   1      32.762  32.662  27.440  1.00  0.00     0.118 C 
BRANCH  36  37
ATOM     37  N   UNL A   1      32.488  34.071  27.715  1.00  0.00    -0.352 N 
ATOM     38  C   UNL A   1      33.039  34.900  28.667  1.00  0.00     0.251 C 
ATOM     39  H   UNL A   1      31.811  34.487  27.135  1.00  0.00     0.163 HD
ATOM     40  O   UNL A   1      32.551  36.000  28.875  1.00  0.00    -0.269 OA
BRANCH  38  41
ATOM     41  C   UNL A   1      34.213  34.438  29.437  1.00  0.00     0.039 A 
ATOM     42  C   UNL A   1      34.020  33.725  30.623  1.00  0.00     0.014 A 
ATOM     43  C   UNL A   1      35.503  34.697  28.970  1.00  0.00     0.014 A 
ATOM     44  C   UNL A   1      35.127  33.206  31.303  1.00  0.00     0.010 A 
ATOM     45  C   UNL A   1      36.590  34.104  29.595  1.00  0.00     0.010 A 
ATOM     46  C   UNL A   1      36.417  33.362  30.773  1.00  0.00    -0.014 A 
BRANCH  46  47
ATOM     47  C   UNL A   1      37.618  32.781  31.425  1.00  0.00     0.031 A 
ATOM     48  C   UNL A   1      38.337  31.638  30.763  1.00  0.00     0.074 A 
ATOM     49  C   UNL A   1      37.975  33.185  32.661  1.00  0.00     0.049 A 
ATOM     50  N   UNL A   1      39.294  30.880  31.231  1.00  0.00    -0.248 NA
ATOM     51  C   UNL A   1      37.891  31.271  29.408  1.00  0.00     0.031 C 
ATOM     52  C   UNL A   1      37.308  34.231  33.437  1.00  0.00     0.029 A 
ATOM     53  N   UNL A   1      38.963  32.729  33.498  1.00  0.00    -0.354 N 
ATOM     54  C   UNL A   1      39.521  29.914  30.257  1.00  0.00     0.074 A 
ATOM     55  C   UNL A   1      38.581  30.162  29.186  1.00  0.00     0.031 C 
ATOM     56  C   UNL A   1      37.900  34.333  34.638  1.00  0.00     0.029 A 
ATOM     57  C   UNL A   1      38.962  33.337  34.731  1.00  0.00     0.049 A 
ATOM     58  H   UNL A   1      39.609  32.033  33.240  1.00  0.00     0.167 HD
ATOM     59  C   UNL A   1      40.446  28.927  30.242  1.00  0.00     0.034 A 
ATOM     60  C   UNL A   1      39.721  33.107  35.821  1.00  0.00     0.034 A 
ATOM     61  C   UNL A   1      41.416  28.726  31.282  1.00  0.00     0.049 A 
ATOM     62  C   UNL A   1      40.785  32.043  35.757  1.00  0.00     0.074 A 
ATOM     63  C   UNL A   1      42.461  27.820  31.321  1.00  0.00     0.029 A 
ATOM     64  N   UNL A   1      41.462  29.442  32.467  1.00  0.00    -0.354 N 
ATOM     65  N   UNL A   1      41.083  31.234  34.770  1.00  0.00    -0.248 NA
ATOM     66  C   UNL A   1      41.643  31.886  36.941  1.00  0.00     0.031 C 
ATOM     67  C   UNL A   1      43.127  27.976  32.541  1.00  0.00     0.029 A 
ATOM     68  C   UNL A   1      42.514  28.999  33.248  1.00  0.00     0.049 A 
ATOM     69  H   UNL A   1      40.837  30.160  32.717  1.00  0.00     0.167 HD
ATOM     70  C   UNL A   1      42.186  30.503  35.194  1.00  0.00     0.074 A 
ATOM     71  C   UNL A   1      42.511  30.973  36.524  1.00  0.00     0.031 C 
ATOM     72  C   UNL A   1      42.863  29.525  34.544  1.00  0.00     0.034 A 
BRANCH  59  73
ATOM     73  C   UNL A   1      40.483  28.023  29.037  1.00  0.00     0.023 A 
ATOM     74  C   UNL A   1      39.519  27.002  28.900  1.00  0.00     0.012 A 
ATOM     75  C   UNL A   1      41.445  28.202  28.023  1.00  0.00     0.148 A 
ATOM     76  C   UNL A   1      39.539  26.146  27.800  1.00  0.00     0.002 A 
ATOM     77  C   UNL A   1      41.428  27.377  26.904  1.00  0.00     0.091 A 
ATOM     78  F   UNL A   1      42.368  29.163  28.178  1.00  0.00    -0.205 F 
ATOM     79  C   UNL A   1      40.486  26.340  26.799  1.00  0.00     0.022 A 
BRANCH  77  80
ATOM     80  S   UNL A   1      42.552  27.600  25.522  1.00  0.00     0.127 S 
ATOM     81  O   UNL A   1      42.240  26.433  24.697  1.00  0.00    -0.237 OA
ATOM     82  O   UNL A   1      42.106  28.877  24.964  1.00  0.00    -0.237 OA
ATOM     83  O   UNL A   1      43.891  27.623  26.094  1.00  0.00    -0.744 OA
ENDBRANCH  77  80
ENDBRANCH  59  73
BRANCH  60  84
ATOM     84  C   UNL A   1      39.548  33.949  37.039  1.00  0.00     0.023 A 
ATOM     85  C   UNL A   1      39.987  35.286  37.019  1.00  0.00     0.012 A 
ATOM     86  C   UNL A   1      38.915  33.451  38.194  1.00  0.00     0.148 A 
ATOM     87  C   UNL A   1      39.827  36.106  38.137  1.00  0.00     0.002 A 
ATOM     88  C   UNL A   1      38.708  34.288  39.285  1.00  0.00     0.091 A 
ATOM     89  F   UNL A   1      38.508  32.173  38.195  1.00  0.00    -0.205 F 
ATOM     90  C   UNL A   1      39.179  35.610  39.265  1.00  0.00     0.022 A 
BRANCH  88  91
ATOM     91  S   UNL A   1      37.767  33.781  40.729  1.00  0.00     0.127 S 
ATOM     92  O   UNL A   1      38.766  33.036  41.490  1.00  0.00    -0.237 OA
ATOM     93  O   UNL A   1      37.387  35.071  41.306  1.00  0.00    -0.237 OA
ATOM     94  O   UNL A   1      36.650  32.999  40.217  1.00  0.00    -0.744 OA
ENDBRANCH  88  91
ENDBRANCH  60  84
BRANCH  72  95
ATOM     95  C   UNL A   1      44.065  28.927  35.226  1.00  0.00     0.023 A 
ATOM     96  C   UNL A   1      45.340  29.492  35.030  1.00  0.00     0.012 A 
ATOM     97  C   UNL A   1      43.908  27.867  36.141  1.00  0.00     0.148 A 
ATOM     98  C   UNL A   1      46.446  28.995  35.719  1.00  0.00     0.002 A 
ATOM     99  C   UNL A   1      45.005  27.411  36.861  1.00  0.00     0.091 A 
ATOM    100  F   UNL A   1      42.688  27.333  36.296  1.00  0.00    -0.205 F 
ATOM    101  C   UNL A   1      46.276  27.966  36.643  1.00  0.00     0.022 A 
BRANCH  99 102
ATOM    102  S   UNL A   1      44.861  26.161  38.144  1.00  0.00     0.127 S 
ATOM    103  O   UNL A   1      46.261  25.797  38.361  1.00  0.00    -0.237 OA
ATOM    104  O   UNL A   1      44.249  26.912  39.240  1.00  0.00    -0.237 OA
ATOM    105  O   UNL A   1      44.020  25.109  37.588  1.00  0.00    -0.744 OA
ENDBRANCH  99 102
ENDBRANCH  72  95
ENDBRANCH  46  47
ENDBRANCH  38  41
ENDBRANCH  36  37
ENDBRANCH  35  36
ENDBRANCH  34  35
ENDBRANCH   3  34
TORSDOF 19
ENDMDL
MODEL 2
REMARK VINA RESULT:     -12.5      5.507     12.097
REMARK SMILES O=C(COc1ccccc1Br)Nc1cccc(C(=O)Nc2ccc(C(=O)NCCCNC(=O)c3ccc(-c4c5nc(c(-c6cccc(S(=O)(=O)[O-])c6F)c6ccc([nH]6)c(-c6cccc(S(=O)(=O)[O-])c6F)c6nc(c(-c7cccc(S(=O)(=O)[O-])c7F)c7ccc4[nH]7)C=C6)C=C5)cc3)cc2)c1
REMARK SMILES IDX 25 1 26 2 27 3 24 5 21 6 22 7 98 8 23 9 97 10 20 11 18 12
REMARK SMILES IDX 19 13 17 15 13 16 14 17 99 18 15 19 16 20 12 21 1 22 2 23
REMARK SMILES IDX 3 25 4 26 5 27 6 28 10 29 7 30 9 31 11 32 8 33 28 34 29 35
REMARK SMILES IDX 30 36 31 37 32 38 33 40 34 41 35 42 96 43 36 44 95 45 37 46
REMARK SMILES IDX 38 47 39 48 89 49 40 50 94 51 88 52 90 53 41 54 93 55 87 56
REMARK SMILES IDX 86 57 42 59 74 60 54 61 73 62 55 63 58 64 72 65 91 66 56 67
REMARK SMILES IDX 57 68 71 70 92 71 59 72 43 73 44 74 52 75 45 76 47 77 53 78
REMARK SMILES IDX 46 79 48 80 49 81 50 82 51 83 75 84 76 85 84 86 77 87 79 88
REMARK SMILES IDX 85 89 78 90 80 91 81 92 82 93 83 94 60 95 61 96 69 97 62 98
REMARK SMILES IDX 64 99 70 100 63 101 65 102 66 103 67 104 68 105
REMARK H PARENT 27 4 20 14 12 24 31 39 90 58 58 69
REMARK Flexibility Score: inf
ROOT
ATOM      1  C   UNL A   1      36.860  23.209  25.489  1.00  0.00     0.251 C 
ATOM      2  O   UNL A   1      37.363  24.180  26.056  1.00  0.00    -0.269 OA
ATOM      3  N   UNL A   1      37.680  22.140  25.219  1.00  0.00    -0.352 N 
ATOM      4  H   UNL A   1      38.620  22.288  25.472  1.00  0.00     0.163 HD
ENDROOT
BRANCH   1   5
ATOM      5  C   UNL A   1      35.399  23.202  25.210  1.00  0.00     0.039 A 
ATOM      6  C   UNL A   1      32.738  23.636  24.462  1.00  0.00     0.041 A 
ATOM      7  C   UNL A   1      33.675  23.282  23.492  1.00  0.00     0.027 A 
ATOM      8  C   UNL A   1      33.086  23.583  25.814  1.00  0.00     0.027 A 
ATOM      9  C   UNL A   1      35.009  23.100  23.865  1.00  0.00     0.016 A 
ATOM     10  C   UNL A   1      34.411  23.332  26.188  1.00  0.00     0.016 A 
BRANCH   6  11
ATOM     11  N   UNL A   1      31.509  24.150  24.023  1.00  0.00    -0.322 N 
ATOM     12  C   UNL A   1      31.154  25.468  23.784  1.00  0.00     0.255 C 
ATOM     13  O   UNL A   1      29.974  25.748  23.566  1.00  0.00    -0.269 OA
ATOM     14  H   UNL A   1      30.802  23.484  23.861  1.00  0.00     0.170 HD
BRANCH  12  15
ATOM     15  C   UNL A   1      32.179  26.550  23.662  1.00  0.00     0.042 A 
ATOM     16  C   UNL A   1      33.466  28.380  24.624  1.00  0.00     0.042 A 
ATOM     17  C   UNL A   1      34.053  28.609  23.377  1.00  0.00     0.026 A 
ATOM     18  C   UNL A   1      32.586  27.311  24.766  1.00  0.00     0.040 A 
ATOM     19  C   UNL A   1      33.757  27.776  22.294  1.00  0.00     0.003 A 
ATOM     20  C   UNL A   1      32.813  26.756  22.432  1.00  0.00     0.014 A 
BRANCH  16  21
ATOM     21  N   UNL A   1      33.827  29.224  25.690  1.00  0.00    -0.323 N 
ATOM     22  O   UNL A   1      31.906  30.523  26.017  1.00  0.00    -0.271 OA
ATOM     23  C   UNL A   1      33.033  30.159  26.339  1.00  0.00     0.262 C 
ATOM     24  H   UNL A   1      34.752  29.142  26.015  1.00  0.00     0.170 HD
BRANCH  23  25
ATOM     25  C   UNL A   1      33.713  30.748  27.569  1.00  0.00     0.329 C 
BRANCH  25  26
ATOM     26  O   UNL A   1      33.583  32.176  27.562  1.00  0.00    -0.483 OA
BRANCH  26  27
ATOM     27  C   UNL A   1      34.699  32.754  28.103  1.00  0.00     0.134 A 
ATOM     28  C   UNL A   1      35.895  32.036  28.023  1.00  0.00     0.047 A 
ATOM     29  C   UNL A   1      34.662  33.991  28.755  1.00  0.00     0.060 A 
ATOM     30  C   UNL A   1      37.062  32.576  28.558  1.00  0.00     0.004 A 
ATOM     31  C   UNL A   1      35.838  34.533  29.272  1.00  0.00     0.019 A 
ATOM     32  Br  UNL A   1      33.072  34.984  29.013  1.00  0.00    -0.047 Br
ATOM     33  C   UNL A   1      37.036  33.828  29.171  1.00  0.00     0.001 A 
ENDBRANCH  26  27
ENDBRANCH  25  26
ENDBRANCH  23  25
ENDBRANCH  16  21
ENDBRANCH  12  15
ENDBRANCH   6  11
ENDBRANCH   1   5
BRANCH   3  34
ATOM     34  C   UNL A   1      37.428  20.835  24.634  1.00  0.00     0.118 C 
BRANCH  34  35
ATOM     35  C   UNL A   1      38.199  19.741  25.359  1.00  0.00     0.042 C 
BRANCH  35  36
ATOM     36  C   UNL A   1      39.568  20.211  25.840  1.00  0.00     0.118 C 
BRANCH  36  37
ATOM     37  N   UNL A   1      40.536  19.119  25.931  1.00  0.00    -0.352 N 
ATOM     38  C   UNL A   1      41.904  19.173  26.079  1.00  0.00     0.251 C 
ATOM     39  H   UNL A   1      40.153  18.214  25.879  1.00  0.00     0.163 HD
ATOM     40  O   UNL A   1      42.574  18.161  25.946  1.00  0.00    -0.269 OA
BRANCH  38  41
ATOM     41  C   UNL A   1      42.549  20.467  26.387  1.00  0.00     0.039 A 
ATOM     42  C   UNL A   1      43.090  21.230  25.348  1.00  0.00     0.014 A 
ATOM     43  C   UNL A   1      42.598  20.930  27.703  1.00  0.00     0.014 A 
ATOM     44  C   UNL A   1      43.616  22.496  25.624  1.00  0.00     0.010 A 
ATOM     45  C   UNL A   1      43.035  22.222  27.959  1.00  0.00     0.010 A 
ATOM     46  C   UNL A   1      43.558  23.015  26.927  1.00  0.00    -0.014 A 
BRANCH  46  47
ATOM     47  C   UNL A   1      44.049  24.376  27.261  1.00  0.00     0.031 A 
ATOM     48  C   UNL A   1      43.082  25.401  27.786  1.00  0.00     0.074 A 
ATOM     49  C   UNL A   1      45.317  24.726  26.967  1.00  0.00     0.049 A 
ATOM     50  N   UNL A   1      43.258  26.682  27.981  1.00  0.00    -0.248 NA
ATOM     51  C   UNL A   1      41.720  24.931  28.093  1.00  0.00     0.031 C 
ATOM     52  C   UNL A   1      46.328  23.841  26.383  1.00  0.00     0.029 A 
ATOM     53  N   UNL A   1      45.959  25.934  27.079  1.00  0.00    -0.354 N 
ATOM     54  C   UNL A   1      42.020  27.178  28.374  1.00  0.00     0.074 A 
ATOM     55  C   UNL A   1      41.094  26.067  28.359  1.00  0.00     0.031 C 
ATOM     56  C   UNL A   1      47.458  24.537  26.183  1.00  0.00     0.029 A 
ATOM     57  C   UNL A   1      47.243  25.922  26.587  1.00  0.00     0.049 A 
ATOM     58  H   UNL A   1      45.539  26.732  27.473  1.00  0.00     0.167 HD
ATOM     59  C   UNL A   1      41.689  28.437  28.741  1.00  0.00     0.034 A 
ATOM     60  C   UNL A   1      48.141  26.919  26.461  1.00  0.00     0.034 A 
ATOM     61  C   UNL A   1      42.629  29.522  28.811  1.00  0.00     0.049 A 
ATOM     62  C   UNL A   1      47.769  28.300  26.934  1.00  0.00     0.074 A 
ATOM     63  C   UNL A   1      42.422  30.812  29.265  1.00  0.00     0.029 A 
ATOM     64  N   UNL A   1      43.956  29.442  28.418  1.00  0.00    -0.354 N 
ATOM     65  N   UNL A   1      46.635  28.719  27.440  1.00  0.00    -0.248 NA
ATOM     66  C   UNL A   1      48.810  29.335  26.854  1.00  0.00     0.031 C 
ATOM     67  C   UNL A   1      43.622  31.518  29.126  1.00  0.00     0.029 A 
ATOM     68  C   UNL A   1      44.582  30.659  28.615  1.00  0.00     0.049 A 
ATOM     69  H   UNL A   1      44.389  28.637  28.052  1.00  0.00     0.167 HD
ATOM     70  C   UNL A   1      46.837  30.051  27.779  1.00  0.00     0.074 A 
ATOM     71  C   UNL A   1      48.207  30.367  27.430  1.00  0.00     0.031 C 
ATOM     72  C   UNL A   1      45.965  30.936  28.322  1.00  0.00     0.034 A 
BRANCH  59  73
ATOM     73  C   UNL A   1      40.260  28.696  29.142  1.00  0.00     0.023 A 
ATOM     74  C   UNL A   1      39.278  28.884  28.147  1.00  0.00     0.012 A 
ATOM     75  C   UNL A   1      39.879  28.717  30.498  1.00  0.00     0.148 A 
ATOM     76  C   UNL A   1      37.952  29.135  28.494  1.00  0.00     0.002 A 
ATOM     77  C   UNL A   1      38.545  28.918  30.836  1.00  0.00     0.091 A 
ATOM     78  F   UNL A   1      40.828  28.558  31.433  1.00  0.00    -0.205 F 
ATOM     79  C   UNL A   1      37.584  29.142  29.836  1.00  0.00     0.022 A 
BRANCH  77  80
ATOM     80  S   UNL A   1      37.958  28.860  32.531  1.00  0.00     0.127 S 
ATOM     81  O   UNL A   1      38.871  29.793  33.192  1.00  0.00    -0.237 OA
ATOM     82  O   UNL A   1      36.584  29.344  32.400  1.00  0.00    -0.237 OA
ATOM     83  O   UNL A   1      38.073  27.469  32.948  1.00  0.00    -0.744 OA
ENDBRANCH  77  80
ENDBRANCH  59  73
BRANCH  60  84
ATOM     84  C   UNL A   1      49.503  26.631  25.929  1.00  0.00     0.023 A 
ATOM     85  C   UNL A   1      50.402  25.880  26.710  1.00  0.00     0.012 A 
ATOM     86  C   UNL A   1      49.895  27.051  24.644  1.00  0.00     0.148 A 
ATOM     87  C   UNL A   1      51.679  25.580  26.235  1.00  0.00     0.002 A 
ATOM     88  C   UNL A   1      51.149  26.702  24.154  1.00  0.00     0.091 A 
ATOM     89  F   UNL A   1      49.026  27.769  23.917  1.00  0.00    -0.205 F 
ATOM     90  C   UNL A   1      52.049  25.981  24.955  1.00  0.00     0.022 A 
BRANCH  88  91
ATOM     91  S   UNL A   1      51.663  27.058  22.470  1.00  0.00     0.127 S 
ATOM     92  O   UNL A   1      50.492  26.638  21.704  1.00  0.00    -0.237 OA
ATOM     93  O   UNL A   1      51.881  28.504  22.523  1.00  0.00    -0.237 OA
ATOM     94  O   UNL A   1      52.872  26.276  22.253  1.00  0.00    -0.744 OA
ENDBRANCH  88  91
ENDBRANCH  60  84
BRANCH  72  95
ATOM     95  C   UNL A   1      46.469  32.321  28.635  1.00  0.00     0.023 A 
ATOM     96  C   UNL A   1      47.266  32.540  29.774  1.00  0.00     0.012 A 
ATOM     97  C   UNL A   1      46.233  33.381  27.737  1.00  0.00     0.148 A 
ATOM     98  C   UNL A   1      47.802  33.803  30.028  1.00  0.00     0.002 A 
ATOM     99  C   UNL A   1      46.811  34.623  27.971  1.00  0.00     0.091 A 
ATOM    100  F   UNL A   1      45.454  33.153  26.669  1.00  0.00    -0.205 F 
ATOM    101  C   UNL A   1      47.587  34.838  29.121  1.00  0.00     0.022 A 
BRANCH  99 102
ATOM    102  S   UNL A   1      46.673  35.982  26.805  1.00  0.00     0.127 S 
ATOM    103  O   UNL A   1      47.169  35.369  25.573  1.00  0.00    -0.237 OA
ATOM    104  O   UNL A   1      45.236  36.254  26.815  1.00  0.00    -0.237 OA
ATOM    105  O   UNL A   1      47.496  37.058  27.342  1.00  0.00    -0.744 OA
ENDBRANCH  99 102
ENDBRANCH  72  95
ENDBRANCH  46  47
ENDBRANCH  38  41
ENDBRANCH  36  37
ENDBRANCH  35  36
ENDBRANCH  34  35
ENDBRANCH   3  34
TORSDOF 19
ENDMDL
MODEL 3
REMARK VINA RESULT:     -11.9      5.484     10.553
REMARK SMILES O=C(COc1ccccc1Br)Nc1cccc(C(=O)Nc2ccc(C(=O)NCCCNC(=O)c3ccc(-c4c5nc(c(-c6cccc(S(=O)(=O)[O-])c6F)c6ccc([nH]6)c(-c6cccc(S(=O)(=O)[O-])c6F)c6nc(c(-c7cccc(S(=O)(=O)[O-])c7F)c7ccc4[nH]7)C=C6)C=C5)cc3)cc2)c1
REMARK SMILES IDX 25 1 26 2 27 3 24 5 21 6 22 7 98 8 23 9 97 10 20 11 18 12
REMARK SMILES IDX 19 13 17 15 13 16 14 17 99 18 15 19 16 20 12 21 1 22 2 23
REMARK SMILES IDX 3 25 4 26 5 27 6 28 10 29 7 30 9 31 11 32 8 33 28 34 29 35
REMARK SMILES IDX 30 36 31 37 32 38 33 40 34 41 35 42 96 43 36 44 95 45 37 46
REMARK SMILES IDX 38 47 39 48 89 49 40 50 94 51 88 52 90 53 41 54 93 55 87 56
REMARK SMILES IDX 86 57 42 59 74 60 54 61 73 62 55 63 58 64 72 65 91 66 56 67
REMARK SMILES IDX 57 68 71 70 92 71 59 72 43 73 44 74 52 75 45 76 47 77 53 78
REMARK SMILES IDX 46 79 48 80 49 81 50 82 51 83 75 84 76 85 84 86 77 87 79 88
REMARK SMILES IDX 85 89 78 90 80 91 81 92 82 93 83 94 60 95 61 96 69 97 62 98
REMARK SMILES IDX 64 99 70 100 63 101 65 102 66 103 67 104 68 105
REMARK H PARENT 27 4 20 14 12 24 31 39 90 58 58 69
REMARK Flexibility Score: inf
ROOT
ATOM      1  C   UNL A   1      35.066  22.493  26.037  1.00  0.00     0.251 C 
ATOM      2  O   UNL A   1      34.396  22.428  27.069  1.00  0.00    -0.269 OA
ATOM      3  N   UNL A   1      36.219  21.747  25.983  1.00  0.00    -0.352 N 
ATOM      4  H   UNL A   1      36.418  21.264  26.818  1.00  0.00     0.163 HD
ENDROOT
BRANCH   1   5
ATOM      5  C   UNL A   1      34.558  23.287  24.886  1.00  0.00     0.039 A 
ATOM      6  C   UNL A   1      33.306  25.004  23.067  1.00  0.00     0.041 A 
ATOM      7  C   UNL A   1      34.249  25.516  23.956  1.00  0.00     0.027 A 
ATOM      8  C   UNL A   1      33.135  23.622  22.957  1.00  0.00     0.027 A 
ATOM      9  C   UNL A   1      34.846  24.661  24.886  1.00  0.00     0.016 A 
ATOM     10  C   UNL A   1      33.789  22.762  23.847  1.00  0.00     0.016 A 
BRANCH   6  11
ATOM     11  N   UNL A   1      32.477  25.918  22.400  1.00  0.00    -0.322 N 
ATOM     12  C   UNL A   1      31.560  26.810  22.933  1.00  0.00     0.255 C 
ATOM     13  O   UNL A   1      30.796  27.416  22.180  1.00  0.00    -0.269 OA
ATOM     14  H   UNL A   1      32.557  25.928  21.418  1.00  0.00     0.170 HD
BRANCH  12  15
ATOM     15  C   UNL A   1      31.552  27.154  24.388  1.00  0.00     0.042 A 
ATOM     16  C   UNL A   1      32.021  28.698  26.212  1.00  0.00     0.042 A 
ATOM     17  C   UNL A   1      31.583  27.735  27.125  1.00  0.00     0.026 A 
ATOM     18  C   UNL A   1      31.938  28.419  24.851  1.00  0.00     0.040 A 
ATOM     19  C   UNL A   1      31.072  26.516  26.674  1.00  0.00     0.003 A 
ATOM     20  C   UNL A   1      31.067  26.219  25.309  1.00  0.00     0.014 A 
BRANCH  16  21
ATOM     21  N   UNL A   1      32.491  29.923  26.718  1.00  0.00    -0.323 N 
ATOM     22  O   UNL A   1      34.609  29.378  27.555  1.00  0.00    -0.271 OA
ATOM     23  C   UNL A   1      33.735  30.191  27.274  1.00  0.00     0.262 C 
ATOM     24  H   UNL A   1      31.866  30.682  26.671  1.00  0.00     0.170 HD
BRANCH  23  25
ATOM     25  C   UNL A   1      33.949  31.677  27.534  1.00  0.00     0.329 C 
BRANCH  25  26
ATOM     26  O   UNL A   1      34.451  31.873  28.862  1.00  0.00    -0.483 OA
BRANCH  26  27
ATOM     27  C   UNL A   1      34.134  33.127  29.307  1.00  0.00     0.134 A 
ATOM     28  C   UNL A   1      33.586  34.016  28.379  1.00  0.00     0.047 A 
ATOM     29  C   UNL A   1      34.381  33.543  30.619  1.00  0.00     0.060 A 
ATOM     30  C   UNL A   1      33.243  35.306  28.777  1.00  0.00     0.004 A 
ATOM     31  C   UNL A   1      34.020  34.830  31.015  1.00  0.00     0.019 A 
ATOM     32  Br  UNL A   1      35.223  32.450  31.916  1.00  0.00    -0.047 Br
ATOM     33  C   UNL A   1      33.450  35.709  30.096  1.00  0.00     0.001 A 
ENDBRANCH  26  27
ENDBRANCH  25  26
ENDBRANCH  23  25
ENDBRANCH  16  21
ENDBRANCH  12  15
ENDBRANCH   6  11
ENDBRANCH   1   5
BRANCH   3  34
ATOM     34  C   UNL A   1      37.200  21.534  24.934  1.00  0.00     0.118 C 
BRANCH  34  35
ATOM     35  C   UNL A   1      38.075  20.324  25.228  1.00  0.00     0.042 C 
BRANCH  35  36
ATOM     36  C   UNL A   1      39.280  20.670  26.097  1.00  0.00     0.118 C 
BRANCH  36  37
ATOM     37  N   UNL A   1      40.316  19.640  26.056  1.00  0.00    -0.352 N 
ATOM     38  C   UNL A   1      41.685  19.778  26.000  1.00  0.00     0.251 C 
ATOM     39  H   UNL A   1      39.986  18.713  26.070  1.00  0.00     0.163 HD
ATOM     40  O   UNL A   1      42.389  18.805  25.780  1.00  0.00    -0.269 OA
BRANCH  38  41
ATOM     41  C   UNL A   1      42.287  21.114  26.197  1.00  0.00     0.039 A 
ATOM     42  C   UNL A   1      42.556  21.916  25.085  1.00  0.00     0.014 A 
ATOM     43  C   UNL A   1      42.563  21.575  27.485  1.00  0.00     0.014 A 
ATOM     44  C   UNL A   1      43.037  23.216  25.273  1.00  0.00     0.010 A 
ATOM     45  C   UNL A   1      42.952  22.894  27.672  1.00  0.00     0.010 A 
ATOM     46  C   UNL A   1      43.204  23.726  26.571  1.00  0.00    -0.014 A 
BRANCH  46  47
ATOM     47  C   UNL A   1      43.655  25.117  26.825  1.00  0.00     0.031 A 
ATOM     48  C   UNL A   1      45.109  25.464  26.650  1.00  0.00     0.074 A 
ATOM     49  C   UNL A   1      42.797  26.021  27.337  1.00  0.00     0.049 A 
ATOM     50  N   UNL A   1      45.743  26.560  26.975  1.00  0.00    -0.248 NA
ATOM     51  C   UNL A   1      45.974  24.422  26.072  1.00  0.00     0.031 C 
ATOM     52  C   UNL A   1      41.382  25.780  27.623  1.00  0.00     0.029 A 
ATOM     53  N   UNL A   1      43.003  27.314  27.751  1.00  0.00    -0.354 N 
ATOM     54  C   UNL A   1      47.083  26.318  26.698  1.00  0.00     0.074 A 
ATOM     55  C   UNL A   1      47.176  24.960  26.208  1.00  0.00     0.031 C 
ATOM     56  C   UNL A   1      40.849  26.885  28.169  1.00  0.00     0.029 A 
ATOM     57  C   UNL A   1      41.890  27.897  28.308  1.00  0.00     0.049 A 
ATOM     58  H   UNL A   1      43.867  27.778  27.657  1.00  0.00     0.167 HD
ATOM     59  C   UNL A   1      48.138  27.158  26.813  1.00  0.00     0.034 A 
ATOM     60  C   UNL A   1      41.730  29.106  28.882  1.00  0.00     0.034 A 
ATOM     61  C   UNL A   1      48.027  28.524  27.243  1.00  0.00     0.049 A 
ATOM     62  C   UNL A   1      42.906  30.046  28.942  1.00  0.00     0.074 A 
ATOM     63  C   UNL A   1      49.015  29.491  27.301  1.00  0.00     0.029 A 
ATOM     64  N   UNL A   1      46.857  29.119  27.687  1.00  0.00    -0.354 N 
ATOM     65  N   UNL A   1      44.138  29.851  28.540  1.00  0.00    -0.248 NA
ATOM     66  C   UNL A   1      42.662  31.384  29.501  1.00  0.00     0.031 C 
ATOM     67  C   UNL A   1      48.444  30.666  27.800  1.00  0.00     0.029 A 
ATOM     68  C   UNL A   1      47.096  30.439  28.024  1.00  0.00     0.049 A 
ATOM     69  H   UNL A   1      45.984  28.668  27.754  1.00  0.00     0.167 HD
ATOM     70  C   UNL A   1      44.804  31.051  28.754  1.00  0.00     0.074 A 
ATOM     71  C   UNL A   1      43.837  31.972  29.313  1.00  0.00     0.031 C 
ATOM     72  C   UNL A   1      46.103  31.360  28.518  1.00  0.00     0.034 A 
BRANCH  59  73
ATOM     73  C   UNL A   1      49.495  26.633  26.420  1.00  0.00     0.023 A 
ATOM     74  C   UNL A   1      50.145  25.692  27.245  1.00  0.00     0.012 A 
ATOM     75  C   UNL A   1      50.111  27.041  25.221  1.00  0.00     0.148 A 
ATOM     76  C   UNL A   1      51.405  25.200  26.908  1.00  0.00     0.002 A 
ATOM     77  C   UNL A   1      51.346  26.509  24.866  1.00  0.00     0.091 A 
ATOM     78  F   UNL A   1      49.490  27.953  24.459  1.00  0.00    -0.205 F 
ATOM     79  C   UNL A   1      52.000  25.601  25.716  1.00  0.00     0.022 A 
BRANCH  77  80
ATOM     80  S   UNL A   1      52.154  26.896  23.311  1.00  0.00     0.127 S 
ATOM     81  O   UNL A   1      52.639  28.253  23.561  1.00  0.00    -0.237 OA
ATOM     82  O   UNL A   1      53.203  25.878  23.246  1.00  0.00    -0.237 OA
ATOM     83  O   UNL A   1      51.128  26.775  22.285  1.00  0.00    -0.744 OA
ENDBRANCH  77  80
ENDBRANCH  59  73
BRANCH  60  84
ATOM     84  C   UNL A   1      40.388  29.522  29.377  1.00  0.00     0.023 A 
ATOM     85  C   UNL A   1      39.447  30.038  28.466  1.00  0.00     0.012 A 
ATOM     86  C   UNL A   1      40.022  29.368  30.728  1.00  0.00     0.148 A 
ATOM     87  C   UNL A   1      38.176  30.423  28.895  1.00  0.00     0.002 A 
ATOM     88  C   UNL A   1      38.736  29.702  31.140  1.00  0.00     0.091 A 
ATOM     89  F   UNL A   1      40.934  28.880  31.582  1.00  0.00    -0.205 F 
ATOM     90  C   UNL A   1      37.817  30.245  30.228  1.00  0.00     0.022 A 
BRANCH  88  91
ATOM     91  S   UNL A   1      38.140  29.385  32.804  1.00  0.00     0.127 S 
ATOM     92  O   UNL A   1      38.564  30.592  33.509  1.00  0.00    -0.237 OA
ATOM     93  O   UNL A   1      36.697  29.271  32.589  1.00  0.00    -0.237 OA
ATOM     94  O   UNL A   1      38.784  28.149  33.225  1.00  0.00    -0.744 OA
ENDBRANCH  88  91
ENDBRANCH  60  84
BRANCH  72  95
ATOM     95  C   UNL A   1      46.555  32.768  28.802  1.00  0.00     0.023 A 
ATOM     96  C   UNL A   1      47.119  33.089  30.052  1.00  0.00     0.012 A 
ATOM     97  C   UNL A   1      46.513  33.746  27.788  1.00  0.00     0.148 A 
ATOM     98  C   UNL A   1      47.613  34.371  30.296  1.00  0.00     0.002 A 
ATOM     99  C   UNL A   1      47.052  35.005  28.022  1.00  0.00     0.091 A 
ATOM    100  F   UNL A   1      45.954  33.423  26.613  1.00  0.00    -0.205 F 
ATOM    101  C   UNL A   1      47.592  35.322  29.278  1.00  0.00     0.022 A 
BRANCH  99 102
ATOM    102  S   UNL A   1      47.162  36.257  26.739  1.00  0.00     0.127 S 
ATOM    103  O   UNL A   1      48.331  35.807  25.984  1.00  0.00    -0.237 OA
ATOM    104  O   UNL A   1      45.886  36.097  26.040  1.00  0.00    -0.237 OA
ATOM    105  O   UNL A   1      47.317  37.530  27.431  1.00  0.00    -0.744 OA
ENDBRANCH  99 102
ENDBRANCH  72  95
ENDBRANCH  46  47
ENDBRANCH  38  41
ENDBRANCH  36  37
ENDBRANCH  35  36
ENDBRANCH  34  35
ENDBRANCH   3  34
TORSDOF 19
ENDMDL
