MODEL 1
REMARK VINA RESULT:     -11.6      0.000      0.000
REMARK SMILES COc1c(Cl)cc(C(=O)NCCCNC(=O)c2ccc(-c3c4nc(c(-c5cccc(S(=O)(=O)[O-])c5F)c5ccc([nH]5)c(-c5cccc(S(=O)(=O)[O-])c5F)c5nc(c(-c6cccc(S(=O)(=O)[O-])c6F)c6ccc3[nH]6)C=C5)C=C4)cc2)cc1NC(=S)NC(=O)c1cccc(C)c1OC
REMARK SMILES IDX 11 1 10 2 8 3 9 4 7 6 3 7 4 8 81 9 5 10 6 11 80 12 2 13 1 14
REMARK SMILES IDX 82 15 83 17 84 18 85 19 86 20 87 22 88 23 89 24 94 25 90 26
REMARK SMILES IDX 92 27 91 28 93 29 95 30 96 31 12 32 13 33 14 34 15 35 16 37
REMARK SMILES IDX 17 38 18 39 79 40 19 41 78 42 20 43 21 44 22 45 72 46 23 47
REMARK SMILES IDX 77 48 71 49 73 50 24 51 76 52 70 53 69 54 25 56 57 57 37 58
REMARK SMILES IDX 56 59 38 60 41 61 55 62 74 63 39 64 40 65 54 67 75 68 42 69
REMARK SMILES IDX 26 70 27 71 35 72 28 73 30 74 36 75 29 76 31 77 32 78 33 79
REMARK SMILES IDX 34 80 58 81 59 82 67 83 60 84 62 85 68 86 61 87 63 88 64 89
REMARK SMILES IDX 65 90 66 91 43 92 44 93 52 94 45 95 47 96 53 97 46 98 48 99
REMARK SMILES IDX 49 100 50 101 51 102
REMARK H PARENT 10 5 82 16 85 21 14 36 73 55 41 66
REMARK Flexibility Score: inf
ROOT
ATOM      1  C   UNL A   1      40.620  21.473  27.085  1.00  0.00     0.118 C 
ENDROOT
BRANCH   1   2
ATOM      2  N   UNL A   1      39.717  22.586  26.711  1.00  0.00    -0.352 N 
ATOM      3  C   UNL A   1      38.376  23.042  26.219  1.00  0.00     0.251 C 
ATOM      4  O   UNL A   1      38.756  24.252  26.478  1.00  0.00    -0.269 OA
ATOM      5  H   UNL A   1      40.241  23.408  26.847  1.00  0.00     0.163 HD
BRANCH   3   6
ATOM      6  C   UNL A   1      36.605  22.172  25.389  1.00  0.00     0.043 A 
ATOM      7  C   UNL A   1      33.797  21.077  24.547  1.00  0.00     0.160 A 
ATOM      8  C   UNL A   1      34.872  20.225  24.753  1.00  0.00     0.086 A 
ATOM      9  C   UNL A   1      34.080  22.404  24.750  1.00  0.00     0.085 A 
ATOM     10  Cl  UNL A   1      34.782  18.498  24.619  1.00  0.00    -0.080 Cl
ATOM     11  C   UNL A   1      36.149  20.740  25.195  1.00  0.00     0.038 A 
ATOM     12  C   UNL A   1      35.401  22.816  24.823  1.00  0.00     0.044 A 
BRANCH   7  13
ATOM     13  O   UNL A   1      32.507  20.821  24.196  1.00  0.00    -0.493 OA
ATOM     14  C   UNL A   1      32.223  20.518  22.840  1.00  0.00     0.278 C 
ENDBRANCH   7  13
BRANCH   9  15
ATOM     15  N   UNL A   1      33.122  23.430  24.822  1.00  0.00    -0.329 N 
ATOM     16  H   UNL A   1      33.221  24.145  24.153  1.00  0.00     0.169 HD
BRANCH  15  17
ATOM     17  C   UNL A   1      32.076  23.578  25.688  1.00  0.00     0.177 C 
ATOM     18  S   UNL A   1      32.216  22.910  27.218  1.00  0.00    -0.040 S 
BRANCH  17  19
ATOM     19  N   UNL A   1      30.925  24.317  25.430  1.00  0.00    -0.299 N 
ATOM     20  C   UNL A   1      30.261  25.464  25.904  1.00  0.00     0.261 C 
ATOM     21  H   UNL A   1      30.419  23.913  24.688  1.00  0.00     0.172 HD
ATOM     22  O   UNL A   1      29.238  25.317  26.571  1.00  0.00    -0.269 OA
BRANCH  20  23
ATOM     23  C   UNL A   1      30.736  26.876  25.659  1.00  0.00     0.082 A 
ATOM     24  C   UNL A   1      31.366  27.600  27.213  1.00  0.00     0.018 A 
ATOM     25  C   UNL A   1      31.240  27.638  24.050  1.00  0.00     0.134 A 
ATOM     26  C   UNL A   1      32.556  28.962  27.194  1.00  0.00     0.001 A 
ATOM     27  C   UNL A   1      32.545  28.909  24.040  1.00  0.00    -0.008 A 
ATOM     28  C   UNL A   1      33.213  29.575  25.592  1.00  0.00     0.007 A 
ATOM     29  C   UNL A   1      33.428  29.029  22.826  1.00  0.00     0.048 C 
BRANCH  25  30
ATOM     30  O   UNL A   1      31.018  27.143  22.782  1.00  0.00    -0.496 OA
ATOM     31  C   UNL A   1      31.613  25.915  22.412  1.00  0.00     0.278 C 
ENDBRANCH  25  30
ENDBRANCH  20  23
ENDBRANCH  17  19
ENDBRANCH  15  17
ENDBRANCH   9  15
ENDBRANCH   3   6
ENDBRANCH   1   2
BRANCH   1  32
ATOM     32  C   UNL A   1      41.365  20.804  25.936  1.00  0.00     0.042 C 
BRANCH  32  33
ATOM     33  C   UNL A   1      42.235  19.616  26.303  1.00  0.00     0.118 C 
BRANCH  33  34
ATOM     34  N   UNL A   1      43.335  19.407  25.374  1.00  0.00    -0.352 N 
ATOM     35  C   UNL A   1      44.250  20.278  24.835  1.00  0.00     0.251 C 
ATOM     36  H   UNL A   1      43.443  18.474  25.078  1.00  0.00     0.163 HD
ATOM     37  O   UNL A   1      44.963  19.873  23.917  1.00  0.00    -0.269 OA
BRANCH  35  38
ATOM     38  C   UNL A   1      44.400  21.674  25.318  1.00  0.00     0.039 A 
ATOM     39  C   UNL A   1      44.089  22.719  24.440  1.00  0.00     0.014 A 
ATOM     40  C   UNL A   1      44.911  21.979  26.581  1.00  0.00     0.014 A 
ATOM     41  C   UNL A   1      44.256  24.049  24.838  1.00  0.00     0.010 A 
ATOM     42  C   UNL A   1      44.973  23.302  27.016  1.00  0.00     0.010 A 
ATOM     43  C   UNL A   1      44.677  24.355  26.141  1.00  0.00    -0.014 A 
BRANCH  43  44
ATOM     44  C   UNL A   1      44.837  25.763  26.591  1.00  0.00     0.031 A 
ATOM     45  C   UNL A   1      46.197  26.412  26.600  1.00  0.00     0.074 A 
ATOM     46  C   UNL A   1      43.769  26.437  27.062  1.00  0.00     0.049 A 
ATOM     47  N   UNL A   1      46.537  27.612  26.993  1.00  0.00    -0.248 NA
ATOM     48  C   UNL A   1      47.333  25.595  26.136  1.00  0.00     0.031 C 
ATOM     49  C   UNL A   1      42.417  25.891  27.188  1.00  0.00     0.029 A 
ATOM     50  N   UNL A   1      43.660  27.715  27.550  1.00  0.00    -0.354 N 
ATOM     51  C   UNL A   1      47.921  27.678  26.870  1.00  0.00     0.074 A 
ATOM     52  C   UNL A   1      48.362  26.386  26.396  1.00  0.00     0.031 C 
ATOM     53  C   UNL A   1      41.612  26.827  27.715  1.00  0.00     0.029 A 
ATOM     54  C   UNL A   1      42.397  28.024  28.001  1.00  0.00     0.049 A 
ATOM     55  H   UNL A   1      44.411  28.350  27.575  1.00  0.00     0.167 HD
ATOM     56  C   UNL A   1      48.748  28.725  27.109  1.00  0.00     0.034 A 
ATOM     57  C   UNL A   1      41.926  29.137  28.598  1.00  0.00     0.034 A 
ATOM     58  C   UNL A   1      48.298  30.018  27.546  1.00  0.00     0.049 A 
ATOM     59  C   UNL A   1      42.852  30.303  28.806  1.00  0.00     0.074 A 
ATOM     60  C   UNL A   1      49.038  31.175  27.711  1.00  0.00     0.029 A 
ATOM     61  N   UNL A   1      46.995  30.322  27.910  1.00  0.00    -0.354 N 
ATOM     62  N   UNL A   1      44.128  30.403  28.521  1.00  0.00    -0.248 NA
ATOM     63  C   UNL A   1      42.267  31.523  29.377  1.00  0.00     0.031 C 
ATOM     64  C   UNL A   1      48.192  32.165  28.221  1.00  0.00     0.029 A 
ATOM     65  C   UNL A   1      46.914  31.640  28.323  1.00  0.00     0.049 A 
ATOM     66  H   UNL A   1      46.239  29.692  27.878  1.00  0.00     0.167 HD
ATOM     67  C   UNL A   1      44.492  31.702  28.853  1.00  0.00     0.074 A 
ATOM     68  C   UNL A   1      43.295  32.359  29.336  1.00  0.00     0.031 C 
ATOM     69  C   UNL A   1      45.710  32.294  28.771  1.00  0.00     0.034 A 
BRANCH  56  70
ATOM     70  C   UNL A   1      50.226  28.518  26.881  1.00  0.00     0.023 A 
ATOM     71  C   UNL A   1      50.777  28.710  25.597  1.00  0.00     0.012 A 
ATOM     72  C   UNL A   1      51.077  28.175  27.950  1.00  0.00     0.148 A 
ATOM     73  C   UNL A   1      52.139  28.517  25.371  1.00  0.00     0.002 A 
ATOM     74  C   UNL A   1      52.442  28.036  27.728  1.00  0.00     0.091 A 
ATOM     75  F   UNL A   1      50.535  27.977  29.161  1.00  0.00    -0.205 F 
ATOM     76  C   UNL A   1      52.973  28.189  26.438  1.00  0.00     0.022 A 
BRANCH  74  77
ATOM     77  S   UNL A   1      53.609  27.700  29.051  1.00  0.00     0.127 S 
ATOM     78  O   UNL A   1      54.874  27.645  28.322  1.00  0.00    -0.237 OA
ATOM     79  O   UNL A   1      53.449  28.877  29.906  1.00  0.00    -0.237 OA
ATOM     80  O   UNL A   1      53.181  26.447  29.658  1.00  0.00    -0.744 OA
ENDBRANCH  74  77
ENDBRANCH  56  70
BRANCH  57  81
ATOM     81  C   UNL A   1      40.494  29.204  29.004  1.00  0.00     0.023 A 
ATOM     82  C   UNL A   1      39.494  29.349  28.024  1.00  0.00     0.012 A 
ATOM     83  C   UNL A   1      40.120  29.073  30.356  1.00  0.00     0.148 A 
ATOM     84  C   UNL A   1      38.146  29.391  28.386  1.00  0.00     0.002 A 
ATOM     85  C   UNL A   1      38.776  29.056  30.703  1.00  0.00     0.091 A 
ATOM     86  F   UNL A   1      41.090  28.943  31.271  1.00  0.00    -0.205 F 
ATOM     87  C   UNL A   1      37.787  29.233  29.723  1.00  0.00     0.022 A 
BRANCH  85  88
ATOM     88  S   UNL A   1      38.215  28.724  32.377  1.00  0.00     0.127 S 
ATOM     89  O   UNL A   1      38.553  27.311  32.530  1.00  0.00    -0.237 OA
ATOM     90  O   UNL A   1      39.043  29.645  33.157  1.00  0.00    -0.237 OA
ATOM     91  O   UNL A   1      36.793  29.035  32.388  1.00  0.00    -0.744 OA
ENDBRANCH  85  88
ENDBRANCH  57  81
BRANCH  69  92
ATOM     92  C   UNL A   1      45.812  33.742  29.176  1.00  0.00     0.023 A 
ATOM     93  C   UNL A   1      46.159  34.086  30.497  1.00  0.00     0.012 A 
ATOM     94  C   UNL A   1      45.628  34.763  28.222  1.00  0.00     0.148 A 
ATOM     95  C   UNL A   1      46.285  35.423  30.872  1.00  0.00     0.002 A 
ATOM     96  C   UNL A   1      45.810  36.090  28.589  1.00  0.00     0.091 A 
ATOM     97  F   UNL A   1      45.280  34.417  26.974  1.00  0.00    -0.205 F 
ATOM     98  C   UNL A   1      46.123  36.423  29.916  1.00  0.00     0.022 A 
BRANCH  96  99
ATOM     99  S   UNL A   1      45.724  37.437  27.404  1.00  0.00     0.127 S 
ATOM    100  O   UNL A   1      44.314  37.399  27.013  1.00  0.00    -0.237 OA
ATOM    101  O   UNL A   1      46.099  38.592  28.220  1.00  0.00    -0.237 OA
ATOM    102  O   UNL A   1      46.672  37.108  26.348  1.00  0.00    -0.744 OA
ENDBRANCH  96  99
ENDBRANCH  69  92
ENDBRANCH  43  44
ENDBRANCH  35  38
ENDBRANCH  33  34
ENDBRANCH  32  33
ENDBRANCH   1  32
TORSDOF 19
ENDMDL
MODEL 2
REMARK VINA RESULT:     -11.5      2.696      3.469
REMARK SMILES COc1c(Cl)cc(C(=O)NCCCNC(=O)c2ccc(-c3c4nc(c(-c5cccc(S(=O)(=O)[O-])c5F)c5ccc([nH]5)c(-c5cccc(S(=O)(=O)[O-])c5F)c5nc(c(-c6cccc(S(=O)(=O)[O-])c6F)c6ccc3[nH]6)C=C5)C=C4)cc2)cc1NC(=S)NC(=O)c1cccc(C)c1OC
REMARK SMILES IDX 11 1 10 2 8 3 9 4 7 6 3 7 4 8 81 9 5 10 6 11 80 12 2 13 1 14
REMARK SMILES IDX 82 15 83 17 84 18 85 19 86 20 87 22 88 23 89 24 94 25 90 26
REMARK SMILES IDX 92 27 91 28 93 29 95 30 96 31 12 32 13 33 14 34 15 35 16 37
REMARK SMILES IDX 17 38 18 39 79 40 19 41 78 42 20 43 21 44 22 45 72 46 23 47
REMARK SMILES IDX 77 48 71 49 73 50 24 51 76 52 70 53 69 54 25 56 57 57 37 58
REMARK SMILES IDX 56 59 38 60 41 61 55 62 74 63 39 64 40 65 54 67 75 68 42 69
REMARK SMILES IDX 26 70 27 71 35 72 28 73 30 74 36 75 29 76 31 77 32 78 33 79
REMARK SMILES IDX 34 80 58 81 59 82 67 83 60 84 62 85 68 86 61 87 63 88 64 89
REMARK SMILES IDX 65 90 66 91 43 92 44 93 52 94 45 95 47 96 53 97 46 98 48 99
REMARK SMILES IDX 49 100 50 101 51 102
REMARK H PARENT 10 5 82 16 85 21 14 36 73 55 41 66
REMARK Flexibility Score: inf
ROOT
ATOM      1  C   UNL A   1      40.556  21.112  26.304  1.00  0.00     0.118 C 
ENDROOT
BRANCH   1   2
ATOM      2  N   UNL A   1      39.572  22.211  26.172  1.00  0.00    -0.352 N 
ATOM      3  C   UNL A   1      38.169  22.650  25.875  1.00  0.00     0.251 C 
ATOM      4  O   UNL A   1      38.519  23.835  26.260  1.00  0.00    -0.269 OA
ATOM      5  H   UNL A   1      40.070  23.037  26.370  1.00  0.00     0.163 HD
BRANCH   3   6
ATOM      6  C   UNL A   1      36.364  21.796  25.104  1.00  0.00     0.043 A 
ATOM      7  C   UNL A   1      33.516  20.747  24.343  1.00  0.00     0.160 A 
ATOM      8  C   UNL A   1      34.568  19.874  24.574  1.00  0.00     0.086 A 
ATOM      9  C   UNL A   1      33.839  22.073  24.483  1.00  0.00     0.085 A 
ATOM     10  Cl  UNL A   1      34.427  18.146  24.518  1.00  0.00    -0.080 Cl
ATOM     11  C   UNL A   1      35.865  20.371  24.979  1.00  0.00     0.038 A 
ATOM     12  C   UNL A   1      35.172  22.449  24.523  1.00  0.00     0.044 A 
BRANCH   7  13
ATOM     13  O   UNL A   1      32.215  20.514  24.018  1.00  0.00    -0.493 OA
ATOM     14  C   UNL A   1      31.923  19.989  22.732  1.00  0.00     0.278 C 
ENDBRANCH   7  13
BRANCH   9  15
ATOM     15  N   UNL A   1      32.912  23.128  24.520  1.00  0.00    -0.329 N 
ATOM     16  H   UNL A   1      32.892  23.699  23.718  1.00  0.00     0.169 HD
BRANCH  15  17
ATOM     17  C   UNL A   1      32.036  23.477  25.508  1.00  0.00     0.177 C 
ATOM     18  S   UNL A   1      32.365  22.968  27.071  1.00  0.00    -0.040 S 
BRANCH  17  19
ATOM     19  N   UNL A   1      30.925  24.297  25.338  1.00  0.00    -0.299 N 
ATOM     20  C   UNL A   1      30.360  25.462  25.890  1.00  0.00     0.261 C 
ATOM     21  H   UNL A   1      30.360  23.959  24.606  1.00  0.00     0.172 HD
ATOM     22  O   UNL A   1      29.361  25.351  26.600  1.00  0.00    -0.269 OA
BRANCH  20  23
ATOM     23  C   UNL A   1      30.913  26.851  25.679  1.00  0.00     0.082 A 
ATOM     24  C   UNL A   1      31.674  27.459  27.224  1.00  0.00     0.018 A 
ATOM     25  C   UNL A   1      31.379  27.653  24.078  1.00  0.00     0.134 A 
ATOM     26  C   UNL A   1      32.949  28.742  27.195  1.00  0.00     0.001 A 
ATOM     27  C   UNL A   1      32.764  28.837  24.048  1.00  0.00    -0.008 A 
ATOM     28  C   UNL A   1      33.558  29.385  25.586  1.00  0.00     0.007 A 
ATOM     29  C   UNL A   1      33.585  28.957  22.791  1.00  0.00     0.048 C 
BRANCH  25  30
ATOM     30  O   UNL A   1      31.056  27.234  22.805  1.00  0.00    -0.496 OA
ATOM     31  C   UNL A   1      31.564  25.997  22.341  1.00  0.00     0.278 C 
ENDBRANCH  25  30
ENDBRANCH  20  23
ENDBRANCH  17  19
ENDBRANCH  15  17
ENDBRANCH   9  15
ENDBRANCH   3   6
ENDBRANCH   1   2
BRANCH   1  32
ATOM     32  C   UNL A   1      41.430  21.147  27.552  1.00  0.00     0.042 C 
BRANCH  32  33
ATOM     33  C   UNL A   1      42.816  21.742  27.384  1.00  0.00     0.118 C 
BRANCH  33  34
ATOM     34  N   UNL A   1      43.167  21.983  25.992  1.00  0.00    -0.352 N 
ATOM     35  C   UNL A   1      43.333  23.148  25.284  1.00  0.00     0.251 C 
ATOM     36  H   UNL A   1      43.311  21.165  25.464  1.00  0.00     0.163 HD
ATOM     37  O   UNL A   1      43.442  23.070  24.060  1.00  0.00    -0.269 OA
BRANCH  35  38
ATOM     38  C   UNL A   1      43.382  24.479  25.941  1.00  0.00     0.039 A 
ATOM     39  C   UNL A   1      42.917  25.590  25.226  1.00  0.00     0.014 A 
ATOM     40  C   UNL A   1      43.941  24.671  27.205  1.00  0.00     0.014 A 
ATOM     41  C   UNL A   1      42.983  26.869  25.789  1.00  0.00     0.010 A 
ATOM     42  C   UNL A   1      43.905  25.927  27.809  1.00  0.00     0.010 A 
ATOM     43  C   UNL A   1      43.456  27.047  27.098  1.00  0.00    -0.014 A 
BRANCH  43  44
ATOM     44  C   UNL A   1      43.511  28.395  27.723  1.00  0.00     0.031 A 
ATOM     45  C   UNL A   1      44.809  29.159  27.779  1.00  0.00     0.074 A 
ATOM     46  C   UNL A   1      42.408  28.903  28.307  1.00  0.00     0.049 A 
ATOM     47  N   UNL A   1      45.058  30.325  28.316  1.00  0.00    -0.248 NA
ATOM     48  C   UNL A   1      45.992  28.515  27.182  1.00  0.00     0.031 C 
ATOM     49  C   UNL A   1      41.114  28.226  28.399  1.00  0.00     0.029 A 
ATOM     50  N   UNL A   1      42.207  30.094  28.961  1.00  0.00    -0.354 N 
ATOM     51  C   UNL A   1      46.426  30.532  28.165  1.00  0.00     0.074 A 
ATOM     52  C   UNL A   1      46.959  29.356  27.514  1.00  0.00     0.031 C 
ATOM     53  C   UNL A   1      40.253  29.009  29.066  1.00  0.00     0.029 A 
ATOM     54  C   UNL A   1      40.941  30.227  29.483  1.00  0.00     0.049 A 
ATOM     55  H   UNL A   1      42.901  30.787  29.047  1.00  0.00     0.167 HD
ATOM     56  C   UNL A   1      47.167  31.610  28.515  1.00  0.00     0.034 A 
ATOM     57  C   UNL A   1      40.399  31.207  30.232  1.00  0.00     0.034 A 
ATOM     58  C   UNL A   1      46.625  32.792  29.129  1.00  0.00     0.049 A 
ATOM     59  C   UNL A   1      41.228  32.416  30.565  1.00  0.00     0.074 A 
ATOM     60  C   UNL A   1      47.268  33.981  29.423  1.00  0.00     0.029 A 
ATOM     61  N   UNL A   1      45.316  32.926  29.565  1.00  0.00    -0.354 N 
ATOM     62  N   UNL A   1      42.478  32.667  30.261  1.00  0.00    -0.248 NA
ATOM     63  C   UNL A   1      40.562  33.496  31.307  1.00  0.00     0.031 C 
ATOM     64  C   UNL A   1      46.360  34.816  30.081  1.00  0.00     0.029 A 
ATOM     65  C   UNL A   1      45.136  34.169  30.149  1.00  0.00     0.049 A 
ATOM     66  H   UNL A   1      44.616  32.240  29.472  1.00  0.00     0.167 HD
ATOM     67  C   UNL A   1      42.741  33.942  30.748  1.00  0.00     0.074 A 
ATOM     68  C   UNL A   1      41.511  34.420  31.346  1.00  0.00     0.031 C 
ATOM     69  C   UNL A   1      43.899  34.647  30.710  1.00  0.00     0.034 A 
BRANCH  56  70
ATOM     70  C   UNL A   1      48.647  31.570  28.222  1.00  0.00     0.023 A 
ATOM     71  C   UNL A   1      49.509  30.805  29.035  1.00  0.00     0.012 A 
ATOM     72  C   UNL A   1      49.180  32.257  27.113  1.00  0.00     0.148 A 
ATOM     73  C   UNL A   1      50.880  30.764  28.780  1.00  0.00     0.002 A 
ATOM     74  C   UNL A   1      50.538  32.169  26.833  1.00  0.00     0.091 A 
ATOM     75  F   UNL A   1      48.351  32.995  26.359  1.00  0.00    -0.205 F 
ATOM     76  C   UNL A   1      51.392  31.437  27.674  1.00  0.00     0.022 A 
BRANCH  74  77
ATOM     77  S   UNL A   1      51.280  32.928  25.385  1.00  0.00     0.127 S 
ATOM     78  O   UNL A   1      51.352  31.796  24.462  1.00  0.00    -0.237 OA
ATOM     79  O   UNL A   1      50.288  33.943  25.028  1.00  0.00    -0.237 OA
ATOM     80  O   UNL A   1      52.563  33.461  25.822  1.00  0.00    -0.744 OA
ENDBRANCH  74  77
ENDBRANCH  56  70
BRANCH  57  81
ATOM     81  C   UNL A   1      38.984  31.091  30.684  1.00  0.00     0.023 A 
ATOM     82  C   UNL A   1      38.685  30.427  31.889  1.00  0.00     0.012 A 
ATOM     83  C   UNL A   1      37.940  31.681  29.946  1.00  0.00     0.148 A 
ATOM     84  C   UNL A   1      37.366  30.329  32.338  1.00  0.00     0.002 A 
ATOM     85  C   UNL A   1      36.638  31.632  30.427  1.00  0.00     0.091 A 
ATOM     86  F   UNL A   1      38.248  32.301  28.798  1.00  0.00    -0.205 F 
ATOM     87  C   UNL A   1      36.346  30.941  31.614  1.00  0.00     0.022 A 
BRANCH  85  88
ATOM     88  S   UNL A   1      35.282  32.503  29.635  1.00  0.00     0.127 S 
ATOM     89  O   UNL A   1      34.949  31.602  28.535  1.00  0.00    -0.237 OA
ATOM     90  O   UNL A   1      34.292  32.555  30.712  1.00  0.00    -0.237 OA
ATOM     91  O   UNL A   1      35.818  33.799  29.246  1.00  0.00    -0.744 OA
ENDBRANCH  85  88
ENDBRANCH  57  81
BRANCH  69  92
ATOM     92  C   UNL A   1      43.890  36.036  31.298  1.00  0.00     0.023 A 
ATOM     93  C   UNL A   1      44.072  36.220  32.683  1.00  0.00     0.012 A 
ATOM     94  C   UNL A   1      43.769  37.163  30.461  1.00  0.00     0.148 A 
ATOM     95  C   UNL A   1      44.096  37.503  33.229  1.00  0.00     0.002 A 
ATOM     96  C   UNL A   1      43.850  38.438  31.005  1.00  0.00     0.091 A 
ATOM     97  F   UNL A   1      43.579  36.966  29.148  1.00  0.00    -0.205 F 
ATOM     98  C   UNL A   1      43.998  38.610  32.390  1.00  0.00     0.022 A 
BRANCH  96  99
ATOM     99  S   UNL A   1      43.837  39.920  29.991  1.00  0.00     0.127 S 
ATOM    100  O   UNL A   1      43.688  40.969  30.999  1.00  0.00    -0.237 OA
ATOM    101  O   UNL A   1      45.154  39.869  29.353  1.00  0.00    -0.237 OA
ATOM    102  O   UNL A   1      42.714  39.773  29.074  1.00  0.00    -0.744 OA
ENDBRANCH  96  99
ENDBRANCH  69  92
ENDBRANCH  43  44
ENDBRANCH  35  38
ENDBRANCH  33  34
ENDBRANCH  32  33
ENDBRANCH   1  32
TORSDOF 19
ENDMDL
MODEL 3
REMARK VINA RESULT:     -11.4      1.872      7.509
REMARK SMILES COc1c(Cl)cc(C(=O)NCCCNC(=O)c2ccc(-c3c4nc(c(-c5cccc(S(=O)(=O)[O-])c5F)c5ccc([nH]5)c(-c5cccc(S(=O)(=O)[O-])c5F)c5nc(c(-c6cccc(S(=O)(=O)[O-])c6F)c6ccc3[nH]6)C=C5)C=C4)cc2)cc1NC(=S)NC(=O)c1cccc(C)c1OC
REMARK SMILES IDX 11 1 10 2 8 3 9 4 7 6 3 7 4 8 81 9 5 10 6 11 80 12 2 13 1 14
REMARK SMILES IDX 82 15 83 17 84 18 85 19 86 20 87 22 88 23 89 24 94 25 90 26
REMARK SMILES IDX 92 27 91 28 93 29 95 30 96 31 12 32 13 33 14 34 15 35 16 37
REMARK SMILES IDX 17 38 18 39 79 40 19 41 78 42 20 43 21 44 22 45 72 46 23 47
REMARK SMILES IDX 77 48 71 49 73 50 24 51 76 52 70 53 69 54 25 56 57 57 37 58
REMARK SMILES IDX 56 59 38 60 41 61 55 62 74 63 39 64 40 65 54 67 75 68 42 69
REMARK SMILES IDX 26 70 27 71 35 72 28 73 30 74 36 75 29 76 31 77 32 78 33 79
REMARK SMILES IDX 34 80 58 81 59 82 67 83 60 84 62 85 68 86 61 87 63 88 64 89
REMARK SMILES IDX 65 90 66 91 43 92 44 93 52 94 45 95 47 96 53 97 46 98 48 99
REMARK SMILES IDX 49 100 50 101 51 102
REMARK H PARENT 10 5 82 16 85 21 14 36 73 55 41 66
REMARK Flexibility Score: inf
ROOT
ATOM      1  C   UNL A   1      40.546  20.539  26.723  1.00  0.00     0.118 C 
ENDROOT
BRANCH   1   2
ATOM      2  N   UNL A   1      39.678  21.706  26.439  1.00  0.00    -0.352 N 
ATOM      3  C   UNL A   1      38.343  22.240  26.014  1.00  0.00     0.251 C 
ATOM      4  O   UNL A   1      38.777  23.418  26.329  1.00  0.00    -0.269 OA
ATOM      5  H   UNL A   1      40.238  22.498  26.606  1.00  0.00     0.163 HD
BRANCH   3   6
ATOM      6  C   UNL A   1      36.517  21.487  25.190  1.00  0.00     0.043 A 
ATOM      7  C   UNL A   1      33.641  20.577  24.357  1.00  0.00     0.160 A 
ATOM      8  C   UNL A   1      34.658  19.657  24.561  1.00  0.00     0.086 A 
ATOM      9  C   UNL A   1      34.011  21.883  24.557  1.00  0.00     0.085 A 
ATOM     10  Cl  UNL A   1      34.455  17.939  24.429  1.00  0.00    -0.080 Cl
ATOM     11  C   UNL A   1      35.967  20.088  24.999  1.00  0.00     0.038 A 
ATOM     12  C   UNL A   1      35.356  22.208  24.626  1.00  0.00     0.044 A 
BRANCH   7  13
ATOM     13  O   UNL A   1      32.336  20.406  24.009  1.00  0.00    -0.493 OA
ATOM     14  C   UNL A   1      31.994  20.434  22.633  1.00  0.00     0.278 C 
ENDBRANCH   7  13
BRANCH   9  15
ATOM     15  N   UNL A   1      33.123  22.969  24.630  1.00  0.00    -0.329 N 
ATOM     16  H   UNL A   1      33.080  23.533  23.824  1.00  0.00     0.169 HD
BRANCH  15  17
ATOM     17  C   UNL A   1      32.311  23.357  25.658  1.00  0.00     0.177 C 
ATOM     18  S   UNL A   1      32.839  23.086  27.226  1.00  0.00    -0.040 S 
BRANCH  17  19
ATOM     19  N   UNL A   1      31.107  24.039  25.512  1.00  0.00    -0.299 N 
ATOM     20  C   UNL A   1      30.543  25.291  25.819  1.00  0.00     0.261 C 
ATOM     21  H   UNL A   1      30.447  23.472  25.052  1.00  0.00     0.172 HD
ATOM     22  O   UNL A   1      29.724  25.358  26.735  1.00  0.00    -0.269 OA
BRANCH  20  23
ATOM     23  C   UNL A   1      30.892  26.573  25.102  1.00  0.00     0.082 A 
ATOM     24  C   UNL A   1      29.824  26.777  23.634  1.00  0.00     0.018 A 
ATOM     25  C   UNL A   1      31.753  28.058  25.793  1.00  0.00     0.134 A 
ATOM     26  C   UNL A   1      29.509  28.412  22.928  1.00  0.00     0.001 A 
ATOM     27  C   UNL A   1      31.314  29.712  25.164  1.00  0.00    -0.008 A 
ATOM     28  C   UNL A   1      30.198  29.906  23.746  1.00  0.00     0.007 A 
ATOM     29  C   UNL A   1      31.426  30.891  26.094  1.00  0.00     0.048 C 
BRANCH  25  30
ATOM     30  O   UNL A   1      32.451  28.147  26.979  1.00  0.00    -0.496 OA
ATOM     31  C   UNL A   1      33.849  28.359  26.937  1.00  0.00     0.278 C 
ENDBRANCH  25  30
ENDBRANCH  20  23
ENDBRANCH  17  19
ENDBRANCH  15  17
ENDBRANCH   9  15
ENDBRANCH   3   6
ENDBRANCH   1   2
BRANCH   1  32
ATOM     32  C   UNL A   1      41.879  20.506  25.985  1.00  0.00     0.042 C 
BRANCH  32  33
ATOM     33  C   UNL A   1      42.654  19.203  26.061  1.00  0.00     0.118 C 
BRANCH  33  34
ATOM     34  N   UNL A   1      43.578  19.025  24.951  1.00  0.00    -0.352 N 
ATOM     35  C   UNL A   1      44.417  19.906  24.314  1.00  0.00     0.251 C 
ATOM     36  H   UNL A   1      43.609  18.108  24.593  1.00  0.00     0.163 HD
ATOM     37  O   UNL A   1      44.956  19.540  23.270  1.00  0.00    -0.269 OA
BRANCH  35  38
ATOM     38  C   UNL A   1      44.686  21.269  24.839  1.00  0.00     0.039 A 
ATOM     39  C   UNL A   1      44.380  22.367  24.025  1.00  0.00     0.014 A 
ATOM     40  C   UNL A   1      45.301  21.489  26.073  1.00  0.00     0.014 A 
ATOM     41  C   UNL A   1      44.657  23.667  24.461  1.00  0.00     0.010 A 
ATOM     42  C   UNL A   1      45.474  22.787  26.553  1.00  0.00     0.010 A 
ATOM     43  C   UNL A   1      45.185  23.891  25.741  1.00  0.00    -0.014 A 
BRANCH  43  44
ATOM     44  C   UNL A   1      45.462  25.267  26.233  1.00  0.00     0.031 A 
ATOM     45  C   UNL A   1      44.337  26.148  26.714  1.00  0.00     0.074 A 
ATOM     46  C   UNL A   1      46.717  25.753  26.178  1.00  0.00     0.049 A 
ATOM     47  N   UNL A   1      44.380  27.383  27.140  1.00  0.00    -0.248 NA
ATOM     48  C   UNL A   1      42.979  25.577  26.682  1.00  0.00     0.031 C 
ATOM     49  C   UNL A   1      47.878  25.033  25.652  1.00  0.00     0.029 A 
ATOM     50  N   UNL A   1      47.222  26.977  26.542  1.00  0.00    -0.354 N 
ATOM     51  C   UNL A   1      43.060  27.752  27.381  1.00  0.00     0.074 A 
ATOM     52  C   UNL A   1      42.236  26.619  27.022  1.00  0.00     0.031 C 
ATOM     53  C   UNL A   1      48.959  25.825  25.728  1.00  0.00     0.029 A 
ATOM     54  C   UNL A   1      48.563  27.121  26.271  1.00  0.00     0.049 A 
ATOM     55  H   UNL A   1      46.677  27.685  26.957  1.00  0.00     0.167 HD
ATOM     56  C   UNL A   1      42.579  28.918  27.875  1.00  0.00     0.034 A 
ATOM     57  C   UNL A   1      49.381  28.181  26.423  1.00  0.00     0.034 A 
ATOM     58  C   UNL A   1      43.407  30.027  28.263  1.00  0.00     0.049 A 
ATOM     59  C   UNL A   1      48.833  29.447  27.021  1.00  0.00     0.074 A 
ATOM     60  C   UNL A   1      43.029  31.209  28.876  1.00  0.00     0.029 A 
ATOM     61  N   UNL A   1      44.775  30.103  28.056  1.00  0.00    -0.354 N 
ATOM     62  N   UNL A   1      47.608  29.715  27.402  1.00  0.00    -0.248 NA
ATOM     63  C   UNL A   1      49.786  30.542  27.247  1.00  0.00     0.031 C 
ATOM     64  C   UNL A   1      44.163  32.019  28.995  1.00  0.00     0.029 A 
ATOM     65  C   UNL A   1      45.255  31.321  28.506  1.00  0.00     0.049 A 
ATOM     66  H   UNL A   1      45.325  29.395  27.650  1.00  0.00     0.167 HD
ATOM     67  C   UNL A   1      47.647  30.996  27.939  1.00  0.00     0.074 A 
ATOM     68  C   UNL A   1      49.024  31.440  27.855  1.00  0.00     0.031 C 
ATOM     69  C   UNL A   1      46.633  31.739  28.448  1.00  0.00     0.034 A 
BRANCH  56  70
ATOM     70  C   UNL A   1      41.084  29.045  28.044  1.00  0.00     0.023 A 
ATOM     71  C   UNL A   1      40.254  29.194  26.913  1.00  0.00     0.012 A 
ATOM     72  C   UNL A   1      40.497  28.973  29.322  1.00  0.00     0.148 A 
ATOM     73  C   UNL A   1      38.873  29.319  27.055  1.00  0.00     0.002 A 
ATOM     74  C   UNL A   1      39.115  29.045  29.452  1.00  0.00     0.091 A 
ATOM     75  F   UNL A   1      41.299  28.850  30.390  1.00  0.00    -0.205 F 
ATOM     76  C   UNL A   1      38.302  29.235  28.322  1.00  0.00     0.022 A 
BRANCH  74  77
ATOM     77  S   UNL A   1      38.279  28.861  31.031  1.00  0.00     0.127 S 
ATOM     78  O   UNL A   1      38.941  29.886  31.837  1.00  0.00    -0.237 OA
ATOM     79  O   UNL A   1      36.891  29.165  30.680  1.00  0.00    -0.237 OA
ATOM     80  O   UNL A   1      38.511  27.487  31.452  1.00  0.00    -0.744 OA
ENDBRANCH  74  77
ENDBRANCH  56  70
BRANCH  57  81
ATOM     81  C   UNL A   1      50.814  28.067  26.031  1.00  0.00     0.023 A 
ATOM     82  C   UNL A   1      51.796  27.865  27.019  1.00  0.00     0.012 A 
ATOM     83  C   UNL A   1      51.199  28.108  24.677  1.00  0.00     0.148 A 
ATOM     84  C   UNL A   1      53.141  27.734  26.667  1.00  0.00     0.002 A 
ATOM     85  C   UNL A   1      52.529  27.918  24.329  1.00  0.00     0.091 A 
ATOM     86  F   UNL A   1      50.247  28.309  23.755  1.00  0.00    -0.205 F 
ATOM     87  C   UNL A   1      53.505  27.748  25.323  1.00  0.00     0.022 A 
BRANCH  85  88
ATOM     88  S   UNL A   1      53.071  27.787  22.622  1.00  0.00     0.127 S 
ATOM     89  O   UNL A   1      54.509  27.579  22.780  1.00  0.00    -0.237 OA
ATOM     90  O   UNL A   1      52.325  26.615  22.161  1.00  0.00    -0.237 OA
ATOM     91  O   UNL A   1      52.683  29.037  21.986  1.00  0.00    -0.744 OA
ENDBRANCH  85  88
ENDBRANCH  57  81
BRANCH  69  92
ATOM     92  C   UNL A   1      46.972  33.103  28.995  1.00  0.00     0.023 A 
ATOM     93  C   UNL A   1      47.366  33.249  30.339  1.00  0.00     0.012 A 
ATOM     94  C   UNL A   1      46.965  34.231  28.150  1.00  0.00     0.148 A 
ATOM     95  C   UNL A   1      47.711  34.503  30.844  1.00  0.00     0.002 A 
ATOM     96  C   UNL A   1      47.363  35.466  28.645  1.00  0.00     0.091 A 
ATOM     97  F   UNL A   1      46.570  34.074  26.878  1.00  0.00    -0.205 F 
ATOM     98  C   UNL A   1      47.722  35.607  29.994  1.00  0.00     0.022 A 
BRANCH  96  99
ATOM     99  S   UNL A   1      47.507  36.920  27.601  1.00  0.00     0.127 S 
ATOM    100  O   UNL A   1      48.408  36.445  26.552  1.00  0.00    -0.237 OA
ATOM    101  O   UNL A   1      46.124  37.127  27.169  1.00  0.00    -0.237 OA
ATOM    102  O   UNL A   1      48.041  37.976  28.450  1.00  0.00    -0.744 OA
ENDBRANCH  96  99
ENDBRANCH  69  92
ENDBRANCH  43  44
ENDBRANCH  35  38
ENDBRANCH  33  34
ENDBRANCH  32  33
ENDBRANCH   1  32
TORSDOF 19
ENDMDL
