MODEL 1
REMARK VINA RESULT:     -12.4      0.000      0.000
REMARK SMILES O=C(NCCCNC(=O)c1cn(C2CC2)c2cc(N3CC[NH2+]CC3)ccc2c1=O)c1ccc(-c2c3nc(c(-c4cccc(S(=O)(=O)[O-])c4F)c4ccc([nH]4)c(-c4cccc(S(=O)(=O)[O-])c4F)c4nc(c(-c5cccc(S(=O)(=O)[O-])c5F)c5ccc2[nH]5)C=C4)C=C3)cc1
REMARK SMILES IDX 4 1 3 2 1 3 2 4 30 6 31 7 92 8 32 9 91 10 33 11 34 12 35 13
REMARK SMILES IDX 85 14 36 15 90 16 84 17 86 18 37 19 89 20 83 21 82 22 38 24
REMARK SMILES IDX 70 25 50 26 69 27 51 28 54 29 68 30 87 31 52 32 53 33 67 35
REMARK SMILES IDX 88 36 55 37 39 38 40 39 48 40 41 41 43 42 49 43 42 44 44 45
REMARK SMILES IDX 45 46 46 47 47 48 71 49 72 50 80 51 73 52 75 53 81 54 74 55
REMARK SMILES IDX 76 56 77 57 78 58 79 59 56 60 57 61 65 62 58 63 60 64 66 65
REMARK SMILES IDX 59 66 61 67 62 68 63 69 64 70 5 71 6 72 7 73 8 74 9 76 10 77
REMARK SMILES IDX 11 78 28 79 12 80 27 81 29 82 16 83 26 84 17 85 25 86 18 87
REMARK SMILES IDX 13 88 14 89 15 90 19 91 20 92 24 93 21 94 23 95 22 96
REMARK H PARENT 3 5 86 23 54 34 7 75 22 97 22 98
REMARK Flexibility Score: inf
ROOT
ATOM      1  C   UNL A   1      33.666  28.323  26.918  1.00  0.00     0.118 C 
ENDROOT
BRANCH   1   2
ATOM      2  N   UNL A   1      33.603  29.768  27.097  1.00  0.00    -0.352 N 
ATOM      3  O   UNL A   1      34.110  31.784  27.939  1.00  0.00    -0.269 OA
ATOM      4  C   UNL A   1      34.464  30.623  27.736  1.00  0.00     0.251 C 
ATOM      5  H   UNL A   1      32.816  30.199  26.693  1.00  0.00     0.163 HD
BRANCH   4   6
ATOM      6  C   UNL A   1      35.799  30.169  28.184  1.00  0.00     0.039 A 
ATOM      7  C   UNL A   1      36.895  30.346  27.332  1.00  0.00     0.014 A 
ATOM      8  C   UNL A   1      35.970  29.519  29.408  1.00  0.00     0.014 A 
ATOM      9  C   UNL A   1      38.161  29.903  27.724  1.00  0.00     0.010 A 
ATOM     10  C   UNL A   1      37.245  29.163  29.837  1.00  0.00     0.010 A 
ATOM     11  C   UNL A   1      38.348  29.322  28.987  1.00  0.00    -0.014 A 
BRANCH  11  12
ATOM     12  C   UNL A   1      39.670  28.804  29.423  1.00  0.00     0.031 A 
ATOM     13  C   UNL A   1      40.412  29.509  30.529  1.00  0.00     0.074 A 
ATOM     14  C   UNL A   1      40.233  27.757  28.792  1.00  0.00     0.049 A 
ATOM     15  N   UNL A   1      41.623  29.296  30.973  1.00  0.00    -0.248 NA
ATOM     16  C   UNL A   1      39.712  30.615  31.208  1.00  0.00     0.031 C 
ATOM     17  C   UNL A   1      39.634  27.015  27.681  1.00  0.00     0.029 A 
ATOM     18  N   UNL A   1      41.446  27.146  28.984  1.00  0.00    -0.354 N 
ATOM     19  C   UNL A   1      41.846  30.266  31.942  1.00  0.00     0.074 A 
ATOM     20  C   UNL A   1      40.657  31.085  32.010  1.00  0.00     0.031 C 
ATOM     21  C   UNL A   1      40.476  26.041  27.300  1.00  0.00     0.029 A 
ATOM     22  C   UNL A   1      41.687  26.110  28.114  1.00  0.00     0.049 A 
ATOM     23  H   UNL A   1      42.084  27.424  29.681  1.00  0.00     0.167 HD
ATOM     24  C   UNL A   1      42.930  30.441  32.732  1.00  0.00     0.034 A 
ATOM     25  C   UNL A   1      42.762  25.309  27.982  1.00  0.00     0.034 A 
ATOM     26  C   UNL A   1      44.080  29.582  32.721  1.00  0.00     0.049 A 
ATOM     27  C   UNL A   1      43.938  25.497  28.899  1.00  0.00     0.074 A 
ATOM     28  C   UNL A   1      45.198  29.638  33.535  1.00  0.00     0.029 A 
ATOM     29  N   UNL A   1      44.254  28.503  31.870  1.00  0.00    -0.354 N 
ATOM     30  N   UNL A   1      44.096  26.370  29.865  1.00  0.00    -0.248 NA
ATOM     31  C   UNL A   1      45.074  24.579  28.728  1.00  0.00     0.031 C 
ATOM     32  C   UNL A   1      46.050  28.591  33.174  1.00  0.00     0.029 A 
ATOM     33  C   UNL A   1      45.457  27.879  32.142  1.00  0.00     0.049 A 
ATOM     34  H   UNL A   1      43.616  28.225  31.174  1.00  0.00     0.167 HD
ATOM     35  C   UNL A   1      45.333  26.091  30.433  1.00  0.00     0.074 A 
ATOM     36  C   UNL A   1      45.881  24.961  29.710  1.00  0.00     0.031 C 
ATOM     37  C   UNL A   1      45.963  26.723  31.451  1.00  0.00     0.034 A 
BRANCH  24  38
ATOM     38  C   UNL A   1      42.901  31.561  33.733  1.00  0.00     0.023 A 
ATOM     39  C   UNL A   1      43.299  32.852  33.330  1.00  0.00     0.012 A 
ATOM     40  C   UNL A   1      42.394  31.362  35.030  1.00  0.00     0.148 A 
ATOM     41  C   UNL A   1      43.202  33.928  34.209  1.00  0.00     0.002 A 
ATOM     42  C   UNL A   1      42.270  32.447  35.891  1.00  0.00     0.091 A 
ATOM     43  F   UNL A   1      42.037  30.122  35.392  1.00  0.00    -0.205 F 
ATOM     44  C   UNL A   1      42.679  33.728  35.483  1.00  0.00     0.022 A 
BRANCH  42  45
ATOM     45  S   UNL A   1      41.556  32.311  37.533  1.00  0.00     0.127 S 
ATOM     46  O   UNL A   1      41.712  33.676  38.036  1.00  0.00    -0.237 OA
ATOM     47  O   UNL A   1      40.177  31.925  37.234  1.00  0.00    -0.237 OA
ATOM     48  O   UNL A   1      42.337  31.303  38.234  1.00  0.00    -0.744 OA
ENDBRANCH  42  45
ENDBRANCH  24  38
BRANCH  25  49
ATOM     49  C   UNL A   1      42.732  24.204  26.987  1.00  0.00     0.023 A 
ATOM     50  C   UNL A   1      43.413  24.370  25.765  1.00  0.00     0.012 A 
ATOM     51  C   UNL A   1      42.102  22.976  27.267  1.00  0.00     0.148 A 
ATOM     52  C   UNL A   1      43.459  23.333  24.833  1.00  0.00     0.002 A 
ATOM     53  C   UNL A   1      42.185  21.935  26.351  1.00  0.00     0.091 A 
ATOM     54  F   UNL A   1      41.462  22.846  28.437  1.00  0.00    -0.205 F 
ATOM     55  C   UNL A   1      42.854  22.114  25.129  1.00  0.00     0.022 A 
BRANCH  53  56
ATOM     56  S   UNL A   1      41.528  20.295  26.680  1.00  0.00     0.127 S 
ATOM     57  O   UNL A   1      40.099  20.568  26.817  1.00  0.00    -0.237 OA
ATOM     58  O   UNL A   1      41.903  19.576  25.461  1.00  0.00    -0.237 OA
ATOM     59  O   UNL A   1      42.196  19.834  27.887  1.00  0.00    -0.744 OA
ENDBRANCH  53  56
ENDBRANCH  25  49
BRANCH  37  60
ATOM     60  C   UNL A   1      47.307  26.210  31.882  1.00  0.00     0.023 A 
ATOM     61  C   UNL A   1      48.468  26.699  31.255  1.00  0.00     0.012 A 
ATOM     62  C   UNL A   1      47.422  25.350  32.992  1.00  0.00     0.148 A 
ATOM     63  C   UNL A   1      49.729  26.332  31.722  1.00  0.00     0.002 A 
ATOM     64  C   UNL A   1      48.682  25.016  33.474  1.00  0.00     0.091 A 
ATOM     65  F   UNL A   1      46.299  24.893  33.565  1.00  0.00    -0.205 F 
ATOM     66  C   UNL A   1      49.836  25.503  32.837  1.00  0.00     0.022 A 
BRANCH  64  67
ATOM     67  S   UNL A   1      48.921  24.019  34.948  1.00  0.00     0.127 S 
ATOM     68  O   UNL A   1      48.400  22.722  34.518  1.00  0.00    -0.237 OA
ATOM     69  O   UNL A   1      50.373  24.066  35.121  1.00  0.00    -0.237 OA
ATOM     70  O   UNL A   1      48.162  24.672  36.006  1.00  0.00    -0.744 OA
ENDBRANCH  64  67
ENDBRANCH  37  60
ENDBRANCH  11  12
ENDBRANCH   4   6
ENDBRANCH   1   2
BRANCH   1  71
ATOM     71  C   UNL A   1      32.295  27.669  26.951  1.00  0.00     0.042 C 
BRANCH  71  72
ATOM     72  C   UNL A   1      31.991  26.792  25.750  1.00  0.00     0.118 C 
BRANCH  72  73
ATOM     73  N   UNL A   1      32.726  27.177  24.551  1.00  0.00    -0.352 N 
ATOM     74  C   UNL A   1      33.488  26.406  23.712  1.00  0.00     0.256 C 
ATOM     75  H   UNL A   1      32.669  28.130  24.311  1.00  0.00     0.163 HD
ATOM     76  O   UNL A   1      34.024  26.911  22.728  1.00  0.00    -0.269 OA
BRANCH  74  77
ATOM     77  C   UNL A   1      33.590  24.967  23.997  1.00  0.00     0.104 A 
ATOM     78  C   UNL A   1      34.522  24.553  24.867  1.00  0.00     0.104 A 
ATOM     79  C   UNL A   1      32.742  23.952  23.343  1.00  0.00     0.202 A 
ATOM     80  N   UNL A   1      34.852  23.241  25.144  1.00  0.00    -0.343 N 
ATOM     81  C   UNL A   1      32.986  22.536  23.712  1.00  0.00     0.047 A 
ATOM     82  O   UNL A   1      31.881  24.247  22.521  1.00  0.00    -0.288 OA
ATOM     83  C   UNL A   1      34.015  22.210  24.617  1.00  0.00     0.054 A 
ATOM     84  C   UNL A   1      32.189  21.542  23.136  1.00  0.00     0.016 A 
ATOM     85  C   UNL A   1      34.168  20.858  24.968  1.00  0.00     0.053 A 
ATOM     86  C   UNL A   1      32.404  20.206  23.468  1.00  0.00     0.027 A 
ATOM     87  C   UNL A   1      33.380  19.844  24.402  1.00  0.00     0.039 A 
BRANCH  80  88
ATOM     88  C   UNL A   1      36.157  22.930  25.784  1.00  0.00     0.087 C 
ATOM     89  C   UNL A   1      37.462  22.731  25.051  1.00  0.00     0.027 C 
ATOM     90  C   UNL A   1      37.249  23.959  25.887  1.00  0.00     0.027 C 
ENDBRANCH  80  88
BRANCH  87  91
ATOM     91  N   UNL A   1      33.530  18.529  24.779  1.00  0.00    -0.360 N 
ATOM     92  C   UNL A   1      32.698  17.941  25.826  1.00  0.00     0.178 C 
ATOM     93  C   UNL A   1      34.642  17.715  24.279  1.00  0.00     0.178 C 
ATOM     94  C   UNL A   1      32.247  16.528  25.387  1.00  0.00     0.282 C 
ATOM     95  C   UNL A   1      34.145  16.295  23.927  1.00  0.00     0.282 C 
ATOM     96  N   UNL A   1      33.371  15.641  25.010  1.00  0.00    -0.343 N 
ATOM     97  H   UNL A   1      33.006  14.747  24.681  1.00  0.00     0.346 HD
ATOM     98  H   UNL A   1      33.971  15.476  25.817  1.00  0.00     0.346 HD
ENDBRANCH  87  91
ENDBRANCH  74  77
ENDBRANCH  72  73
ENDBRANCH  71  72
ENDBRANCH   1  71
TORSDOF 15
ENDMDL
MODEL 2
REMARK VINA RESULT:     -12.2      1.320      7.539
REMARK SMILES O=C(NCCCNC(=O)c1cn(C2CC2)c2cc(N3CC[NH2+]CC3)ccc2c1=O)c1ccc(-c2c3nc(c(-c4cccc(S(=O)(=O)[O-])c4F)c4ccc([nH]4)c(-c4cccc(S(=O)(=O)[O-])c4F)c4nc(c(-c5cccc(S(=O)(=O)[O-])c5F)c5ccc2[nH]5)C=C4)C=C3)cc1
REMARK SMILES IDX 4 1 3 2 1 3 2 4 30 6 31 7 92 8 32 9 91 10 33 11 34 12 35 13
REMARK SMILES IDX 85 14 36 15 90 16 84 17 86 18 37 19 89 20 83 21 82 22 38 24
REMARK SMILES IDX 70 25 50 26 69 27 51 28 54 29 68 30 87 31 52 32 53 33 67 35
REMARK SMILES IDX 88 36 55 37 39 38 40 39 48 40 41 41 43 42 49 43 42 44 44 45
REMARK SMILES IDX 45 46 46 47 47 48 71 49 72 50 80 51 73 52 75 53 81 54 74 55
REMARK SMILES IDX 76 56 77 57 78 58 79 59 56 60 57 61 65 62 58 63 60 64 66 65
REMARK SMILES IDX 59 66 61 67 62 68 63 69 64 70 5 71 6 72 7 73 8 74 9 76 10 77
REMARK SMILES IDX 11 78 28 79 12 80 27 81 29 82 16 83 26 84 17 85 25 86 18 87
REMARK SMILES IDX 13 88 14 89 15 90 19 91 20 92 24 93 21 94 23 95 22 96
REMARK H PARENT 3 5 86 23 54 34 7 75 22 97 22 98
REMARK Flexibility Score: inf
ROOT
ATOM      1  C   UNL A   1      33.773  28.332  26.978  1.00  0.00     0.118 C 
ENDROOT
BRANCH   1   2
ATOM      2  N   UNL A   1      33.718  29.779  27.139  1.00  0.00    -0.352 N 
ATOM      3  O   UNL A   1      34.250  31.805  27.940  1.00  0.00    -0.269 OA
ATOM      4  C   UNL A   1      34.596  30.641  27.744  1.00  0.00     0.251 C 
ATOM      5  H   UNL A   1      32.921  30.207  26.749  1.00  0.00     0.163 HD
BRANCH   4   6
ATOM      6  C   UNL A   1      35.941  30.189  28.164  1.00  0.00     0.039 A 
ATOM      7  C   UNL A   1      36.097  29.612  29.429  1.00  0.00     0.014 A 
ATOM      8  C   UNL A   1      37.058  30.383  27.349  1.00  0.00     0.014 A 
ATOM      9  C   UNL A   1      37.361  29.199  29.856  1.00  0.00     0.010 A 
ATOM     10  C   UNL A   1      38.299  29.888  27.736  1.00  0.00     0.010 A 
ATOM     11  C   UNL A   1      38.471  29.321  29.006  1.00  0.00    -0.014 A 
BRANCH  11  12
ATOM     12  C   UNL A   1      39.836  28.930  29.438  1.00  0.00     0.031 A 
ATOM     13  C   UNL A   1      40.510  27.751  28.787  1.00  0.00     0.074 A 
ATOM     14  C   UNL A   1      40.441  29.580  30.451  1.00  0.00     0.049 A 
ATOM     15  N   UNL A   1      41.640  27.173  29.098  1.00  0.00    -0.248 NA
ATOM     16  C   UNL A   1      39.811  27.122  27.651  1.00  0.00     0.031 C 
ATOM     17  C   UNL A   1      39.877  30.710  31.191  1.00  0.00     0.029 A 
ATOM     18  N   UNL A   1      41.659  29.368  31.046  1.00  0.00    -0.354 N 
ATOM     19  C   UNL A   1      41.762  26.091  28.236  1.00  0.00     0.074 A 
ATOM     20  C   UNL A   1      40.583  26.074  27.400  1.00  0.00     0.031 C 
ATOM     21  C   UNL A   1      40.753  31.100  32.131  1.00  0.00     0.029 A 
ATOM     22  C   UNL A   1      41.924  30.228  32.084  1.00  0.00     0.049 A 
ATOM     23  H   UNL A   1      42.284  28.665  30.755  1.00  0.00     0.167 HD
ATOM     24  C   UNL A   1      42.780  25.208  28.123  1.00  0.00     0.034 A 
ATOM     25  C   UNL A   1      42.987  30.305  32.909  1.00  0.00     0.034 A 
ATOM     26  C   UNL A   1      43.988  25.269  28.898  1.00  0.00     0.049 A 
ATOM     27  C   UNL A   1      44.124  29.337  32.737  1.00  0.00     0.074 A 
ATOM     28  C   UNL A   1      45.105  24.459  28.805  1.00  0.00     0.029 A 
ATOM     29  N   UNL A   1      44.242  26.198  29.893  1.00  0.00    -0.354 N 
ATOM     30  N   UNL A   1      44.256  28.371  31.861  1.00  0.00    -0.248 NA
ATOM     31  C   UNL A   1      45.269  29.482  33.648  1.00  0.00     0.031 C 
ATOM     32  C   UNL A   1      46.039  24.900  29.747  1.00  0.00     0.029 A 
ATOM     33  C   UNL A   1      45.504  25.988  30.418  1.00  0.00     0.049 A 
ATOM     34  H   UNL A   1      43.617  26.901  30.182  1.00  0.00     0.167 HD
ATOM     35  C   UNL A   1      45.505  27.811  32.096  1.00  0.00     0.074 A 
ATOM     36  C   UNL A   1      46.097  28.551  33.191  1.00  0.00     0.031 C 
ATOM     37  C   UNL A   1      46.100  26.768  31.470  1.00  0.00     0.034 A 
BRANCH  24  38
ATOM     38  C   UNL A   1      42.674  24.138  27.074  1.00  0.00     0.023 A 
ATOM     39  C   UNL A   1      43.294  24.338  25.824  1.00  0.00     0.012 A 
ATOM     40  C   UNL A   1      42.051  22.907  27.353  1.00  0.00     0.148 A 
ATOM     41  C   UNL A   1      43.287  23.331  24.862  1.00  0.00     0.002 A 
ATOM     42  C   UNL A   1      42.076  21.895  26.400  1.00  0.00     0.091 A 
ATOM     43  F   UNL A   1      41.457  22.748  28.543  1.00  0.00    -0.205 F 
ATOM     44  C   UNL A   1      42.689  22.109  25.153  1.00  0.00     0.022 A 
BRANCH  42  45
ATOM     45  S   UNL A   1      41.387  20.263  26.692  1.00  0.00     0.127 S 
ATOM     46  O   UNL A   1      42.118  19.843  27.887  1.00  0.00    -0.237 OA
ATOM     47  O   UNL A   1      39.973  20.566  26.916  1.00  0.00    -0.237 OA
ATOM     48  O   UNL A   1      41.665  19.485  25.494  1.00  0.00    -0.744 OA
ENDBRANCH  42  45
ENDBRANCH  24  38
BRANCH  25  49
ATOM     49  C   UNL A   1      43.050  31.394  33.920  1.00  0.00     0.023 A 
ATOM     50  C   UNL A   1      43.689  32.602  33.581  1.00  0.00     0.012 A 
ATOM     51  C   UNL A   1      42.426  31.270  35.177  1.00  0.00     0.148 A 
ATOM     52  C   UNL A   1      43.716  33.668  34.480  1.00  0.00     0.002 A 
ATOM     53  C   UNL A   1      42.422  32.349  36.052  1.00  0.00     0.091 A 
ATOM     54  F   UNL A   1      41.826  30.109  35.473  1.00  0.00    -0.205 F 
ATOM     55  C   UNL A   1      43.075  33.545  35.711  1.00  0.00     0.022 A 
BRANCH  53  56
ATOM     56  S   UNL A   1      41.540  32.328  37.617  1.00  0.00     0.127 S 
ATOM     57  O   UNL A   1      42.359  31.415  38.411  1.00  0.00    -0.237 OA
ATOM     58  O   UNL A   1      41.617  33.733  38.020  1.00  0.00    -0.237 OA
ATOM     59  O   UNL A   1      40.197  31.858  37.310  1.00  0.00    -0.744 OA
ENDBRANCH  53  56
ENDBRANCH  25  49
BRANCH  37  60
ATOM     60  C   UNL A   1      47.476  26.363  31.918  1.00  0.00     0.023 A 
ATOM     61  C   UNL A   1      47.617  25.482  33.007  1.00  0.00     0.012 A 
ATOM     62  C   UNL A   1      48.612  26.747  31.178  1.00  0.00     0.148 A 
ATOM     63  C   UNL A   1      48.874  24.994  33.360  1.00  0.00     0.002 A 
ATOM     64  C   UNL A   1      49.857  26.229  31.515  1.00  0.00     0.091 A 
ATOM     65  F   UNL A   1      48.448  27.592  30.150  1.00  0.00    -0.205 F 
ATOM     66  C   UNL A   1      49.990  25.357  32.608  1.00  0.00     0.022 A 
BRANCH  64  67
ATOM     67  S   UNL A   1      51.338  26.575  30.560  1.00  0.00     0.127 S 
ATOM     68  O   UNL A   1      50.966  26.068  29.240  1.00  0.00    -0.237 OA
ATOM     69  O   UNL A   1      51.430  28.032  30.650  1.00  0.00    -0.237 OA
ATOM     70  O   UNL A   1      52.420  25.856  31.218  1.00  0.00    -0.744 OA
ENDBRANCH  64  67
ENDBRANCH  37  60
ENDBRANCH  11  12
ENDBRANCH   4   6
ENDBRANCH   1   2
BRANCH   1  71
ATOM     71  C   UNL A   1      32.398  27.686  27.018  1.00  0.00     0.042 C 
BRANCH  71  72
ATOM     72  C   UNL A   1      32.114  26.745  25.861  1.00  0.00     0.118 C 
BRANCH  72  73
ATOM     73  N   UNL A   1      32.785  27.130  24.625  1.00  0.00    -0.352 N 
ATOM     74  C   UNL A   1      33.495  26.358  23.743  1.00  0.00     0.256 C 
ATOM     75  H   UNL A   1      32.719  28.083  24.390  1.00  0.00     0.163 HD
ATOM     76  O   UNL A   1      33.979  26.863  22.733  1.00  0.00    -0.269 OA
BRANCH  74  77
ATOM     77  C   UNL A   1      33.606  24.917  24.018  1.00  0.00     0.104 A 
ATOM     78  C   UNL A   1      34.571  24.497  24.849  1.00  0.00     0.104 A 
ATOM     79  C   UNL A   1      32.729  23.907  23.395  1.00  0.00     0.202 A 
ATOM     80  N   UNL A   1      34.908  23.184  25.107  1.00  0.00    -0.343 N 
ATOM     81  C   UNL A   1      32.984  22.489  23.748  1.00  0.00     0.047 A 
ATOM     82  O   UNL A   1      31.837  24.207  22.608  1.00  0.00    -0.288 OA
ATOM     83  C   UNL A   1      34.048  22.156  24.610  1.00  0.00     0.054 A 
ATOM     84  C   UNL A   1      32.163  21.498  23.201  1.00  0.00     0.016 A 
ATOM     85  C   UNL A   1      34.211  20.803  24.949  1.00  0.00     0.053 A 
ATOM     86  C   UNL A   1      32.387  20.161  23.519  1.00  0.00     0.027 A 
ATOM     87  C   UNL A   1      33.399  19.793  24.411  1.00  0.00     0.039 A 
BRANCH  80  88
ATOM     88  C   UNL A   1      36.236  22.867  25.693  1.00  0.00     0.087 C 
ATOM     89  C   UNL A   1      37.472  22.502  24.905  1.00  0.00     0.027 C 
ATOM     90  C   UNL A   1      37.389  23.831  25.600  1.00  0.00     0.027 C 
ENDBRANCH  80  88
BRANCH  87  91
ATOM     91  N   UNL A   1      33.561  18.476  24.777  1.00  0.00    -0.360 N 
ATOM     92  C   UNL A   1      32.759  17.882  25.845  1.00  0.00     0.178 C 
ATOM     93  C   UNL A   1      34.659  17.666  24.241  1.00  0.00     0.178 C 
ATOM     94  C   UNL A   1      32.298  16.471  25.411  1.00  0.00     0.282 C 
ATOM     95  C   UNL A   1      34.153  16.247  23.896  1.00  0.00     0.282 C 
ATOM     96  N   UNL A   1      33.411  15.587  24.997  1.00  0.00    -0.343 N 
ATOM     97  H   UNL A   1      33.037  14.694  24.674  1.00  0.00     0.346 HD
ATOM     98  H   UNL A   1      34.034  15.418  25.786  1.00  0.00     0.346 HD
ENDBRANCH  87  91
ENDBRANCH  74  77
ENDBRANCH  72  73
ENDBRANCH  71  72
ENDBRANCH   1  71
TORSDOF 15
ENDMDL
MODEL 3
REMARK VINA RESULT:     -12.1      2.117      7.858
REMARK SMILES O=C(NCCCNC(=O)c1cn(C2CC2)c2cc(N3CC[NH2+]CC3)ccc2c1=O)c1ccc(-c2c3nc(c(-c4cccc(S(=O)(=O)[O-])c4F)c4ccc([nH]4)c(-c4cccc(S(=O)(=O)[O-])c4F)c4nc(c(-c5cccc(S(=O)(=O)[O-])c5F)c5ccc2[nH]5)C=C4)C=C3)cc1
REMARK SMILES IDX 4 1 3 2 1 3 2 4 30 6 31 7 92 8 32 9 91 10 33 11 34 12 35 13
REMARK SMILES IDX 85 14 36 15 90 16 84 17 86 18 37 19 89 20 83 21 82 22 38 24
REMARK SMILES IDX 70 25 50 26 69 27 51 28 54 29 68 30 87 31 52 32 53 33 67 35
REMARK SMILES IDX 88 36 55 37 39 38 40 39 48 40 41 41 43 42 49 43 42 44 44 45
REMARK SMILES IDX 45 46 46 47 47 48 71 49 72 50 80 51 73 52 75 53 81 54 74 55
REMARK SMILES IDX 76 56 77 57 78 58 79 59 56 60 57 61 65 62 58 63 60 64 66 65
REMARK SMILES IDX 59 66 61 67 62 68 63 69 64 70 5 71 6 72 7 73 8 74 9 76 10 77
REMARK SMILES IDX 11 78 28 79 12 80 27 81 29 82 16 83 26 84 17 85 25 86 18 87
REMARK SMILES IDX 13 88 14 89 15 90 19 91 20 92 24 93 21 94 23 95 22 96
REMARK H PARENT 3 5 86 23 54 34 7 75 22 97 22 98
REMARK Flexibility Score: inf
ROOT
ATOM      1  C   UNL A   1      32.887  29.103  25.494  1.00  0.00     0.118 C 
ENDROOT
BRANCH   1   2
ATOM      2  N   UNL A   1      32.426  30.423  25.907  1.00  0.00    -0.352 N 
ATOM      3  O   UNL A   1      32.219  32.245  27.198  1.00  0.00    -0.269 OA
ATOM      4  C   UNL A   1      32.889  31.260  26.889  1.00  0.00     0.251 C 
ATOM      5  H   UNL A   1      31.658  30.768  25.398  1.00  0.00     0.163 HD
BRANCH   4   6
ATOM      6  C   UNL A   1      34.172  30.993  27.578  1.00  0.00     0.039 A 
ATOM      7  C   UNL A   1      34.471  29.682  27.966  1.00  0.00     0.014 A 
ATOM      8  C   UNL A   1      35.053  32.029  27.896  1.00  0.00     0.014 A 
ATOM      9  C   UNL A   1      35.664  29.410  28.639  1.00  0.00     0.010 A 
ATOM     10  C   UNL A   1      36.282  31.744  28.481  1.00  0.00     0.010 A 
ATOM     11  C   UNL A   1      36.587  30.438  28.888  1.00  0.00    -0.014 A 
BRANCH  11  12
ATOM     12  C   UNL A   1      37.848  30.195  29.634  1.00  0.00     0.031 A 
ATOM     13  C   UNL A   1      38.904  29.304  29.033  1.00  0.00     0.074 A 
ATOM     14  C   UNL A   1      38.019  30.709  30.867  1.00  0.00     0.049 A 
ATOM     15  N   UNL A   1      40.014  28.867  29.566  1.00  0.00    -0.248 NA
ATOM     16  C   UNL A   1      38.670  28.820  27.659  1.00  0.00     0.031 C 
ATOM     17  C   UNL A   1      37.055  31.552  31.575  1.00  0.00     0.029 A 
ATOM     18  N   UNL A   1      39.061  30.580  31.750  1.00  0.00    -0.354 N 
ATOM     19  C   UNL A   1      40.582  28.023  28.620  1.00  0.00     0.074 A 
ATOM     20  C   UNL A   1      39.688  27.988  27.486  1.00  0.00     0.031 C 
ATOM     21  C   UNL A   1      37.557  31.876  32.778  1.00  0.00     0.029 A 
ATOM     22  C   UNL A   1      38.860  31.237  32.940  1.00  0.00     0.049 A 
ATOM     23  H   UNL A   1      39.876  30.065  31.549  1.00  0.00     0.167 HD
ATOM     24  C   UNL A   1      41.760  27.362  28.674  1.00  0.00     0.034 A 
ATOM     25  C   UNL A   1      39.635  31.313  34.040  1.00  0.00     0.034 A 
ATOM     26  C   UNL A   1      42.687  27.457  29.767  1.00  0.00     0.049 A 
ATOM     27  C   UNL A   1      40.959  30.602  34.060  1.00  0.00     0.074 A 
ATOM     28  C   UNL A   1      43.939  26.878  29.879  1.00  0.00     0.029 A 
ATOM     29  N   UNL A   1      42.473  28.187  30.924  1.00  0.00    -0.354 N 
ATOM     30  N   UNL A   1      41.515  29.874  33.122  1.00  0.00    -0.248 NA
ATOM     31  C   UNL A   1      41.774  30.739  35.276  1.00  0.00     0.031 C 
ATOM     32  C   UNL A   1      44.484  27.260  31.109  1.00  0.00     0.029 A 
ATOM     33  C   UNL A   1      43.573  28.082  31.754  1.00  0.00     0.049 A 
ATOM     34  H   UNL A   1      41.659  28.702  31.124  1.00  0.00     0.167 HD
ATOM     35  C   UNL A   1      42.753  29.490  33.621  1.00  0.00     0.074 A 
ATOM     36  C   UNL A   1      42.872  30.072  34.942  1.00  0.00     0.031 C 
ATOM     37  C   UNL A   1      43.698  28.712  33.042  1.00  0.00     0.034 A 
BRANCH  24  38
ATOM     38  C   UNL A   1      42.159  26.531  27.487  1.00  0.00     0.023 A 
ATOM     39  C   UNL A   1      42.923  27.122  26.462  1.00  0.00     0.012 A 
ATOM     40  C   UNL A   1      41.864  25.156  27.432  1.00  0.00     0.148 A 
ATOM     41  C   UNL A   1      43.381  26.358  25.391  1.00  0.00     0.002 A 
ATOM     42  C   UNL A   1      42.351  24.394  26.376  1.00  0.00     0.091 A 
ATOM     43  F   UNL A   1      41.123  24.622  28.413  1.00  0.00    -0.205 F 
ATOM     44  C   UNL A   1      43.105  24.995  25.354  1.00  0.00     0.022 A 
BRANCH  42  45
ATOM     45  S   UNL A   1      42.103  22.618  26.260  1.00  0.00     0.127 S 
ATOM     46  O   UNL A   1      40.644  22.525  26.245  1.00  0.00    -0.237 OA
ATOM     47  O   UNL A   1      42.748  22.304  24.985  1.00  0.00    -0.237 OA
ATOM     48  O   UNL A   1      42.747  22.042  27.432  1.00  0.00    -0.744 OA
ENDBRANCH  42  45
ENDBRANCH  24  38
BRANCH  25  49
ATOM     49  C   UNL A   1      39.201  32.163  35.182  1.00  0.00     0.023 A 
ATOM     50  C   UNL A   1      38.314  31.624  36.133  1.00  0.00     0.012 A 
ATOM     51  C   UNL A   1      39.711  33.462  35.368  1.00  0.00     0.148 A 
ATOM     52  C   UNL A   1      37.932  32.368  37.249  1.00  0.00     0.002 A 
ATOM     53  C   UNL A   1      39.358  34.183  36.503  1.00  0.00     0.091 A 
ATOM     54  F   UNL A   1      40.553  33.949  34.447  1.00  0.00    -0.205 F 
ATOM     55  C   UNL A   1      38.461  33.643  37.439  1.00  0.00     0.022 A 
BRANCH  53  56
ATOM     56  S   UNL A   1      40.061  35.790  36.891  1.00  0.00     0.127 S 
ATOM     57  O   UNL A   1      39.669  36.579  35.725  1.00  0.00    -0.237 OA
ATOM     58  O   UNL A   1      39.358  36.130  38.129  1.00  0.00    -0.237 OA
ATOM     59  O   UNL A   1      41.492  35.571  37.046  1.00  0.00    -0.744 OA
ENDBRANCH  53  56
ENDBRANCH  25  49
BRANCH  37  60
ATOM     60  C   UNL A   1      44.967  28.453  33.803  1.00  0.00     0.023 A 
ATOM     61  C   UNL A   1      46.040  29.356  33.688  1.00  0.00     0.012 A 
ATOM     62  C   UNL A   1      45.043  27.394  34.729  1.00  0.00     0.148 A 
ATOM     63  C   UNL A   1      47.178  29.205  34.479  1.00  0.00     0.002 A 
ATOM     64  C   UNL A   1      46.165  27.268  35.538  1.00  0.00     0.091 A 
ATOM     65  F   UNL A   1      44.009  26.544  34.812  1.00  0.00    -0.205 F 
ATOM     66  C   UNL A   1      47.235  28.170  35.411  1.00  0.00     0.022 A 
BRANCH  64  67
ATOM     67  S   UNL A   1      46.299  26.018  36.821  1.00  0.00     0.127 S 
ATOM     68  O   UNL A   1      45.158  26.346  37.675  1.00  0.00    -0.237 OA
ATOM     69  O   UNL A   1      46.154  24.778  36.059  1.00  0.00    -0.237 OA
ATOM     70  O   UNL A   1      47.606  26.206  37.434  1.00  0.00    -0.744 OA
ENDBRANCH  64  67
ENDBRANCH  37  60
ENDBRANCH  11  12
ENDBRANCH   4   6
ENDBRANCH   1   2
BRANCH   1  71
ATOM     71  C   UNL A   1      31.870  28.011  25.780  1.00  0.00     0.042 C 
BRANCH  71  72
ATOM     72  C   UNL A   1      32.002  26.785  24.895  1.00  0.00     0.118 C 
BRANCH  72  73
ATOM     73  N   UNL A   1      32.739  27.038  23.662  1.00  0.00    -0.352 N 
ATOM     74  C   UNL A   1      33.502  26.181  22.913  1.00  0.00     0.256 C 
ATOM     75  H   UNL A   1      32.682  27.959  23.320  1.00  0.00     0.163 HD
ATOM     76  O   UNL A   1      34.039  26.576  21.881  1.00  0.00    -0.269 OA
BRANCH  74  77
ATOM     77  C   UNL A   1      33.604  24.781  23.352  1.00  0.00     0.104 A 
ATOM     78  C   UNL A   1      34.530  24.465  24.269  1.00  0.00     0.104 A 
ATOM     79  C   UNL A   1      32.761  23.700  22.807  1.00  0.00     0.202 A 
ATOM     80  N   UNL A   1      34.860  23.192  24.688  1.00  0.00    -0.343 N 
ATOM     81  C   UNL A   1      33.004  22.332  23.328  1.00  0.00     0.047 A 
ATOM     82  O   UNL A   1      31.905  23.902  21.951  1.00  0.00    -0.288 OA
ATOM     83  C   UNL A   1      34.028  22.108  24.270  1.00  0.00     0.054 A 
ATOM     84  C   UNL A   1      32.213  21.280  22.858  1.00  0.00     0.016 A 
ATOM     85  C   UNL A   1      34.180  20.803  24.766  1.00  0.00     0.053 A 
ATOM     86  C   UNL A   1      32.427  19.989  23.334  1.00  0.00     0.027 A 
ATOM     87  C   UNL A   1      33.397  19.732  24.308  1.00  0.00     0.039 A 
BRANCH  80  88
ATOM     88  C   UNL A   1      36.160  22.954  25.367  1.00  0.00     0.087 C 
ATOM     89  C   UNL A   1      37.352  22.261  24.750  1.00  0.00     0.027 C 
ATOM     90  C   UNL A   1      37.392  23.740  25.006  1.00  0.00     0.027 C 
ENDBRANCH  80  88
BRANCH  87  91
ATOM     91  N   UNL A   1      33.546  18.465  24.826  1.00  0.00    -0.360 N 
ATOM     92  C   UNL A   1      32.628  17.948  25.839  1.00  0.00     0.178 C 
ATOM     93  C   UNL A   1      34.727  17.652  24.522  1.00  0.00     0.178 C 
ATOM     94  C   UNL A   1      32.267  16.483  25.499  1.00  0.00     0.282 C 
ATOM     95  C   UNL A   1      34.310  16.186  24.265  1.00  0.00     0.282 C 
ATOM     96  N   UNL A   1      33.448  15.609  25.324  1.00  0.00    -0.343 N 
ATOM     97  H   UNL A   1      33.146  14.674  25.051  1.00  0.00     0.346 HD
ATOM     98  H   UNL A   1      33.967  15.545  26.199  1.00  0.00     0.346 HD
ENDBRANCH  87  91
ENDBRANCH  74  77
ENDBRANCH  72  73
ENDBRANCH  71  72
ENDBRANCH   1  71
TORSDOF 15
ENDMDL
