MODEL 1
REMARK VINA RESULT:     -12.5      0.000      0.000
REMARK SMILES C[C@@]1(CN2C(=O)c3ccc(C(=O)NCCCNC(=O)c4ccc(-c5c6nc(c(-c7cccc(S(=O)(=O)[O-])c7F)c7ccc([nH]7)c(-c7cccc(S(=O)(=O)[O-])c7F)c7nc(c(-c8cccc(S(=O)(=O)[O-])c8F)c8ccc5[nH]8)C=C7)C=C6)cc4)cc3C2=O)CCCO1
REMARK SMILES IDX 15 1 14 2 13 3 11 4 12 5 10 7 4 8 5 9 85 10 6 11 7 12 84 13
REMARK SMILES IDX 86 14 8 15 83 16 9 17 3 18 2 19 1 20 87 21 90 22 88 23 89 24
REMARK SMILES IDX 16 25 17 26 18 27 19 29 20 30 21 31 82 32 22 33 81 34 23 35
REMARK SMILES IDX 24 36 25 37 75 38 26 39 80 40 74 41 76 42 27 43 79 44 73 45
REMARK SMILES IDX 72 46 28 48 60 49 40 50 59 51 41 52 44 53 58 54 77 55 42 56
REMARK SMILES IDX 43 57 57 59 78 60 45 61 29 62 30 63 38 64 31 65 33 66 39 67
REMARK SMILES IDX 32 68 34 69 35 70 36 71 37 72 61 73 62 74 70 75 63 76 65 77
REMARK SMILES IDX 71 78 64 79 66 80 67 81 68 82 69 83 46 84 47 85 55 86 48 87
REMARK SMILES IDX 50 88 56 89 49 90 51 91 52 92 53 93 54 94
REMARK H PARENT 13 6 17 28 76 47 44 58
REMARK Flexibility Score: inf
ROOT
ATOM      1  C   UNL A   1      31.577  32.098  26.889  1.00  0.00     0.042 C 
ENDROOT
BRANCH   1   2
ATOM      2  C   UNL A   1      31.777  30.583  26.843  1.00  0.00     0.118 C 
BRANCH   2   3
ATOM      3  N   UNL A   1      32.996  30.180  27.519  1.00  0.00    -0.352 N 
ATOM      4  C   UNL A   1      33.988  29.295  27.188  1.00  0.00     0.251 C 
ATOM      5  O   UNL A   1      34.979  29.253  27.918  1.00  0.00    -0.269 OA
ATOM      6  H   UNL A   1      33.138  30.631  28.383  1.00  0.00     0.163 HD
BRANCH   4   7
ATOM      7  C   UNL A   1      33.948  28.409  25.987  1.00  0.00     0.040 A 
ATOM      8  N   UNL A   1      33.800  24.399  23.718  1.00  0.00    -0.271 N 
ATOM      9  C   UNL A   1      33.642  25.518  22.953  1.00  0.00     0.261 C 
ATOM     10  C   UNL A   1      33.955  24.709  25.046  1.00  0.00     0.261 C 
ATOM     11  O   UNL A   1      33.408  25.614  21.762  1.00  0.00    -0.269 OA
ATOM     12  C   UNL A   1      33.769  26.657  23.850  1.00  0.00     0.053 A 
ATOM     13  C   UNL A   1      33.950  26.173  25.130  1.00  0.00     0.054 A 
ATOM     14  O   UNL A   1      34.028  23.972  26.006  1.00  0.00    -0.269 OA
ATOM     15  C   UNL A   1      33.668  28.003  23.581  1.00  0.00     0.015 A 
ATOM     16  C   UNL A   1      34.041  27.021  26.219  1.00  0.00     0.028 A 
ATOM     17  C   UNL A   1      33.739  28.877  24.669  1.00  0.00     0.015 A 
BRANCH   8  18
ATOM     18  C   UNL A   1      33.688  23.048  23.195  1.00  0.00     0.164 C 
BRANCH  18  19
ATOM     19  C   UNL A   1      32.290  22.396  23.371  1.00  0.00     0.084 C 
ATOM     20  C   UNL A   1      31.147  23.411  23.407  1.00  0.00     0.044 C 
ATOM     21  C   UNL A   1      32.268  21.525  24.633  1.00  0.00     0.039 C 
ATOM     22  O   UNL A   1      32.047  21.488  22.274  1.00  0.00    -0.373 OA
ATOM     23  C   UNL A   1      32.764  20.193  24.131  1.00  0.00     0.031 C 
ATOM     24  C   UNL A   1      32.180  20.138  22.737  1.00  0.00     0.161 C 
ENDBRANCH  18  19
ENDBRANCH   8  18
ENDBRANCH   4   7
ENDBRANCH   2   3
ENDBRANCH   1   2
BRANCH   1  25
ATOM     25  C   UNL A   1      32.869  32.881  27.097  1.00  0.00     0.118 C 
BRANCH  25  26
ATOM     26  N   UNL A   1      32.619  34.208  27.639  1.00  0.00    -0.352 N 
ATOM     27  C   UNL A   1      33.133  34.815  28.757  1.00  0.00     0.251 C 
ATOM     28  H   UNL A   1      31.982  34.755  27.123  1.00  0.00     0.163 HD
ATOM     29  O   UNL A   1      32.613  35.848  29.170  1.00  0.00    -0.269 OA
BRANCH  27  30
ATOM     30  C   UNL A   1      34.297  34.237  29.465  1.00  0.00     0.039 A 
ATOM     31  C   UNL A   1      34.072  33.395  30.559  1.00  0.00     0.014 A 
ATOM     32  C   UNL A   1      35.603  34.562  29.092  1.00  0.00     0.014 A 
ATOM     33  C   UNL A   1      35.156  32.847  31.250  1.00  0.00     0.010 A 
ATOM     34  C   UNL A   1      36.681  33.957  29.734  1.00  0.00     0.010 A 
ATOM     35  C   UNL A   1      36.470  33.106  30.829  1.00  0.00    -0.014 A 
BRANCH  35  36
ATOM     36  C   UNL A   1      37.640  32.508  31.522  1.00  0.00     0.031 A 
ATOM     37  C   UNL A   1      38.392  31.369  30.885  1.00  0.00     0.074 A 
ATOM     38  C   UNL A   1      37.964  32.924  32.761  1.00  0.00     0.049 A 
ATOM     39  N   UNL A   1      39.379  30.660  31.368  1.00  0.00    -0.248 NA
ATOM     40  C   UNL A   1      37.960  30.955  29.540  1.00  0.00     0.031 C 
ATOM     41  C   UNL A   1      37.265  33.969  33.513  1.00  0.00     0.029 A 
ATOM     42  N   UNL A   1      38.945  32.498  33.621  1.00  0.00    -0.354 N 
ATOM     43  C   UNL A   1      39.656  29.692  30.409  1.00  0.00     0.074 A 
ATOM     44  C   UNL A   1      38.714  29.886  29.329  1.00  0.00     0.031 C 
ATOM     45  C   UNL A   1      37.836  34.100  34.720  1.00  0.00     0.029 A 
ATOM     46  C   UNL A   1      38.921  33.131  34.843  1.00  0.00     0.049 A 
ATOM     47  H   UNL A   1      39.603  31.805  33.387  1.00  0.00     0.167 HD
ATOM     48  C   UNL A   1      40.625  28.746  30.414  1.00  0.00     0.034 A 
ATOM     49  C   UNL A   1      39.679  32.945  35.940  1.00  0.00     0.034 A 
ATOM     50  C   UNL A   1      41.590  28.590  31.468  1.00  0.00     0.049 A 
ATOM     51  C   UNL A   1      40.780  31.919  35.901  1.00  0.00     0.074 A 
ATOM     52  C   UNL A   1      42.666  27.723  31.529  1.00  0.00     0.029 A 
ATOM     53  N   UNL A   1      41.595  29.318  32.648  1.00  0.00    -0.354 N 
ATOM     54  N   UNL A   1      41.123  31.115  34.923  1.00  0.00    -0.248 NA
ATOM     55  C   UNL A   1      41.621  31.798  37.100  1.00  0.00     0.031 C 
ATOM     56  C   UNL A   1      43.310  27.913  32.757  1.00  0.00     0.029 A 
ATOM     57  C   UNL A   1      42.652  28.917  33.447  1.00  0.00     0.049 A 
ATOM     58  H   UNL A   1      40.943  30.017  32.884  1.00  0.00     0.167 HD
ATOM     59  C   UNL A   1      42.242  30.424  35.373  1.00  0.00     0.074 A 
ATOM     60  C   UNL A   1      42.529  30.916  36.705  1.00  0.00     0.031 C 
ATOM     61  C   UNL A   1      42.959  29.459  34.747  1.00  0.00     0.034 A 
BRANCH  48  62
ATOM     62  C   UNL A   1      40.724  27.837  29.215  1.00  0.00     0.023 A 
ATOM     63  C   UNL A   1      39.906  26.691  29.143  1.00  0.00     0.012 A 
ATOM     64  C   UNL A   1      41.579  28.142  28.139  1.00  0.00     0.148 A 
ATOM     65  C   UNL A   1      39.964  25.843  28.037  1.00  0.00     0.002 A 
ATOM     66  C   UNL A   1      41.598  27.317  27.020  1.00  0.00     0.091 A 
ATOM     67  F   UNL A   1      42.365  29.225  28.233  1.00  0.00    -0.205 F 
ATOM     68  C   UNL A   1      40.802  26.162  26.973  1.00  0.00     0.022 A 
BRANCH  66  69
ATOM     69  S   UNL A   1      42.583  27.683  25.562  1.00  0.00     0.127 S 
ATOM     70  O   UNL A   1      42.322  26.510  24.728  1.00  0.00    -0.237 OA
ATOM     71  O   UNL A   1      41.970  28.922  25.080  1.00  0.00    -0.237 OA
ATOM     72  O   UNL A   1      43.954  27.827  26.029  1.00  0.00    -0.744 OA
ENDBRANCH  66  69
ENDBRANCH  48  62
BRANCH  49  73
ATOM     73  C   UNL A   1      39.469  33.798  37.144  1.00  0.00     0.023 A 
ATOM     74  C   UNL A   1      39.922  35.132  37.132  1.00  0.00     0.012 A 
ATOM     75  C   UNL A   1      38.798  33.312  38.282  1.00  0.00     0.148 A 
ATOM     76  C   UNL A   1      39.741  35.955  38.243  1.00  0.00     0.002 A 
ATOM     77  C   UNL A   1      38.571  34.154  39.365  1.00  0.00     0.091 A 
ATOM     78  F   UNL A   1      38.383  32.037  38.278  1.00  0.00    -0.205 F 
ATOM     79  C   UNL A   1      39.058  35.470  39.355  1.00  0.00     0.022 A 
BRANCH  77  80
ATOM     80  S   UNL A   1      37.584  33.657  40.780  1.00  0.00     0.127 S 
ATOM     81  O   UNL A   1      37.387  34.929  41.471  1.00  0.00    -0.237 OA
ATOM     82  O   UNL A   1      36.387  33.112  40.138  1.00  0.00    -0.237 OA
ATOM     83  O   UNL A   1      38.385  32.668  41.489  1.00  0.00    -0.744 OA
ENDBRANCH  77  80
ENDBRANCH  49  73
BRANCH  61  84
ATOM     84  C   UNL A   1      44.156  28.896  35.467  1.00  0.00     0.023 A 
ATOM     85  C   UNL A   1      45.430  29.458  35.258  1.00  0.00     0.012 A 
ATOM     86  C   UNL A   1      44.000  27.863  36.412  1.00  0.00     0.148 A 
ATOM     87  C   UNL A   1      46.538  28.981  35.957  1.00  0.00     0.002 A 
ATOM     88  C   UNL A   1      45.100  27.426  37.141  1.00  0.00     0.091 A 
ATOM     89  F   UNL A   1      42.782  27.329  36.582  1.00  0.00    -0.205 F 
ATOM     90  C   UNL A   1      46.371  27.974  36.906  1.00  0.00     0.022 A 
BRANCH  88  91
ATOM     91  S   UNL A   1      44.961  26.206  38.453  1.00  0.00     0.127 S 
ATOM     92  O   UNL A   1      44.493  25.032  37.719  1.00  0.00    -0.237 OA
ATOM     93  O   UNL A   1      46.338  26.114  38.938  1.00  0.00    -0.237 OA
ATOM     94  O   UNL A   1      44.018  26.759  39.415  1.00  0.00    -0.744 OA
ENDBRANCH  88  91
ENDBRANCH  61  84
ENDBRANCH  35  36
ENDBRANCH  27  30
ENDBRANCH  25  26
ENDBRANCH   1  25
TORSDOF 15
ENDMDL
MODEL 2
REMARK VINA RESULT:     -12.5      6.382     11.578
REMARK SMILES C[C@@]1(CN2C(=O)c3ccc(C(=O)NCCCNC(=O)c4ccc(-c5c6nc(c(-c7cccc(S(=O)(=O)[O-])c7F)c7ccc([nH]7)c(-c7cccc(S(=O)(=O)[O-])c7F)c7nc(c(-c8cccc(S(=O)(=O)[O-])c8F)c8ccc5[nH]8)C=C7)C=C6)cc4)cc3C2=O)CCCO1
REMARK SMILES IDX 15 1 14 2 13 3 11 4 12 5 10 7 4 8 5 9 85 10 6 11 7 12 84 13
REMARK SMILES IDX 86 14 8 15 83 16 9 17 3 18 2 19 1 20 87 21 90 22 88 23 89 24
REMARK SMILES IDX 16 25 17 26 18 27 19 29 20 30 21 31 82 32 22 33 81 34 23 35
REMARK SMILES IDX 24 36 25 37 75 38 26 39 80 40 74 41 76 42 27 43 79 44 73 45
REMARK SMILES IDX 72 46 28 48 60 49 40 50 59 51 41 52 44 53 58 54 77 55 42 56
REMARK SMILES IDX 43 57 57 59 78 60 45 61 29 62 30 63 38 64 31 65 33 66 39 67
REMARK SMILES IDX 32 68 34 69 35 70 36 71 37 72 61 73 62 74 70 75 63 76 65 77
REMARK SMILES IDX 71 78 64 79 66 80 67 81 68 82 69 83 46 84 47 85 55 86 48 87
REMARK SMILES IDX 50 88 56 89 49 90 51 91 52 92 53 93 54 94
REMARK H PARENT 13 6 17 28 76 47 44 58
REMARK Flexibility Score: inf
ROOT
ATOM      1  C   UNL A   1      37.210  19.645  24.878  1.00  0.00     0.042 C 
ENDROOT
BRANCH   1   2
ATOM      2  C   UNL A   1      35.927  20.466  25.001  1.00  0.00     0.118 C 
BRANCH   2   3
ATOM      3  N   UNL A   1      34.786  19.633  25.334  1.00  0.00    -0.352 N 
ATOM      4  C   UNL A   1      33.434  19.816  25.193  1.00  0.00     0.251 C 
ATOM      5  O   UNL A   1      32.702  18.862  25.460  1.00  0.00    -0.269 OA
ATOM      6  H   UNL A   1      35.029  18.769  25.738  1.00  0.00     0.163 HD
BRANCH   4   7
ATOM      7  C   UNL A   1      32.811  21.083  24.711  1.00  0.00     0.040 A 
ATOM      8  N   UNL A   1      30.993  25.300  25.120  1.00  0.00    -0.271 N 
ATOM      9  C   UNL A   1      31.221  24.875  23.844  1.00  0.00     0.261 C 
ATOM     10  C   UNL A   1      31.382  24.363  26.044  1.00  0.00     0.261 C 
ATOM     11  O   UNL A   1      31.071  25.470  22.792  1.00  0.00    -0.269 OA
ATOM     12  C   UNL A   1      31.745  23.521  23.943  1.00  0.00     0.053 A 
ATOM     13  C   UNL A   1      31.855  23.204  25.282  1.00  0.00     0.054 A 
ATOM     14  O   UNL A   1      31.408  24.439  27.255  1.00  0.00    -0.269 OA
ATOM     15  C   UNL A   1      32.153  22.661  22.948  1.00  0.00     0.015 A 
ATOM     16  C   UNL A   1      32.385  21.996  25.699  1.00  0.00     0.028 A 
ATOM     17  C   UNL A   1      32.708  21.443  23.348  1.00  0.00     0.015 A 
BRANCH   8  18
ATOM     18  C   UNL A   1      30.515  26.632  25.448  1.00  0.00     0.164 C 
BRANCH  18  19
ATOM     19  C   UNL A   1      31.628  27.650  25.820  1.00  0.00     0.084 C 
ATOM     20  C   UNL A   1      31.711  27.937  27.319  1.00  0.00     0.044 C 
ATOM     21  C   UNL A   1      31.432  28.955  25.039  1.00  0.00     0.039 C 
ATOM     22  O   UNL A   1      32.907  27.134  25.391  1.00  0.00    -0.373 OA
ATOM     23  C   UNL A   1      32.178  28.694  23.755  1.00  0.00     0.031 C 
ATOM     24  C   UNL A   1      33.340  27.847  24.226  1.00  0.00     0.161 C 
ENDBRANCH  18  19
ENDBRANCH   8  18
ENDBRANCH   4   7
ENDBRANCH   2   3
ENDBRANCH   1   2
BRANCH   1  25
ATOM     25  C   UNL A   1      38.431  20.320  25.493  1.00  0.00     0.118 C 
BRANCH  25  26
ATOM     26  N   UNL A   1      39.474  19.359  25.824  1.00  0.00    -0.352 N 
ATOM     27  C   UNL A   1      40.793  19.564  26.143  1.00  0.00     0.251 C 
ATOM     28  H   UNL A   1      39.188  18.416  25.819  1.00  0.00     0.163 HD
ATOM     29  O   UNL A   1      41.561  18.607  26.156  1.00  0.00    -0.269 OA
BRANCH  27  30
ATOM     30  C   UNL A   1      41.291  20.920  26.466  1.00  0.00     0.039 A 
ATOM     31  C   UNL A   1      41.859  21.691  25.446  1.00  0.00     0.014 A 
ATOM     32  C   UNL A   1      41.253  21.411  27.772  1.00  0.00     0.014 A 
ATOM     33  C   UNL A   1      42.348  22.969  25.729  1.00  0.00     0.010 A 
ATOM     34  C   UNL A   1      41.673  22.712  28.039  1.00  0.00     0.010 A 
ATOM     35  C   UNL A   1      42.238  23.499  27.024  1.00  0.00    -0.014 A 
BRANCH  35  36
ATOM     36  C   UNL A   1      42.716  24.869  27.346  1.00  0.00     0.031 A 
ATOM     37  C   UNL A   1      41.779  25.864  27.979  1.00  0.00     0.074 A 
ATOM     38  C   UNL A   1      43.957  25.243  26.983  1.00  0.00     0.049 A 
ATOM     39  N   UNL A   1      41.980  27.127  28.253  1.00  0.00    -0.248 NA
ATOM     40  C   UNL A   1      40.430  25.385  28.322  1.00  0.00     0.031 C 
ATOM     41  C   UNL A   1      44.932  24.390  26.297  1.00  0.00     0.029 A 
ATOM     42  N   UNL A   1      44.602  26.448  27.110  1.00  0.00    -0.354 N 
ATOM     43  C   UNL A   1      40.776  27.602  28.758  1.00  0.00     0.074 A 
ATOM     44  C   UNL A   1      39.840  26.501  28.725  1.00  0.00     0.031 C 
ATOM     45  C   UNL A   1      46.047  25.098  26.063  1.00  0.00     0.029 A 
ATOM     46  C   UNL A   1      45.860  26.461  26.551  1.00  0.00     0.049 A 
ATOM     47  H   UNL A   1      44.204  27.228  27.558  1.00  0.00     0.167 HD
ATOM     48  C   UNL A   1      40.483  28.837  29.234  1.00  0.00     0.034 A 
ATOM     49  C   UNL A   1      46.756  27.460  26.436  1.00  0.00     0.034 A 
ATOM     50  C   UNL A   1      41.432  29.914  29.309  1.00  0.00     0.049 A 
ATOM     51  C   UNL A   1      46.422  28.810  27.015  1.00  0.00     0.074 A 
ATOM     52  C   UNL A   1      41.263  31.174  29.855  1.00  0.00     0.029 A 
ATOM     53  N   UNL A   1      42.730  29.859  28.823  1.00  0.00    -0.354 N 
ATOM     54  N   UNL A   1      45.329  29.196  27.627  1.00  0.00    -0.248 NA
ATOM     55  C   UNL A   1      47.458  29.848  26.921  1.00  0.00     0.031 C 
ATOM     56  C   UNL A   1      42.453  31.888  29.680  1.00  0.00     0.029 A 
ATOM     57  C   UNL A   1      43.371  31.064  29.051  1.00  0.00     0.049 A 
ATOM     58  H   UNL A   1      43.135  29.079  28.381  1.00  0.00     0.167 HD
ATOM     59  C   UNL A   1      45.560  30.508  28.027  1.00  0.00     0.074 A 
ATOM     60  C   UNL A   1      46.904  30.843  27.601  1.00  0.00     0.031 C 
ATOM     61  C   UNL A   1      44.730  31.362  28.674  1.00  0.00     0.034 A 
BRANCH  48  62
ATOM     62  C   UNL A   1      39.090  29.074  29.760  1.00  0.00     0.023 A 
ATOM     63  C   UNL A   1      38.776  28.705  31.084  1.00  0.00     0.012 A 
ATOM     64  C   UNL A   1      38.112  29.710  28.972  1.00  0.00     0.148 A 
ATOM     65  C   UNL A   1      37.501  28.930  31.603  1.00  0.00     0.002 A 
ATOM     66  C   UNL A   1      36.858  29.973  29.511  1.00  0.00     0.091 A 
ATOM     67  F   UNL A   1      38.422  30.037  27.708  1.00  0.00    -0.205 F 
ATOM     68  C   UNL A   1      36.548  29.573  30.820  1.00  0.00     0.022 A 
BRANCH  66  69
ATOM     69  S   UNL A   1      35.585  30.867  28.612  1.00  0.00     0.127 S 
ATOM     70  O   UNL A   1      34.813  31.457  29.705  1.00  0.00    -0.237 OA
ATOM     71  O   UNL A   1      36.372  31.826  27.835  1.00  0.00    -0.237 OA
ATOM     72  O   UNL A   1      34.881  29.873  27.815  1.00  0.00    -0.744 OA
ENDBRANCH  66  69
ENDBRANCH  48  62
BRANCH  49  73
ATOM     73  C   UNL A   1      48.082  27.203  25.806  1.00  0.00     0.023 A 
ATOM     74  C   UNL A   1      49.137  26.708  26.598  1.00  0.00     0.012 A 
ATOM     75  C   UNL A   1      48.296  27.411  24.430  1.00  0.00     0.148 A 
ATOM     76  C   UNL A   1      50.389  26.458  26.038  1.00  0.00     0.002 A 
ATOM     77  C   UNL A   1      49.530  27.107  23.867  1.00  0.00     0.091 A 
ATOM     78  F   UNL A   1      47.282  27.891  23.695  1.00  0.00    -0.205 F 
ATOM     79  C   UNL A   1      50.583  26.648  24.673  1.00  0.00     0.022 A 
BRANCH  77  80
ATOM     80  S   UNL A   1      49.828  27.192  22.099  1.00  0.00     0.127 S 
ATOM     81  O   UNL A   1      49.639  28.616  21.830  1.00  0.00    -0.237 OA
ATOM     82  O   UNL A   1      51.212  26.725  22.002  1.00  0.00    -0.237 OA
ATOM     83  O   UNL A   1      48.851  26.297  21.493  1.00  0.00    -0.744 OA
ENDBRANCH  77  80
ENDBRANCH  49  73
BRANCH  61  84
ATOM     84  C   UNL A   1      45.258  32.732  29.009  1.00  0.00     0.023 A 
ATOM     85  C   UNL A   1      45.893  32.956  30.246  1.00  0.00     0.012 A 
ATOM     86  C   UNL A   1      45.195  33.774  28.063  1.00  0.00     0.148 A 
ATOM     87  C   UNL A   1      46.432  34.206  30.549  1.00  0.00     0.002 A 
ATOM     88  C   UNL A   1      45.777  35.002  28.352  1.00  0.00     0.091 A 
ATOM     89  F   UNL A   1      44.568  33.545  26.900  1.00  0.00    -0.205 F 
ATOM     90  C   UNL A   1      46.385  35.224  29.598  1.00  0.00     0.022 A 
BRANCH  88  91
ATOM     91  S   UNL A   1      45.853  36.337  27.152  1.00  0.00     0.127 S 
ATOM     92  O   UNL A   1      44.435  36.598  26.908  1.00  0.00    -0.237 OA
ATOM     93  O   UNL A   1      46.547  37.387  27.898  1.00  0.00    -0.237 OA
ATOM     94  O   UNL A   1      46.596  35.812  26.015  1.00  0.00    -0.744 OA
ENDBRANCH  88  91
ENDBRANCH  61  84
ENDBRANCH  35  36
ENDBRANCH  27  30
ENDBRANCH  25  26
ENDBRANCH   1  25
TORSDOF 15
ENDMDL
MODEL 3
REMARK VINA RESULT:     -12.3      2.582      8.116
REMARK SMILES C[C@@]1(CN2C(=O)c3ccc(C(=O)NCCCNC(=O)c4ccc(-c5c6nc(c(-c7cccc(S(=O)(=O)[O-])c7F)c7ccc([nH]7)c(-c7cccc(S(=O)(=O)[O-])c7F)c7nc(c(-c8cccc(S(=O)(=O)[O-])c8F)c8ccc5[nH]8)C=C7)C=C6)cc4)cc3C2=O)CCCO1
REMARK SMILES IDX 15 1 14 2 13 3 11 4 12 5 10 7 4 8 5 9 85 10 6 11 7 12 84 13
REMARK SMILES IDX 86 14 8 15 83 16 9 17 3 18 2 19 1 20 87 21 90 22 88 23 89 24
REMARK SMILES IDX 16 25 17 26 18 27 19 29 20 30 21 31 82 32 22 33 81 34 23 35
REMARK SMILES IDX 24 36 25 37 75 38 26 39 80 40 74 41 76 42 27 43 79 44 73 45
REMARK SMILES IDX 72 46 28 48 60 49 40 50 59 51 41 52 44 53 58 54 77 55 42 56
REMARK SMILES IDX 43 57 57 59 78 60 45 61 29 62 30 63 38 64 31 65 33 66 39 67
REMARK SMILES IDX 32 68 34 69 35 70 36 71 37 72 61 73 62 74 70 75 63 76 65 77
REMARK SMILES IDX 71 78 64 79 66 80 67 81 68 82 69 83 46 84 47 85 55 86 48 87
REMARK SMILES IDX 50 88 56 89 49 90 51 91 52 92 53 93 54 94
REMARK H PARENT 13 6 17 28 76 47 44 58
REMARK Flexibility Score: inf
ROOT
ATOM      1  C   UNL A   1      31.912  29.615  24.837  1.00  0.00     0.042 C 
ENDROOT
BRANCH   1   2
ATOM      2  C   UNL A   1      30.618  30.406  24.647  1.00  0.00     0.118 C 
BRANCH   2   3
ATOM      3  N   UNL A   1      30.182  30.400  23.263  1.00  0.00    -0.352 N 
ATOM      4  C   UNL A   1      29.895  29.385  22.387  1.00  0.00     0.251 C 
ATOM      5  O   UNL A   1      29.423  29.696  21.293  1.00  0.00    -0.269 OA
ATOM      6  H   UNL A   1      30.069  31.300  22.879  1.00  0.00     0.163 HD
BRANCH   4   7
ATOM      7  C   UNL A   1      30.096  27.939  22.694  1.00  0.00     0.040 A 
ATOM      8  N   UNL A   1      32.386  23.940  22.813  1.00  0.00    -0.271 N 
ATOM      9  C   UNL A   1      31.210  23.969  23.505  1.00  0.00     0.261 C 
ATOM     10  C   UNL A   1      32.660  25.148  22.224  1.00  0.00     0.261 C 
ATOM     11  O   UNL A   1      30.702  23.110  24.202  1.00  0.00    -0.269 OA
ATOM     12  C   UNL A   1      30.638  25.291  23.297  1.00  0.00     0.053 A 
ATOM     13  C   UNL A   1      31.520  26.020  22.525  1.00  0.00     0.054 A 
ATOM     14  O   UNL A   1      33.648  25.505  21.617  1.00  0.00    -0.269 OA
ATOM     15  C   UNL A   1      29.475  25.833  23.795  1.00  0.00     0.015 A 
ATOM     16  C   UNL A   1      31.280  27.345  22.208  1.00  0.00     0.028 A 
ATOM     17  C   UNL A   1      29.222  27.176  23.502  1.00  0.00     0.015 A 
BRANCH   8  18
ATOM     18  C   UNL A   1      33.289  22.801  22.814  1.00  0.00     0.164 C 
BRANCH  18  19
ATOM     19  C   UNL A   1      34.432  22.877  23.863  1.00  0.00     0.084 C 
ATOM     20  C   UNL A   1      35.797  23.189  23.250  1.00  0.00     0.044 C 
ATOM     21  C   UNL A   1      34.496  21.573  24.669  1.00  0.00     0.039 C 
ATOM     22  O   UNL A   1      34.126  23.910  24.826  1.00  0.00    -0.373 OA
ATOM     23  C   UNL A   1      33.524  21.826  25.794  1.00  0.00     0.031 C 
ATOM     24  C   UNL A   1      33.715  23.303  26.057  1.00  0.00     0.161 C 
ENDBRANCH  18  19
ENDBRANCH   8  18
ENDBRANCH   4   7
ENDBRANCH   2   3
ENDBRANCH   1   2
BRANCH   1  25
ATOM     25  C   UNL A   1      32.691  30.006  26.088  1.00  0.00     0.118 C 
BRANCH  25  26
ATOM     26  N   UNL A   1      32.622  31.437  26.346  1.00  0.00    -0.352 N 
ATOM     27  C   UNL A   1      33.310  32.203  27.254  1.00  0.00     0.251 C 
ATOM     28  H   UNL A   1      31.983  31.931  25.783  1.00  0.00     0.163 HD
ATOM     29  O   UNL A   1      32.933  33.351  27.475  1.00  0.00    -0.269 OA
BRANCH  27  30
ATOM     30  C   UNL A   1      34.490  31.660  27.962  1.00  0.00     0.039 A 
ATOM     31  C   UNL A   1      35.611  32.478  28.132  1.00  0.00     0.014 A 
ATOM     32  C   UNL A   1      34.518  30.337  28.410  1.00  0.00     0.014 A 
ATOM     33  C   UNL A   1      36.742  31.983  28.787  1.00  0.00     0.010 A 
ATOM     34  C   UNL A   1      35.615  29.869  29.128  1.00  0.00     0.010 A 
ATOM     35  C   UNL A   1      36.745  30.681  29.310  1.00  0.00    -0.014 A 
BRANCH  35  36
ATOM     36  C   UNL A   1      37.919  30.140  30.043  1.00  0.00     0.031 A 
ATOM     37  C   UNL A   1      38.218  30.615  31.441  1.00  0.00     0.074 A 
ATOM     38  C   UNL A   1      38.765  29.300  29.418  1.00  0.00     0.049 A 
ATOM     39  N   UNL A   1      39.238  30.330  32.208  1.00  0.00    -0.248 NA
ATOM     40  C   UNL A   1      37.258  31.553  32.046  1.00  0.00     0.031 C 
ATOM     41  C   UNL A   1      38.622  28.826  28.039  1.00  0.00     0.029 A 
ATOM     42  N   UNL A   1      39.932  28.719  29.849  1.00  0.00    -0.354 N 
ATOM     43  C   UNL A   1      39.068  31.085  33.363  1.00  0.00     0.074 A 
ATOM     44  C   UNL A   1      37.861  31.863  33.185  1.00  0.00     0.031 C 
ATOM     45  C   UNL A   1      39.660  28.031  27.737  1.00  0.00     0.029 A 
ATOM     46  C   UNL A   1      40.558  27.961  28.886  1.00  0.00     0.049 A 
ATOM     47  H   UNL A   1      40.286  28.834  30.759  1.00  0.00     0.167 HD
ATOM     48  C   UNL A   1      39.830  31.108  34.483  1.00  0.00     0.034 A 
ATOM     49  C   UNL A   1      41.728  27.295  28.921  1.00  0.00     0.034 A 
ATOM     50  C   UNL A   1      41.000  30.295  34.673  1.00  0.00     0.049 A 
ATOM     51  C   UNL A   1      42.532  27.298  30.194  1.00  0.00     0.074 A 
ATOM     52  C   UNL A   1      41.791  30.176  35.802  1.00  0.00     0.029 A 
ATOM     53  N   UNL A   1      41.550  29.462  33.710  1.00  0.00    -0.354 N 
ATOM     54  N   UNL A   1      42.273  27.899  31.331  1.00  0.00    -0.248 NA
ATOM     55  C   UNL A   1      43.768  26.504  30.203  1.00  0.00     0.031 C 
ATOM     56  C   UNL A   1      42.832  29.286  35.514  1.00  0.00     0.029 A 
ATOM     57  C   UNL A   1      42.673  28.830  34.215  1.00  0.00     0.049 A 
ATOM     58  H   UNL A   1      41.194  29.339  32.801  1.00  0.00     0.167 HD
ATOM     59  C   UNL A   1      43.290  27.524  32.200  1.00  0.00     0.074 A 
ATOM     60  C   UNL A   1      44.160  26.630  31.464  1.00  0.00     0.031 C 
ATOM     61  C   UNL A   1      43.494  27.896  33.488  1.00  0.00     0.034 A 
BRANCH  48  62
ATOM     62  C   UNL A   1      39.390  32.003  35.613  1.00  0.00     0.023 A 
ATOM     63  C   UNL A   1      38.538  31.492  36.613  1.00  0.00     0.012 A 
ATOM     64  C   UNL A   1      39.862  33.326  35.720  1.00  0.00     0.148 A 
ATOM     65  C   UNL A   1      38.131  32.293  37.680  1.00  0.00     0.002 A 
ATOM     66  C   UNL A   1      39.489  34.104  36.810  1.00  0.00     0.091 A 
ATOM     67  F   UNL A   1      40.657  33.802  34.749  1.00  0.00    -0.205 F 
ATOM     68  C   UNL A   1      38.615  33.593  37.783  1.00  0.00     0.022 A 
BRANCH  66  69
ATOM     69  S   UNL A   1      40.121  35.764  37.078  1.00  0.00     0.127 S 
ATOM     70  O   UNL A   1      39.653  36.454  35.877  1.00  0.00    -0.237 OA
ATOM     71  O   UNL A   1      39.439  36.158  38.312  1.00  0.00    -0.237 OA
ATOM     72  O   UNL A   1      41.566  35.629  37.200  1.00  0.00    -0.744 OA
ENDBRANCH  66  69
ENDBRANCH  48  62
BRANCH  49  73
ATOM     73  C   UNL A   1      42.174  26.510  27.736  1.00  0.00     0.023 A 
ATOM     74  C   UNL A   1      43.000  27.124  26.773  1.00  0.00     0.012 A 
ATOM     75  C   UNL A   1      41.819  25.158  27.571  1.00  0.00     0.148 A 
ATOM     76  C   UNL A   1      43.433  26.417  25.652  1.00  0.00     0.002 A 
ATOM     77  C   UNL A   1      42.300  24.442  26.481  1.00  0.00     0.091 A 
ATOM     78  F   UNL A   1      41.025  24.594  28.493  1.00  0.00    -0.205 F 
ATOM     79  C   UNL A   1      43.093  25.075  25.511  1.00  0.00     0.022 A 
BRANCH  77  80
ATOM     80  S   UNL A   1      42.023  22.678  26.290  1.00  0.00     0.127 S 
ATOM     81  O   UNL A   1      42.652  22.414  24.997  1.00  0.00    -0.237 OA
ATOM     82  O   UNL A   1      42.738  22.133  27.445  1.00  0.00    -0.237 OA
ATOM     83  O   UNL A   1      40.579  22.500  26.341  1.00  0.00    -0.744 OA
ENDBRANCH  77  80
ENDBRANCH  49  73
BRANCH  61  84
ATOM     84  C   UNL A   1      44.678  27.307  34.209  1.00  0.00     0.023 A 
ATOM     85  C   UNL A   1      45.918  27.974  34.185  1.00  0.00     0.012 A 
ATOM     86  C   UNL A   1      44.537  26.133  34.975  1.00  0.00     0.148 A 
ATOM     87  C   UNL A   1      47.009  27.467  34.889  1.00  0.00     0.002 A 
ATOM     88  C   UNL A   1      45.614  25.661  35.715  1.00  0.00     0.091 A 
ATOM     89  F   UNL A   1      43.353  25.503  34.968  1.00  0.00    -0.205 F 
ATOM     90  C   UNL A   1      46.853  26.319  35.664  1.00  0.00     0.022 A 
BRANCH  88  91
ATOM     91  S   UNL A   1      45.478  24.248  36.817  1.00  0.00     0.127 S 
ATOM     92  O   UNL A   1      46.842  24.141  37.332  1.00  0.00    -0.237 OA
ATOM     93  O   UNL A   1      44.492  24.710  37.794  1.00  0.00    -0.237 OA
ATOM     94  O   UNL A   1      45.033  23.136  35.989  1.00  0.00    -0.744 OA
ENDBRANCH  88  91
ENDBRANCH  61  84
ENDBRANCH  35  36
ENDBRANCH  27  30
ENDBRANCH  25  26
ENDBRANCH   1  25
TORSDOF 15
ENDMDL
