MODEL 1
REMARK VINA RESULT:     -10.3      0.000      0.000
REMARK SMILES C#CCN(CC(=O)NCCCNC(=O)c1ccc(-c2c3nc(c(-c4cccc(S(=O)(=O)[O-])c4F)c4ccc([nH]4)c(-c4cccc(S(=O)(=O)[O-])c4F)c4nc(c(-c5cccc(S(=O)(=O)[O-])c5F)c5ccc2[nH]5)C=C4)C=C3)cc1)C(=O)NCC[C@@H]1CCCO1
REMARK SMILES IDX 9 1 8 2 6 3 7 4 5 6 4 7 3 8 2 9 1 10 78 11 79 12 80 13 81 15
REMARK SMILES IDX 82 16 83 17 84 18 87 19 85 20 86 21 10 22 11 23 12 24 13 25
REMARK SMILES IDX 14 27 15 28 16 29 77 30 17 31 76 32 18 33 19 34 20 35 70 36
REMARK SMILES IDX 21 37 75 38 69 39 71 40 22 41 74 42 68 43 67 44 23 46 55 47
REMARK SMILES IDX 35 48 54 49 36 50 39 51 53 52 72 53 37 54 38 55 52 57 73 58
REMARK SMILES IDX 40 59 24 60 25 61 33 62 26 63 28 64 34 65 27 66 29 67 30 68
REMARK SMILES IDX 31 69 32 70 56 71 57 72 65 73 58 74 60 75 66 76 59 77 61 78
REMARK SMILES IDX 62 79 63 80 64 81 41 82 42 83 50 84 43 85 45 86 51 87 44 88
REMARK SMILES IDX 46 89 47 90 48 91 49 92
REMARK H PARENT 8 5 80 14 12 26 71 45 39 56
REMARK Flexibility Score: inf
ROOT
ATOM      1  C   UNL A   1      31.478  30.786  25.833  1.00  0.00     0.117 C 
ENDROOT
BRANCH   1   2
ATOM      2  N   UNL A   1      32.493  29.911  26.379  1.00  0.00    -0.354 N 
ATOM      3  C   UNL A   1      33.325  29.043  25.734  1.00  0.00     0.239 C 
ATOM      4  O   UNL A   1      34.354  28.703  26.327  1.00  0.00    -0.273 OA
ATOM      5  H   UNL A   1      32.599  29.947  27.356  1.00  0.00     0.163 HD
BRANCH   3   6
ATOM      6  C   UNL A   1      33.094  28.628  24.272  1.00  0.00     0.222 C 
BRANCH   6   7
ATOM      7  N   UNL A   1      32.388  27.366  24.089  1.00  0.00    -0.304 N 
BRANCH   7   8
ATOM      8  C   UNL A   1      33.162  26.263  23.524  1.00  0.00     0.211 C 
BRANCH   8   9
ATOM      9  C   UNL A   1      34.011  25.556  24.570  1.00  0.00    -0.085 C 
ATOM     10  C   UNL A   1      34.739  24.950  25.466  1.00  0.00     0.006 C 
ENDBRANCH   8   9
ENDBRANCH   7   8
BRANCH   7  11
ATOM     11  C   UNL A   1      31.104  27.074  24.440  1.00  0.00     0.318 C 
ATOM     12  O   UNL A   1      30.847  26.373  25.425  1.00  0.00    -0.249 OA
ATOM     13  N   UNL A   1      30.017  27.508  23.792  1.00  0.00    -0.338 N 
ATOM     14  H   UNL A   1      29.203  27.255  24.284  1.00  0.00     0.165 HD
BRANCH  13  15
ATOM     15  C   UNL A   1      29.669  28.237  22.584  1.00  0.00     0.120 C 
BRANCH  15  16
ATOM     16  C   UNL A   1      28.615  29.312  22.845  1.00  0.00     0.053 C 
BRANCH  16  17
ATOM     17  C   UNL A   1      29.097  30.734  22.551  1.00  0.00     0.120 C 
ATOM     18  C   UNL A   1      28.730  31.782  23.590  1.00  0.00     0.034 C 
ATOM     19  O   UNL A   1      28.513  31.185  21.313  1.00  0.00    -0.378 OA
ATOM     20  C   UNL A   1      28.725  33.043  22.766  1.00  0.00     0.031 C 
ATOM     21  C   UNL A   1      28.132  32.562  21.461  1.00  0.00     0.160 C 
ENDBRANCH  16  17
ENDBRANCH  15  16
ENDBRANCH  13  15
ENDBRANCH   7  11
ENDBRANCH   6   7
ENDBRANCH   3   6
ENDBRANCH   1   2
BRANCH   1  22
ATOM     22  C   UNL A   1      31.395  32.141  26.527  1.00  0.00     0.042 C 
BRANCH  22  23
ATOM     23  C   UNL A   1      32.702  32.617  27.149  1.00  0.00     0.118 C 
BRANCH  23  24
ATOM     24  N   UNL A   1      32.601  33.959  27.708  1.00  0.00    -0.352 N 
ATOM     25  C   UNL A   1      33.242  34.545  28.770  1.00  0.00     0.251 C 
ATOM     26  H   UNL A   1      31.963  34.547  27.244  1.00  0.00     0.163 HD
ATOM     27  O   UNL A   1      32.825  35.624  29.188  1.00  0.00    -0.269 OA
BRANCH  25  28
ATOM     28  C   UNL A   1      34.415  33.909  29.413  1.00  0.00     0.039 A 
ATOM     29  C   UNL A   1      34.198  32.936  30.394  1.00  0.00     0.014 A 
ATOM     30  C   UNL A   1      35.719  34.314  29.119  1.00  0.00     0.014 A 
ATOM     31  C   UNL A   1      35.283  32.343  31.046  1.00  0.00     0.010 A 
ATOM     32  C   UNL A   1      36.802  33.666  29.708  1.00  0.00     0.010 A 
ATOM     33  C   UNL A   1      36.597  32.688  30.693  1.00  0.00    -0.014 A 
BRANCH  33  34
ATOM     34  C   UNL A   1      37.767  32.055  31.356  1.00  0.00     0.031 A 
ATOM     35  C   UNL A   1      38.277  32.588  32.670  1.00  0.00     0.074 A 
ATOM     36  C   UNL A   1      38.418  31.049  30.740  1.00  0.00     0.049 A 
ATOM     37  N   UNL A   1      39.310  32.201  33.373  1.00  0.00    -0.248 NA
ATOM     38  C   UNL A   1      37.548  33.725  33.258  1.00  0.00     0.031 C 
ATOM     39  C   UNL A   1      38.072  30.496  29.429  1.00  0.00     0.029 A 
ATOM     40  N   UNL A   1      39.522  30.329  31.122  1.00  0.00    -0.354 N 
ATOM     41  C   UNL A   1      39.380  33.066  34.458  1.00  0.00     0.074 A 
ATOM     42  C   UNL A   1      38.305  34.021  34.305  1.00  0.00     0.031 C 
ATOM     43  C   UNL A   1      38.943  29.522  29.119  1.00  0.00     0.029 A 
ATOM     44  C   UNL A   1      39.923  29.397  30.193  1.00  0.00     0.049 A 
ATOM     45  H   UNL A   1      39.984  30.467  31.981  1.00  0.00     0.167 HD
ATOM     46  C   UNL A   1      40.239  33.049  35.507  1.00  0.00     0.034 A 
ATOM     47  C   UNL A   1      40.963  28.540  30.205  1.00  0.00     0.034 A 
ATOM     48  C   UNL A   1      41.271  32.064  35.684  1.00  0.00     0.049 A 
ATOM     49  C   UNL A   1      41.867  28.507  31.407  1.00  0.00     0.074 A 
ATOM     50  C   UNL A   1      42.131  31.904  36.756  1.00  0.00     0.029 A 
ATOM     51  N   UNL A   1      41.586  31.074  34.767  1.00  0.00    -0.354 N 
ATOM     52  N   UNL A   1      41.814  29.226  32.502  1.00  0.00    -0.248 NA
ATOM     53  C   UNL A   1      42.951  27.513  31.393  1.00  0.00     0.031 C 
ATOM     54  C   UNL A   1      42.979  30.825  36.478  1.00  0.00     0.029 A 
ATOM     55  C   UNL A   1      42.631  30.301  35.244  1.00  0.00     0.049 A 
ATOM     56  H   UNL A   1      41.132  30.940  33.903  1.00  0.00     0.167 HD
ATOM     57  C   UNL A   1      42.833  28.752  33.320  1.00  0.00     0.074 A 
ATOM     58  C   UNL A   1      43.470  27.666  32.604  1.00  0.00     0.031 C 
ATOM     59  C   UNL A   1      43.220  29.188  34.545  1.00  0.00     0.034 A 
BRANCH  46  60
ATOM     60  C   UNL A   1      40.055  34.093  36.578  1.00  0.00     0.023 A 
ATOM     61  C   UNL A   1      40.345  35.441  36.289  1.00  0.00     0.012 A 
ATOM     62  C   UNL A   1      39.545  33.753  37.848  1.00  0.00     0.148 A 
ATOM     63  C   UNL A   1      40.166  36.431  37.255  1.00  0.00     0.002 A 
ATOM     64  C   UNL A   1      39.328  34.751  38.791  1.00  0.00     0.091 A 
ATOM     65  F   UNL A   1      39.293  32.463  38.113  1.00  0.00    -0.205 F 
ATOM     66  C   UNL A   1      39.649  36.088  38.500  1.00  0.00     0.022 A 
BRANCH  64  67
ATOM     67  S   UNL A   1      38.592  34.425  40.397  1.00  0.00     0.127 S 
ATOM     68  O   UNL A   1      39.678  33.730  41.084  1.00  0.00    -0.237 OA
ATOM     69  O   UNL A   1      38.323  35.776  40.894  1.00  0.00    -0.237 OA
ATOM     70  O   UNL A   1      37.402  33.626  40.139  1.00  0.00    -0.744 OA
ENDBRANCH  64  67
ENDBRANCH  46  60
BRANCH  47  71
ATOM     71  C   UNL A   1      41.159  27.591  29.074  1.00  0.00     0.023 A 
ATOM     72  C   UNL A   1      40.495  26.348  29.095  1.00  0.00     0.012 A 
ATOM     73  C   UNL A   1      41.973  27.915  27.971  1.00  0.00     0.148 A 
ATOM     74  C   UNL A   1      40.666  25.431  28.058  1.00  0.00     0.002 A 
ATOM     75  C   UNL A   1      42.096  27.019  26.915  1.00  0.00     0.091 A 
ATOM     76  F   UNL A   1      42.605  29.096  27.974  1.00  0.00    -0.205 F 
ATOM     77  C   UNL A   1      41.457  25.770  26.965  1.00  0.00     0.022 A 
BRANCH  75  78
ATOM     78  S   UNL A   1      42.989  27.424  25.410  1.00  0.00     0.127 S 
ATOM     79  O   UNL A   1      44.304  27.792  25.934  1.00  0.00    -0.237 OA
ATOM     80  O   UNL A   1      42.951  26.152  24.684  1.00  0.00    -0.237 OA
ATOM     81  O   UNL A   1      42.233  28.494  24.782  1.00  0.00    -0.744 OA
ENDBRANCH  75  78
ENDBRANCH  47  71
BRANCH  59  82
ATOM     82  C   UNL A   1      44.368  28.473  35.209  1.00  0.00     0.023 A 
ATOM     83  C   UNL A   1      45.693  28.821  34.879  1.00  0.00     0.012 A 
ATOM     84  C   UNL A   1      44.134  27.506  36.206  1.00  0.00     0.148 A 
ATOM     85  C   UNL A   1      46.767  28.191  35.504  1.00  0.00     0.002 A 
ATOM     86  C   UNL A   1      45.210  26.918  36.860  1.00  0.00     0.091 A 
ATOM     87  F   UNL A   1      42.867  27.174  36.493  1.00  0.00    -0.205 F 
ATOM     88  C   UNL A   1      46.527  27.250  36.503  1.00  0.00     0.022 A 
BRANCH  86  89
ATOM     89  S   UNL A   1      44.992  25.768  38.224  1.00  0.00     0.127 S 
ATOM     90  O   UNL A   1      46.374  25.526  38.633  1.00  0.00    -0.237 OA
ATOM     91  O   UNL A   1      44.205  26.557  39.173  1.00  0.00    -0.237 OA
ATOM     92  O   UNL A   1      44.289  24.620  37.669  1.00  0.00    -0.744 OA
ENDBRANCH  86  89
ENDBRANCH  59  82
ENDBRANCH  33  34
ENDBRANCH  25  28
ENDBRANCH  23  24
ENDBRANCH  22  23
ENDBRANCH   1  22
TORSDOF 20
ENDMDL
MODEL 2
REMARK VINA RESULT:     -10.3      3.064      4.998
REMARK SMILES C#CCN(CC(=O)NCCCNC(=O)c1ccc(-c2c3nc(c(-c4cccc(S(=O)(=O)[O-])c4F)c4ccc([nH]4)c(-c4cccc(S(=O)(=O)[O-])c4F)c4nc(c(-c5cccc(S(=O)(=O)[O-])c5F)c5ccc2[nH]5)C=C4)C=C3)cc1)C(=O)NCC[C@@H]1CCCO1
REMARK SMILES IDX 9 1 8 2 6 3 7 4 5 6 4 7 3 8 2 9 1 10 78 11 79 12 80 13 81 15
REMARK SMILES IDX 82 16 83 17 84 18 87 19 85 20 86 21 10 22 11 23 12 24 13 25
REMARK SMILES IDX 14 27 15 28 16 29 77 30 17 31 76 32 18 33 19 34 20 35 70 36
REMARK SMILES IDX 21 37 75 38 69 39 71 40 22 41 74 42 68 43 67 44 23 46 55 47
REMARK SMILES IDX 35 48 54 49 36 50 39 51 53 52 72 53 37 54 38 55 52 57 73 58
REMARK SMILES IDX 40 59 24 60 25 61 33 62 26 63 28 64 34 65 27 66 29 67 30 68
REMARK SMILES IDX 31 69 32 70 56 71 57 72 65 73 58 74 60 75 66 76 59 77 61 78
REMARK SMILES IDX 62 79 63 80 64 81 41 82 42 83 50 84 43 85 45 86 51 87 44 88
REMARK SMILES IDX 46 89 47 90 48 91 49 92
REMARK H PARENT 8 5 80 14 12 26 71 45 39 56
REMARK Flexibility Score: inf
ROOT
ATOM      1  C   UNL A   1      32.545  28.725  23.701  1.00  0.00     0.117 C 
ENDROOT
BRANCH   1   2
ATOM      2  N   UNL A   1      33.161  28.095  22.553  1.00  0.00    -0.354 N 
ATOM      3  C   UNL A   1      33.489  26.786  22.356  1.00  0.00     0.239 C 
ATOM      4  O   UNL A   1      33.632  26.409  21.189  1.00  0.00    -0.273 OA
ATOM      5  H   UNL A   1      33.374  28.699  21.805  1.00  0.00     0.163 HD
BRANCH   3   6
ATOM      6  C   UNL A   1      33.520  25.772  23.511  1.00  0.00     0.222 C 
BRANCH   6   7
ATOM      7  N   UNL A   1      32.760  24.549  23.284  1.00  0.00    -0.304 N 
BRANCH   7   8
ATOM      8  C   UNL A   1      31.315  24.632  23.487  1.00  0.00     0.211 C 
BRANCH   8   9
ATOM      9  C   UNL A   1      30.949  25.481  24.695  1.00  0.00    -0.085 C 
ATOM     10  C   UNL A   1      30.635  26.208  25.730  1.00  0.00     0.006 C 
ENDBRANCH   8   9
ENDBRANCH   7   8
BRANCH   7  11
ATOM     11  C   UNL A   1      33.232  23.348  22.844  1.00  0.00     0.318 C 
ATOM     12  O   UNL A   1      33.607  23.190  21.677  1.00  0.00    -0.249 OA
ATOM     13  N   UNL A   1      33.351  22.250  23.599  1.00  0.00    -0.338 N 
ATOM     14  H   UNL A   1      33.806  21.537  23.096  1.00  0.00     0.165 HD
BRANCH  13  15
ATOM     15  C   UNL A   1      33.014  21.786  24.934  1.00  0.00     0.120 C 
BRANCH  15  16
ATOM     16  C   UNL A   1      32.155  20.522  24.903  1.00  0.00     0.053 C 
BRANCH  16  17
ATOM     17  C   UNL A   1      32.965  19.226  24.828  1.00  0.00     0.120 C 
ATOM     18  C   UNL A   1      32.854  18.456  23.521  1.00  0.00     0.034 C 
ATOM     19  O   UNL A   1      32.512  18.324  25.857  1.00  0.00    -0.378 OA
ATOM     20  C   UNL A   1      33.155  17.048  23.968  1.00  0.00     0.031 C 
ATOM     21  C   UNL A   1      32.472  16.995  25.315  1.00  0.00     0.160 C 
ENDBRANCH  16  17
ENDBRANCH  15  16
ENDBRANCH  13  15
ENDBRANCH   7  11
ENDBRANCH   6   7
ENDBRANCH   3   6
ENDBRANCH   1   2
BRANCH   1  22
ATOM     22  C   UNL A   1      33.544  29.321  24.686  1.00  0.00     0.042 C 
BRANCH  22  23
ATOM     23  C   UNL A   1      32.997  29.538  26.092  1.00  0.00     0.118 C 
BRANCH  23  24
ATOM     24  N   UNL A   1      32.872  30.949  26.434  1.00  0.00    -0.352 N 
ATOM     25  C   UNL A   1      33.563  31.725  27.330  1.00  0.00     0.251 C 
ATOM     26  H   UNL A   1      32.173  31.429  25.935  1.00  0.00     0.163 HD
ATOM     27  O   UNL A   1      33.126  32.842  27.602  1.00  0.00    -0.269 OA
BRANCH  25  28
ATOM     28  C   UNL A   1      34.812  31.247  27.967  1.00  0.00     0.039 A 
ATOM     29  C   UNL A   1      34.812  29.993  28.587  1.00  0.00     0.014 A 
ATOM     30  C   UNL A   1      35.954  32.049  28.030  1.00  0.00     0.014 A 
ATOM     31  C   UNL A   1      35.964  29.529  29.229  1.00  0.00     0.010 A 
ATOM     32  C   UNL A   1      37.125  31.553  28.597  1.00  0.00     0.010 A 
ATOM     33  C   UNL A   1      37.139  30.297  29.222  1.00  0.00    -0.014 A 
BRANCH  33  34
ATOM     34  C   UNL A   1      38.381  29.814  29.877  1.00  0.00     0.031 A 
ATOM     35  C   UNL A   1      38.786  30.348  31.227  1.00  0.00     0.074 A 
ATOM     36  C   UNL A   1      39.187  28.951  29.226  1.00  0.00     0.049 A 
ATOM     37  N   UNL A   1      39.857  30.086  31.932  1.00  0.00    -0.248 NA
ATOM     38  C   UNL A   1      37.885  31.329  31.855  1.00  0.00     0.031 C 
ATOM     39  C   UNL A   1      38.948  28.423  27.882  1.00  0.00     0.029 A 
ATOM     40  N   UNL A   1      40.382  28.388  29.596  1.00  0.00    -0.354 N 
ATOM     41  C   UNL A   1      39.779  30.894  33.060  1.00  0.00     0.074 A 
ATOM     42  C   UNL A   1      38.573  31.681  32.932  1.00  0.00     0.031 C 
ATOM     43  C   UNL A   1      39.961  27.609  27.543  1.00  0.00     0.029 A 
ATOM     44  C   UNL A   1      40.933  27.578  28.631  1.00  0.00     0.049 A 
ATOM     45  H   UNL A   1      40.806  28.549  30.471  1.00  0.00     0.167 HD
ATOM     46  C   UNL A   1      40.615  30.952  34.125  1.00  0.00     0.034 A 
ATOM     47  C   UNL A   1      42.091  26.889  28.624  1.00  0.00     0.034 A 
ATOM     48  C   UNL A   1      41.783  30.127  34.276  1.00  0.00     0.049 A 
ATOM     49  C   UNL A   1      42.974  26.930  29.841  1.00  0.00     0.074 A 
ATOM     50  C   UNL A   1      42.642  30.042  35.357  1.00  0.00     0.029 A 
ATOM     51  N   UNL A   1      42.257  29.246  33.317  1.00  0.00    -0.354 N 
ATOM     52  N   UNL A   1      42.796  27.574  30.969  1.00  0.00    -0.248 NA
ATOM     53  C   UNL A   1      44.197  26.114  29.802  1.00  0.00     0.031 C 
ATOM     54  C   UNL A   1      43.648  29.121  35.045  1.00  0.00     0.029 A 
ATOM     55  C   UNL A   1      43.401  28.616  33.778  1.00  0.00     0.049 A 
ATOM     56  H   UNL A   1      41.842  29.089  32.439  1.00  0.00     0.167 HD
ATOM     57  C   UNL A   1      43.864  27.218  31.785  1.00  0.00     0.074 A 
ATOM     58  C   UNL A   1      44.669  26.280  31.030  1.00  0.00     0.031 C 
ATOM     59  C   UNL A   1      44.162  27.643  33.038  1.00  0.00     0.034 A 
BRANCH  46  60
ATOM     60  C   UNL A   1      40.260  31.898  35.243  1.00  0.00     0.023 A 
ATOM     61  C   UNL A   1      40.940  33.127  35.353  1.00  0.00     0.012 A 
ATOM     62  C   UNL A   1      39.220  31.601  36.148  1.00  0.00     0.148 A 
ATOM     63  C   UNL A   1      40.619  34.031  36.365  1.00  0.00     0.002 A 
ATOM     64  C   UNL A   1      38.876  32.526  37.127  1.00  0.00     0.091 A 
ATOM     65  F   UNL A   1      38.596  30.419  36.041  1.00  0.00    -0.205 F 
ATOM     66  C   UNL A   1      39.582  33.735  37.245  1.00  0.00     0.022 A 
BRANCH  64  67
ATOM     67  S   UNL A   1      37.504  32.275  38.260  1.00  0.00     0.127 S 
ATOM     68  O   UNL A   1      38.018  32.883  39.486  1.00  0.00    -0.237 OA
ATOM     69  O   UNL A   1      36.428  33.027  37.613  1.00  0.00    -0.237 OA
ATOM     70  O   UNL A   1      37.289  30.836  38.318  1.00  0.00    -0.744 OA
ENDBRANCH  64  67
ENDBRANCH  46  60
BRANCH  47  71
ATOM     71  C   UNL A   1      42.446  26.041  27.451  1.00  0.00     0.023 A 
ATOM     72  C   UNL A   1      43.225  26.591  26.414  1.00  0.00     0.012 A 
ATOM     73  C   UNL A   1      42.042  24.694  27.365  1.00  0.00     0.148 A 
ATOM     74  C   UNL A   1      43.565  25.829  25.296  1.00  0.00     0.002 A 
ATOM     75  C   UNL A   1      42.430  23.924  26.274  1.00  0.00     0.091 A 
ATOM     76  F   UNL A   1      41.292  24.192  28.355  1.00  0.00    -0.205 F 
ATOM     77  C   UNL A   1      43.176  24.494  25.231  1.00  0.00     0.022 A 
BRANCH  75  78
ATOM     78  S   UNL A   1      42.084  22.164  26.169  1.00  0.00     0.127 S 
ATOM     79  O   UNL A   1      42.880  21.773  25.006  1.00  0.00    -0.237 OA
ATOM     80  O   UNL A   1      42.592  21.678  27.454  1.00  0.00    -0.237 OA
ATOM     81  O   UNL A   1      40.642  22.057  26.017  1.00  0.00    -0.744 OA
ENDBRANCH  75  78
ENDBRANCH  47  71
BRANCH  59  82
ATOM     82  C   UNL A   1      45.396  27.076  33.690  1.00  0.00     0.023 A 
ATOM     83  C   UNL A   1      46.619  27.769  33.594  1.00  0.00     0.012 A 
ATOM     84  C   UNL A   1      45.329  25.893  34.453  1.00  0.00     0.148 A 
ATOM     85  C   UNL A   1      47.765  27.276  34.217  1.00  0.00     0.002 A 
ATOM     86  C   UNL A   1      46.464  25.434  35.111  1.00  0.00     0.091 A 
ATOM     87  F   UNL A   1      44.162  25.237  34.517  1.00  0.00    -0.205 F 
ATOM     88  C   UNL A   1      47.685  26.116  34.984  1.00  0.00     0.022 A 
BRANCH  86  89
ATOM     89  S   UNL A   1      46.429  24.004  36.199  1.00  0.00     0.127 S 
ATOM     90  O   UNL A   1      46.035  22.939  35.278  1.00  0.00    -0.237 OA
ATOM     91  O   UNL A   1      47.816  23.928  36.661  1.00  0.00    -0.237 OA
ATOM     92  O   UNL A   1      45.464  24.320  37.243  1.00  0.00    -0.744 OA
ENDBRANCH  86  89
ENDBRANCH  59  82
ENDBRANCH  33  34
ENDBRANCH  25  28
ENDBRANCH  23  24
ENDBRANCH  22  23
ENDBRANCH   1  22
TORSDOF 20
ENDMDL
MODEL 3
REMARK VINA RESULT:     -10.1      1.974      2.608
REMARK SMILES C#CCN(CC(=O)NCCCNC(=O)c1ccc(-c2c3nc(c(-c4cccc(S(=O)(=O)[O-])c4F)c4ccc([nH]4)c(-c4cccc(S(=O)(=O)[O-])c4F)c4nc(c(-c5cccc(S(=O)(=O)[O-])c5F)c5ccc2[nH]5)C=C4)C=C3)cc1)C(=O)NCC[C@@H]1CCCO1
REMARK SMILES IDX 9 1 8 2 6 3 7 4 5 6 4 7 3 8 2 9 1 10 78 11 79 12 80 13 81 15
REMARK SMILES IDX 82 16 83 17 84 18 87 19 85 20 86 21 10 22 11 23 12 24 13 25
REMARK SMILES IDX 14 27 15 28 16 29 77 30 17 31 76 32 18 33 19 34 20 35 70 36
REMARK SMILES IDX 21 37 75 38 69 39 71 40 22 41 74 42 68 43 67 44 23 46 55 47
REMARK SMILES IDX 35 48 54 49 36 50 39 51 53 52 72 53 37 54 38 55 52 57 73 58
REMARK SMILES IDX 40 59 24 60 25 61 33 62 26 63 28 64 34 65 27 66 29 67 30 68
REMARK SMILES IDX 31 69 32 70 56 71 57 72 65 73 58 74 60 75 66 76 59 77 61 78
REMARK SMILES IDX 62 79 63 80 64 81 41 82 42 83 50 84 43 85 45 86 51 87 44 88
REMARK SMILES IDX 46 89 47 90 48 91 49 92
REMARK H PARENT 8 5 80 14 12 26 71 45 39 56
REMARK Flexibility Score: inf
ROOT
ATOM      1  C   UNL A   1      33.445  29.207  25.188  1.00  0.00     0.117 C 
ENDROOT
BRANCH   1   2
ATOM      2  N   UNL A   1      33.831  29.114  23.797  1.00  0.00    -0.354 N 
ATOM      3  C   UNL A   1      33.947  28.010  23.003  1.00  0.00     0.239 C 
ATOM      4  O   UNL A   1      33.902  28.186  21.782  1.00  0.00    -0.273 OA
ATOM      5  H   UNL A   1      34.042  29.970  23.360  1.00  0.00     0.163 HD
BRANCH   3   6
ATOM      6  C   UNL A   1      33.964  26.588  23.585  1.00  0.00     0.222 C 
BRANCH   6   7
ATOM      7  N   UNL A   1      32.709  25.854  23.471  1.00  0.00    -0.304 N 
BRANCH   7   8
ATOM      8  C   UNL A   1      32.697  24.725  22.544  1.00  0.00     0.211 C 
BRANCH   8   9
ATOM      9  C   UNL A   1      32.586  25.168  21.093  1.00  0.00    -0.085 C 
ATOM     10  C   UNL A   1      32.490  25.547  19.851  1.00  0.00     0.006 C 
ENDBRANCH   8   9
ENDBRANCH   7   8
BRANCH   7  11
ATOM     11  C   UNL A   1      31.560  26.062  24.173  1.00  0.00     0.318 C 
ATOM     12  O   UNL A   1      31.329  25.459  25.227  1.00  0.00    -0.249 OA
ATOM     13  N   UNL A   1      30.594  26.919  23.823  1.00  0.00    -0.338 N 
ATOM     14  H   UNL A   1      29.912  26.972  24.531  1.00  0.00     0.165 HD
BRANCH  13  15
ATOM     15  C   UNL A   1      30.241  27.795  22.719  1.00  0.00     0.120 C 
BRANCH  15  16
ATOM     16  C   UNL A   1      29.039  28.679  23.047  1.00  0.00     0.053 C 
BRANCH  16  17
ATOM     17  C   UNL A   1      29.203  30.134  22.605  1.00  0.00     0.120 C 
ATOM     18  C   UNL A   1      28.235  31.126  23.232  1.00  0.00     0.034 C 
ATOM     19  O   UNL A   1      28.993  30.224  21.182  1.00  0.00    -0.378 OA
ATOM     20  C   UNL A   1      28.189  32.212  22.188  1.00  0.00     0.031 C 
ATOM     21  C   UNL A   1      28.239  31.414  20.904  1.00  0.00     0.160 C 
ENDBRANCH  16  17
ENDBRANCH  15  16
ENDBRANCH  13  15
ENDBRANCH   7  11
ENDBRANCH   6   7
ENDBRANCH   3   6
ENDBRANCH   1   2
BRANCH   1  22
ATOM     22  C   UNL A   1      32.066  29.821  25.405  1.00  0.00     0.042 C 
BRANCH  22  23
ATOM     23  C   UNL A   1      31.834  30.381  26.804  1.00  0.00     0.118 C 
BRANCH  23  24
ATOM     24  N   UNL A   1      31.922  31.834  26.847  1.00  0.00    -0.352 N 
ATOM     25  C   UNL A   1      32.769  32.666  27.535  1.00  0.00     0.251 C 
ATOM     26  H   UNL A   1      31.262  32.300  26.286  1.00  0.00     0.163 HD
ATOM     27  O   UNL A   1      32.505  33.867  27.583  1.00  0.00    -0.269 OA
BRANCH  25  28
ATOM     28  C   UNL A   1      33.982  32.151  28.211  1.00  0.00     0.039 A 
ATOM     29  C   UNL A   1      34.576  30.982  27.723  1.00  0.00     0.014 A 
ATOM     30  C   UNL A   1      34.494  32.759  29.359  1.00  0.00     0.014 A 
ATOM     31  C   UNL A   1      35.701  30.449  28.360  1.00  0.00     0.010 A 
ATOM     32  C   UNL A   1      35.662  32.275  29.945  1.00  0.00     0.010 A 
ATOM     33  C   UNL A   1      36.267  31.104  29.466  1.00  0.00    -0.014 A 
BRANCH  33  34
ATOM     34  C   UNL A   1      37.475  30.569  30.145  1.00  0.00     0.031 A 
ATOM     35  C   UNL A   1      37.797  30.978  31.559  1.00  0.00     0.074 A 
ATOM     36  C   UNL A   1      38.326  29.775  29.464  1.00  0.00     0.049 A 
ATOM     37  N   UNL A   1      38.828  30.658  32.297  1.00  0.00    -0.248 NA
ATOM     38  C   UNL A   1      36.850  31.892  32.222  1.00  0.00     0.031 C 
ATOM     39  C   UNL A   1      38.169  29.371  28.065  1.00  0.00     0.029 A 
ATOM     40  N   UNL A   1      39.504  29.186  29.849  1.00  0.00    -0.354 N 
ATOM     41  C   UNL A   1      38.677  31.357  33.489  1.00  0.00     0.074 A 
ATOM     42  C   UNL A   1      37.473  32.147  33.364  1.00  0.00     0.031 C 
ATOM     43  C   UNL A   1      39.209  28.598  27.712  1.00  0.00     0.029 A 
ATOM     44  C   UNL A   1      40.117  28.472  28.847  1.00  0.00     0.049 A 
ATOM     45  H   UNL A   1      39.875  29.268  30.758  1.00  0.00     0.167 HD
ATOM     46  C   UNL A   1      39.451  31.320  34.601  1.00  0.00     0.034 A 
ATOM     47  C   UNL A   1      41.281  27.792  28.843  1.00  0.00     0.034 A 
ATOM     48  C   UNL A   1      40.617  30.491  34.742  1.00  0.00     0.049 A 
ATOM     49  C   UNL A   1      42.092  27.725  30.108  1.00  0.00     0.074 A 
ATOM     50  C   UNL A   1      41.414  30.312  35.858  1.00  0.00     0.029 A 
ATOM     51  N   UNL A   1      41.155  29.705  33.735  1.00  0.00    -0.354 N 
ATOM     52  N   UNL A   1      41.844  28.261  31.278  1.00  0.00    -0.248 NA
ATOM     53  C   UNL A   1      43.324  26.923  30.064  1.00  0.00     0.031 C 
ATOM     54  C   UNL A   1      42.446  29.428  35.521  1.00  0.00     0.029 A 
ATOM     55  C   UNL A   1      42.277  29.041  34.201  1.00  0.00     0.049 A 
ATOM     56  H   UNL A   1      40.792  29.629  32.824  1.00  0.00     0.167 HD
ATOM     57  C   UNL A   1      42.868  27.836  32.118  1.00  0.00     0.074 A 
ATOM     58  C   UNL A   1      43.724  26.977  31.327  1.00  0.00     0.031 C 
ATOM     59  C   UNL A   1      43.090  28.145  33.420  1.00  0.00     0.034 A 
BRANCH  46  60
ATOM     60  C   UNL A   1      39.023  32.157  35.779  1.00  0.00     0.023 A 
ATOM     61  C   UNL A   1      39.350  33.528  35.811  1.00  0.00     0.012 A 
ATOM     62  C   UNL A   1      38.251  31.607  36.823  1.00  0.00     0.148 A 
ATOM     63  C   UNL A   1      38.950  34.331  36.879  1.00  0.00     0.002 A 
ATOM     64  C   UNL A   1      37.819  32.423  37.862  1.00  0.00     0.091 A 
ATOM     65  F   UNL A   1      37.966  30.298  36.787  1.00  0.00    -0.205 F 
ATOM     66  C   UNL A   1      38.177  33.782  37.897  1.00  0.00     0.022 A 
BRANCH  64  67
ATOM     67  S   UNL A   1      36.754  31.832  39.182  1.00  0.00     0.127 S 
ATOM     68  O   UNL A   1      36.904  30.383  39.055  1.00  0.00    -0.237 OA
ATOM     69  O   UNL A   1      37.385  32.408  40.370  1.00  0.00    -0.237 OA
ATOM     70  O   UNL A   1      35.425  32.351  38.889  1.00  0.00    -0.744 OA
ENDBRANCH  64  67
ENDBRANCH  46  60
BRANCH  47  71
ATOM     71  C   UNL A   1      41.711  27.058  27.619  1.00  0.00     0.023 A 
ATOM     72  C   UNL A   1      42.251  27.781  26.537  1.00  0.00     0.012 A 
ATOM     73  C   UNL A   1      41.613  25.656  27.528  1.00  0.00     0.148 A 
ATOM     74  C   UNL A   1      42.652  27.127  25.372  1.00  0.00     0.002 A 
ATOM     75  C   UNL A   1      42.065  25.005  26.385  1.00  0.00     0.091 A 
ATOM     76  F   UNL A   1      41.086  24.987  28.562  1.00  0.00    -0.205 F 
ATOM     77  C   UNL A   1      42.569  25.739  25.300  1.00  0.00     0.022 A 
BRANCH  75  78
ATOM     78  S   UNL A   1      42.115  23.214  26.257  1.00  0.00     0.127 S 
ATOM     79  O   UNL A   1      42.683  23.026  24.923  1.00  0.00    -0.237 OA
ATOM     80  O   UNL A   1      43.008  22.855  27.361  1.00  0.00    -0.237 OA
ATOM     81  O   UNL A   1      40.742  22.770  26.430  1.00  0.00    -0.744 OA
ENDBRANCH  75  78
ENDBRANCH  47  71
BRANCH  59  82
ATOM     82  C   UNL A   1      44.291  27.527  34.087  1.00  0.00     0.023 A 
ATOM     83  C   UNL A   1      45.507  28.236  34.133  1.00  0.00     0.012 A 
ATOM     84  C   UNL A   1      44.195  26.275  34.725  1.00  0.00     0.148 A 
ATOM     85  C   UNL A   1      46.620  27.693  34.772  1.00  0.00     0.002 A 
ATOM     86  C   UNL A   1      45.295  25.762  35.403  1.00  0.00     0.091 A 
ATOM     87  F   UNL A   1      43.035  25.606  34.655  1.00  0.00    -0.205 F 
ATOM     88  C   UNL A   1      46.511  26.463  35.417  1.00  0.00     0.022 A 
BRANCH  86  89
ATOM     89  S   UNL A   1      45.215  24.232  36.342  1.00  0.00     0.127 S 
ATOM     90  O   UNL A   1      44.746  23.287  35.331  1.00  0.00    -0.237 OA
ATOM     91  O   UNL A   1      46.607  24.045  36.753  1.00  0.00    -0.237 OA
ATOM     92  O   UNL A   1      44.293  24.486  37.441  1.00  0.00    -0.744 OA
ENDBRANCH  86  89
ENDBRANCH  59  82
ENDBRANCH  33  34
ENDBRANCH  25  28
ENDBRANCH  23  24
ENDBRANCH  22  23
ENDBRANCH   1  22
TORSDOF 20
ENDMDL
