MODEL 1
REMARK VINA RESULT:     -12.5      0.000      0.000
REMARK SMILES O=C(NCCCNC(=O)c1ccccc1Nc1cccc(C(F)(F)F)c1)c1ccc(-c2c3nc(c(-c4cccc(S(=O)(=O)[O-])c4F)c4ccc([nH]4)c(-c4cccc(S(=O)(=O)[O-])c4F)c4nc(c(-c5cccc(S(=O)(=O)[O-])c5F)c5ccc2[nH]5)C=C4)C=C3)cc1
REMARK SMILES IDX 5 1 4 2 3 3 1 4 2 5 27 7 28 8 89 9 29 10 88 11 30 12 31 13
REMARK SMILES IDX 32 14 82 15 33 16 87 17 81 18 83 19 34 20 86 21 80 22 79 23
REMARK SMILES IDX 35 25 67 26 47 27 66 28 48 29 51 30 65 31 84 32 49 33 50 34
REMARK SMILES IDX 64 36 85 37 52 38 36 39 37 40 45 41 38 42 40 43 46 44 39 45
REMARK SMILES IDX 41 46 42 47 43 48 44 49 68 50 69 51 77 52 70 53 72 54 78 55
REMARK SMILES IDX 71 56 73 57 74 58 75 59 76 60 53 61 54 62 62 63 55 64 57 65
REMARK SMILES IDX 63 66 56 67 58 68 59 69 60 70 61 71 6 72 7 73 8 74 9 76
REMARK SMILES IDX 10 77 11 78 15 79 12 80 14 81 13 82 16 83 17 85 18 86 26 87
REMARK SMILES IDX 19 88 21 89 20 90 22 91 23 92 24 93 25 94
REMARK H PARENT 3 6 83 24 51 35 7 75 16 84
REMARK Flexibility Score: inf
ROOT
ATOM      1  C   UNL A   1      31.633  31.799  26.745  1.00  0.00     0.042 C 
ENDROOT
BRANCH   1   2
ATOM      2  C   UNL A   1      32.909  32.524  27.143  1.00  0.00     0.118 C 
BRANCH   2   3
ATOM      3  N   UNL A   1      32.661  33.863  27.659  1.00  0.00    -0.352 N 
ATOM      4  O   UNL A   1      32.742  35.580  29.106  1.00  0.00    -0.269 OA
ATOM      5  C   UNL A   1      33.233  34.522  28.722  1.00  0.00     0.251 C 
ATOM      6  H   UNL A   1      31.978  34.376  27.172  1.00  0.00     0.163 HD
BRANCH   5   7
ATOM      7  C   UNL A   1      34.413  33.951  29.408  1.00  0.00     0.039 A 
ATOM      8  C   UNL A   1      34.263  32.987  30.407  1.00  0.00     0.014 A 
ATOM      9  C   UNL A   1      35.693  34.363  29.025  1.00  0.00     0.014 A 
ATOM     10  C   UNL A   1      35.370  32.551  31.126  1.00  0.00     0.010 A 
ATOM     11  C   UNL A   1      36.815  33.846  29.680  1.00  0.00     0.010 A 
ATOM     12  C   UNL A   1      36.660  32.953  30.752  1.00  0.00    -0.014 A 
BRANCH  12  13
ATOM     13  C   UNL A   1      37.834  32.330  31.413  1.00  0.00     0.031 A 
ATOM     14  C   UNL A   1      38.599  31.209  30.769  1.00  0.00     0.074 A 
ATOM     15  C   UNL A   1      38.184  32.781  32.635  1.00  0.00     0.049 A 
ATOM     16  N   UNL A   1      39.637  30.559  31.229  1.00  0.00    -0.248 NA
ATOM     17  C   UNL A   1      38.142  30.748  29.449  1.00  0.00     0.031 C 
ATOM     18  C   UNL A   1      37.475  33.827  33.380  1.00  0.00     0.029 A 
ATOM     19  N   UNL A   1      39.203  32.412  33.476  1.00  0.00    -0.354 N 
ATOM     20  C   UNL A   1      39.929  29.583  30.284  1.00  0.00     0.074 A 
ATOM     21  C   UNL A   1      38.962  29.730  29.217  1.00  0.00     0.031 C 
ATOM     22  C   UNL A   1      38.084  34.021  34.557  1.00  0.00     0.029 A 
ATOM     23  C   UNL A   1      39.187  33.078  34.679  1.00  0.00     0.049 A 
ATOM     24  H   UNL A   1      39.881  31.738  33.240  1.00  0.00     0.167 HD
ATOM     25  C   UNL A   1      40.919  28.660  30.306  1.00  0.00     0.034 A 
ATOM     26  C   UNL A   1      39.951  32.925  35.778  1.00  0.00     0.034 A 
ATOM     27  C   UNL A   1      41.906  28.560  31.348  1.00  0.00     0.049 A 
ATOM     28  C   UNL A   1      41.051  31.906  35.757  1.00  0.00     0.074 A 
ATOM     29  C   UNL A   1      43.021  27.743  31.398  1.00  0.00     0.029 A 
ATOM     30  N   UNL A   1      41.887  29.281  32.532  1.00  0.00    -0.354 N 
ATOM     31  N   UNL A   1      41.421  31.117  34.778  1.00  0.00    -0.248 NA
ATOM     32  C   UNL A   1      41.849  31.766  36.982  1.00  0.00     0.031 C 
ATOM     33  C   UNL A   1      43.661  27.948  32.624  1.00  0.00     0.029 A 
ATOM     34  C   UNL A   1      42.952  28.905  33.333  1.00  0.00     0.049 A 
ATOM     35  H   UNL A   1      41.215  29.960  32.768  1.00  0.00     0.167 HD
ATOM     36  C   UNL A   1      42.501  30.392  35.263  1.00  0.00     0.074 A 
ATOM     37  C   UNL A   1      42.749  30.864  36.611  1.00  0.00     0.031 C 
ATOM     38  C   UNL A   1      43.208  29.408  34.657  1.00  0.00     0.034 A 
BRANCH  25  39
ATOM     39  C   UNL A   1      41.025  27.696  29.154  1.00  0.00     0.023 A 
ATOM     40  C   UNL A   1      40.208  26.549  29.128  1.00  0.00     0.012 A 
ATOM     41  C   UNL A   1      41.847  27.989  28.046  1.00  0.00     0.148 A 
ATOM     42  C   UNL A   1      40.215  25.699  28.022  1.00  0.00     0.002 A 
ATOM     43  C   UNL A   1      41.823  27.155  26.935  1.00  0.00     0.091 A 
ATOM     44  F   UNL A   1      42.629  29.075  28.102  1.00  0.00    -0.205 F 
ATOM     45  C   UNL A   1      41.012  26.008  26.923  1.00  0.00     0.022 A 
BRANCH  43  46
ATOM     46  S   UNL A   1      42.759  27.503  25.440  1.00  0.00     0.127 S 
ATOM     47  O   UNL A   1      42.474  26.317  24.632  1.00  0.00    -0.237 OA
ATOM     48  O   UNL A   1      42.127  28.732  24.960  1.00  0.00    -0.237 OA
ATOM     49  O   UNL A   1      44.145  27.655  25.859  1.00  0.00    -0.744 OA
ENDBRANCH  43  46
ENDBRANCH  25  39
BRANCH  26  50
ATOM     50  C   UNL A   1      39.696  33.772  36.976  1.00  0.00     0.023 A 
ATOM     51  C   UNL A   1      40.070  35.128  36.960  1.00  0.00     0.012 A 
ATOM     52  C   UNL A   1      39.034  33.253  38.106  1.00  0.00     0.148 A 
ATOM     53  C   UNL A   1      39.808  35.948  38.060  1.00  0.00     0.002 A 
ATOM     54  C   UNL A   1      38.722  34.089  39.171  1.00  0.00     0.091 A 
ATOM     55  F   UNL A   1      38.705  31.954  38.114  1.00  0.00    -0.205 F 
ATOM     56  C   UNL A   1      39.122  35.433  39.157  1.00  0.00     0.022 A 
BRANCH  54  57
ATOM     57  S   UNL A   1      37.705  33.528  40.541  1.00  0.00     0.127 S 
ATOM     58  O   UNL A   1      37.520  34.759  41.303  1.00  0.00    -0.237 OA
ATOM     59  O   UNL A   1      36.505  33.039  39.859  1.00  0.00    -0.237 OA
ATOM     60  O   UNL A   1      38.485  32.480  41.188  1.00  0.00    -0.744 OA
ENDBRANCH  54  57
ENDBRANCH  26  50
BRANCH  38  61
ATOM     61  C   UNL A   1      44.315  28.767  35.446  1.00  0.00     0.023 A 
ATOM     62  C   UNL A   1      45.624  29.276  35.336  1.00  0.00     0.012 A 
ATOM     63  C   UNL A   1      44.052  27.717  36.345  1.00  0.00     0.148 A 
ATOM     64  C   UNL A   1      46.661  28.734  36.092  1.00  0.00     0.002 A 
ATOM     65  C   UNL A   1      45.081  27.210  37.130  1.00  0.00     0.091 A 
ATOM     66  F   UNL A   1      42.802  27.237  36.419  1.00  0.00    -0.205 F 
ATOM     67  C   UNL A   1      46.387  27.710  36.997  1.00  0.00     0.022 A 
BRANCH  65  68
ATOM     68  S   UNL A   1      44.809  25.953  38.383  1.00  0.00     0.127 S 
ATOM     69  O   UNL A   1      46.134  25.851  38.994  1.00  0.00    -0.237 OA
ATOM     70  O   UNL A   1      43.792  26.574  39.232  1.00  0.00    -0.237 OA
ATOM     71  O   UNL A   1      44.358  24.765  37.669  1.00  0.00    -0.744 OA
ENDBRANCH  65  68
ENDBRANCH  38  61
ENDBRANCH  12  13
ENDBRANCH   5   7
ENDBRANCH   2   3
ENDBRANCH   1   2
BRANCH   1  72
ATOM     72  C   UNL A   1      31.827  30.325  26.428  1.00  0.00     0.118 C 
BRANCH  72  73
ATOM     73  N   UNL A   1      32.588  30.107  25.204  1.00  0.00    -0.352 N 
ATOM     74  C   UNL A   1      32.540  29.049  24.332  1.00  0.00     0.253 C 
ATOM     75  H   UNL A   1      33.225  30.819  24.971  1.00  0.00     0.163 HD
ATOM     76  O   UNL A   1      33.332  28.989  23.395  1.00  0.00    -0.269 OA
BRANCH  74  77
ATOM     77  C   UNL A   1      31.548  27.971  24.518  1.00  0.00     0.063 A 
ATOM     78  C   UNL A   1      31.810  27.059  25.553  1.00  0.00     0.016 A 
ATOM     79  C   UNL A   1      30.414  27.833  23.691  1.00  0.00     0.051 A 
ATOM     80  C   UNL A   1      30.915  26.024  25.811  1.00  0.00     0.001 A 
ATOM     81  C   UNL A   1      29.520  26.794  23.990  1.00  0.00     0.027 A 
ATOM     82  C   UNL A   1      29.766  25.898  25.036  1.00  0.00     0.002 A 
BRANCH  79  83
ATOM     83  N   UNL A   1      30.160  28.723  22.627  1.00  0.00    -0.355 N 
ATOM     84  H   UNL A   1      30.501  28.419  21.754  1.00  0.00     0.167 HD
BRANCH  83  85
ATOM     85  C   UNL A   1      29.508  29.968  22.590  1.00  0.00     0.039 A 
ATOM     86  C   UNL A   1      29.365  30.692  23.781  1.00  0.00     0.026 A 
ATOM     87  C   UNL A   1      29.027  30.537  21.405  1.00  0.00     0.039 A 
ATOM     88  C   UNL A   1      28.761  31.951  23.789  1.00  0.00     0.003 A 
ATOM     89  C   UNL A   1      28.402  31.797  21.398  1.00  0.00     0.058 A 
ATOM     90  C   UNL A   1      28.284  32.502  22.603  1.00  0.00     0.013 A 
BRANCH  89  91
ATOM     91  C   UNL A   1      27.886  32.399  20.114  1.00  0.00     0.416 C 
ATOM     92  F   UNL A   1      28.883  32.745  19.255  1.00  0.00    -0.166 F 
ATOM     93  F   UNL A   1      27.086  31.536  19.429  1.00  0.00    -0.166 F 
ATOM     94  F   UNL A   1      27.143  33.526  20.301  1.00  0.00    -0.166 F 
ENDBRANCH  89  91
ENDBRANCH  83  85
ENDBRANCH  79  83
ENDBRANCH  74  77
ENDBRANCH  72  73
ENDBRANCH   1  72
TORSDOF 16
ENDMDL
MODEL 2
REMARK VINA RESULT:     -12.4      1.986      2.574
REMARK SMILES O=C(NCCCNC(=O)c1ccccc1Nc1cccc(C(F)(F)F)c1)c1ccc(-c2c3nc(c(-c4cccc(S(=O)(=O)[O-])c4F)c4ccc([nH]4)c(-c4cccc(S(=O)(=O)[O-])c4F)c4nc(c(-c5cccc(S(=O)(=O)[O-])c5F)c5ccc2[nH]5)C=C4)C=C3)cc1
REMARK SMILES IDX 5 1 4 2 3 3 1 4 2 5 27 7 28 8 89 9 29 10 88 11 30 12 31 13
REMARK SMILES IDX 32 14 82 15 33 16 87 17 81 18 83 19 34 20 86 21 80 22 79 23
REMARK SMILES IDX 35 25 67 26 47 27 66 28 48 29 51 30 65 31 84 32 49 33 50 34
REMARK SMILES IDX 64 36 85 37 52 38 36 39 37 40 45 41 38 42 40 43 46 44 39 45
REMARK SMILES IDX 41 46 42 47 43 48 44 49 68 50 69 51 77 52 70 53 72 54 78 55
REMARK SMILES IDX 71 56 73 57 74 58 75 59 76 60 53 61 54 62 62 63 55 64 57 65
REMARK SMILES IDX 63 66 56 67 58 68 59 69 60 70 61 71 6 72 7 73 8 74 9 76
REMARK SMILES IDX 10 77 11 78 15 79 12 80 14 81 13 82 16 83 17 85 18 86 26 87
REMARK SMILES IDX 19 88 21 89 20 90 22 91 23 92 24 93 25 94
REMARK H PARENT 3 6 83 24 51 35 7 75 16 84
REMARK Flexibility Score: inf
ROOT
ATOM      1  C   UNL A   1      33.585  30.760  26.638  1.00  0.00     0.042 C 
ENDROOT
BRANCH   1   2
ATOM      2  C   UNL A   1      32.328  31.416  27.186  1.00  0.00     0.118 C 
BRANCH   2   3
ATOM      3  N   UNL A   1      32.427  32.868  27.244  1.00  0.00    -0.352 N 
ATOM      4  O   UNL A   1      33.111  34.876  27.985  1.00  0.00    -0.269 OA
ATOM      5  C   UNL A   1      33.322  33.667  27.915  1.00  0.00     0.251 C 
ATOM      6  H   UNL A   1      31.747  33.352  26.724  1.00  0.00     0.163 HD
BRANCH   5   7
ATOM      7  C   UNL A   1      34.514  33.076  28.562  1.00  0.00     0.039 A 
ATOM      8  C   UNL A   1      34.386  32.265  29.692  1.00  0.00     0.014 A 
ATOM      9  C   UNL A   1      35.778  33.311  28.013  1.00  0.00     0.014 A 
ATOM     10  C   UNL A   1      35.520  31.819  30.360  1.00  0.00     0.010 A 
ATOM     11  C   UNL A   1      36.914  32.774  28.627  1.00  0.00     0.010 A 
ATOM     12  C   UNL A   1      36.795  32.043  29.820  1.00  0.00    -0.014 A 
BRANCH  12  13
ATOM     13  C   UNL A   1      37.974  31.398  30.450  1.00  0.00     0.031 A 
ATOM     14  C   UNL A   1      38.768  30.341  29.738  1.00  0.00     0.074 A 
ATOM     15  C   UNL A   1      38.300  31.767  31.705  1.00  0.00     0.049 A 
ATOM     16  N   UNL A   1      39.814  29.680  30.164  1.00  0.00    -0.248 NA
ATOM     17  C   UNL A   1      38.336  29.966  28.383  1.00  0.00     0.031 C 
ATOM     18  C   UNL A   1      37.561  32.743  32.513  1.00  0.00     0.029 A 
ATOM     19  N   UNL A   1      39.317  31.360  32.531  1.00  0.00    -0.354 N 
ATOM     20  C   UNL A   1      40.137  28.780  29.156  1.00  0.00     0.074 A 
ATOM     21  C   UNL A   1      39.180  28.984  28.090  1.00  0.00     0.031 C 
ATOM     22  C   UNL A   1      38.152  32.865  33.709  1.00  0.00     0.029 A 
ATOM     23  C   UNL A   1      39.273  31.938  33.778  1.00  0.00     0.049 A 
ATOM     24  H   UNL A   1      40.011  30.718  32.256  1.00  0.00     0.167 HD
ATOM     25  C   UNL A   1      41.146  27.877  29.125  1.00  0.00     0.034 A 
ATOM     26  C   UNL A   1      40.027  31.722  34.873  1.00  0.00     0.034 A 
ATOM     27  C   UNL A   1      42.122  27.723  30.170  1.00  0.00     0.049 A 
ATOM     28  C   UNL A   1      41.149  30.728  34.794  1.00  0.00     0.074 A 
ATOM     29  C   UNL A   1      43.254  26.926  30.176  1.00  0.00     0.029 A 
ATOM     30  N   UNL A   1      42.075  28.357  31.402  1.00  0.00    -0.354 N 
ATOM     31  N   UNL A   1      41.546  30.019  33.766  1.00  0.00    -0.248 NA
ATOM     32  C   UNL A   1      41.936  30.517  36.016  1.00  0.00     0.031 C 
ATOM     33  C   UNL A   1      43.875  27.056  31.422  1.00  0.00     0.029 A 
ATOM     34  C   UNL A   1      43.139  27.946  32.187  1.00  0.00     0.049 A 
ATOM     35  H   UNL A   1      41.387  29.004  31.677  1.00  0.00     0.167 HD
ATOM     36  C   UNL A   1      42.635  29.283  34.213  1.00  0.00     0.074 A 
ATOM     37  C   UNL A   1      42.858  29.662  35.594  1.00  0.00     0.031 C 
ATOM     38  C   UNL A   1      43.369  28.359  33.547  1.00  0.00     0.034 A 
BRANCH  25  39
ATOM     39  C   UNL A   1      41.285  27.000  27.909  1.00  0.00     0.023 A 
ATOM     40  C   UNL A   1      41.923  27.503  26.758  1.00  0.00     0.012 A 
ATOM     41  C   UNL A   1      40.890  25.648  27.949  1.00  0.00     0.148 A 
ATOM     42  C   UNL A   1      42.155  26.676  25.659  1.00  0.00     0.002 A 
ATOM     43  C   UNL A   1      41.155  24.822  26.864  1.00  0.00     0.091 A 
ATOM     44  F   UNL A   1      40.268  25.197  29.048  1.00  0.00    -0.205 F 
ATOM     45  C   UNL A   1      41.783  25.335  25.716  1.00  0.00     0.022 A 
BRANCH  43  46
ATOM     46  S   UNL A   1      40.779  23.064  26.866  1.00  0.00     0.127 S 
ATOM     47  O   UNL A   1      39.321  23.075  26.752  1.00  0.00    -0.237 OA
ATOM     48  O   UNL A   1      41.479  22.598  25.669  1.00  0.00    -0.237 OA
ATOM     49  O   UNL A   1      41.304  22.542  28.120  1.00  0.00    -0.744 OA
ENDBRANCH  43  46
ENDBRANCH  25  39
BRANCH  26  50
ATOM     50  C   UNL A   1      39.742  32.477  36.124  1.00  0.00     0.023 A 
ATOM     51  C   UNL A   1      40.421  33.681  36.381  1.00  0.00     0.012 A 
ATOM     52  C   UNL A   1      38.759  32.034  37.032  1.00  0.00     0.148 A 
ATOM     53  C   UNL A   1      40.143  34.421  37.531  1.00  0.00     0.002 A 
ATOM     54  C   UNL A   1      38.443  32.807  38.142  1.00  0.00     0.091 A 
ATOM     55  F   UNL A   1      38.136  30.873  36.784  1.00  0.00    -0.205 F 
ATOM     56  C   UNL A   1      39.144  33.993  38.403  1.00  0.00     0.022 A 
BRANCH  54  57
ATOM     57  S   UNL A   1      37.063  32.392  39.215  1.00  0.00     0.127 S 
ATOM     58  O   UNL A   1      37.317  30.984  39.501  1.00  0.00    -0.237 OA
ATOM     59  O   UNL A   1      37.266  33.297  40.348  1.00  0.00    -0.237 OA
ATOM     60  O   UNL A   1      35.871  32.686  38.430  1.00  0.00    -0.744 OA
ENDBRANCH  54  57
ENDBRANCH  26  50
BRANCH  38  61
ATOM     61  C   UNL A   1      44.480  27.685  34.303  1.00  0.00     0.023 A 
ATOM     62  C   UNL A   1      45.740  28.310  34.378  1.00  0.00     0.012 A 
ATOM     63  C   UNL A   1      44.260  26.479  34.995  1.00  0.00     0.148 A 
ATOM     64  C   UNL A   1      46.774  27.733  35.113  1.00  0.00     0.002 A 
ATOM     65  C   UNL A   1      45.281  25.932  35.762  1.00  0.00     0.091 A 
ATOM     66  F   UNL A   1      43.058  25.894  34.893  1.00  0.00    -0.205 F 
ATOM     67  C   UNL A   1      46.541  26.552  35.814  1.00  0.00     0.022 A 
BRANCH  65  68
ATOM     68  S   UNL A   1      45.051  24.462  36.768  1.00  0.00     0.127 S 
ATOM     69  O   UNL A   1      44.425  23.545  35.816  1.00  0.00    -0.237 OA
ATOM     70  O   UNL A   1      46.424  24.117  37.135  1.00  0.00    -0.237 OA
ATOM     71  O   UNL A   1      44.210  24.869  37.887  1.00  0.00    -0.744 OA
ENDBRANCH  65  68
ENDBRANCH  38  61
ENDBRANCH  12  13
ENDBRANCH   5   7
ENDBRANCH   2   3
ENDBRANCH   1   2
BRANCH   1  72
ATOM     72  C   UNL A   1      33.889  29.397  27.236  1.00  0.00     0.118 C 
BRANCH  72  73
ATOM     73  N   UNL A   1      32.685  28.657  27.595  1.00  0.00    -0.352 N 
ATOM     74  C   UNL A   1      32.101  27.593  26.958  1.00  0.00     0.253 C 
ATOM     75  H   UNL A   1      32.228  28.965  28.410  1.00  0.00     0.163 HD
ATOM     76  O   UNL A   1      31.024  27.155  27.355  1.00  0.00    -0.269 OA
BRANCH  74  77
ATOM     77  C   UNL A   1      32.752  26.974  25.786  1.00  0.00     0.063 A 
ATOM     78  C   UNL A   1      33.535  25.837  26.040  1.00  0.00     0.016 A 
ATOM     79  C   UNL A   1      32.630  27.501  24.484  1.00  0.00     0.051 A 
ATOM     80  C   UNL A   1      34.167  25.177  24.990  1.00  0.00     0.001 A 
ATOM     81  C   UNL A   1      33.260  26.802  23.442  1.00  0.00     0.027 A 
ATOM     82  C   UNL A   1      34.021  25.655  23.691  1.00  0.00     0.002 A 
BRANCH  79  83
ATOM     83  N   UNL A   1      31.875  28.663  24.223  1.00  0.00    -0.355 N 
ATOM     84  H   UNL A   1      32.364  29.505  24.363  1.00  0.00     0.167 HD
BRANCH  83  85
ATOM     85  C   UNL A   1      30.545  28.832  23.797  1.00  0.00     0.039 A 
ATOM     86  C   UNL A   1      29.761  27.696  23.560  1.00  0.00     0.026 A 
ATOM     87  C   UNL A   1      29.955  30.092  23.637  1.00  0.00     0.039 A 
ATOM     88  C   UNL A   1      28.423  27.813  23.176  1.00  0.00     0.003 A 
ATOM     89  C   UNL A   1      28.614  30.228  23.235  1.00  0.00     0.058 A 
ATOM     90  C   UNL A   1      27.852  29.073  23.016  1.00  0.00     0.013 A 
BRANCH  89  91
ATOM     91  C   UNL A   1      27.990  31.590  23.064  1.00  0.00     0.416 C 
ATOM     92  F   UNL A   1      28.885  32.604  23.216  1.00  0.00    -0.166 F 
ATOM     93  F   UNL A   1      27.449  31.753  21.825  1.00  0.00    -0.166 F 
ATOM     94  F   UNL A   1      26.983  31.843  23.946  1.00  0.00    -0.166 F 
ENDBRANCH  89  91
ENDBRANCH  83  85
ENDBRANCH  79  83
ENDBRANCH  74  77
ENDBRANCH  72  73
ENDBRANCH   1  72
TORSDOF 16
ENDMDL
MODEL 3
REMARK VINA RESULT:     -12.3      3.631      8.781
REMARK SMILES O=C(NCCCNC(=O)c1ccccc1Nc1cccc(C(F)(F)F)c1)c1ccc(-c2c3nc(c(-c4cccc(S(=O)(=O)[O-])c4F)c4ccc([nH]4)c(-c4cccc(S(=O)(=O)[O-])c4F)c4nc(c(-c5cccc(S(=O)(=O)[O-])c5F)c5ccc2[nH]5)C=C4)C=C3)cc1
REMARK SMILES IDX 5 1 4 2 3 3 1 4 2 5 27 7 28 8 89 9 29 10 88 11 30 12 31 13
REMARK SMILES IDX 32 14 82 15 33 16 87 17 81 18 83 19 34 20 86 21 80 22 79 23
REMARK SMILES IDX 35 25 67 26 47 27 66 28 48 29 51 30 65 31 84 32 49 33 50 34
REMARK SMILES IDX 64 36 85 37 52 38 36 39 37 40 45 41 38 42 40 43 46 44 39 45
REMARK SMILES IDX 41 46 42 47 43 48 44 49 68 50 69 51 77 52 70 53 72 54 78 55
REMARK SMILES IDX 71 56 73 57 74 58 75 59 76 60 53 61 54 62 62 63 55 64 57 65
REMARK SMILES IDX 63 66 56 67 58 68 59 69 60 70 61 71 6 72 7 73 8 74 9 76
REMARK SMILES IDX 10 77 11 78 15 79 12 80 14 81 13 82 16 83 17 85 18 86 26 87
REMARK SMILES IDX 19 88 21 89 20 90 22 91 23 92 24 93 25 94
REMARK H PARENT 3 6 83 24 51 35 7 75 16 84
REMARK Flexibility Score: inf
ROOT
ATOM      1  C   UNL A   1      32.797  27.801  26.608  1.00  0.00     0.042 C 
ENDROOT
BRANCH   1   2
ATOM      2  C   UNL A   1      33.956  28.686  26.180  1.00  0.00     0.118 C 
BRANCH   2   3
ATOM      3  N   UNL A   1      33.799  30.069  26.607  1.00  0.00    -0.352 N 
ATOM      4  O   UNL A   1      34.124  31.908  27.857  1.00  0.00    -0.269 OA
ATOM      5  C   UNL A   1      34.543  30.812  27.493  1.00  0.00     0.251 C 
ATOM      6  H   UNL A   1      33.043  30.547  26.198  1.00  0.00     0.163 HD
BRANCH   5   7
ATOM      7  C   UNL A   1      35.823  30.287  28.018  1.00  0.00     0.039 A 
ATOM      8  C   UNL A   1      37.006  30.424  27.289  1.00  0.00     0.014 A 
ATOM      9  C   UNL A   1      35.848  29.676  29.275  1.00  0.00     0.014 A 
ATOM     10  C   UNL A   1      38.174  29.820  27.737  1.00  0.00     0.010 A 
ATOM     11  C   UNL A   1      37.047  29.159  29.774  1.00  0.00     0.010 A 
ATOM     12  C   UNL A   1      38.216  29.206  28.998  1.00  0.00    -0.014 A 
BRANCH  12  13
ATOM     13  C   UNL A   1      39.518  28.735  29.532  1.00  0.00     0.031 A 
ATOM     14  C   UNL A   1      40.213  29.448  30.657  1.00  0.00     0.074 A 
ATOM     15  C   UNL A   1      40.083  27.654  28.957  1.00  0.00     0.049 A 
ATOM     16  N   UNL A   1      41.357  29.161  31.222  1.00  0.00    -0.248 NA
ATOM     17  C   UNL A   1      39.552  30.638  31.216  1.00  0.00     0.031 C 
ATOM     18  C   UNL A   1      39.523  26.918  27.819  1.00  0.00     0.029 A 
ATOM     19  N   UNL A   1      41.255  26.995  29.230  1.00  0.00    -0.354 N 
ATOM     20  C   UNL A   1      41.580  30.157  32.166  1.00  0.00     0.074 A 
ATOM     21  C   UNL A   1      40.446  31.054  32.105  1.00  0.00     0.031 C 
ATOM     22  C   UNL A   1      40.343  25.909  27.498  1.00  0.00     0.029 A 
ATOM     23  C   UNL A   1      41.513  25.958  28.365  1.00  0.00     0.049 A 
ATOM     24  H   UNL A   1      41.852  27.240  29.974  1.00  0.00     0.167 HD
ATOM     25  C   UNL A   1      42.630  30.297  33.009  1.00  0.00     0.034 A 
ATOM     26  C   UNL A   1      42.588  25.155  28.253  1.00  0.00     0.034 A 
ATOM     27  C   UNL A   1      43.725  29.368  33.096  1.00  0.00     0.049 A 
ATOM     28  C   UNL A   1      43.723  25.328  29.218  1.00  0.00     0.074 A 
ATOM     29  C   UNL A   1      44.769  29.355  34.003  1.00  0.00     0.029 A 
ATOM     30  N   UNL A   1      43.932  28.301  32.235  1.00  0.00    -0.354 N 
ATOM     31  N   UNL A   1      43.828  26.165  30.221  1.00  0.00    -0.248 NA
ATOM     32  C   UNL A   1      44.879  24.437  29.050  1.00  0.00     0.031 C 
ATOM     33  C   UNL A   1      45.624  28.299  33.674  1.00  0.00     0.029 A 
ATOM     34  C   UNL A   1      45.104  27.644  32.569  1.00  0.00     0.049 A 
ATOM     35  H   UNL A   1      43.334  28.050  31.495  1.00  0.00     0.167 HD
ATOM     36  C   UNL A   1      45.056  25.898  30.810  1.00  0.00     0.074 A 
ATOM     37  C   UNL A   1      45.642  24.795  30.074  1.00  0.00     0.031 C 
ATOM     38  C   UNL A   1      45.656  26.525  31.851  1.00  0.00     0.034 A 
BRANCH  25  39
ATOM     39  C   UNL A   1      42.645  31.477  33.944  1.00  0.00     0.023 A 
ATOM     40  C   UNL A   1      43.121  32.721  33.488  1.00  0.00     0.012 A 
ATOM     41  C   UNL A   1      42.079  31.380  35.232  1.00  0.00     0.148 A 
ATOM     42  C   UNL A   1      43.047  33.851  34.303  1.00  0.00     0.002 A 
ATOM     43  C   UNL A   1      41.978  32.517  36.025  1.00  0.00     0.091 A 
ATOM     44  F   UNL A   1      41.649  30.182  35.651  1.00  0.00    -0.205 F 
ATOM     45  C   UNL A   1      42.466  33.752  35.564  1.00  0.00     0.022 A 
BRANCH  43  46
ATOM     46  S   UNL A   1      41.182  32.509  37.636  1.00  0.00     0.127 S 
ATOM     47  O   UNL A   1      41.230  33.926  37.995  1.00  0.00    -0.237 OA
ATOM     48  O   UNL A   1      39.845  32.006  37.318  1.00  0.00    -0.237 OA
ATOM     49  O   UNL A   1      41.980  31.626  38.475  1.00  0.00    -0.744 OA
ENDBRANCH  43  46
ENDBRANCH  25  39
BRANCH  26  50
ATOM     50  C   UNL A   1      42.621  24.113  27.190  1.00  0.00     0.023 A 
ATOM     51  C   UNL A   1      43.324  24.358  25.997  1.00  0.00     0.012 A 
ATOM     52  C   UNL A   1      42.006  22.860  27.381  1.00  0.00     0.148 A 
ATOM     53  C   UNL A   1      43.396  23.381  25.002  1.00  0.00     0.002 A 
ATOM     54  C   UNL A   1      42.133  21.870  26.414  1.00  0.00     0.091 A 
ATOM     55  F   UNL A   1      41.321  22.650  28.514  1.00  0.00    -0.205 F 
ATOM     56  C   UNL A   1      42.814  22.133  25.217  1.00  0.00     0.022 A 
BRANCH  54  57
ATOM     57  S   UNL A   1      41.544  20.197  26.697  1.00  0.00     0.127 S 
ATOM     58  O   UNL A   1      40.117  20.413  26.916  1.00  0.00    -0.237 OA
ATOM     59  O   UNL A   1      41.880  19.531  25.437  1.00  0.00    -0.237 OA
ATOM     60  O   UNL A   1      42.306  19.715  27.842  1.00  0.00    -0.744 OA
ENDBRANCH  54  57
ENDBRANCH  26  50
BRANCH  38  61
ATOM     61  C   UNL A   1      47.020  26.041  32.255  1.00  0.00     0.023 A 
ATOM     62  C   UNL A   1      48.160  26.627  31.671  1.00  0.00     0.012 A 
ATOM     63  C   UNL A   1      47.178  25.066  33.258  1.00  0.00     0.148 A 
ATOM     64  C   UNL A   1      49.438  26.234  32.062  1.00  0.00     0.002 A 
ATOM     65  C   UNL A   1      48.455  24.710  33.675  1.00  0.00     0.091 A 
ATOM     66  F   UNL A   1      46.078  24.509  33.786  1.00  0.00    -0.205 F 
ATOM     67  C   UNL A   1      49.585  25.285  33.071  1.00  0.00     0.022 A 
BRANCH  65  68
ATOM     68  S   UNL A   1      48.743  23.563  35.026  1.00  0.00     0.127 S 
ATOM     69  O   UNL A   1      50.198  23.419  34.990  1.00  0.00    -0.237 OA
ATOM     70  O   UNL A   1      48.232  24.304  36.179  1.00  0.00    -0.237 OA
ATOM     71  O   UNL A   1      47.989  22.359  34.699  1.00  0.00    -0.744 OA
ENDBRANCH  65  68
ENDBRANCH  38  61
ENDBRANCH  12  13
ENDBRANCH   5   7
ENDBRANCH   2   3
ENDBRANCH   1   2
BRANCH   1  72
ATOM     72  C   UNL A   1      33.013  26.320  26.345  1.00  0.00     0.118 C 
BRANCH  72  73
ATOM     73  N   UNL A   1      32.032  25.478  27.017  1.00  0.00    -0.352 N 
ATOM     74  C   UNL A   1      31.391  24.357  26.556  1.00  0.00     0.253 C 
ATOM     75  H   UNL A   1      31.797  25.752  27.933  1.00  0.00     0.163 HD
ATOM     76  O   UNL A   1      30.515  23.827  27.233  1.00  0.00    -0.269 OA
BRANCH  74  77
ATOM     77  C   UNL A   1      31.739  23.786  25.239  1.00  0.00     0.063 A 
ATOM     78  C   UNL A   1      32.782  22.847  25.226  1.00  0.00     0.016 A 
ATOM     79  C   UNL A   1      31.091  24.176  24.048  1.00  0.00     0.051 A 
ATOM     80  C   UNL A   1      33.160  22.243  24.030  1.00  0.00     0.001 A 
ATOM     81  C   UNL A   1      31.479  23.533  22.862  1.00  0.00     0.027 A 
ATOM     82  C   UNL A   1      32.502  22.579  22.851  1.00  0.00     0.002 A 
BRANCH  79  83
ATOM     83  N   UNL A   1      30.066  25.143  24.045  1.00  0.00    -0.355 N 
ATOM     84  H   UNL A   1      29.207  24.825  24.406  1.00  0.00     0.167 HD
BRANCH  83  85
ATOM     85  C   UNL A   1      30.051  26.483  23.618  1.00  0.00     0.039 A 
ATOM     86  C   UNL A   1      31.259  27.090  23.252  1.00  0.00     0.026 A 
ATOM     87  C   UNL A   1      28.871  27.229  23.503  1.00  0.00     0.039 A 
ATOM     88  C   UNL A   1      31.291  28.404  22.782  1.00  0.00     0.003 A 
ATOM     89  C   UNL A   1      28.887  28.559  23.047  1.00  0.00     0.058 A 
ATOM     90  C   UNL A   1      30.110  29.135  22.678  1.00  0.00     0.013 A 
BRANCH  89  91
ATOM     91  C   UNL A   1      27.610  29.354  22.929  1.00  0.00     0.416 C 
ATOM     92  F   UNL A   1      27.548  30.388  23.811  1.00  0.00    -0.166 F 
ATOM     93  F   UNL A   1      27.465  29.908  21.693  1.00  0.00    -0.166 F 
ATOM     94  F   UNL A   1      26.486  28.614  23.138  1.00  0.00    -0.166 F 
ENDBRANCH  89  91
ENDBRANCH  83  85
ENDBRANCH  79  83
ENDBRANCH  74  77
ENDBRANCH  72  73
ENDBRANCH   1  72
TORSDOF 16
ENDMDL
