MODEL 1
REMARK VINA RESULT:     -11.3      0.000      0.000
REMARK SMILES CCNC(=S)N/N=C\c1ccc(-c2ccc(C(=O)NCCCNC(=O)c3ccc(-c4c5nc(c(-c6cccc(S(=O)(=O)[O-])c6F)c6ccc([nH]6)c(-c6cccc(S(=O)(=O)[O-])c6F)c6nc(c(-c7cccc(S(=O)(=O)[O-])c7F)c7ccc4[nH]7)C=C6)C=C5)cc3)c(Cl)c2)o1
REMARK SMILES IDX 17 1 18 2 19 3 16 5 13 6 14 7 91 8 15 9 89 10 90 11 12 12
REMARK SMILES IDX 9 13 10 14 92 15 11 16 8 17 7 18 6 19 4 21 5 22 3 23 2 25
REMARK SMILES IDX 1 26 20 27 21 28 22 29 23 30 24 31 25 33 26 34 27 35 88 36
REMARK SMILES IDX 28 37 87 38 29 39 30 40 31 41 81 42 32 43 86 44 80 45 82 46
REMARK SMILES IDX 33 47 85 48 79 49 78 50 34 52 66 53 46 54 65 55 47 56 50 57
REMARK SMILES IDX 64 58 83 59 48 60 49 61 63 63 84 64 51 65 35 66 36 67 44 68
REMARK SMILES IDX 37 69 39 70 45 71 38 72 40 73 41 74 42 75 43 76 67 77 68 78
REMARK SMILES IDX 76 79 69 80 71 81 77 82 70 83 72 84 73 85 74 86 75 87 52 88
REMARK SMILES IDX 53 89 61 90 54 91 56 92 62 93 55 94 57 95 58 96 59 97 60 98
REMARK H PARENT 19 4 6 20 3 24 23 32 82 51 50 62
REMARK Flexibility Score: inf
ROOT
ATOM      1  C   UNL A   1      30.011  29.550  23.209  1.00  0.00     0.252 C 
ATOM      2  O   UNL A   1      29.180  29.934  22.376  1.00  0.00    -0.269 OA
ATOM      3  N   UNL A   1      30.272  30.462  24.190  1.00  0.00    -0.352 N 
ATOM      4  H   UNL A   1      29.778  31.302  24.050  1.00  0.00     0.163 HD
ENDROOT
BRANCH   1   5
ATOM      5  C   UNL A   1      30.545  28.158  23.046  1.00  0.00     0.058 A 
ATOM      6  C   UNL A   1      32.067  25.743  22.915  1.00  0.00     0.019 A 
ATOM      7  C   UNL A   1      32.684  26.956  22.660  1.00  0.00     0.013 A 
ATOM      8  C   UNL A   1      30.701  25.733  23.199  1.00  0.00     0.033 A 
ATOM      9  C   UNL A   1      31.929  28.134  22.713  1.00  0.00     0.016 A 
ATOM     10  C   UNL A   1      29.946  26.917  23.293  1.00  0.00     0.054 A 
ATOM     11  Cl  UNL A   1      28.352  26.627  23.856  1.00  0.00    -0.083 Cl
BRANCH   6  12
ATOM     12  C   UNL A   1      32.799  24.498  22.984  1.00  0.00     0.134 A 
ATOM     13  C   UNL A   1      32.926  22.388  23.548  1.00  0.00     0.147 A 
ATOM     14  C   UNL A   1      34.226  22.830  23.398  1.00  0.00     0.053 A 
ATOM     15  O   UNL A   1      32.053  23.386  23.221  1.00  0.00    -0.455 OA
ATOM     16  C   UNL A   1      34.141  24.193  23.023  1.00  0.00     0.051 A 
BRANCH  13  17
ATOM     17  C   UNL A   1      32.369  21.167  24.052  1.00  0.00     0.180 C 
ATOM     18  N   UNL A   1      31.603  21.019  25.098  1.00  0.00    -0.178 NA
BRANCH  18  19
ATOM     19  N   UNL A   1      31.188  22.132  25.774  1.00  0.00    -0.254 N 
ATOM     20  H   UNL A   1      30.283  22.448  25.553  1.00  0.00     0.193 HD
BRANCH  19  21
ATOM     21  C   UNL A   1      31.849  22.866  26.708  1.00  0.00     0.186 C 
ATOM     22  S   UNL A   1      31.689  24.531  26.679  1.00  0.00    -0.039 S 
BRANCH  21  23
ATOM     23  N   UNL A   1      32.660  22.324  27.641  1.00  0.00    -0.362 N 
ATOM     24  H   UNL A   1      32.415  22.522  28.574  1.00  0.00     0.162 HD
BRANCH  23  25
ATOM     25  C   UNL A   1      33.841  21.493  27.475  1.00  0.00     0.112 C 
ATOM     26  C   UNL A   1      35.004  22.293  26.915  1.00  0.00     0.027 C 
ENDBRANCH  23  25
ENDBRANCH  21  23
ENDBRANCH  19  21
ENDBRANCH  18  19
ENDBRANCH  13  17
ENDBRANCH   6  12
ENDBRANCH   1   5
BRANCH   3  27
ATOM     27  C   UNL A   1      31.092  30.510  25.383  1.00  0.00     0.118 C 
BRANCH  27  28
ATOM     28  C   UNL A   1      31.082  31.909  26.008  1.00  0.00     0.042 C 
BRANCH  28  29
ATOM     29  C   UNL A   1      32.269  32.217  26.917  1.00  0.00     0.118 C 
BRANCH  29  30
ATOM     30  N   UNL A   1      32.326  33.622  27.287  1.00  0.00    -0.352 N 
ATOM     31  C   UNL A   1      33.116  34.277  28.197  1.00  0.00     0.251 C 
ATOM     32  H   UNL A   1      31.692  34.199  26.803  1.00  0.00     0.163 HD
ATOM     33  O   UNL A   1      32.817  35.430  28.504  1.00  0.00    -0.269 OA
BRANCH  31  34
ATOM     34  C   UNL A   1      34.306  33.638  28.810  1.00  0.00     0.039 A 
ATOM     35  C   UNL A   1      34.100  32.616  29.744  1.00  0.00     0.014 A 
ATOM     36  C   UNL A   1      35.606  34.083  28.554  1.00  0.00     0.014 A 
ATOM     37  C   UNL A   1      35.189  32.028  30.392  1.00  0.00     0.010 A 
ATOM     38  C   UNL A   1      36.698  33.443  29.146  1.00  0.00     0.010 A 
ATOM     39  C   UNL A   1      36.502  32.422  30.087  1.00  0.00    -0.014 A 
BRANCH  39  40
ATOM     40  C   UNL A   1      37.662  31.768  30.747  1.00  0.00     0.031 A 
ATOM     41  C   UNL A   1      38.477  30.726  30.025  1.00  0.00     0.074 A 
ATOM     42  C   UNL A   1      37.957  32.081  32.024  1.00  0.00     0.049 A 
ATOM     43  N   UNL A   1      39.536  30.075  30.438  1.00  0.00    -0.248 NA
ATOM     44  C   UNL A   1      38.037  30.346  28.673  1.00  0.00     0.031 C 
ATOM     45  C   UNL A   1      37.191  33.006  32.863  1.00  0.00     0.029 A 
ATOM     46  N   UNL A   1      38.967  31.649  32.847  1.00  0.00    -0.354 N 
ATOM     47  C   UNL A   1      39.867  29.192  29.418  1.00  0.00     0.074 A 
ATOM     48  C   UNL A   1      38.876  29.363  28.377  1.00  0.00     0.031 C 
ATOM     49  C   UNL A   1      37.766  33.084  34.074  1.00  0.00     0.029 A 
ATOM     50  C   UNL A   1      38.926  32.199  34.107  1.00  0.00     0.049 A 
ATOM     51  H   UNL A   1      39.655  31.005  32.561  1.00  0.00     0.167 HD
ATOM     52  C   UNL A   1      40.915  28.336  29.337  1.00  0.00     0.034 A 
ATOM     53  C   UNL A   1      39.735  32.016  35.169  1.00  0.00     0.034 A 
ATOM     54  C   UNL A   1      41.921  28.199  30.357  1.00  0.00     0.049 A 
ATOM     55  C   UNL A   1      40.928  31.111  35.030  1.00  0.00     0.074 A 
ATOM     56  C   UNL A   1      43.071  27.428  30.334  1.00  0.00     0.029 A 
ATOM     57  N   UNL A   1      41.896  28.840  31.586  1.00  0.00    -0.354 N 
ATOM     58  N   UNL A   1      41.318  30.413  33.991  1.00  0.00    -0.248 NA
ATOM     59  C   UNL A   1      41.817  31.003  36.196  1.00  0.00     0.031 C 
ATOM     60  C   UNL A   1      43.728  27.586  31.560  1.00  0.00     0.029 A 
ATOM     61  C   UNL A   1      43.004  28.477  32.334  1.00  0.00     0.049 A 
ATOM     62  H   UNL A   1      41.193  29.460  31.884  1.00  0.00     0.167 HD
ATOM     63  C   UNL A   1      42.513  29.810  34.365  1.00  0.00     0.074 A 
ATOM     64  C   UNL A   1      42.797  30.249  35.716  1.00  0.00     0.031 C 
ATOM     65  C   UNL A   1      43.298  28.956  33.660  1.00  0.00     0.034 A 
BRANCH  52  66
ATOM     66  C   UNL A   1      41.061  27.519  28.077  1.00  0.00     0.023 A 
ATOM     67  C   UNL A   1      41.601  28.116  26.919  1.00  0.00     0.012 A 
ATOM     68  C   UNL A   1      40.724  26.151  28.053  1.00  0.00     0.148 A 
ATOM     69  C   UNL A   1      41.769  27.377  25.748  1.00  0.00     0.002 A 
ATOM     70  C   UNL A   1      40.936  25.409  26.896  1.00  0.00     0.091 A 
ATOM     71  F   UNL A   1      40.194  25.603  29.156  1.00  0.00    -0.205 F 
ATOM     72  C   UNL A   1      41.446  26.024  25.740  1.00  0.00     0.022 A 
BRANCH  70  73
ATOM     73  S   UNL A   1      40.631  23.642  26.805  1.00  0.00     0.127 S 
ATOM     74  O   UNL A   1      39.199  23.604  26.508  1.00  0.00    -0.237 OA
ATOM     75  O   UNL A   1      41.493  23.237  25.694  1.00  0.00    -0.237 OA
ATOM     76  O   UNL A   1      41.014  23.100  28.101  1.00  0.00    -0.744 OA
ENDBRANCH  70  73
ENDBRANCH  52  66
BRANCH  53  77
ATOM     77  C   UNL A   1      39.485  32.769  36.430  1.00  0.00     0.023 A 
ATOM     78  C   UNL A   1      40.129  34.003  36.641  1.00  0.00     0.012 A 
ATOM     79  C   UNL A   1      38.591  32.286  37.405  1.00  0.00     0.148 A 
ATOM     80  C   UNL A   1      39.914  34.728  37.815  1.00  0.00     0.002 A 
ATOM     81  C   UNL A   1      38.338  33.040  38.546  1.00  0.00     0.091 A 
ATOM     82  F   UNL A   1      37.996  31.104  37.192  1.00  0.00    -0.205 F 
ATOM     83  C   UNL A   1      39.013  34.252  38.761  1.00  0.00     0.022 A 
BRANCH  81  84
ATOM     84  S   UNL A   1      37.091  32.569  39.750  1.00  0.00     0.127 S 
ATOM     85  O   UNL A   1      35.888  32.507  38.923  1.00  0.00    -0.237 OA
ATOM     86  O   UNL A   1      37.590  31.270  40.208  1.00  0.00    -0.237 OA
ATOM     87  O   UNL A   1      37.112  33.609  40.765  1.00  0.00    -0.744 OA
ENDBRANCH  81  84
ENDBRANCH  53  77
BRANCH  65  88
ATOM     88  C   UNL A   1      44.556  28.462  34.326  1.00  0.00     0.023 A 
ATOM     89  C   UNL A   1      45.751  29.199  34.203  1.00  0.00     0.012 A 
ATOM     90  C   UNL A   1      44.543  27.293  35.111  1.00  0.00     0.148 A 
ATOM     91  C   UNL A   1      46.923  28.755  34.815  1.00  0.00     0.002 A 
ATOM     92  C   UNL A   1      45.702  26.885  35.760  1.00  0.00     0.091 A 
ATOM     93  F   UNL A   1      43.402  26.593  35.201  1.00  0.00    -0.205 F 
ATOM     94  C   UNL A   1      46.896  27.606  35.602  1.00  0.00     0.022 A 
BRANCH  92  95
ATOM     95  S   UNL A   1      45.732  25.474  36.871  1.00  0.00     0.127 S 
ATOM     96  O   UNL A   1      44.655  25.805  37.803  1.00  0.00    -0.237 OA
ATOM     97  O   UNL A   1      45.436  24.359  35.970  1.00  0.00    -0.237 OA
ATOM     98  O   UNL A   1      47.071  25.445  37.444  1.00  0.00    -0.744 OA
ENDBRANCH  92  95
ENDBRANCH  65  88
ENDBRANCH  39  40
ENDBRANCH  31  34
ENDBRANCH  29  30
ENDBRANCH  28  29
ENDBRANCH  27  28
ENDBRANCH   3  27
TORSDOF 19
ENDMDL
MODEL 2
REMARK VINA RESULT:     -10.9      1.847      2.382
REMARK SMILES CCNC(=S)N/N=C\c1ccc(-c2ccc(C(=O)NCCCNC(=O)c3ccc(-c4c5nc(c(-c6cccc(S(=O)(=O)[O-])c6F)c6ccc([nH]6)c(-c6cccc(S(=O)(=O)[O-])c6F)c6nc(c(-c7cccc(S(=O)(=O)[O-])c7F)c7ccc4[nH]7)C=C6)C=C5)cc3)c(Cl)c2)o1
REMARK SMILES IDX 17 1 18 2 19 3 16 5 13 6 14 7 91 8 15 9 89 10 90 11 12 12
REMARK SMILES IDX 9 13 10 14 92 15 11 16 8 17 7 18 6 19 4 21 5 22 3 23 2 25
REMARK SMILES IDX 1 26 20 27 21 28 22 29 23 30 24 31 25 33 26 34 27 35 88 36
REMARK SMILES IDX 28 37 87 38 29 39 30 40 31 41 81 42 32 43 86 44 80 45 82 46
REMARK SMILES IDX 33 47 85 48 79 49 78 50 34 52 66 53 46 54 65 55 47 56 50 57
REMARK SMILES IDX 64 58 83 59 48 60 49 61 63 63 84 64 51 65 35 66 36 67 44 68
REMARK SMILES IDX 37 69 39 70 45 71 38 72 40 73 41 74 42 75 43 76 67 77 68 78
REMARK SMILES IDX 76 79 69 80 71 81 77 82 70 83 72 84 73 85 74 86 75 87 52 88
REMARK SMILES IDX 53 89 61 90 54 91 56 92 62 93 55 94 57 95 58 96 59 97 60 98
REMARK H PARENT 19 4 6 20 3 24 23 32 82 51 50 62
REMARK Flexibility Score: inf
ROOT
ATOM      1  C   UNL A   1      30.417  29.738  23.865  1.00  0.00     0.252 C 
ATOM      2  O   UNL A   1      29.875  30.116  22.818  1.00  0.00    -0.269 OA
ATOM      3  N   UNL A   1      30.765  30.755  24.704  1.00  0.00    -0.352 N 
ATOM      4  H   UNL A   1      30.560  31.637  24.317  1.00  0.00     0.163 HD
ENDROOT
BRANCH   1   5
ATOM      5  C   UNL A   1      30.552  28.257  24.065  1.00  0.00     0.058 A 
ATOM      6  C   UNL A   1      31.174  25.590  24.877  1.00  0.00     0.019 A 
ATOM      7  C   UNL A   1      32.132  26.582  24.994  1.00  0.00     0.013 A 
ATOM      8  C   UNL A   1      29.932  25.918  24.331  1.00  0.00     0.033 A 
ATOM      9  C   UNL A   1      31.824  27.885  24.582  1.00  0.00     0.016 A 
ATOM     10  C   UNL A   1      29.604  27.233  23.951  1.00  0.00     0.054 A 
ATOM     11  Cl  UNL A   1      27.954  27.388  23.510  1.00  0.00    -0.083 Cl
BRANCH   6  12
ATOM     12  C   UNL A   1      31.378  24.249  25.378  1.00  0.00     0.134 A 
ATOM     13  C   UNL A   1      32.461  22.828  26.640  1.00  0.00     0.147 A 
ATOM     14  C   UNL A   1      31.811  22.078  25.679  1.00  0.00     0.053 A 
ATOM     15  O   UNL A   1      32.136  24.147  26.503  1.00  0.00    -0.455 OA
ATOM     16  C   UNL A   1      31.102  22.999  24.870  1.00  0.00     0.051 A 
BRANCH  13  17
ATOM     17  C   UNL A   1      33.438  22.492  27.635  1.00  0.00     0.180 C 
ATOM     18  N   UNL A   1      34.442  21.669  27.512  1.00  0.00    -0.178 NA
BRANCH  18  19
ATOM     19  N   UNL A   1      34.682  21.101  26.293  1.00  0.00    -0.254 N 
ATOM     20  H   UNL A   1      34.128  20.319  26.074  1.00  0.00     0.193 HD
BRANCH  19  21
ATOM     21  C   UNL A   1      35.579  21.463  25.338  1.00  0.00     0.186 C 
ATOM     22  S   UNL A   1      36.825  20.411  24.967  1.00  0.00    -0.039 S 
BRANCH  21  23
ATOM     23  N   UNL A   1      35.539  22.649  24.693  1.00  0.00    -0.362 N 
ATOM     24  H   UNL A   1      34.775  22.768  24.083  1.00  0.00     0.162 HD
BRANCH  23  25
ATOM     25  C   UNL A   1      36.454  23.776  24.764  1.00  0.00     0.112 C 
ATOM     26  C   UNL A   1      37.244  23.764  26.060  1.00  0.00     0.027 C 
ENDBRANCH  23  25
ENDBRANCH  21  23
ENDBRANCH  19  21
ENDBRANCH  18  19
ENDBRANCH  13  17
ENDBRANCH   6  12
ENDBRANCH   1   5
BRANCH   3  27
ATOM     27  C   UNL A   1      31.361  30.869  26.020  1.00  0.00     0.118 C 
BRANCH  27  28
ATOM     28  C   UNL A   1      31.334  32.317  26.518  1.00  0.00     0.042 C 
BRANCH  28  29
ATOM     29  C   UNL A   1      32.636  32.805  27.150  1.00  0.00     0.118 C 
BRANCH  29  30
ATOM     30  N   UNL A   1      32.530  34.170  27.638  1.00  0.00    -0.352 N 
ATOM     31  C   UNL A   1      33.105  34.781  28.724  1.00  0.00     0.251 C 
ATOM     32  H   UNL A   1      31.949  34.754  27.098  1.00  0.00     0.163 HD
ATOM     33  O   UNL A   1      32.678  35.882  29.066  1.00  0.00    -0.269 OA
BRANCH  31  34
ATOM     34  C   UNL A   1      34.214  34.154  29.482  1.00  0.00     0.039 A 
ATOM     35  C   UNL A   1      35.516  34.292  28.985  1.00  0.00     0.014 A 
ATOM     36  C   UNL A   1      33.992  33.365  30.614  1.00  0.00     0.014 A 
ATOM     37  C   UNL A   1      36.584  33.667  29.632  1.00  0.00     0.010 A 
ATOM     38  C   UNL A   1      35.070  32.804  31.304  1.00  0.00     0.010 A 
ATOM     39  C   UNL A   1      36.376  32.931  30.810  1.00  0.00    -0.014 A 
BRANCH  39  40
ATOM     40  C   UNL A   1      37.519  32.300  31.521  1.00  0.00     0.031 A 
ATOM     41  C   UNL A   1      38.304  31.182  30.885  1.00  0.00     0.074 A 
ATOM     42  C   UNL A   1      37.825  32.706  32.769  1.00  0.00     0.049 A 
ATOM     43  N   UNL A   1      39.346  30.538  31.349  1.00  0.00    -0.248 NA
ATOM     44  C   UNL A   1      37.851  30.708  29.567  1.00  0.00     0.031 C 
ATOM     45  C   UNL A   1      37.086  33.715  33.531  1.00  0.00     0.029 A 
ATOM     46  N   UNL A   1      38.824  32.312  33.624  1.00  0.00    -0.354 N 
ATOM     47  C   UNL A   1      39.650  29.567  30.402  1.00  0.00     0.074 A 
ATOM     48  C   UNL A   1      38.662  29.682  29.351  1.00  0.00     0.031 C 
ATOM     49  C   UNL A   1      37.665  33.873  34.732  1.00  0.00     0.029 A 
ATOM     50  C   UNL A   1      38.800  32.962  34.836  1.00  0.00     0.049 A 
ATOM     51  H   UNL A   1      39.494  31.630  33.391  1.00  0.00     0.167 HD
ATOM     52  C   UNL A   1      40.675  28.679  30.390  1.00  0.00     0.034 A 
ATOM     53  C   UNL A   1      39.606  32.843  35.910  1.00  0.00     0.034 A 
ATOM     54  C   UNL A   1      41.678  28.596  31.418  1.00  0.00     0.049 A 
ATOM     55  C   UNL A   1      40.773  31.897  35.844  1.00  0.00     0.074 A 
ATOM     56  C   UNL A   1      42.807  27.795  31.457  1.00  0.00     0.029 A 
ATOM     57  N   UNL A   1      41.673  29.333  32.592  1.00  0.00    -0.354 N 
ATOM     58  N   UNL A   1      41.143  31.108  34.864  1.00  0.00    -0.248 NA
ATOM     59  C   UNL A   1      41.662  31.858  37.015  1.00  0.00     0.031 C 
ATOM     60  C   UNL A   1      43.471  28.032  32.666  1.00  0.00     0.029 A 
ATOM     61  C   UNL A   1      42.772  29.001  33.367  1.00  0.00     0.049 A 
ATOM     62  H   UNL A   1      40.988  29.994  32.839  1.00  0.00     0.167 HD
ATOM     63  C   UNL A   1      42.321  30.505  35.285  1.00  0.00     0.074 A 
ATOM     64  C   UNL A   1      42.619  31.042  36.597  1.00  0.00     0.031 C 
ATOM     65  C   UNL A   1      43.081  29.576  34.651  1.00  0.00     0.034 A 
BRANCH  52  66
ATOM     66  C   UNL A   1      40.796  27.760  29.200  1.00  0.00     0.023 A 
ATOM     67  C   UNL A   1      40.021  26.582  29.149  1.00  0.00     0.012 A 
ATOM     68  C   UNL A   1      41.623  28.087  28.107  1.00  0.00     0.148 A 
ATOM     69  C   UNL A   1      40.096  25.727  28.050  1.00  0.00     0.002 A 
ATOM     70  C   UNL A   1      41.657  27.253  26.994  1.00  0.00     0.091 A 
ATOM     71  F   UNL A   1      42.366  29.201  28.178  1.00  0.00    -0.205 F 
ATOM     72  C   UNL A   1      40.904  26.068  26.970  1.00  0.00     0.022 A 
BRANCH  70  73
ATOM     73  S   UNL A   1      42.603  27.641  25.518  1.00  0.00     0.127 S 
ATOM     74  O   UNL A   1      43.962  27.724  26.050  1.00  0.00    -0.237 OA
ATOM     75  O   UNL A   1      42.350  26.473  24.674  1.00  0.00    -0.237 OA
ATOM     76  O   UNL A   1      42.056  28.890  25.006  1.00  0.00    -0.744 OA
ENDBRANCH  70  73
ENDBRANCH  52  66
BRANCH  53  77
ATOM     77  C   UNL A   1      39.379  33.701  37.107  1.00  0.00     0.023 A 
ATOM     78  C   UNL A   1      39.822  35.037  37.098  1.00  0.00     0.012 A 
ATOM     79  C   UNL A   1      38.701  33.210  38.240  1.00  0.00     0.148 A 
ATOM     80  C   UNL A   1      39.624  35.861  38.207  1.00  0.00     0.002 A 
ATOM     81  C   UNL A   1      38.457  34.053  39.318  1.00  0.00     0.091 A 
ATOM     82  F   UNL A   1      38.297  31.932  38.235  1.00  0.00    -0.205 F 
ATOM     83  C   UNL A   1      38.933  35.373  39.311  1.00  0.00     0.022 A 
BRANCH  81  84
ATOM     84  S   UNL A   1      37.457  33.548  40.723  1.00  0.00     0.127 S 
ATOM     85  O   UNL A   1      38.312  32.542  41.350  1.00  0.00    -0.237 OA
ATOM     86  O   UNL A   1      37.335  34.802  41.471  1.00  0.00    -0.237 OA
ATOM     87  O   UNL A   1      36.208  33.062  40.162  1.00  0.00    -0.744 OA
ENDBRANCH  81  84
ENDBRANCH  53  77
BRANCH  65  88
ATOM     88  C   UNL A   1      44.327  29.102  35.354  1.00  0.00     0.023 A 
ATOM     89  C   UNL A   1      45.556  29.752  35.120  1.00  0.00     0.012 A 
ATOM     90  C   UNL A   1      44.271  28.044  36.282  1.00  0.00     0.148 A 
ATOM     91  C   UNL A   1      46.717  29.326  35.765  1.00  0.00     0.002 A 
ATOM     92  C   UNL A   1      45.422  27.660  36.960  1.00  0.00     0.091 A 
ATOM     93  F   UNL A   1      43.098  27.425  36.478  1.00  0.00    -0.205 F 
ATOM     94  C   UNL A   1      46.648  28.289  36.692  1.00  0.00     0.022 A 
BRANCH  92  95
ATOM     95  S   UNL A   1      45.403  26.401  38.241  1.00  0.00     0.127 S 
ATOM     96  O   UNL A   1      44.963  27.167  39.406  1.00  0.00    -0.237 OA
ATOM     97  O   UNL A   1      44.416  25.449  37.730  1.00  0.00    -0.237 OA
ATOM     98  O   UNL A   1      46.762  25.880  38.308  1.00  0.00    -0.744 OA
ENDBRANCH  92  95
ENDBRANCH  65  88
ENDBRANCH  39  40
ENDBRANCH  31  34
ENDBRANCH  29  30
ENDBRANCH  28  29
ENDBRANCH  27  28
ENDBRANCH   3  27
TORSDOF 19
ENDMDL
MODEL 3
REMARK VINA RESULT:     -10.7      2.027      2.354
REMARK SMILES CCNC(=S)N/N=C\c1ccc(-c2ccc(C(=O)NCCCNC(=O)c3ccc(-c4c5nc(c(-c6cccc(S(=O)(=O)[O-])c6F)c6ccc([nH]6)c(-c6cccc(S(=O)(=O)[O-])c6F)c6nc(c(-c7cccc(S(=O)(=O)[O-])c7F)c7ccc4[nH]7)C=C6)C=C5)cc3)c(Cl)c2)o1
REMARK SMILES IDX 17 1 18 2 19 3 16 5 13 6 14 7 91 8 15 9 89 10 90 11 12 12
REMARK SMILES IDX 9 13 10 14 92 15 11 16 8 17 7 18 6 19 4 21 5 22 3 23 2 25
REMARK SMILES IDX 1 26 20 27 21 28 22 29 23 30 24 31 25 33 26 34 27 35 88 36
REMARK SMILES IDX 28 37 87 38 29 39 30 40 31 41 81 42 32 43 86 44 80 45 82 46
REMARK SMILES IDX 33 47 85 48 79 49 78 50 34 52 66 53 46 54 65 55 47 56 50 57
REMARK SMILES IDX 64 58 83 59 48 60 49 61 63 63 84 64 51 65 35 66 36 67 44 68
REMARK SMILES IDX 37 69 39 70 45 71 38 72 40 73 41 74 42 75 43 76 67 77 68 78
REMARK SMILES IDX 76 79 69 80 71 81 77 82 70 83 72 84 73 85 74 86 75 87 52 88
REMARK SMILES IDX 53 89 61 90 54 91 56 92 62 93 55 94 57 95 58 96 59 97 60 98
REMARK H PARENT 19 4 6 20 3 24 23 32 82 51 50 62
REMARK Flexibility Score: inf
ROOT
ATOM      1  C   UNL A   1      30.368  29.878  23.938  1.00  0.00     0.252 C 
ATOM      2  O   UNL A   1      29.445  30.359  23.267  1.00  0.00    -0.269 OA
ATOM      3  N   UNL A   1      30.738  30.649  25.000  1.00  0.00    -0.352 N 
ATOM      4  H   UNL A   1      30.229  31.491  25.038  1.00  0.00     0.163 HD
ENDROOT
BRANCH   1   5
ATOM      5  C   UNL A   1      30.882  28.532  23.519  1.00  0.00     0.058 A 
ATOM      6  C   UNL A   1      32.347  26.133  23.008  1.00  0.00     0.019 A 
ATOM      7  C   UNL A   1      33.020  27.339  23.105  1.00  0.00     0.013 A 
ATOM      8  C   UNL A   1      30.957  26.130  23.131  1.00  0.00     0.033 A 
ATOM      9  C   UNL A   1      32.294  28.513  23.344  1.00  0.00     0.016 A 
ATOM     10  C   UNL A   1      30.226  27.300  23.410  1.00  0.00     0.054 A 
ATOM     11  Cl  UNL A   1      28.570  26.974  23.714  1.00  0.00    -0.083 Cl
BRANCH   6  12
ATOM     12  C   UNL A   1      33.033  24.868  22.870  1.00  0.00     0.134 A 
ATOM     13  C   UNL A   1      33.003  22.708  22.529  1.00  0.00     0.147 A 
ATOM     14  C   UNL A   1      34.212  22.989  23.136  1.00  0.00     0.053 A 
ATOM     15  O   UNL A   1      32.316  23.865  22.298  1.00  0.00    -0.455 OA
ATOM     16  C   UNL A   1      34.234  24.389  23.346  1.00  0.00     0.051 A 
BRANCH  13  17
ATOM     17  C   UNL A   1      32.342  21.476  22.210  1.00  0.00     0.180 C 
ATOM     18  N   UNL A   1      32.023  20.513  23.030  1.00  0.00    -0.178 NA
BRANCH  18  19
ATOM     19  N   UNL A   1      32.247  20.686  24.367  1.00  0.00    -0.254 N 
ATOM     20  H   UNL A   1      31.690  21.368  24.804  1.00  0.00     0.193 HD
BRANCH  19  21
ATOM     21  C   UNL A   1      33.130  20.048  25.179  1.00  0.00     0.186 C 
ATOM     22  S   UNL A   1      33.322  18.395  25.014  1.00  0.00    -0.039 S 
BRANCH  21  23
ATOM     23  N   UNL A   1      33.839  20.674  26.142  1.00  0.00    -0.362 N 
ATOM     24  H   UNL A   1      34.430  20.092  26.673  1.00  0.00     0.162 HD
BRANCH  23  25
ATOM     25  C   UNL A   1      33.861  22.080  26.514  1.00  0.00     0.112 C 
ATOM     26  C   UNL A   1      33.555  22.263  27.990  1.00  0.00     0.027 C 
ENDBRANCH  23  25
ENDBRANCH  21  23
ENDBRANCH  19  21
ENDBRANCH  18  19
ENDBRANCH  13  17
ENDBRANCH   6  12
ENDBRANCH   1   5
BRANCH   3  27
ATOM     27  C   UNL A   1      31.690  30.544  26.088  1.00  0.00     0.118 C 
BRANCH  27  28
ATOM     28  C   UNL A   1      31.665  31.797  26.970  1.00  0.00     0.042 C 
BRANCH  28  29
ATOM     29  C   UNL A   1      32.848  32.743  26.779  1.00  0.00     0.118 C 
BRANCH  29  30
ATOM     30  N   UNL A   1      32.645  34.016  27.450  1.00  0.00    -0.352 N 
ATOM     31  C   UNL A   1      33.177  34.510  28.614  1.00  0.00     0.251 C 
ATOM     32  H   UNL A   1      32.022  34.626  26.992  1.00  0.00     0.163 HD
ATOM     33  O   UNL A   1      32.672  35.519  29.103  1.00  0.00    -0.269 OA
BRANCH  31  34
ATOM     34  C   UNL A   1      34.331  33.865  29.287  1.00  0.00     0.039 A 
ATOM     35  C   UNL A   1      34.070  32.895  30.262  1.00  0.00     0.014 A 
ATOM     36  C   UNL A   1      35.650  34.257  29.045  1.00  0.00     0.014 A 
ATOM     37  C   UNL A   1      35.123  32.306  30.966  1.00  0.00     0.010 A 
ATOM     38  C   UNL A   1      36.707  33.613  29.695  1.00  0.00     0.010 A 
ATOM     39  C   UNL A   1      36.455  32.645  30.677  1.00  0.00    -0.014 A 
BRANCH  39  40
ATOM     40  C   UNL A   1      37.577  31.988  31.398  1.00  0.00     0.031 A 
ATOM     41  C   UNL A   1      38.369  30.881  30.752  1.00  0.00     0.074 A 
ATOM     42  C   UNL A   1      37.857  32.361  32.662  1.00  0.00     0.049 A 
ATOM     43  N   UNL A   1      39.395  30.218  31.223  1.00  0.00    -0.248 NA
ATOM     44  C   UNL A   1      37.943  30.443  29.413  1.00  0.00     0.031 C 
ATOM     45  C   UNL A   1      37.107  33.357  33.432  1.00  0.00     0.029 A 
ATOM     46  N   UNL A   1      38.834  31.940  33.529  1.00  0.00    -0.354 N 
ATOM     47  C   UNL A   1      39.715  29.268  30.260  1.00  0.00     0.074 A 
ATOM     48  C   UNL A   1      38.752  29.416  29.190  1.00  0.00     0.031 C 
ATOM     49  C   UNL A   1      37.660  33.481  34.650  1.00  0.00     0.029 A 
ATOM     50  C   UNL A   1      38.787  32.560  34.757  1.00  0.00     0.049 A 
ATOM     51  H   UNL A   1      39.504  31.258  33.295  1.00  0.00     0.167 HD
ATOM     52  C   UNL A   1      40.733  28.374  30.249  1.00  0.00     0.034 A 
ATOM     53  C   UNL A   1      39.567  32.408  35.845  1.00  0.00     0.034 A 
ATOM     54  C   UNL A   1      41.712  28.258  31.297  1.00  0.00     0.049 A 
ATOM     55  C   UNL A   1      40.729  31.455  35.782  1.00  0.00     0.074 A 
ATOM     56  C   UNL A   1      42.834  27.448  31.342  1.00  0.00     0.029 A 
ATOM     57  N   UNL A   1      41.685  28.966  32.489  1.00  0.00    -0.354 N 
ATOM     58  N   UNL A   1      41.115  30.688  34.791  1.00  0.00    -0.248 NA
ATOM     59  C   UNL A   1      41.590  31.380  36.971  1.00  0.00     0.031 C 
ATOM     60  C   UNL A   1      43.472  27.650  32.571  1.00  0.00     0.029 A 
ATOM     61  C   UNL A   1      42.764  28.607  33.280  1.00  0.00     0.049 A 
ATOM     62  H   UNL A   1      40.999  29.626  32.737  1.00  0.00     0.167 HD
ATOM     63  C   UNL A   1      42.280  30.065  35.224  1.00  0.00     0.074 A 
ATOM     64  C   UNL A   1      42.551  30.568  36.555  1.00  0.00     0.031 C 
ATOM     65  C   UNL A   1      43.047  29.147  34.584  1.00  0.00     0.034 A 
BRANCH  52  66
ATOM     66  C   UNL A   1      40.875  27.483  29.039  1.00  0.00     0.023 A 
ATOM     67  C   UNL A   1      40.069  26.331  28.926  1.00  0.00     0.012 A 
ATOM     68  C   UNL A   1      41.754  27.814  27.990  1.00  0.00     0.148 A 
ATOM     69  C   UNL A   1      40.163  25.503  27.807  1.00  0.00     0.002 A 
ATOM     70  C   UNL A   1      41.809  27.009  26.856  1.00  0.00     0.091 A 
ATOM     71  F   UNL A   1      42.526  28.902  28.121  1.00  0.00    -0.205 F 
ATOM     72  C   UNL A   1      41.023  25.848  26.770  1.00  0.00     0.022 A 
BRANCH  70  73
ATOM     73  S   UNL A   1      42.824  27.408  25.429  1.00  0.00     0.127 S 
ATOM     74  O   UNL A   1      44.123  27.658  26.051  1.00  0.00    -0.237 OA
ATOM     75  O   UNL A   1      42.751  26.175  24.646  1.00  0.00    -0.237 OA
ATOM     76  O   UNL A   1      42.199  28.565  24.802  1.00  0.00    -0.744 OA
ENDBRANCH  70  73
ENDBRANCH  52  66
BRANCH  53  77
ATOM     77  C   UNL A   1      39.318  33.237  37.058  1.00  0.00     0.023 A 
ATOM     78  C   UNL A   1      38.454  32.758  38.061  1.00  0.00     0.012 A 
ATOM     79  C   UNL A   1      39.954  34.481  37.236  1.00  0.00     0.148 A 
ATOM     80  C   UNL A   1      38.202  33.516  39.206  1.00  0.00     0.002 A 
ATOM     81  C   UNL A   1      39.742  35.205  38.404  1.00  0.00     0.091 A 
ATOM     82  F   UNL A   1      40.763  34.926  36.265  1.00  0.00    -0.205 F 
ATOM     83  C   UNL A   1      38.853  34.733  39.381  1.00  0.00     0.022 A 
BRANCH  81  84
ATOM     84  S   UNL A   1      40.644  36.714  38.774  1.00  0.00     0.127 S 
ATOM     85  O   UNL A   1      39.563  37.695  38.851  1.00  0.00    -0.237 OA
ATOM     86  O   UNL A   1      41.268  36.385  40.058  1.00  0.00    -0.237 OA
ATOM     87  O   UNL A   1      41.584  36.889  37.679  1.00  0.00    -0.744 OA
ENDBRANCH  81  84
ENDBRANCH  53  77
BRANCH  65  88
ATOM     88  C   UNL A   1      44.274  28.647  35.304  1.00  0.00     0.023 A 
ATOM     89  C   UNL A   1      45.518  29.272  35.088  1.00  0.00     0.012 A 
ATOM     90  C   UNL A   1      44.183  27.589  36.228  1.00  0.00     0.148 A 
ATOM     91  C   UNL A   1      46.661  28.821  35.747  1.00  0.00     0.002 A 
ATOM     92  C   UNL A   1      45.316  27.180  36.921  1.00  0.00     0.091 A 
ATOM     93  F   UNL A   1      42.995  26.993  36.408  1.00  0.00    -0.205 F 
ATOM     94  C   UNL A   1      46.559  27.785  36.672  1.00  0.00     0.022 A 
BRANCH  92  95
ATOM     95  S   UNL A   1      45.255  25.920  38.200  1.00  0.00     0.127 S 
ATOM     96  O   UNL A   1      44.905  24.728  37.428  1.00  0.00    -0.237 OA
ATOM     97  O   UNL A   1      46.623  25.930  38.717  1.00  0.00    -0.237 OA
ATOM     98  O   UNL A   1      44.248  26.368  39.153  1.00  0.00    -0.744 OA
ENDBRANCH  92  95
ENDBRANCH  65  88
ENDBRANCH  39  40
ENDBRANCH  31  34
ENDBRANCH  29  30
ENDBRANCH  28  29
ENDBRANCH  27  28
ENDBRANCH   3  27
TORSDOF 19
ENDMDL
