MODEL 1
REMARK VINA RESULT:     -11.4      0.000      0.000
REMARK SMILES CCC(CC)(CC)NC(=O)NC[C@@H]1CC[C@H](C(=O)NCCCNC(=O)c2ccc(-c3c4nc(c(-c5cccc(S(=O)(=O)[O-])c5F)c5ccc([nH]5)c(-c5cccc(S(=O)(=O)[O-])c5F)c5nc(c(-c6cccc(S(=O)(=O)[O-])c6F)c6ccc3[nH]6)C=C5)C=C4)cc2)O1
REMARK SMILES IDX 20 1 19 2 17 3 18 4 16 6 13 7 14 8 89 9 15 10 12 11 11 12
REMARK SMILES IDX 8 13 9 14 10 16 3 18 2 19 1 20 4 21 5 22 6 23 7 24 21 25
REMARK SMILES IDX 22 26 23 27 24 28 25 30 26 31 27 32 88 33 28 34 87 35 29 36
REMARK SMILES IDX 30 37 31 38 81 39 32 40 86 41 80 42 82 43 33 44 85 45 79 46
REMARK SMILES IDX 78 47 34 49 66 50 46 51 65 52 47 53 50 54 64 55 83 56 48 57
REMARK SMILES IDX 49 58 63 60 84 61 51 62 35 63 36 64 44 65 37 66 39 67 45 68
REMARK SMILES IDX 38 69 40 70 41 71 42 72 43 73 67 74 68 75 76 76 69 77 71 78
REMARK SMILES IDX 77 79 70 80 72 81 73 82 74 83 75 84 52 85 53 86 61 87 54 88
REMARK SMILES IDX 56 89 62 90 55 91 57 92 58 93 59 94 60 95
REMARK H PARENT 19 5 8 15 11 17 23 29 82 48 50 59
REMARK Flexibility Score: inf
ROOT
ATOM      1  C   UNL A   1      31.680  30.653  26.592  1.00  0.00     0.117 C 
ENDROOT
BRANCH   1   2
ATOM      2  N   UNL A   1      32.682  30.138  25.685  1.00  0.00    -0.354 N 
ATOM      3  C   UNL A   1      32.536  29.317  24.605  1.00  0.00     0.249 C 
ATOM      4  O   UNL A   1      33.547  29.045  23.950  1.00  0.00    -0.272 OA
ATOM      5  H   UNL A   1      33.605  30.422  25.875  1.00  0.00     0.163 HD
BRANCH   3   6
ATOM      6  C   UNL A   1      31.173  28.696  24.243  1.00  0.00     0.207 C 
ATOM      7  C   UNL A   1      30.315  26.589  23.746  1.00  0.00     0.138 C 
ATOM      8  C   UNL A   1      30.704  27.197  22.410  1.00  0.00     0.037 C 
ATOM      9  O   UNL A   1      30.951  27.385  24.749  1.00  0.00    -0.363 OA
ATOM     10  C   UNL A   1      30.916  28.660  22.741  1.00  0.00     0.045 C 
BRANCH   7  11
ATOM     11  C   UNL A   1      30.630  25.078  23.917  1.00  0.00     0.149 C 
BRANCH  11  12
ATOM     12  N   UNL A   1      30.349  24.483  25.235  1.00  0.00    -0.336 N 
ATOM     13  N   UNL A   1      31.985  22.989  26.151  1.00  0.00    -0.333 N 
ATOM     14  C   UNL A   1      30.870  23.713  26.182  1.00  0.00     0.315 C 
ATOM     15  H   UNL A   1      32.101  22.511  27.004  1.00  0.00     0.165 HD
ATOM     16  O   UNL A   1      30.222  23.643  27.235  1.00  0.00    -0.249 OA
ATOM     17  H   UNL A   1      29.446  24.756  25.514  1.00  0.00     0.165 HD
BRANCH  13  18
ATOM     18  C   UNL A   1      33.107  22.675  25.242  1.00  0.00     0.041 C 
BRANCH  18  19
ATOM     19  C   UNL A   1      32.616  22.097  23.905  1.00  0.00     0.025 C 
ATOM     20  C   UNL A   1      32.596  20.561  23.876  1.00  0.00     0.006 C 
ENDBRANCH  18  19
BRANCH  18  21
ATOM     21  C   UNL A   1      33.985  21.557  25.930  1.00  0.00     0.025 C 
ATOM     22  C   UNL A   1      35.499  21.779  25.851  1.00  0.00     0.006 C 
ENDBRANCH  18  21
BRANCH  18  23
ATOM     23  C   UNL A   1      34.028  23.926  25.066  1.00  0.00     0.025 C 
ATOM     24  C   UNL A   1      33.796  24.818  23.852  1.00  0.00     0.006 C 
ENDBRANCH  18  23
ENDBRANCH  13  18
ENDBRANCH  11  12
ENDBRANCH   7  11
ENDBRANCH   3   6
ENDBRANCH   1   2
BRANCH   1  25
ATOM     25  C   UNL A   1      31.624  32.172  26.574  1.00  0.00     0.042 C 
BRANCH  25  26
ATOM     26  C   UNL A   1      32.792  32.797  27.304  1.00  0.00     0.118 C 
BRANCH  26  27
ATOM     27  N   UNL A   1      32.517  34.179  27.677  1.00  0.00    -0.352 N 
ATOM     28  C   UNL A   1      33.079  34.951  28.667  1.00  0.00     0.251 C 
ATOM     29  H   UNL A   1      31.824  34.627  27.142  1.00  0.00     0.163 HD
ATOM     30  O   UNL A   1      32.602  36.045  28.926  1.00  0.00    -0.269 OA
BRANCH  28  31
ATOM     31  C   UNL A   1      34.238  34.437  29.429  1.00  0.00     0.039 A 
ATOM     32  C   UNL A   1      34.011  33.806  30.655  1.00  0.00     0.014 A 
ATOM     33  C   UNL A   1      35.537  34.561  28.935  1.00  0.00     0.014 A 
ATOM     34  C   UNL A   1      35.084  33.251  31.352  1.00  0.00     0.010 A 
ATOM     35  C   UNL A   1      36.581  33.900  29.564  1.00  0.00     0.010 A 
ATOM     36  C   UNL A   1      36.372  33.262  30.792  1.00  0.00    -0.014 A 
BRANCH  36  37
ATOM     37  C   UNL A   1      37.525  32.638  31.482  1.00  0.00     0.031 A 
ATOM     38  C   UNL A   1      38.254  31.493  30.832  1.00  0.00     0.074 A 
ATOM     39  C   UNL A   1      37.848  33.036  32.729  1.00  0.00     0.049 A 
ATOM     40  N   UNL A   1      39.232  30.765  31.304  1.00  0.00    -0.248 NA
ATOM     41  C   UNL A   1      37.802  31.084  29.490  1.00  0.00     0.031 C 
ATOM     42  C   UNL A   1      37.151  34.073  33.495  1.00  0.00     0.029 A 
ATOM     43  N   UNL A   1      38.827  32.598  33.582  1.00  0.00    -0.354 N 
ATOM     44  C   UNL A   1      39.476  29.792  30.344  1.00  0.00     0.074 A 
ATOM     45  C   UNL A   1      38.518  29.990  29.280  1.00  0.00     0.031 C 
ATOM     46  C   UNL A   1      37.731  34.196  34.698  1.00  0.00     0.029 A 
ATOM     47  C   UNL A   1      38.815  33.226  34.805  1.00  0.00     0.049 A 
ATOM     48  H   UNL A   1      39.478  31.899  33.341  1.00  0.00     0.167 HD
ATOM     49  C   UNL A   1      40.435  28.837  30.332  1.00  0.00     0.034 A 
ATOM     50  C   UNL A   1      39.586  33.033  35.893  1.00  0.00     0.034 A 
ATOM     51  C   UNL A   1      41.419  28.684  31.366  1.00  0.00     0.049 A 
ATOM     52  C   UNL A   1      40.682  32.006  35.828  1.00  0.00     0.074 A 
ATOM     53  C   UNL A   1      42.498  27.821  31.405  1.00  0.00     0.029 A 
ATOM     54  N   UNL A   1      41.438  29.407  32.548  1.00  0.00    -0.354 N 
ATOM     55  N   UNL A   1      41.004  31.204  34.841  1.00  0.00    -0.248 NA
ATOM     56  C   UNL A   1      41.547  31.881  37.010  1.00  0.00     0.031 C 
ATOM     57  C   UNL A   1      43.154  28.000  32.627  1.00  0.00     0.029 A 
ATOM     58  C   UNL A   1      42.504  29.002  33.333  1.00  0.00     0.049 A 
ATOM     59  H   UNL A   1      40.789  30.106  32.795  1.00  0.00     0.167 HD
ATOM     60  C   UNL A   1      42.127  30.507  35.269  1.00  0.00     0.074 A 
ATOM     61  C   UNL A   1      42.443  30.998  36.594  1.00  0.00     0.031 C 
ATOM     62  C   UNL A   1      42.829  29.539  34.628  1.00  0.00     0.034 A 
BRANCH  49  63
ATOM     63  C   UNL A   1      40.497  27.917  29.140  1.00  0.00     0.023 A 
ATOM     64  C   UNL A   1      39.598  26.834  29.043  1.00  0.00     0.012 A 
ATOM     65  C   UNL A   1      41.404  28.156  28.090  1.00  0.00     0.148 A 
ATOM     66  C   UNL A   1      39.626  25.983  27.939  1.00  0.00     0.002 A 
ATOM     67  C   UNL A   1      41.391  27.335  26.969  1.00  0.00     0.091 A 
ATOM     68  F   UNL A   1      42.267  29.176  28.210  1.00  0.00    -0.205 F 
ATOM     69  C   UNL A   1      40.513  26.241  26.898  1.00  0.00     0.022 A 
BRANCH  67  70
ATOM     70  S   UNL A   1      42.436  27.630  25.538  1.00  0.00     0.127 S 
ATOM     71  O   UNL A   1      42.190  26.429  24.741  1.00  0.00    -0.237 OA
ATOM     72  O   UNL A   1      41.860  28.856  24.987  1.00  0.00    -0.237 OA
ATOM     73  O   UNL A   1      43.792  27.771  26.051  1.00  0.00    -0.744 OA
ENDBRANCH  67  70
ENDBRANCH  49  63
BRANCH  50  74
ATOM     74  C   UNL A   1      39.383  33.871  37.108  1.00  0.00     0.023 A 
ATOM     75  C   UNL A   1      39.841  35.203  37.118  1.00  0.00     0.012 A 
ATOM     76  C   UNL A   1      38.717  33.367  38.241  1.00  0.00     0.148 A 
ATOM     77  C   UNL A   1      39.673  36.005  38.247  1.00  0.00     0.002 A 
ATOM     78  C   UNL A   1      38.499  34.189  39.341  1.00  0.00     0.091 A 
ATOM     79  F   UNL A   1      38.293  32.095  38.216  1.00  0.00    -0.205 F 
ATOM     80  C   UNL A   1      38.995  35.503  39.354  1.00  0.00     0.022 A 
BRANCH  78  81
ATOM     81  S   UNL A   1      37.516  33.669  40.751  1.00  0.00     0.127 S 
ATOM     82  O   UNL A   1      36.307  33.166  40.105  1.00  0.00    -0.237 OA
ATOM     83  O   UNL A   1      38.369  32.642  41.350  1.00  0.00    -0.237 OA
ATOM     84  O   UNL A   1      37.348  34.859  41.574  1.00  0.00    -0.744 OA
ENDBRANCH  78  81
ENDBRANCH  50  74
BRANCH  62  85
ATOM     85  C   UNL A   1      44.033  28.970  35.330  1.00  0.00     0.023 A 
ATOM     86  C   UNL A   1      45.287  29.597  35.197  1.00  0.00     0.012 A 
ATOM     87  C   UNL A   1      43.899  27.857  36.184  1.00  0.00     0.148 A 
ATOM     88  C   UNL A   1      46.399  29.103  35.877  1.00  0.00     0.002 A 
ATOM     89  C   UNL A   1      45.000  27.405  36.900  1.00  0.00     0.091 A 
ATOM     90  F   UNL A   1      42.700  27.266  36.283  1.00  0.00    -0.205 F 
ATOM     91  C   UNL A   1      46.254  28.017  36.738  1.00  0.00     0.022 A 
BRANCH  89  92
ATOM     92  S   UNL A   1      44.883  26.079  38.107  1.00  0.00     0.127 S 
ATOM     93  O   UNL A   1      46.259  26.000  38.595  1.00  0.00    -0.237 OA
ATOM     94  O   UNL A   1      43.924  26.621  39.069  1.00  0.00    -0.237 OA
ATOM     95  O   UNL A   1      44.411  24.910  37.376  1.00  0.00    -0.744 OA
ENDBRANCH  89  92
ENDBRANCH  62  85
ENDBRANCH  36  37
ENDBRANCH  28  31
ENDBRANCH  26  27
ENDBRANCH  25  26
ENDBRANCH   1  25
TORSDOF 19
ENDMDL
MODEL 2
REMARK VINA RESULT:     -11.3      6.289     11.630
REMARK SMILES CCC(CC)(CC)NC(=O)NC[C@@H]1CC[C@H](C(=O)NCCCNC(=O)c2ccc(-c3c4nc(c(-c5cccc(S(=O)(=O)[O-])c5F)c5ccc([nH]5)c(-c5cccc(S(=O)(=O)[O-])c5F)c5nc(c(-c6cccc(S(=O)(=O)[O-])c6F)c6ccc3[nH]6)C=C5)C=C4)cc2)O1
REMARK SMILES IDX 20 1 19 2 17 3 18 4 16 6 13 7 14 8 89 9 15 10 12 11 11 12
REMARK SMILES IDX 8 13 9 14 10 16 3 18 2 19 1 20 4 21 5 22 6 23 7 24 21 25
REMARK SMILES IDX 22 26 23 27 24 28 25 30 26 31 27 32 88 33 28 34 87 35 29 36
REMARK SMILES IDX 30 37 31 38 81 39 32 40 86 41 80 42 82 43 33 44 85 45 79 46
REMARK SMILES IDX 78 47 34 49 66 50 46 51 65 52 47 53 50 54 64 55 83 56 48 57
REMARK SMILES IDX 49 58 63 60 84 61 51 62 35 63 36 64 44 65 37 66 39 67 45 68
REMARK SMILES IDX 38 69 40 70 41 71 42 72 43 73 67 74 68 75 76 76 69 77 71 78
REMARK SMILES IDX 77 79 70 80 72 81 73 82 74 83 75 84 52 85 53 86 61 87 54 88
REMARK SMILES IDX 56 89 62 90 55 91 57 92 58 93 59 94 60 95
REMARK H PARENT 19 5 8 15 11 17 23 29 82 48 50 59
REMARK Flexibility Score: inf
ROOT
ATOM      1  C   UNL A   1      37.354  21.541  24.628  1.00  0.00     0.117 C 
ENDROOT
BRANCH   1   2
ATOM      2  N   UNL A   1      36.552  21.794  25.805  1.00  0.00    -0.354 N 
ATOM      3  C   UNL A   1      35.207  21.654  25.986  1.00  0.00     0.249 C 
ATOM      4  O   UNL A   1      34.751  21.893  27.109  1.00  0.00    -0.272 OA
ATOM      5  H   UNL A   1      37.051  22.113  26.591  1.00  0.00     0.163 HD
BRANCH   3   6
ATOM      6  C   UNL A   1      34.272  21.271  24.822  1.00  0.00     0.207 C 
ATOM      7  C   UNL A   1      32.231  21.972  23.948  1.00  0.00     0.138 C 
ATOM      8  C   UNL A   1      31.894  20.875  24.943  1.00  0.00     0.037 C 
ATOM      9  O   UNL A   1      33.580  22.358  24.219  1.00  0.00    -0.363 OA
ATOM     10  C   UNL A   1      33.236  20.225  25.211  1.00  0.00     0.045 C 
BRANCH   7  11
ATOM     11  C   UNL A   1      31.269  23.190  23.937  1.00  0.00     0.149 C 
BRANCH  11  12
ATOM     12  N   UNL A   1      30.684  23.590  25.229  1.00  0.00    -0.336 N 
ATOM     13  N   UNL A   1      30.891  25.888  25.879  1.00  0.00    -0.333 N 
ATOM     14  C   UNL A   1      30.451  24.640  26.007  1.00  0.00     0.315 C 
ATOM     15  H   UNL A   1      30.558  26.441  26.623  1.00  0.00     0.165 HD
ATOM     16  O   UNL A   1      29.739  24.427  26.998  1.00  0.00    -0.249 OA
ATOM     17  H   UNL A   1      30.342  22.784  25.679  1.00  0.00     0.165 HD
BRANCH  13  18
ATOM     18  C   UNL A   1      31.722  26.709  24.975  1.00  0.00     0.041 C 
BRANCH  18  19
ATOM     19  C   UNL A   1      31.850  28.158  25.471  1.00  0.00     0.025 C 
ATOM     20  C   UNL A   1      31.663  28.301  26.989  1.00  0.00     0.006 C 
ENDBRANCH  18  19
BRANCH  18  21
ATOM     21  C   UNL A   1      30.995  26.767  23.574  1.00  0.00     0.025 C 
ATOM     22  C   UNL A   1      29.637  27.476  23.575  1.00  0.00     0.006 C 
ENDBRANCH  18  21
BRANCH  18  23
ATOM     23  C   UNL A   1      33.105  26.019  24.737  1.00  0.00     0.025 C 
ATOM     24  C   UNL A   1      33.825  25.427  25.943  1.00  0.00     0.006 C 
ENDBRANCH  18  23
ENDBRANCH  13  18
ENDBRANCH  11  12
ENDBRANCH   7  11
ENDBRANCH   3   6
ENDBRANCH   1   2
BRANCH   1  25
ATOM     25  C   UNL A   1      38.100  20.221  24.721  1.00  0.00     0.042 C 
BRANCH  25  26
ATOM     26  C   UNL A   1      38.717  20.006  26.085  1.00  0.00     0.118 C 
BRANCH  26  27
ATOM     27  N   UNL A   1      39.922  19.188  26.008  1.00  0.00    -0.352 N 
ATOM     28  C   UNL A   1      41.244  19.560  26.092  1.00  0.00     0.251 C 
ATOM     29  H   UNL A   1      39.767  18.226  25.877  1.00  0.00     0.163 HD
ATOM     30  O   UNL A   1      42.119  18.744  25.847  1.00  0.00    -0.269 OA
BRANCH  28  31
ATOM     31  C   UNL A   1      41.594  20.953  26.447  1.00  0.00     0.039 A 
ATOM     32  C   UNL A   1      42.183  21.203  27.689  1.00  0.00     0.014 A 
ATOM     33  C   UNL A   1      41.359  22.003  25.558  1.00  0.00     0.014 A 
ATOM     34  C   UNL A   1      42.586  22.500  28.009  1.00  0.00     0.010 A 
ATOM     35  C   UNL A   1      41.873  23.262  25.825  1.00  0.00     0.010 A 
ATOM     36  C   UNL A   1      42.468  23.531  27.064  1.00  0.00    -0.014 A 
BRANCH  36  37
ATOM     37  C   UNL A   1      42.931  24.908  27.354  1.00  0.00     0.031 A 
ATOM     38  C   UNL A   1      41.996  25.887  28.012  1.00  0.00     0.074 A 
ATOM     39  C   UNL A   1      44.150  25.301  26.935  1.00  0.00     0.049 A 
ATOM     40  N   UNL A   1      42.183  27.153  28.277  1.00  0.00    -0.248 NA
ATOM     41  C   UNL A   1      40.660  25.391  28.389  1.00  0.00     0.031 C 
ATOM     42  C   UNL A   1      45.106  24.465  26.203  1.00  0.00     0.029 A 
ATOM     43  N   UNL A   1      44.785  26.512  27.041  1.00  0.00    -0.354 N 
ATOM     44  C   UNL A   1      40.981  27.610  28.803  1.00  0.00     0.074 A 
ATOM     45  C   UNL A   1      40.055  26.501  28.782  1.00  0.00     0.031 C 
ATOM     46  C   UNL A   1      46.206  25.185  25.936  1.00  0.00     0.029 A 
ATOM     47  C   UNL A   1      46.023  26.540  26.443  1.00  0.00     0.049 A 
ATOM     48  H   UNL A   1      44.392  27.288  27.503  1.00  0.00     0.167 HD
ATOM     49  C   UNL A   1      40.684  28.837  29.293  1.00  0.00     0.034 A 
ATOM     50  C   UNL A   1      46.905  27.549  26.310  1.00  0.00     0.034 A 
ATOM     51  C   UNL A   1      41.628  29.916  29.362  1.00  0.00     0.049 A 
ATOM     52  C   UNL A   1      46.571  28.884  26.917  1.00  0.00     0.074 A 
ATOM     53  C   UNL A   1      41.466  31.164  29.934  1.00  0.00     0.029 A 
ATOM     54  N   UNL A   1      42.910  29.877  28.837  1.00  0.00    -0.354 N 
ATOM     55  N   UNL A   1      45.489  29.250  27.560  1.00  0.00    -0.248 NA
ATOM     56  C   UNL A   1      47.595  29.935  26.814  1.00  0.00     0.031 C 
ATOM     57  C   UNL A   1      42.641  31.893  29.726  1.00  0.00     0.029 A 
ATOM     58  C   UNL A   1      43.548  31.085  29.058  1.00  0.00     0.049 A 
ATOM     59  H   UNL A   1      43.308  29.105  28.373  1.00  0.00     0.167 HD
ATOM     60  C   UNL A   1      45.715  30.559  27.970  1.00  0.00     0.074 A 
ATOM     61  C   UNL A   1      47.045  30.912  27.521  1.00  0.00     0.031 C 
ATOM     62  C   UNL A   1      44.891  31.398  28.646  1.00  0.00     0.034 A 
BRANCH  49  63
ATOM     63  C   UNL A   1      39.296  29.060  29.836  1.00  0.00     0.023 A 
ATOM     64  C   UNL A   1      38.988  28.663  31.155  1.00  0.00     0.012 A 
ATOM     65  C   UNL A   1      38.316  29.713  29.066  1.00  0.00     0.148 A 
ATOM     66  C   UNL A   1      37.716  28.879  31.683  1.00  0.00     0.002 A 
ATOM     67  C   UNL A   1      37.067  29.971  29.617  1.00  0.00     0.091 A 
ATOM     68  F   UNL A   1      38.620  30.063  27.807  1.00  0.00    -0.205 F 
ATOM     69  C   UNL A   1      36.761  29.544  30.919  1.00  0.00     0.022 A 
BRANCH  67  70
ATOM     70  S   UNL A   1      35.795  30.894  28.747  1.00  0.00     0.127 S 
ATOM     71  O   UNL A   1      35.008  31.430  29.857  1.00  0.00    -0.237 OA
ATOM     72  O   UNL A   1      36.582  31.890  28.020  1.00  0.00    -0.237 OA
ATOM     73  O   UNL A   1      35.104  29.928  27.902  1.00  0.00    -0.744 OA
ENDBRANCH  67  70
ENDBRANCH  49  63
BRANCH  50  74
ATOM     74  C   UNL A   1      48.207  27.315  25.625  1.00  0.00     0.023 A 
ATOM     75  C   UNL A   1      49.318  26.878  26.374  1.00  0.00     0.012 A 
ATOM     76  C   UNL A   1      48.347  27.496  24.236  1.00  0.00     0.148 A 
ATOM     77  C   UNL A   1      50.551  26.661  25.759  1.00  0.00     0.002 A 
ATOM     78  C   UNL A   1      49.562  27.222  23.620  1.00  0.00     0.091 A 
ATOM     79  F   UNL A   1      47.281  27.919  23.541  1.00  0.00    -0.205 F 
ATOM     80  C   UNL A   1      50.672  26.824  24.382  1.00  0.00     0.022 A 
BRANCH  78  81
ATOM     81  S   UNL A   1      49.768  27.271  21.836  1.00  0.00     0.127 S 
ATOM     82  O   UNL A   1      49.550  28.686  21.547  1.00  0.00    -0.237 OA
ATOM     83  O   UNL A   1      51.150  26.816  21.680  1.00  0.00    -0.237 OA
ATOM     84  O   UNL A   1      48.773  26.353  21.299  1.00  0.00    -0.744 OA
ENDBRANCH  78  81
ENDBRANCH  50  74
BRANCH  62  85
ATOM     85  C   UNL A   1      45.415  32.770  28.980  1.00  0.00     0.023 A 
ATOM     86  C   UNL A   1      46.139  32.976  30.170  1.00  0.00     0.012 A 
ATOM     87  C   UNL A   1      45.253  33.834  28.071  1.00  0.00     0.148 A 
ATOM     88  C   UNL A   1      46.664  34.232  30.469  1.00  0.00     0.002 A 
ATOM     89  C   UNL A   1      45.826  35.068  28.350  1.00  0.00     0.091 A 
ATOM     90  F   UNL A   1      44.546  33.619  26.953  1.00  0.00    -0.205 F 
ATOM     91  C   UNL A   1      46.520  35.273  29.554  1.00  0.00     0.022 A 
BRANCH  89  92
ATOM     92  S   UNL A   1      45.779  36.435  27.186  1.00  0.00     0.127 S 
ATOM     93  O   UNL A   1      44.342  36.677  27.070  1.00  0.00    -0.237 OA
ATOM     94  O   UNL A   1      46.518  37.476  27.902  1.00  0.00    -0.237 OA
ATOM     95  O   UNL A   1      46.432  35.955  25.975  1.00  0.00    -0.744 OA
ENDBRANCH  89  92
ENDBRANCH  62  85
ENDBRANCH  36  37
ENDBRANCH  28  31
ENDBRANCH  26  27
ENDBRANCH  25  26
ENDBRANCH   1  25
TORSDOF 19
ENDMDL
MODEL 3
REMARK VINA RESULT:     -11.3      1.594      1.901
REMARK SMILES CCC(CC)(CC)NC(=O)NC[C@@H]1CC[C@H](C(=O)NCCCNC(=O)c2ccc(-c3c4nc(c(-c5cccc(S(=O)(=O)[O-])c5F)c5ccc([nH]5)c(-c5cccc(S(=O)(=O)[O-])c5F)c5nc(c(-c6cccc(S(=O)(=O)[O-])c6F)c6ccc3[nH]6)C=C5)C=C4)cc2)O1
REMARK SMILES IDX 20 1 19 2 17 3 18 4 16 6 13 7 14 8 89 9 15 10 12 11 11 12
REMARK SMILES IDX 8 13 9 14 10 16 3 18 2 19 1 20 4 21 5 22 6 23 7 24 21 25
REMARK SMILES IDX 22 26 23 27 24 28 25 30 26 31 27 32 88 33 28 34 87 35 29 36
REMARK SMILES IDX 30 37 31 38 81 39 32 40 86 41 80 42 82 43 33 44 85 45 79 46
REMARK SMILES IDX 78 47 34 49 66 50 46 51 65 52 47 53 50 54 64 55 83 56 48 57
REMARK SMILES IDX 49 58 63 60 84 61 51 62 35 63 36 64 44 65 37 66 39 67 45 68
REMARK SMILES IDX 38 69 40 70 41 71 42 72 43 73 67 74 68 75 76 76 69 77 71 78
REMARK SMILES IDX 77 79 70 80 72 81 73 82 74 83 75 84 52 85 53 86 61 87 54 88
REMARK SMILES IDX 56 89 62 90 55 91 57 92 58 93 59 94 60 95
REMARK H PARENT 19 5 8 15 11 17 23 29 82 48 50 59
REMARK Flexibility Score: inf
ROOT
ATOM      1  C   UNL A   1      31.097  30.717  25.380  1.00  0.00     0.117 C 
ENDROOT
BRANCH   1   2
ATOM      2  N   UNL A   1      32.299  29.973  25.686  1.00  0.00    -0.354 N 
ATOM      3  C   UNL A   1      32.933  29.010  24.958  1.00  0.00     0.249 C 
ATOM      4  O   UNL A   1      33.983  28.543  25.413  1.00  0.00    -0.272 OA
ATOM      5  H   UNL A   1      32.721  30.195  26.547  1.00  0.00     0.163 HD
BRANCH   3   6
ATOM      6  C   UNL A   1      32.338  28.471  23.642  1.00  0.00     0.207 C 
ATOM      7  C   UNL A   1      31.841  26.403  22.694  1.00  0.00     0.138 C 
ATOM      8  C   UNL A   1      33.254  26.730  22.243  1.00  0.00     0.037 C 
ATOM      9  O   UNL A   1      31.548  27.295  23.772  1.00  0.00    -0.363 OA
ATOM     10  C   UNL A   1      33.395  28.200  22.579  1.00  0.00     0.045 C 
BRANCH   7  11
ATOM     11  C   UNL A   1      31.582  24.922  23.078  1.00  0.00     0.149 C 
BRANCH  11  12
ATOM     12  N   UNL A   1      31.143  24.658  24.459  1.00  0.00    -0.336 N 
ATOM     13  N   UNL A   1      32.571  23.318  25.842  1.00  0.00    -0.333 N 
ATOM     14  C   UNL A   1      31.518  24.093  25.600  1.00  0.00     0.315 C 
ATOM     15  H   UNL A   1      32.575  23.040  26.787  1.00  0.00     0.165 HD
ATOM     16  O   UNL A   1      30.779  24.302  26.572  1.00  0.00    -0.249 OA
ATOM     17  H   UNL A   1      30.243  25.038  24.579  1.00  0.00     0.165 HD
BRANCH  13  18
ATOM     18  C   UNL A   1      33.738  22.742  25.143  1.00  0.00     0.041 C 
BRANCH  18  19
ATOM     19  C   UNL A   1      33.319  21.711  24.083  1.00  0.00     0.025 C 
ATOM     20  C   UNL A   1      32.155  20.814  24.530  1.00  0.00     0.006 C 
ENDBRANCH  18  19
BRANCH  18  21
ATOM     21  C   UNL A   1      34.607  21.971  26.213  1.00  0.00     0.025 C 
ATOM     22  C   UNL A   1      34.016  21.934  27.626  1.00  0.00     0.006 C 
ENDBRANCH  18  21
BRANCH  18  23
ATOM     23  C   UNL A   1      34.640  23.881  24.566  1.00  0.00     0.025 C 
ATOM     24  C   UNL A   1      34.778  25.163  25.380  1.00  0.00     0.006 C 
ENDBRANCH  18  23
ENDBRANCH  13  18
ENDBRANCH  11  12
ENDBRANCH   7  11
ENDBRANCH   3   6
ENDBRANCH   1   2
BRANCH   1  25
ATOM     25  C   UNL A   1      30.987  31.985  26.210  1.00  0.00     0.042 C 
BRANCH  25  26
ATOM     26  C   UNL A   1      32.314  32.395  26.809  1.00  0.00     0.118 C 
BRANCH  26  27
ATOM     27  N   UNL A   1      32.295  33.781  27.263  1.00  0.00    -0.352 N 
ATOM     28  C   UNL A   1      33.094  34.415  28.186  1.00  0.00     0.251 C 
ATOM     29  H   UNL A   1      31.607  34.348  26.846  1.00  0.00     0.163 HD
ATOM     30  O   UNL A   1      32.820  35.550  28.545  1.00  0.00    -0.269 OA
BRANCH  28  31
ATOM     31  C   UNL A   1      34.260  33.707  28.757  1.00  0.00     0.039 A 
ATOM     32  C   UNL A   1      35.538  34.227  28.538  1.00  0.00     0.014 A 
ATOM     33  C   UNL A   1      34.096  32.548  29.517  1.00  0.00     0.014 A 
ATOM     34  C   UNL A   1      36.641  33.613  29.131  1.00  0.00     0.010 A 
ATOM     35  C   UNL A   1      35.175  32.015  30.207  1.00  0.00     0.010 A 
ATOM     36  C   UNL A   1      36.462  32.525  30.000  1.00  0.00    -0.014 A 
BRANCH  36  37
ATOM     37  C   UNL A   1      37.608  31.881  30.685  1.00  0.00     0.031 A 
ATOM     38  C   UNL A   1      38.402  30.819  29.973  1.00  0.00     0.074 A 
ATOM     39  C   UNL A   1      37.865  32.180  31.974  1.00  0.00     0.049 A 
ATOM     40  N   UNL A   1      39.384  30.084  30.423  1.00  0.00    -0.248 NA
ATOM     41  C   UNL A   1      38.020  30.513  28.582  1.00  0.00     0.031 C 
ATOM     42  C   UNL A   1      37.102  33.125  32.794  1.00  0.00     0.029 A 
ATOM     43  N   UNL A   1      38.823  31.700  32.828  1.00  0.00    -0.354 N 
ATOM     44  C   UNL A   1      39.701  29.205  29.395  1.00  0.00     0.074 A 
ATOM     45  C   UNL A   1      38.781  29.464  28.312  1.00  0.00     0.031 C 
ATOM     46  C   UNL A   1      37.628  33.162  34.027  1.00  0.00     0.029 A 
ATOM     47  C   UNL A   1      38.739  32.220  34.098  1.00  0.00     0.049 A 
ATOM     48  H   UNL A   1      39.508  31.045  32.558  1.00  0.00     0.167 HD
ATOM     49  C   UNL A   1      40.693  28.285  29.345  1.00  0.00     0.034 A 
ATOM     50  C   UNL A   1      39.471  31.958  35.199  1.00  0.00     0.034 A 
ATOM     51  C   UNL A   1      41.637  28.074  30.404  1.00  0.00     0.049 A 
ATOM     52  C   UNL A   1      40.604  30.975  35.095  1.00  0.00     0.074 A 
ATOM     53  C   UNL A   1      42.744  27.245  30.417  1.00  0.00     0.029 A 
ATOM     54  N   UNL A   1      41.584  28.693  31.643  1.00  0.00    -0.354 N 
ATOM     55  N   UNL A   1      40.993  30.272  34.059  1.00  0.00    -0.248 NA
ATOM     56  C   UNL A   1      41.424  30.776  36.299  1.00  0.00     0.031 C 
ATOM     57  C   UNL A   1      43.342  27.339  31.677  1.00  0.00     0.029 A 
ATOM     58  C   UNL A   1      42.630  28.255  32.436  1.00  0.00     0.049 A 
ATOM     59  H   UNL A   1      40.901  29.347  31.919  1.00  0.00     0.167 HD
ATOM     60  C   UNL A   1      42.122  29.575  34.474  1.00  0.00     0.074 A 
ATOM     61  C   UNL A   1      42.366  29.960  35.849  1.00  0.00     0.031 C 
ATOM     62  C   UNL A   1      42.882  28.689  33.785  1.00  0.00     0.034 A 
BRANCH  49  63
ATOM     63  C   UNL A   1      40.835  27.473  28.083  1.00  0.00     0.023 A 
ATOM     64  C   UNL A   1      41.435  28.049  26.943  1.00  0.00     0.012 A 
ATOM     65  C   UNL A   1      40.428  26.126  28.042  1.00  0.00     0.148 A 
ATOM     66  C   UNL A   1      41.595  27.308  25.773  1.00  0.00     0.002 A 
ATOM     67  C   UNL A   1      40.637  25.379  26.889  1.00  0.00     0.091 A 
ATOM     68  F   UNL A   1      39.839  25.603  29.127  1.00  0.00    -0.205 F 
ATOM     69  C   UNL A   1      41.207  25.971  25.751  1.00  0.00     0.022 A 
BRANCH  67  70
ATOM     70  S   UNL A   1      40.251  23.628  26.785  1.00  0.00     0.127 S 
ATOM     71  O   UNL A   1      40.349  23.220  28.185  1.00  0.00    -0.237 OA
ATOM     72  O   UNL A   1      38.890  23.647  26.249  1.00  0.00    -0.237 OA
ATOM     73  O   UNL A   1      41.248  23.048  25.895  1.00  0.00    -0.744 OA
ENDBRANCH  67  70
ENDBRANCH  49  63
BRANCH  50  74
ATOM     74  C   UNL A   1      39.190  32.682  36.471  1.00  0.00     0.023 A 
ATOM     75  C   UNL A   1      39.780  33.941  36.699  1.00  0.00     0.012 A 
ATOM     76  C   UNL A   1      38.323  32.145  37.441  1.00  0.00     0.148 A 
ATOM     77  C   UNL A   1      39.540  34.634  37.886  1.00  0.00     0.002 A 
ATOM     78  C   UNL A   1      38.042  32.867  38.595  1.00  0.00     0.091 A 
ATOM     79  F   UNL A   1      37.776  30.943  37.209  1.00  0.00    -0.205 F 
ATOM     80  C   UNL A   1      38.666  34.103  38.830  1.00  0.00     0.022 A 
BRANCH  78  81
ATOM     81  S   UNL A   1      36.823  32.323  39.797  1.00  0.00     0.127 S 
ATOM     82  O   UNL A   1      35.594  32.343  39.008  1.00  0.00    -0.237 OA
ATOM     83  O   UNL A   1      37.313  30.988  40.141  1.00  0.00    -0.237 OA
ATOM     84  O   UNL A   1      36.890  33.285  40.889  1.00  0.00    -0.744 OA
ENDBRANCH  78  81
ENDBRANCH  50  74
BRANCH  62  85
ATOM     85  C   UNL A   1      44.076  28.099  34.489  1.00  0.00     0.023 A 
ATOM     86  C   UNL A   1      45.325  28.745  34.418  1.00  0.00     0.012 A 
ATOM     87  C   UNL A   1      43.935  26.944  35.284  1.00  0.00     0.148 A 
ATOM     88  C   UNL A   1      46.426  28.231  35.100  1.00  0.00     0.002 A 
ATOM     89  C   UNL A   1      45.023  26.469  36.003  1.00  0.00     0.091 A 
ATOM     90  F   UNL A   1      42.741  26.336  35.323  1.00  0.00    -0.205 F 
ATOM     91  C   UNL A   1      46.273  27.102  35.903  1.00  0.00     0.022 A 
BRANCH  89  92
ATOM     92  S   UNL A   1      44.893  25.084  37.141  1.00  0.00     0.127 S 
ATOM     93  O   UNL A   1      46.256  25.000  37.663  1.00  0.00    -0.237 OA
ATOM     94  O   UNL A   1      43.900  25.566  38.101  1.00  0.00    -0.237 OA
ATOM     95  O   UNL A   1      44.459  23.947  36.341  1.00  0.00    -0.744 OA
ENDBRANCH  89  92
ENDBRANCH  62  85
ENDBRANCH  36  37
ENDBRANCH  28  31
ENDBRANCH  26  27
ENDBRANCH  25  26
ENDBRANCH   1  25
TORSDOF 19
ENDMDL
