MODEL 1
REMARK VINA RESULT:     -13.1      0.000      0.000
REMARK SMILES O=C(NCCCNC(=O)c1cc2c(c(S(=O)(=O)Nc3cc(C(F)(F)F)ccc3-n3cccn3)c1)CCC2)c1ccc(-c2c3nc(c(-c4cccc(S(=O)(=O)[O-])c4F)c4ccc([nH]4)c(-c4cccc(S(=O)(=O)[O-])c4F)c4nc(c(-c5cccc(S(=O)(=O)[O-])c5F)c5ccc2[nH]5)C=C4)C=C3)cc1
REMARK SMILES IDX 5 1 4 2 3 3 1 4 2 5 38 7 39 8 100 9 40 10 99 11 41 12 42 13
REMARK SMILES IDX 43 14 93 15 44 16 98 17 92 18 94 19 45 20 97 21 91 22 90 23
REMARK SMILES IDX 46 25 78 26 58 27 77 28 59 29 62 30 76 31 95 32 60 33 61 34
REMARK SMILES IDX 75 36 96 37 63 38 47 39 48 40 56 41 49 42 51 43 57 44 50 45
REMARK SMILES IDX 52 46 53 47 54 48 55 49 79 50 80 51 88 52 81 53 83 54 89 55
REMARK SMILES IDX 82 56 84 57 85 58 86 59 87 60 64 61 65 62 73 63 66 64 68 65
REMARK SMILES IDX 74 66 67 67 69 68 70 69 71 70 72 71 6 72 7 73 8 74 9 76
REMARK SMILES IDX 10 77 11 78 34 79 12 80 14 81 13 82 37 83 35 84 36 85 15 86
REMARK SMILES IDX 16 87 17 88 18 89 19 91 20 92 28 93 21 94 27 95 26 96 29 97
REMARK SMILES IDX 30 98 33 99 31 100 32 101 22 102 23 103 24 104 25 105
REMARK H PARENT 3 6 94 24 62 35 7 75 18 90
REMARK Flexibility Score: inf
ROOT
ATOM      1  C   UNL A   1      33.750  31.206  27.328  1.00  0.00     0.042 C 
ENDROOT
BRANCH   1   2
ATOM      2  C   UNL A   1      34.967  32.048  27.694  1.00  0.00     0.118 C 
BRANCH   2   3
ATOM      3  N   UNL A   1      34.996  32.523  29.064  1.00  0.00    -0.352 N 
ATOM      4  O   UNL A   1      35.563  33.050  31.126  1.00  0.00    -0.269 OA
ATOM      5  C   UNL A   1      35.862  32.406  30.118  1.00  0.00     0.251 C 
ATOM      6  H   UNL A   1      34.201  33.058  29.291  1.00  0.00     0.163 HD
BRANCH   5   7
ATOM      7  C   UNL A   1      37.075  31.542  30.148  1.00  0.00     0.039 A 
ATOM      8  C   UNL A   1      37.079  30.149  30.204  1.00  0.00     0.014 A 
ATOM      9  C   UNL A   1      38.313  32.213  30.097  1.00  0.00     0.014 A 
ATOM     10  C   UNL A   1      38.282  29.443  30.273  1.00  0.00     0.010 A 
ATOM     11  C   UNL A   1      39.518  31.515  30.144  1.00  0.00     0.010 A 
ATOM     12  C   UNL A   1      39.501  30.126  30.252  1.00  0.00    -0.014 A 
BRANCH  12  13
ATOM     13  C   UNL A   1      40.737  29.342  30.216  1.00  0.00     0.031 A 
ATOM     14  C   UNL A   1      41.328  28.979  31.539  1.00  0.00     0.074 A 
ATOM     15  C   UNL A   1      41.241  28.795  29.092  1.00  0.00     0.049 A 
ATOM     16  N   UNL A   1      42.514  29.237  31.988  1.00  0.00    -0.248 NA
ATOM     17  C   UNL A   1      40.464  28.277  32.500  1.00  0.00     0.031 C 
ATOM     18  C   UNL A   1      40.609  28.739  27.772  1.00  0.00     0.029 A 
ATOM     19  N   UNL A   1      42.364  28.029  28.939  1.00  0.00    -0.354 N 
ATOM     20  C   UNL A   1      42.614  28.573  33.213  1.00  0.00     0.074 A 
ATOM     21  C   UNL A   1      41.290  28.106  33.532  1.00  0.00     0.031 C 
ATOM     22  C   UNL A   1      41.217  27.782  27.037  1.00  0.00     0.029 A 
ATOM     23  C   UNL A   1      42.347  27.256  27.785  1.00  0.00     0.049 A 
ATOM     24  H   UNL A   1      43.109  28.026  29.582  1.00  0.00     0.167 HD
ATOM     25  C   UNL A   1      43.810  28.287  33.800  1.00  0.00     0.034 A 
ATOM     26  C   UNL A   1      43.145  26.199  27.502  1.00  0.00     0.034 A 
ATOM     27  C   UNL A   1      44.897  29.020  33.215  1.00  0.00     0.049 A 
ATOM     28  C   UNL A   1      44.334  26.268  28.379  1.00  0.00     0.074 A 
ATOM     29  C   UNL A   1      45.225  30.350  33.056  1.00  0.00     0.029 A 
ATOM     30  N   UNL A   1      45.760  28.319  32.409  1.00  0.00    -0.354 N 
ATOM     31  N   UNL A   1      45.273  27.164  28.275  1.00  0.00    -0.248 NA
ATOM     32  C   UNL A   1      44.331  25.506  29.617  1.00  0.00     0.031 C 
ATOM     33  C   UNL A   1      45.948  30.407  31.829  1.00  0.00     0.029 A 
ATOM     34  C   UNL A   1      46.022  29.107  31.324  1.00  0.00     0.049 A 
ATOM     35  H   UNL A   1      46.121  27.419  32.582  1.00  0.00     0.167 HD
ATOM     36  C   UNL A   1      45.697  27.378  29.578  1.00  0.00     0.074 A 
ATOM     37  C   UNL A   1      45.190  26.236  30.332  1.00  0.00     0.031 C 
ATOM     38  C   UNL A   1      46.161  28.599  29.977  1.00  0.00     0.034 A 
BRANCH  25  39
ATOM     39  C   UNL A   1      44.081  27.116  34.716  1.00  0.00     0.023 A 
ATOM     40  C   UNL A   1      44.677  27.391  35.970  1.00  0.00     0.012 A 
ATOM     41  C   UNL A   1      44.044  25.765  34.308  1.00  0.00     0.148 A 
ATOM     42  C   UNL A   1      45.249  26.382  36.753  1.00  0.00     0.002 A 
ATOM     43  C   UNL A   1      44.540  24.756  35.128  1.00  0.00     0.091 A 
ATOM     44  F   UNL A   1      43.652  25.455  33.067  1.00  0.00    -0.205 F 
ATOM     45  C   UNL A   1      45.171  25.060  36.336  1.00  0.00     0.022 A 
BRANCH  43  46
ATOM     46  S   UNL A   1      44.400  23.026  34.665  1.00  0.00     0.127 S 
ATOM     47  O   UNL A   1      42.952  22.856  34.598  1.00  0.00    -0.237 OA
ATOM     48  O   UNL A   1      45.087  23.001  33.372  1.00  0.00    -0.237 OA
ATOM     49  O   UNL A   1      45.092  22.297  35.719  1.00  0.00    -0.744 OA
ENDBRANCH  43  46
ENDBRANCH  25  39
BRANCH  26  50
ATOM     50  C   UNL A   1      42.866  25.011  26.665  1.00  0.00     0.023 A 
ATOM     51  C   UNL A   1      43.742  24.675  25.615  1.00  0.00     0.012 A 
ATOM     52  C   UNL A   1      41.888  24.065  27.045  1.00  0.00     0.148 A 
ATOM     53  C   UNL A   1      43.660  23.431  24.978  1.00  0.00     0.002 A 
ATOM     54  C   UNL A   1      41.800  22.836  26.399  1.00  0.00     0.091 A 
ATOM     55  F   UNL A   1      41.106  24.332  28.101  1.00  0.00    -0.205 F 
ATOM     56  C   UNL A   1      42.693  22.511  25.372  1.00  0.00     0.022 A 
BRANCH  54  57
ATOM     57  S   UNL A   1      40.575  21.604  26.861  1.00  0.00     0.127 S 
ATOM     58  O   UNL A   1      39.323  22.261  26.484  1.00  0.00    -0.237 OA
ATOM     59  O   UNL A   1      40.951  20.473  26.018  1.00  0.00    -0.237 OA
ATOM     60  O   UNL A   1      40.735  21.409  28.297  1.00  0.00    -0.744 OA
ENDBRANCH  54  57
ENDBRANCH  26  50
BRANCH  38  61
ATOM     61  C   UNL A   1      46.517  29.614  28.921  1.00  0.00     0.023 A 
ATOM     62  C   UNL A   1      47.807  29.675  28.356  1.00  0.00     0.012 A 
ATOM     63  C   UNL A   1      45.490  30.391  28.356  1.00  0.00     0.148 A 
ATOM     64  C   UNL A   1      48.077  30.514  27.274  1.00  0.00     0.002 A 
ATOM     65  C   UNL A   1      45.750  31.187  27.246  1.00  0.00     0.091 A 
ATOM     66  F   UNL A   1      44.265  30.318  28.897  1.00  0.00    -0.205 F 
ATOM     67  C   UNL A   1      47.045  31.259  26.709  1.00  0.00     0.022 A 
BRANCH  65  68
ATOM     68  S   UNL A   1      44.435  32.056  26.387  1.00  0.00     0.127 S 
ATOM     69  O   UNL A   1      43.466  30.989  26.152  1.00  0.00    -0.237 OA
ATOM     70  O   UNL A   1      44.018  33.055  27.374  1.00  0.00    -0.237 OA
ATOM     71  O   UNL A   1      45.050  32.626  25.195  1.00  0.00    -0.744 OA
ENDBRANCH  65  68
ENDBRANCH  38  61
ENDBRANCH  12  13
ENDBRANCH   5   7
ENDBRANCH   2   3
ENDBRANCH   1   2
BRANCH   1  72
ATOM     72  C   UNL A   1      34.028  29.715  27.150  1.00  0.00     0.118 C 
BRANCH  72  73
ATOM     73  N   UNL A   1      32.934  28.846  27.593  1.00  0.00    -0.352 N 
ATOM     74  C   UNL A   1      32.407  27.700  27.026  1.00  0.00     0.251 C 
ATOM     75  H   UNL A   1      32.502  29.124  28.433  1.00  0.00     0.163 HD
ATOM     76  O   UNL A   1      31.426  27.155  27.523  1.00  0.00    -0.269 OA
BRANCH  74  77
ATOM     77  C   UNL A   1      33.007  27.147  25.790  1.00  0.00     0.041 A 
ATOM     78  C   UNL A   1      32.535  27.587  24.556  1.00  0.00     0.018 A 
ATOM     79  C   UNL A   1      33.942  26.093  25.878  1.00  0.00     0.036 A 
ATOM     80  C   UNL A   1      32.782  26.782  23.465  1.00  0.00    -0.043 A 
ATOM     81  C   UNL A   1      34.254  25.319  24.740  1.00  0.00     0.092 A 
ATOM     82  C   UNL A   1      33.555  25.611  23.572  1.00  0.00    -0.024 A 
ATOM     83  C   UNL A   1      32.123  26.898  22.123  1.00  0.00     0.036 C 
ATOM     84  C   UNL A   1      33.274  24.772  22.362  1.00  0.00     0.037 C 
ATOM     85  C   UNL A   1      32.901  25.846  21.337  1.00  0.00     0.010 C 
BRANCH  81  86
ATOM     86  S   UNL A   1      35.256  23.860  24.943  1.00  0.00     0.262 S 
ATOM     87  O   UNL A   1      35.380  23.239  23.647  1.00  0.00    -0.201 OA
ATOM     88  O   UNL A   1      36.452  24.241  25.679  1.00  0.00    -0.201 OA
BRANCH  86  89
ATOM     89  N   UNL A   1      34.469  22.666  25.885  1.00  0.00    -0.277 N 
ATOM     90  H   UNL A   1      34.427  22.778  26.863  1.00  0.00     0.180 HD
BRANCH  89  91
ATOM     91  C   UNL A   1      33.870  21.506  25.290  1.00  0.00     0.075 A 
ATOM     92  C   UNL A   1      34.676  20.387  25.021  1.00  0.00     0.042 A 
ATOM     93  C   UNL A   1      32.482  21.417  25.095  1.00  0.00     0.089 A 
ATOM     94  C   UNL A   1      34.103  19.163  24.613  1.00  0.00     0.058 A 
ATOM     95  C   UNL A   1      31.909  20.208  24.669  1.00  0.00     0.031 A 
ATOM     96  C   UNL A   1      32.715  19.092  24.426  1.00  0.00     0.015 A 
BRANCH  93  97
ATOM     97  N   UNL A   1      31.624  22.511  25.373  1.00  0.00    -0.239 N 
ATOM     98  C   UNL A   1      30.964  23.327  24.478  1.00  0.00     0.115 A 
ATOM     99  N   UNL A   1      31.423  22.926  26.650  1.00  0.00    -0.177 NA
ATOM    100  C   UNL A   1      30.533  24.423  25.181  1.00  0.00     0.042 A 
ATOM    101  C   UNL A   1      30.878  24.138  26.511  1.00  0.00     0.135 A 
ENDBRANCH  93  97
BRANCH  94 102
ATOM    102  C   UNL A   1      34.966  17.930  24.451  1.00  0.00     0.416 C 
ATOM    103  F   UNL A   1      34.627  16.945  25.327  1.00  0.00    -0.166 F 
ATOM    104  F   UNL A   1      34.869  17.387  23.209  1.00  0.00    -0.166 F 
ATOM    105  F   UNL A   1      36.293  18.170  24.653  1.00  0.00    -0.166 F 
ENDBRANCH  94 102
ENDBRANCH  89  91
ENDBRANCH  86  89
ENDBRANCH  81  86
ENDBRANCH  74  77
ENDBRANCH  72  73
ENDBRANCH   1  72
TORSDOF 18
ENDMDL
MODEL 2
REMARK VINA RESULT:     -12.9      4.024      9.164
REMARK SMILES O=C(NCCCNC(=O)c1cc2c(c(S(=O)(=O)Nc3cc(C(F)(F)F)ccc3-n3cccn3)c1)CCC2)c1ccc(-c2c3nc(c(-c4cccc(S(=O)(=O)[O-])c4F)c4ccc([nH]4)c(-c4cccc(S(=O)(=O)[O-])c4F)c4nc(c(-c5cccc(S(=O)(=O)[O-])c5F)c5ccc2[nH]5)C=C4)C=C3)cc1
REMARK SMILES IDX 5 1 4 2 3 3 1 4 2 5 38 7 39 8 100 9 40 10 99 11 41 12 42 13
REMARK SMILES IDX 43 14 93 15 44 16 98 17 92 18 94 19 45 20 97 21 91 22 90 23
REMARK SMILES IDX 46 25 78 26 58 27 77 28 59 29 62 30 76 31 95 32 60 33 61 34
REMARK SMILES IDX 75 36 96 37 63 38 47 39 48 40 56 41 49 42 51 43 57 44 50 45
REMARK SMILES IDX 52 46 53 47 54 48 55 49 79 50 80 51 88 52 81 53 83 54 89 55
REMARK SMILES IDX 82 56 84 57 85 58 86 59 87 60 64 61 65 62 73 63 66 64 68 65
REMARK SMILES IDX 74 66 67 67 69 68 70 69 71 70 72 71 6 72 7 73 8 74 9 76
REMARK SMILES IDX 10 77 11 78 34 79 12 80 14 81 13 82 37 83 35 84 36 85 15 86
REMARK SMILES IDX 16 87 17 88 18 89 19 91 20 92 28 93 21 94 27 95 26 96 29 97
REMARK SMILES IDX 30 98 33 99 31 100 32 101 22 102 23 103 24 104 25 105
REMARK H PARENT 3 6 94 24 62 35 7 75 18 90
REMARK Flexibility Score: inf
ROOT
ATOM      1  C   UNL A   1      38.658  23.074  26.245  1.00  0.00     0.042 C 
ENDROOT
BRANCH   1   2
ATOM      2  C   UNL A   1      39.687  22.010  26.611  1.00  0.00     0.118 C 
BRANCH   2   3
ATOM      3  N   UNL A   1      40.997  22.190  26.013  1.00  0.00    -0.352 N 
ATOM      4  O   UNL A   1      43.032  22.856  25.497  1.00  0.00    -0.269 OA
ATOM      5  C   UNL A   1      42.005  23.109  26.132  1.00  0.00     0.251 C 
ATOM      6  H   UNL A   1      41.212  21.480  25.366  1.00  0.00     0.163 HD
BRANCH   5   7
ATOM      7  C   UNL A   1      41.931  24.377  26.910  1.00  0.00     0.039 A 
ATOM      8  C   UNL A   1      42.541  24.611  28.143  1.00  0.00     0.014 A 
ATOM      9  C   UNL A   1      41.193  25.422  26.320  1.00  0.00     0.014 A 
ATOM     10  C   UNL A   1      42.366  25.830  28.801  1.00  0.00     0.010 A 
ATOM     11  C   UNL A   1      41.033  26.648  26.962  1.00  0.00     0.010 A 
ATOM     12  C   UNL A   1      41.605  26.844  28.216  1.00  0.00    -0.014 A 
BRANCH  12  13
ATOM     13  C   UNL A   1      41.539  28.142  28.891  1.00  0.00     0.031 A 
ATOM     14  C   UNL A   1      42.509  29.179  28.424  1.00  0.00     0.074 A 
ATOM     15  C   UNL A   1      40.560  28.489  29.749  1.00  0.00     0.049 A 
ATOM     16  N   UNL A   1      43.392  29.823  29.117  1.00  0.00    -0.248 NA
ATOM     17  C   UNL A   1      42.521  29.500  26.990  1.00  0.00     0.031 C 
ATOM     18  C   UNL A   1      39.336  27.742  30.047  1.00  0.00     0.029 A 
ATOM     19  N   UNL A   1      40.381  29.669  30.416  1.00  0.00    -0.354 N 
ATOM     20  C   UNL A   1      43.947  30.766  28.249  1.00  0.00     0.074 A 
ATOM     21  C   UNL A   1      43.466  30.439  26.931  1.00  0.00     0.031 C 
ATOM     22  C   UNL A   1      38.440  28.578  30.616  1.00  0.00     0.029 A 
ATOM     23  C   UNL A   1      39.071  29.869  30.834  1.00  0.00     0.049 A 
ATOM     24  H   UNL A   1      41.107  30.312  30.583  1.00  0.00     0.167 HD
ATOM     25  C   UNL A   1      44.620  31.866  28.688  1.00  0.00     0.034 A 
ATOM     26  C   UNL A   1      38.517  31.036  31.244  1.00  0.00     0.034 A 
ATOM     27  C   UNL A   1      44.979  31.771  30.075  1.00  0.00     0.049 A 
ATOM     28  C   UNL A   1      39.608  31.960  31.622  1.00  0.00     0.074 A 
ATOM     29  C   UNL A   1      45.744  30.921  30.846  1.00  0.00     0.029 A 
ATOM     30  N   UNL A   1      44.267  32.544  30.958  1.00  0.00    -0.354 N 
ATOM     31  N   UNL A   1      40.369  31.808  32.669  1.00  0.00    -0.248 NA
ATOM     32  C   UNL A   1      40.082  32.919  30.638  1.00  0.00     0.031 C 
ATOM     33  C   UNL A   1      45.113  30.913  32.123  1.00  0.00     0.029 A 
ATOM     34  C   UNL A   1      44.009  31.765  32.051  1.00  0.00     0.049 A 
ATOM     35  H   UNL A   1      43.994  33.481  30.828  1.00  0.00     0.167 HD
ATOM     36  C   UNL A   1      41.601  32.311  32.279  1.00  0.00     0.074 A 
ATOM     37  C   UNL A   1      41.326  33.104  31.087  1.00  0.00     0.031 C 
ATOM     38  C   UNL A   1      42.762  31.798  32.785  1.00  0.00     0.034 A 
BRANCH  25  39
ATOM     39  C   UNL A   1      44.711  33.188  27.962  1.00  0.00     0.023 A 
ATOM     40  C   UNL A   1      45.954  33.529  27.377  1.00  0.00     0.012 A 
ATOM     41  C   UNL A   1      43.748  34.216  28.065  1.00  0.00     0.148 A 
ATOM     42  C   UNL A   1      46.240  34.834  26.961  1.00  0.00     0.002 A 
ATOM     43  C   UNL A   1      44.009  35.492  27.573  1.00  0.00     0.091 A 
ATOM     44  F   UNL A   1      42.624  34.008  28.758  1.00  0.00    -0.205 F 
ATOM     45  C   UNL A   1      45.262  35.815  27.050  1.00  0.00     0.022 A 
BRANCH  43  46
ATOM     46  S   UNL A   1      42.753  36.775  27.602  1.00  0.00     0.127 S 
ATOM     47  O   UNL A   1      41.563  36.031  27.202  1.00  0.00    -0.237 OA
ATOM     48  O   UNL A   1      42.779  37.196  29.004  1.00  0.00    -0.237 OA
ATOM     49  O   UNL A   1      43.229  37.790  26.670  1.00  0.00    -0.744 OA
ENDBRANCH  43  46
ENDBRANCH  25  39
BRANCH  26  50
ATOM     50  C   UNL A   1      37.113  31.493  31.145  1.00  0.00     0.023 A 
ATOM     51  C   UNL A   1      36.413  31.855  32.312  1.00  0.00     0.012 A 
ATOM     52  C   UNL A   1      36.537  31.814  29.895  1.00  0.00     0.148 A 
ATOM     53  C   UNL A   1      35.190  32.533  32.237  1.00  0.00     0.002 A 
ATOM     54  C   UNL A   1      35.314  32.474  29.826  1.00  0.00     0.091 A 
ATOM     55  F   UNL A   1      37.232  31.558  28.778  1.00  0.00    -0.205 F 
ATOM     56  C   UNL A   1      34.643  32.845  30.996  1.00  0.00     0.022 A 
BRANCH  54  57
ATOM     57  S   UNL A   1      34.555  32.908  28.255  1.00  0.00     0.127 S 
ATOM     58  O   UNL A   1      34.199  31.594  27.714  1.00  0.00    -0.237 OA
ATOM     59  O   UNL A   1      33.421  33.722  28.681  1.00  0.00    -0.237 OA
ATOM     60  O   UNL A   1      35.589  33.602  27.497  1.00  0.00    -0.744 OA
ENDBRANCH  54  57
ENDBRANCH  26  50
BRANCH  38  61
ATOM     61  C   UNL A   1      42.690  30.916  34.004  1.00  0.00     0.023 A 
ATOM     62  C   UNL A   1      42.712  31.450  35.309  1.00  0.00     0.012 A 
ATOM     63  C   UNL A   1      42.406  29.549  33.834  1.00  0.00     0.148 A 
ATOM     64  C   UNL A   1      42.488  30.635  36.420  1.00  0.00     0.002 A 
ATOM     65  C   UNL A   1      42.133  28.752  34.939  1.00  0.00     0.091 A 
ATOM     66  F   UNL A   1      42.378  29.054  32.587  1.00  0.00    -0.205 F 
ATOM     67  C   UNL A   1      42.184  29.290  36.235  1.00  0.00     0.022 A 
BRANCH  65  68
ATOM     68  S   UNL A   1      41.594  27.049  34.758  1.00  0.00     0.127 S 
ATOM     69  O   UNL A   1      42.790  26.404  34.222  1.00  0.00    -0.237 OA
ATOM     70  O   UNL A   1      41.260  26.673  36.133  1.00  0.00    -0.237 OA
ATOM     71  O   UNL A   1      40.444  27.092  33.862  1.00  0.00    -0.744 OA
ENDBRANCH  65  68
ENDBRANCH  38  61
ENDBRANCH  12  13
ENDBRANCH   5   7
ENDBRANCH   2   3
ENDBRANCH   1   2
BRANCH   1  72
ATOM     72  C   UNL A   1      37.286  22.533  25.851  1.00  0.00     0.118 C 
BRANCH  72  73
ATOM     73  N   UNL A   1      36.878  22.875  24.485  1.00  0.00    -0.352 N 
ATOM     74  C   UNL A   1      35.690  23.391  24.002  1.00  0.00     0.251 C 
ATOM     75  H   UNL A   1      37.563  22.711  23.798  1.00  0.00     0.163 HD
ATOM     76  O   UNL A   1      35.520  23.537  22.796  1.00  0.00    -0.269 OA
BRANCH  74  77
ATOM     77  C   UNL A   1      34.599  23.735  24.943  1.00  0.00     0.041 A 
ATOM     78  C   UNL A   1      33.750  22.725  25.389  1.00  0.00     0.018 A 
ATOM     79  C   UNL A   1      34.353  25.088  25.264  1.00  0.00     0.036 A 
ATOM     80  C   UNL A   1      32.526  23.110  25.895  1.00  0.00    -0.043 A 
ATOM     81  C   UNL A   1      33.130  25.470  25.855  1.00  0.00     0.092 A 
ATOM     82  C   UNL A   1      32.183  24.468  26.040  1.00  0.00    -0.024 A 
ATOM     83  C   UNL A   1      31.357  22.206  26.145  1.00  0.00     0.036 C 
ATOM     84  C   UNL A   1      30.693  24.542  26.190  1.00  0.00     0.037 C 
ATOM     85  C   UNL A   1      30.389  23.178  26.813  1.00  0.00     0.010 C 
BRANCH  81  86
ATOM     86  S   UNL A   1      32.767  27.205  26.029  1.00  0.00     0.262 S 
ATOM     87  O   UNL A   1      31.423  27.316  26.541  1.00  0.00    -0.201 OA
ATOM     88  O   UNL A   1      33.868  27.819  26.755  1.00  0.00    -0.201 OA
BRANCH  86  89
ATOM     89  N   UNL A   1      32.684  28.000  24.514  1.00  0.00    -0.277 N 
ATOM     90  H   UNL A   1      33.520  28.201  24.033  1.00  0.00     0.180 HD
BRANCH  89  91
ATOM     91  C   UNL A   1      31.432  28.382  23.927  1.00  0.00     0.075 A 
ATOM     92  C   UNL A   1      30.847  29.602  24.307  1.00  0.00     0.042 A 
ATOM     93  C   UNL A   1      30.850  27.632  22.892  1.00  0.00     0.089 A 
ATOM     94  C   UNL A   1      29.720  30.107  23.625  1.00  0.00     0.058 A 
ATOM     95  C   UNL A   1      29.716  28.121  22.224  1.00  0.00     0.031 A 
ATOM     96  C   UNL A   1      29.153  29.347  22.592  1.00  0.00     0.015 A 
BRANCH  93  97
ATOM     97  N   UNL A   1      31.416  26.407  22.457  1.00  0.00    -0.239 N 
ATOM     98  C   UNL A   1      31.035  25.125  22.793  1.00  0.00     0.115 A 
ATOM     99  N   UNL A   1      32.519  26.395  21.666  1.00  0.00    -0.177 NA
ATOM    100  C   UNL A   1      32.054  24.293  22.407  1.00  0.00     0.042 A 
ATOM    101  C   UNL A   1      32.961  25.137  21.750  1.00  0.00     0.135 A 
ENDBRANCH  93  97
BRANCH  94 102
ATOM    102  C   UNL A   1      29.176  31.481  23.957  1.00  0.00     0.416 C 
ATOM    103  F   UNL A   1      29.864  32.075  24.970  1.00  0.00    -0.166 F 
ATOM    104  F   UNL A   1      29.239  32.333  22.901  1.00  0.00    -0.166 F 
ATOM    105  F   UNL A   1      27.871  31.464  24.349  1.00  0.00    -0.166 F 
ENDBRANCH  94 102
ENDBRANCH  89  91
ENDBRANCH  86  89
ENDBRANCH  81  86
ENDBRANCH  74  77
ENDBRANCH  72  73
ENDBRANCH   1  72
TORSDOF 18
ENDMDL
MODEL 3
REMARK VINA RESULT:     -12.8      4.161      9.114
REMARK SMILES O=C(NCCCNC(=O)c1cc2c(c(S(=O)(=O)Nc3cc(C(F)(F)F)ccc3-n3cccn3)c1)CCC2)c1ccc(-c2c3nc(c(-c4cccc(S(=O)(=O)[O-])c4F)c4ccc([nH]4)c(-c4cccc(S(=O)(=O)[O-])c4F)c4nc(c(-c5cccc(S(=O)(=O)[O-])c5F)c5ccc2[nH]5)C=C4)C=C3)cc1
REMARK SMILES IDX 5 1 4 2 3 3 1 4 2 5 38 7 39 8 100 9 40 10 99 11 41 12 42 13
REMARK SMILES IDX 43 14 93 15 44 16 98 17 92 18 94 19 45 20 97 21 91 22 90 23
REMARK SMILES IDX 46 25 78 26 58 27 77 28 59 29 62 30 76 31 95 32 60 33 61 34
REMARK SMILES IDX 75 36 96 37 63 38 47 39 48 40 56 41 49 42 51 43 57 44 50 45
REMARK SMILES IDX 52 46 53 47 54 48 55 49 79 50 80 51 88 52 81 53 83 54 89 55
REMARK SMILES IDX 82 56 84 57 85 58 86 59 87 60 64 61 65 62 73 63 66 64 68 65
REMARK SMILES IDX 74 66 67 67 69 68 70 69 71 70 72 71 6 72 7 73 8 74 9 76
REMARK SMILES IDX 10 77 11 78 34 79 12 80 14 81 13 82 37 83 35 84 36 85 15 86
REMARK SMILES IDX 16 87 17 88 18 89 19 91 20 92 28 93 21 94 27 95 26 96 29 97
REMARK SMILES IDX 30 98 33 99 31 100 32 101 22 102 23 103 24 104 25 105
REMARK H PARENT 3 6 94 24 62 35 7 75 18 90
REMARK Flexibility Score: inf
ROOT
ATOM      1  C   UNL A   1      37.252  22.931  24.538  1.00  0.00     0.042 C 
ENDROOT
BRANCH   1   2
ATOM      2  C   UNL A   1      37.556  22.548  25.982  1.00  0.00     0.118 C 
BRANCH   2   3
ATOM      3  N   UNL A   1      38.904  22.070  26.220  1.00  0.00    -0.352 N 
ATOM      4  O   UNL A   1      40.973  21.784  26.922  1.00  0.00    -0.269 OA
ATOM      5  C   UNL A   1      40.012  22.555  26.861  1.00  0.00     0.251 C 
ATOM      6  H   UNL A   1      39.060  21.181  25.826  1.00  0.00     0.163 HD
BRANCH   5   7
ATOM      7  C   UNL A   1      40.151  23.926  27.428  1.00  0.00     0.039 A 
ATOM      8  C   UNL A   1      39.216  24.954  27.308  1.00  0.00     0.014 A 
ATOM      9  C   UNL A   1      41.329  24.176  28.160  1.00  0.00     0.014 A 
ATOM     10  C   UNL A   1      39.474  26.216  27.847  1.00  0.00     0.010 A 
ATOM     11  C   UNL A   1      41.584  25.426  28.717  1.00  0.00     0.010 A 
ATOM     12  C   UNL A   1      40.663  26.455  28.542  1.00  0.00    -0.014 A 
BRANCH  12  13
ATOM     13  C   UNL A   1      40.842  27.760  29.182  1.00  0.00     0.031 A 
ATOM     14  C   UNL A   1      41.834  28.677  28.544  1.00  0.00     0.074 A 
ATOM     15  C   UNL A   1      40.050  28.223  30.169  1.00  0.00     0.049 A 
ATOM     16  N   UNL A   1      42.878  29.228  29.077  1.00  0.00    -0.248 NA
ATOM     17  C   UNL A   1      41.660  28.978  27.116  1.00  0.00     0.031 C 
ATOM     18  C   UNL A   1      38.813  27.620  30.670  1.00  0.00     0.029 A 
ATOM     19  N   UNL A   1      40.104  29.424  30.821  1.00  0.00    -0.354 N 
ATOM     20  C   UNL A   1      43.391  30.093  28.107  1.00  0.00     0.074 A 
ATOM     21  C   UNL A   1      42.680  29.806  26.887  1.00  0.00     0.031 C 
ATOM     22  C   UNL A   1      38.112  28.557  31.345  1.00  0.00     0.029 A 
ATOM     23  C   UNL A   1      38.904  29.773  31.428  1.00  0.00     0.049 A 
ATOM     24  H   UNL A   1      40.913  29.984  30.858  1.00  0.00     0.167 HD
ATOM     25  C   UNL A   1      44.238  31.116  28.408  1.00  0.00     0.034 A 
ATOM     26  C   UNL A   1      38.549  30.998  31.884  1.00  0.00     0.034 A 
ATOM     27  C   UNL A   1      44.795  30.999  29.726  1.00  0.00     0.049 A 
ATOM     28  C   UNL A   1      39.779  31.799  32.065  1.00  0.00     0.074 A 
ATOM     29  C   UNL A   1      45.573  30.078  30.396  1.00  0.00     0.029 A 
ATOM     30  N   UNL A   1      44.315  31.856  30.685  1.00  0.00    -0.354 N 
ATOM     31  N   UNL A   1      40.670  31.576  32.988  1.00  0.00    -0.248 NA
ATOM     32  C   UNL A   1      40.196  32.688  30.993  1.00  0.00     0.031 C 
ATOM     33  C   UNL A   1      45.149  30.155  31.754  1.00  0.00     0.029 A 
ATOM     34  C   UNL A   1      44.146  31.123  31.826  1.00  0.00     0.049 A 
ATOM     35  H   UNL A   1      44.128  32.816  30.570  1.00  0.00     0.167 HD
ATOM     36  C   UNL A   1      41.875  31.935  32.402  1.00  0.00     0.074 A 
ATOM     37  C   UNL A   1      41.506  32.740  31.243  1.00  0.00     0.031 C 
ATOM     38  C   UNL A   1      43.038  31.303  32.739  1.00  0.00     0.034 A 
BRANCH  25  39
ATOM     39  C   UNL A   1      44.358  32.412  27.639  1.00  0.00     0.023 A 
ATOM     40  C   UNL A   1      45.459  32.553  26.761  1.00  0.00     0.012 A 
ATOM     41  C   UNL A   1      43.624  33.581  27.937  1.00  0.00     0.148 A 
ATOM     42  C   UNL A   1      45.838  33.797  26.246  1.00  0.00     0.002 A 
ATOM     43  C   UNL A   1      43.956  34.802  27.356  1.00  0.00     0.091 A 
ATOM     44  F   UNL A   1      42.683  33.552  28.887  1.00  0.00    -0.205 F 
ATOM     45  C   UNL A   1      45.080  34.922  26.536  1.00  0.00     0.022 A 
BRANCH  43  46
ATOM     46  S   UNL A   1      42.964  36.271  27.645  1.00  0.00     0.127 S 
ATOM     47  O   UNL A   1      43.296  36.581  29.032  1.00  0.00    -0.237 OA
ATOM     48  O   UNL A   1      43.504  37.203  26.655  1.00  0.00    -0.237 OA
ATOM     49  O   UNL A   1      41.592  35.856  27.383  1.00  0.00    -0.744 OA
ENDBRANCH  43  46
ENDBRANCH  25  39
BRANCH  26  50
ATOM     50  C   UNL A   1      37.204  31.607  31.986  1.00  0.00     0.023 A 
ATOM     51  C   UNL A   1      36.672  31.915  33.253  1.00  0.00     0.012 A 
ATOM     52  C   UNL A   1      36.545  32.116  30.845  1.00  0.00     0.148 A 
ATOM     53  C   UNL A   1      35.534  32.720  33.380  1.00  0.00     0.002 A 
ATOM     54  C   UNL A   1      35.406  32.903  30.975  1.00  0.00     0.091 A 
ATOM     55  F   UNL A   1      37.089  31.907  29.637  1.00  0.00    -0.205 F 
ATOM     56  C   UNL A   1      34.903  33.217  32.243  1.00  0.00     0.022 A 
BRANCH  54  57
ATOM     57  S   UNL A   1      34.546  33.576  29.547  1.00  0.00     0.127 S 
ATOM     58  O   UNL A   1      34.151  32.364  28.828  1.00  0.00    -0.237 OA
ATOM     59  O   UNL A   1      33.444  34.303  30.171  1.00  0.00    -0.237 OA
ATOM     60  O   UNL A   1      35.529  34.391  28.844  1.00  0.00    -0.744 OA
ENDBRANCH  54  57
ENDBRANCH  26  50
BRANCH  38  61
ATOM     61  C   UNL A   1      43.060  30.448  33.980  1.00  0.00     0.023 A 
ATOM     62  C   UNL A   1      43.365  30.987  35.247  1.00  0.00     0.012 A 
ATOM     63  C   UNL A   1      42.583  29.128  33.900  1.00  0.00     0.148 A 
ATOM     64  C   UNL A   1      43.229  30.218  36.404  1.00  0.00     0.002 A 
ATOM     65  C   UNL A   1      42.400  28.382  35.059  1.00  0.00     0.091 A 
ATOM     66  F   UNL A   1      42.287  28.629  32.690  1.00  0.00    -0.205 F 
ATOM     67  C   UNL A   1      42.733  28.921  36.312  1.00  0.00     0.022 A 
BRANCH  65  68
ATOM     68  S   UNL A   1      41.630  26.761  35.019  1.00  0.00     0.127 S 
ATOM     69  O   UNL A   1      41.277  26.555  36.421  1.00  0.00    -0.237 OA
ATOM     70  O   UNL A   1      40.490  26.973  34.125  1.00  0.00    -0.237 OA
ATOM     71  O   UNL A   1      42.640  25.856  34.483  1.00  0.00    -0.744 OA
ENDBRANCH  65  68
ENDBRANCH  38  61
ENDBRANCH  12  13
ENDBRANCH   5   7
ENDBRANCH   2   3
ENDBRANCH   1   2
BRANCH   1  72
ATOM     72  C   UNL A   1      35.935  23.677  24.333  1.00  0.00     0.118 C 
BRANCH  72  73
ATOM     73  N   UNL A   1      34.832  23.181  25.162  1.00  0.00    -0.352 N 
ATOM     74  C   UNL A   1      33.801  23.856  25.787  1.00  0.00     0.251 C 
ATOM     75  H   UNL A   1      34.825  22.206  25.296  1.00  0.00     0.163 HD
ATOM     76  O   UNL A   1      33.012  23.255  26.509  1.00  0.00    -0.269 OA
BRANCH  74  77
ATOM     77  C   UNL A   1      33.669  25.322  25.615  1.00  0.00     0.041 A 
ATOM     78  C   UNL A   1      33.418  26.112  26.734  1.00  0.00     0.018 A 
ATOM     79  C   UNL A   1      33.662  25.875  24.316  1.00  0.00     0.036 A 
ATOM     80  C   UNL A   1      32.884  27.364  26.512  1.00  0.00    -0.043 A 
ATOM     81  C   UNL A   1      33.189  27.187  24.102  1.00  0.00     0.092 A 
ATOM     82  C   UNL A   1      32.685  27.861  25.210  1.00  0.00    -0.024 A 
ATOM     83  C   UNL A   1      32.264  28.249  27.552  1.00  0.00     0.036 C 
ATOM     84  C   UNL A   1      31.725  29.008  25.308  1.00  0.00     0.037 C 
ATOM     85  C   UNL A   1      32.002  29.507  26.728  1.00  0.00     0.010 C 
BRANCH  81  86
ATOM     86  S   UNL A   1      32.979  27.761  22.428  1.00  0.00     0.262 S 
ATOM     87  O   UNL A   1      33.033  29.202  22.456  1.00  0.00    -0.201 OA
ATOM     88  O   UNL A   1      33.905  27.020  21.586  1.00  0.00    -0.201 OA
BRANCH  86  89
ATOM     89  N   UNL A   1      31.409  27.431  21.827  1.00  0.00    -0.277 N 
ATOM     90  H   UNL A   1      31.303  26.779  21.097  1.00  0.00     0.180 HD
BRANCH  89  91
ATOM     91  C   UNL A   1      30.245  28.079  22.358  1.00  0.00     0.075 A 
ATOM     92  C   UNL A   1      29.894  29.351  21.874  1.00  0.00     0.042 A 
ATOM     93  C   UNL A   1      29.380  27.418  23.246  1.00  0.00     0.089 A 
ATOM     94  C   UNL A   1      28.664  29.945  22.224  1.00  0.00     0.058 A 
ATOM     95  C   UNL A   1      28.163  28.015  23.614  1.00  0.00     0.031 A 
ATOM     96  C   UNL A   1      27.811  29.271  23.110  1.00  0.00     0.015 A 
BRANCH  93  97
ATOM     97  N   UNL A   1      29.678  26.125  23.745  1.00  0.00    -0.239 N 
ATOM     98  C   UNL A   1      29.754  25.714  25.058  1.00  0.00     0.115 A 
ATOM     99  N   UNL A   1      30.013  25.117  22.898  1.00  0.00    -0.177 NA
ATOM    100  C   UNL A   1      30.382  24.494  25.058  1.00  0.00     0.042 A 
ATOM    101  C   UNL A   1      30.552  24.193  23.698  1.00  0.00     0.135 A 
ENDBRANCH  93  97
BRANCH  94 102
ATOM    102  C   UNL A   1      28.240  31.256  21.596  1.00  0.00     0.416 C 
ATOM    103  F   UNL A   1      27.687  31.083  20.366  1.00  0.00    -0.166 F 
ATOM    104  F   UNL A   1      27.314  31.914  22.342  1.00  0.00    -0.166 F 
ATOM    105  F   UNL A   1      29.271  32.130  21.425  1.00  0.00    -0.166 F 
ENDBRANCH  94 102
ENDBRANCH  89  91
ENDBRANCH  86  89
ENDBRANCH  81  86
ENDBRANCH  74  77
ENDBRANCH  72  73
ENDBRANCH   1  72
TORSDOF 18
ENDMDL
