MODEL 1
REMARK VINA RESULT:     -11.2      0.000      0.000
REMARK SMILES O=C(NCCCNC(=O)[C@@]1([NH2+]C2CC2)CCC[C@H]1CCn1ccnc1)c1ccc(-c2c3nc(c(-c4cccc(S(=O)(=O)[O-])c4F)c4ccc([nH]4)c(-c4cccc(S(=O)(=O)[O-])c4F)c4nc(c(-c5cccc(S(=O)(=O)[O-])c5F)c5ccc2[nH]5)C=C4)C=C3)cc1
REMARK SMILES IDX 5 1 4 2 3 3 1 4 2 5 26 7 27 8 88 9 28 10 87 11 29 12 30 13
REMARK SMILES IDX 31 14 81 15 32 16 86 17 80 18 82 19 33 20 85 21 79 22 78 23
REMARK SMILES IDX 34 25 66 26 46 27 65 28 47 29 50 30 64 31 83 32 48 33 49 34
REMARK SMILES IDX 63 36 84 37 51 38 35 39 36 40 44 41 37 42 39 43 45 44 38 45
REMARK SMILES IDX 40 46 41 47 42 48 43 49 67 50 68 51 76 52 69 53 71 54 77 55
REMARK SMILES IDX 70 56 72 57 73 58 74 59 75 60 52 61 53 62 61 63 54 64 56 65
REMARK SMILES IDX 62 66 55 67 57 68 58 69 59 70 60 71 6 72 7 73 8 74 9 76
REMARK SMILES IDX 10 77 15 78 18 79 16 80 17 81 11 82 12 85 13 86 14 87 19 88
REMARK SMILES IDX 20 89 21 90 22 91 25 92 23 93 24 94
REMARK H PARENT 3 6 82 24 50 35 7 75 11 83 11 84
REMARK Flexibility Score: inf
ROOT
ATOM      1  C   UNL A   1      37.942  20.849  24.753  1.00  0.00     0.042 C 
ENDROOT
BRANCH   1   2
ATOM      2  C   UNL A   1      38.087  19.625  25.653  1.00  0.00     0.118 C 
BRANCH   2   3
ATOM      3  N   UNL A   1      39.362  18.955  25.524  1.00  0.00    -0.352 N 
ATOM      4  O   UNL A   1      41.509  18.448  25.619  1.00  0.00    -0.269 OA
ATOM      5  C   UNL A   1      40.644  19.291  25.870  1.00  0.00     0.251 C 
ATOM      6  H   UNL A   1      39.293  18.070  25.098  1.00  0.00     0.163 HD
BRANCH   5   7
ATOM      7  C   UNL A   1      41.053  20.593  26.472  1.00  0.00     0.039 A 
ATOM      8  C   UNL A   1      41.245  21.786  25.771  1.00  0.00     0.014 A 
ATOM      9  C   UNL A   1      41.208  20.610  27.870  1.00  0.00     0.014 A 
ATOM     10  C   UNL A   1      41.633  22.948  26.437  1.00  0.00     0.010 A 
ATOM     11  C   UNL A   1      41.562  21.777  28.545  1.00  0.00     0.010 A 
ATOM     12  C   UNL A   1      41.793  22.948  27.826  1.00  0.00    -0.014 A 
BRANCH  12  13
ATOM     13  C   UNL A   1      42.049  24.232  28.485  1.00  0.00     0.031 A 
ATOM     14  C   UNL A   1      40.995  25.281  28.311  1.00  0.00     0.074 A 
ATOM     15  C   UNL A   1      43.052  24.459  29.356  1.00  0.00     0.049 A 
ATOM     16  N   UNL A   1      41.114  26.470  27.811  1.00  0.00    -0.248 NA
ATOM     17  C   UNL A   1      39.622  24.931  28.703  1.00  0.00     0.031 C 
ATOM     18  C   UNL A   1      43.971  23.480  29.941  1.00  0.00     0.029 A 
ATOM     19  N   UNL A   1      43.362  25.616  30.015  1.00  0.00    -0.354 N 
ATOM     20  C   UNL A   1      39.875  27.089  27.997  1.00  0.00     0.074 A 
ATOM     21  C   UNL A   1      38.968  26.062  28.441  1.00  0.00     0.031 C 
ATOM     22  C   UNL A   1      44.553  24.022  31.033  1.00  0.00     0.029 A 
ATOM     23  C   UNL A   1      44.160  25.418  31.133  1.00  0.00     0.049 A 
ATOM     24  H   UNL A   1      43.050  26.503  29.725  1.00  0.00     0.167 HD
ATOM     25  C   UNL A   1      39.706  28.439  27.940  1.00  0.00     0.034 A 
ATOM     26  C   UNL A   1      44.422  26.315  32.112  1.00  0.00     0.034 A 
ATOM     27  C   UNL A   1      40.818  29.109  27.328  1.00  0.00     0.049 A 
ATOM     28  C   UNL A   1      44.124  27.667  31.593  1.00  0.00     0.074 A 
ATOM     29  C   UNL A   1      41.437  29.074  26.095  1.00  0.00     0.029 A 
ATOM     30  N   UNL A   1      41.664  29.806  28.153  1.00  0.00    -0.354 N 
ATOM     31  N   UNL A   1      44.819  28.267  30.669  1.00  0.00    -0.248 NA
ATOM     32  C   UNL A   1      42.830  28.258  31.888  1.00  0.00     0.031 C 
ATOM     33  C   UNL A   1      42.812  29.333  26.366  1.00  0.00     0.029 A 
ATOM     34  C   UNL A   1      42.938  29.520  27.745  1.00  0.00     0.049 A 
ATOM     35  H   UNL A   1      41.403  30.398  28.895  1.00  0.00     0.167 HD
ATOM     36  C   UNL A   1      43.893  29.039  29.982  1.00  0.00     0.074 A 
ATOM     37  C   UNL A   1      42.731  29.104  30.861  1.00  0.00     0.031 C 
ATOM     38  C   UNL A   1      44.046  29.307  28.651  1.00  0.00     0.034 A 
BRANCH  25  39
ATOM     39  C   UNL A   1      38.653  29.220  28.694  1.00  0.00     0.023 A 
ATOM     40  C   UNL A   1      37.892  30.170  27.973  1.00  0.00     0.012 A 
ATOM     41  C   UNL A   1      38.558  29.258  30.102  1.00  0.00     0.148 A 
ATOM     42  C   UNL A   1      37.102  31.126  28.622  1.00  0.00     0.002 A 
ATOM     43  C   UNL A   1      37.706  30.156  30.737  1.00  0.00     0.091 A 
ATOM     44  F   UNL A   1      39.387  28.516  30.845  1.00  0.00    -0.205 F 
ATOM     45  C   UNL A   1      36.999  31.112  30.005  1.00  0.00     0.022 A 
BRANCH  43  46
ATOM     46  S   UNL A   1      37.484  30.115  32.519  1.00  0.00     0.127 S 
ATOM     47  O   UNL A   1      38.786  30.595  32.987  1.00  0.00    -0.237 OA
ATOM     48  O   UNL A   1      36.378  31.059  32.710  1.00  0.00    -0.237 OA
ATOM     49  O   UNL A   1      37.149  28.739  32.826  1.00  0.00    -0.744 OA
ENDBRANCH  43  46
ENDBRANCH  25  39
BRANCH  26  50
ATOM     50  C   UNL A   1      44.729  26.090  33.542  1.00  0.00     0.023 A 
ATOM     51  C   UNL A   1      46.070  26.098  33.976  1.00  0.00     0.012 A 
ATOM     52  C   UNL A   1      43.709  26.132  34.516  1.00  0.00     0.148 A 
ATOM     53  C   UNL A   1      46.384  26.172  35.338  1.00  0.00     0.002 A 
ATOM     54  C   UNL A   1      44.026  26.196  35.869  1.00  0.00     0.091 A 
ATOM     55  F   UNL A   1      42.433  26.199  34.112  1.00  0.00    -0.205 F 
ATOM     56  C   UNL A   1      45.364  26.229  36.283  1.00  0.00     0.022 A 
BRANCH  54  57
ATOM     57  S   UNL A   1      42.764  26.288  37.146  1.00  0.00     0.127 S 
ATOM     58  O   UNL A   1      42.052  27.514  36.782  1.00  0.00    -0.237 OA
ATOM     59  O   UNL A   1      42.015  25.055  36.921  1.00  0.00    -0.237 OA
ATOM     60  O   UNL A   1      43.486  26.372  38.410  1.00  0.00    -0.744 OA
ENDBRANCH  54  57
ENDBRANCH  26  50
BRANCH  38  61
ATOM     61  C   UNL A   1      45.380  29.028  28.007  1.00  0.00     0.023 A 
ATOM     62  C   UNL A   1      46.422  29.978  28.016  1.00  0.00     0.012 A 
ATOM     63  C   UNL A   1      45.657  27.720  27.567  1.00  0.00     0.148 A 
ATOM     64  C   UNL A   1      47.702  29.642  27.574  1.00  0.00     0.002 A 
ATOM     65  C   UNL A   1      46.946  27.376  27.177  1.00  0.00     0.091 A 
ATOM     66  F   UNL A   1      44.659  26.823  27.569  1.00  0.00    -0.205 F 
ATOM     67  C   UNL A   1      47.969  28.337  27.169  1.00  0.00     0.022 A 
BRANCH  65  68
ATOM     68  S   UNL A   1      47.391  25.679  26.793  1.00  0.00     0.127 S 
ATOM     69  O   UNL A   1      48.838  25.776  26.610  1.00  0.00    -0.237 OA
ATOM     70  O   UNL A   1      46.974  24.963  28.000  1.00  0.00    -0.237 OA
ATOM     71  O   UNL A   1      46.628  25.327  25.602  1.00  0.00    -0.744 OA
ENDBRANCH  65  68
ENDBRANCH  38  61
ENDBRANCH  12  13
ENDBRANCH   5   7
ENDBRANCH   2   3
ENDBRANCH   1   2
BRANCH   1  72
ATOM     72  C   UNL A   1      37.247  22.050  25.404  1.00  0.00     0.118 C 
BRANCH  72  73
ATOM     73  N   UNL A   1      36.183  21.668  26.326  1.00  0.00    -0.351 N 
ATOM     74  C   UNL A   1      34.838  21.839  26.399  1.00  0.00     0.281 C 
ATOM     75  H   UNL A   1      36.529  21.153  27.092  1.00  0.00     0.163 HD
ATOM     76  O   UNL A   1      34.366  21.551  27.509  1.00  0.00    -0.268 OA
BRANCH  74  77
ATOM     77  C   UNL A   1      33.915  22.337  25.256  1.00  0.00     0.178 C 
ATOM     78  C   UNL A   1      34.582  22.788  23.952  1.00  0.00     0.079 C 
ATOM     79  C   UNL A   1      33.029  21.127  24.711  1.00  0.00     0.062 C 
ATOM     80  C   UNL A   1      33.536  22.678  22.853  1.00  0.00     0.008 C 
ATOM     81  C   UNL A   1      32.558  21.605  23.309  1.00  0.00     0.011 C 
BRANCH  77  82
ATOM     82  N   UNL A   1      32.881  23.289  25.745  1.00  0.00    -0.331 N 
ATOM     83  H   UNL A   1      32.551  22.885  26.621  1.00  0.00     0.347 HD
ATOM     84  H   UNL A   1      32.321  23.360  24.895  1.00  0.00     0.347 HD
BRANCH  82  85
ATOM     85  C   UNL A   1      33.036  24.706  26.026  1.00  0.00     0.183 C 
ATOM     86  C   UNL A   1      34.083  25.611  25.469  1.00  0.00     0.071 C 
ATOM     87  C   UNL A   1      32.638  25.784  25.075  1.00  0.00     0.071 C 
ENDBRANCH  82  85
ENDBRANCH  77  82
BRANCH  79  88
ATOM     88  C   UNL A   1      33.682  19.726  24.572  1.00  0.00     0.032 C 
BRANCH  88  89
ATOM     89  C   UNL A   1      32.777  18.500  24.804  1.00  0.00     0.123 C 
BRANCH  89  90
ATOM     90  N   UNL A   1      33.460  17.233  24.962  1.00  0.00    -0.337 N 
ATOM     91  C   UNL A   1      34.796  16.998  24.780  1.00  0.00     0.107 A 
ATOM     92  C   UNL A   1      32.889  16.057  25.361  1.00  0.00     0.199 A 
ATOM     93  C   UNL A   1      34.963  15.663  25.067  1.00  0.00     0.130 A 
ATOM     94  N   UNL A   1      33.779  15.091  25.443  1.00  0.00    -0.245 NA
ENDBRANCH  89  90
ENDBRANCH  88  89
ENDBRANCH  79  88
ENDBRANCH  74  77
ENDBRANCH  72  73
ENDBRANCH   1  72
TORSDOF 18
ENDMDL
MODEL 2
REMARK VINA RESULT:     -11.1      4.064      8.823
REMARK SMILES O=C(NCCCNC(=O)[C@@]1([NH2+]C2CC2)CCC[C@H]1CCn1ccnc1)c1ccc(-c2c3nc(c(-c4cccc(S(=O)(=O)[O-])c4F)c4ccc([nH]4)c(-c4cccc(S(=O)(=O)[O-])c4F)c4nc(c(-c5cccc(S(=O)(=O)[O-])c5F)c5ccc2[nH]5)C=C4)C=C3)cc1
REMARK SMILES IDX 5 1 4 2 3 3 1 4 2 5 26 7 27 8 88 9 28 10 87 11 29 12 30 13
REMARK SMILES IDX 31 14 81 15 32 16 86 17 80 18 82 19 33 20 85 21 79 22 78 23
REMARK SMILES IDX 34 25 66 26 46 27 65 28 47 29 50 30 64 31 83 32 48 33 49 34
REMARK SMILES IDX 63 36 84 37 51 38 35 39 36 40 44 41 37 42 39 43 45 44 38 45
REMARK SMILES IDX 40 46 41 47 42 48 43 49 67 50 68 51 76 52 69 53 71 54 77 55
REMARK SMILES IDX 70 56 72 57 73 58 74 59 75 60 52 61 53 62 61 63 54 64 56 65
REMARK SMILES IDX 62 66 55 67 57 68 58 69 59 70 60 71 6 72 7 73 8 74 9 76
REMARK SMILES IDX 10 77 15 78 18 79 16 80 17 81 11 82 12 85 13 86 14 87 19 88
REMARK SMILES IDX 20 89 21 90 22 91 25 92 23 93 24 94
REMARK H PARENT 3 6 82 24 50 35 7 75 11 83 11 84
REMARK Flexibility Score: inf
ROOT
ATOM      1  C   UNL A   1      32.762  30.221  27.271  1.00  0.00     0.042 C 
ENDROOT
BRANCH   1   2
ATOM      2  C   UNL A   1      34.176  30.794  27.251  1.00  0.00     0.118 C 
BRANCH   2   3
ATOM      3  N   UNL A   1      34.369  31.900  28.164  1.00  0.00    -0.352 N 
ATOM      4  O   UNL A   1      35.242  33.349  29.583  1.00  0.00    -0.269 OA
ATOM      5  C   UNL A   1      35.433  32.332  28.911  1.00  0.00     0.251 C 
ATOM      6  H   UNL A   1      33.566  32.459  28.270  1.00  0.00     0.163 HD
BRANCH   5   7
ATOM      7  C   UNL A   1      36.753  31.645  28.995  1.00  0.00     0.039 A 
ATOM      8  C   UNL A   1      37.913  32.181  29.561  1.00  0.00     0.014 A 
ATOM      9  C   UNL A   1      36.802  30.329  28.499  1.00  0.00     0.014 A 
ATOM     10  C   UNL A   1      39.099  31.448  29.582  1.00  0.00     0.010 A 
ATOM     11  C   UNL A   1      37.976  29.580  28.549  1.00  0.00     0.010 A 
ATOM     12  C   UNL A   1      39.135  30.145  29.077  1.00  0.00    -0.014 A 
BRANCH  12  13
ATOM     13  C   UNL A   1      40.365  29.372  29.267  1.00  0.00     0.031 A 
ATOM     14  C   UNL A   1      40.703  29.014  30.680  1.00  0.00     0.074 A 
ATOM     15  C   UNL A   1      41.089  28.827  28.269  1.00  0.00     0.049 A 
ATOM     16  N   UNL A   1      41.776  29.296  31.351  1.00  0.00    -0.248 NA
ATOM     17  C   UNL A   1      39.686  28.288  31.455  1.00  0.00     0.031 C 
ATOM     18  C   UNL A   1      40.742  28.747  26.849  1.00  0.00     0.029 A 
ATOM     19  N   UNL A   1      42.240  28.093  28.355  1.00  0.00    -0.354 N 
ATOM     20  C   UNL A   1      41.652  28.625  32.571  1.00  0.00     0.074 A 
ATOM     21  C   UNL A   1      40.304  28.121  32.624  1.00  0.00     0.031 C 
ATOM     22  C   UNL A   1      41.515  27.807  26.260  1.00  0.00     0.029 A 
ATOM     23  C   UNL A   1      42.497  27.334  27.221  1.00  0.00     0.049 A 
ATOM     24  H   UNL A   1      42.830  28.103  29.143  1.00  0.00     0.167 HD
ATOM     25  C   UNL A   1      42.712  28.375  33.388  1.00  0.00     0.034 A 
ATOM     26  C   UNL A   1      43.403  26.335  27.102  1.00  0.00     0.034 A 
ATOM     27  C   UNL A   1      43.862  29.165  33.057  1.00  0.00     0.049 A 
ATOM     28  C   UNL A   1      44.393  26.477  28.190  1.00  0.00     0.074 A 
ATOM     29  C   UNL A   1      44.153  30.513  32.993  1.00  0.00     0.029 A 
ATOM     30  N   UNL A   1      44.904  28.528  32.432  1.00  0.00    -0.354 N 
ATOM     31  N   UNL A   1      45.265  27.442  28.267  1.00  0.00    -0.248 NA
ATOM     32  C   UNL A   1      44.218  25.692  29.400  1.00  0.00     0.031 C 
ATOM     33  C   UNL A   1      45.096  30.637  31.933  1.00  0.00     0.029 A 
ATOM     34  C   UNL A   1      45.328  29.355  31.428  1.00  0.00     0.049 A 
ATOM     35  H   UNL A   1      45.275  27.645  32.662  1.00  0.00     0.167 HD
ATOM     36  C   UNL A   1      45.432  27.653  29.628  1.00  0.00     0.074 A 
ATOM     37  C   UNL A   1      44.880  26.462  30.264  1.00  0.00     0.031 C 
ATOM     38  C   UNL A   1      45.733  28.892  30.118  1.00  0.00     0.034 A 
BRANCH  25  39
ATOM     39  C   UNL A   1      42.826  27.202  34.335  1.00  0.00     0.023 A 
ATOM     40  C   UNL A   1      42.571  27.432  35.707  1.00  0.00     0.012 A 
ATOM     41  C   UNL A   1      43.421  25.968  33.992  1.00  0.00     0.148 A 
ATOM     42  C   UNL A   1      42.917  26.495  36.688  1.00  0.00     0.002 A 
ATOM     43  C   UNL A   1      43.686  25.007  34.964  1.00  0.00     0.091 A 
ATOM     44  F   UNL A   1      43.857  25.763  32.744  1.00  0.00    -0.205 F 
ATOM     45  C   UNL A   1      43.464  25.276  36.316  1.00  0.00     0.022 A 
BRANCH  43  46
ATOM     46  S   UNL A   1      44.318  23.388  34.511  1.00  0.00     0.127 S 
ATOM     47  O   UNL A   1      45.634  23.729  33.967  1.00  0.00    -0.237 OA
ATOM     48  O   UNL A   1      44.351  22.701  35.807  1.00  0.00    -0.237 OA
ATOM     49  O   UNL A   1      43.348  22.850  33.580  1.00  0.00    -0.744 OA
ENDBRANCH  43  46
ENDBRANCH  25  39
BRANCH  26  50
ATOM     50  C   UNL A   1      43.379  25.138  26.233  1.00  0.00     0.023 A 
ATOM     51  C   UNL A   1      44.337  25.003  25.208  1.00  0.00     0.012 A 
ATOM     52  C   UNL A   1      42.595  24.014  26.570  1.00  0.00     0.148 A 
ATOM     53  C   UNL A   1      44.526  23.777  24.558  1.00  0.00     0.002 A 
ATOM     54  C   UNL A   1      42.780  22.801  25.915  1.00  0.00     0.091 A 
ATOM     55  F   UNL A   1      41.733  24.112  27.592  1.00  0.00    -0.205 F 
ATOM     56  C   UNL A   1      43.754  22.676  24.916  1.00  0.00     0.022 A 
BRANCH  54  57
ATOM     57  S   UNL A   1      41.833  21.331  26.333  1.00  0.00     0.127 S 
ATOM     58  O   UNL A   1      42.401  20.335  25.425  1.00  0.00    -0.237 OA
ATOM     59  O   UNL A   1      42.174  21.142  27.741  1.00  0.00    -0.237 OA
ATOM     60  O   UNL A   1      40.442  21.666  26.056  1.00  0.00    -0.744 OA
ENDBRANCH  54  57
ENDBRANCH  26  50
BRANCH  38  61
ATOM     61  C   UNL A   1      46.194  29.957  29.155  1.00  0.00     0.023 A 
ATOM     62  C   UNL A   1      47.552  30.103  28.804  1.00  0.00     0.012 A 
ATOM     63  C   UNL A   1      45.225  30.686  28.442  1.00  0.00     0.148 A 
ATOM     64  C   UNL A   1      47.938  30.973  27.784  1.00  0.00     0.002 A 
ATOM     65  C   UNL A   1      45.610  31.511  27.391  1.00  0.00     0.091 A 
ATOM     66  F   UNL A   1      43.936  30.534  28.782  1.00  0.00    -0.205 F 
ATOM     67  C   UNL A   1      46.966  31.665  27.066  1.00  0.00     0.022 A 
BRANCH  65  68
ATOM     68  S   UNL A   1      44.401  32.309  26.330  1.00  0.00     0.127 S 
ATOM     69  O   UNL A   1      45.219  32.730  25.196  1.00  0.00    -0.237 OA
ATOM     70  O   UNL A   1      43.468  31.219  26.040  1.00  0.00    -0.237 OA
ATOM     71  O   UNL A   1      43.823  33.387  27.125  1.00  0.00    -0.744 OA
ENDBRANCH  65  68
ENDBRANCH  38  61
ENDBRANCH  12  13
ENDBRANCH   5   7
ENDBRANCH   2   3
ENDBRANCH   1   2
BRANCH   1  72
ATOM     72  C   UNL A   1      32.075  30.154  25.902  1.00  0.00     0.118 C 
BRANCH  72  73
ATOM     73  N   UNL A   1      32.957  29.685  24.838  1.00  0.00    -0.351 N 
ATOM     74  C   UNL A   1      33.108  28.543  24.120  1.00  0.00     0.281 C 
ATOM     75  H   UNL A   1      33.608  30.374  24.573  1.00  0.00     0.163 HD
ATOM     76  O   UNL A   1      34.169  28.503  23.479  1.00  0.00    -0.268 OA
BRANCH  74  77
ATOM     77  C   UNL A   1      32.103  27.363  24.053  1.00  0.00     0.178 C 
ATOM     78  C   UNL A   1      31.278  27.063  25.309  1.00  0.00     0.079 C 
ATOM     79  C   UNL A   1      30.932  27.707  23.026  1.00  0.00     0.062 C 
ATOM     80  C   UNL A   1      30.034  26.310  24.858  1.00  0.00     0.008 C 
ATOM     81  C   UNL A   1      29.787  26.733  23.418  1.00  0.00     0.011 C 
BRANCH  77  82
ATOM     82  N   UNL A   1      32.707  26.146  23.444  1.00  0.00    -0.331 N 
ATOM     83  H   UNL A   1      33.486  26.495  22.887  1.00  0.00     0.347 HD
ATOM     84  H   UNL A   1      31.860  25.729  23.057  1.00  0.00     0.347 HD
BRANCH  82  85
ATOM     85  C   UNL A   1      33.235  24.977  24.127  1.00  0.00     0.183 C 
ATOM     86  C   UNL A   1      33.142  23.562  23.662  1.00  0.00     0.071 C 
ATOM     87  C   UNL A   1      34.476  24.265  23.702  1.00  0.00     0.071 C 
ENDBRANCH  82  85
ENDBRANCH  77  82
BRANCH  79  88
ATOM     88  C   UNL A   1      30.372  29.155  22.990  1.00  0.00     0.032 C 
BRANCH  88  89
ATOM     89  C   UNL A   1      28.985  29.359  22.349  1.00  0.00     0.123 C 
BRANCH  89  90
ATOM     90  N   UNL A   1      28.601  30.733  22.104  1.00  0.00    -0.337 N 
ATOM     91  C   UNL A   1      28.190  31.266  20.913  1.00  0.00     0.107 A 
ATOM     92  C   UNL A   1      28.545  31.730  23.038  1.00  0.00     0.199 A 
ATOM     93  C   UNL A   1      27.919  32.586  21.189  1.00  0.00     0.130 A 
ATOM     94  N   UNL A   1      28.125  32.861  22.513  1.00  0.00    -0.245 NA
ENDBRANCH  89  90
ENDBRANCH  88  89
ENDBRANCH  79  88
ENDBRANCH  74  77
ENDBRANCH  72  73
ENDBRANCH   1  72
TORSDOF 18
ENDMDL
MODEL 3
REMARK VINA RESULT:     -11.1      3.426      7.235
REMARK SMILES O=C(NCCCNC(=O)[C@@]1([NH2+]C2CC2)CCC[C@H]1CCn1ccnc1)c1ccc(-c2c3nc(c(-c4cccc(S(=O)(=O)[O-])c4F)c4ccc([nH]4)c(-c4cccc(S(=O)(=O)[O-])c4F)c4nc(c(-c5cccc(S(=O)(=O)[O-])c5F)c5ccc2[nH]5)C=C4)C=C3)cc1
REMARK SMILES IDX 5 1 4 2 3 3 1 4 2 5 26 7 27 8 88 9 28 10 87 11 29 12 30 13
REMARK SMILES IDX 31 14 81 15 32 16 86 17 80 18 82 19 33 20 85 21 79 22 78 23
REMARK SMILES IDX 34 25 66 26 46 27 65 28 47 29 50 30 64 31 83 32 48 33 49 34
REMARK SMILES IDX 63 36 84 37 51 38 35 39 36 40 44 41 37 42 39 43 45 44 38 45
REMARK SMILES IDX 40 46 41 47 42 48 43 49 67 50 68 51 76 52 69 53 71 54 77 55
REMARK SMILES IDX 70 56 72 57 73 58 74 59 75 60 52 61 53 62 61 63 54 64 56 65
REMARK SMILES IDX 62 66 55 67 57 68 58 69 59 70 60 71 6 72 7 73 8 74 9 76
REMARK SMILES IDX 10 77 15 78 18 79 16 80 17 81 11 82 12 85 13 86 14 87 19 88
REMARK SMILES IDX 20 89 21 90 22 91 25 92 23 93 24 94
REMARK H PARENT 3 6 82 24 50 35 7 75 11 83 11 84
REMARK Flexibility Score: inf
ROOT
ATOM      1  C   UNL A   1      38.170  22.307  25.461  1.00  0.00     0.042 C 
ENDROOT
BRANCH   1   2
ATOM      2  C   UNL A   1      39.288  21.760  26.344  1.00  0.00     0.118 C 
BRANCH   2   3
ATOM      3  N   UNL A   1      40.605  21.888  25.762  1.00  0.00    -0.352 N 
ATOM      4  O   UNL A   1      42.632  22.591  25.239  1.00  0.00    -0.269 OA
ATOM      5  C   UNL A   1      41.609  22.812  25.891  1.00  0.00     0.251 C 
ATOM      6  H   UNL A   1      40.828  21.157  25.142  1.00  0.00     0.163 HD
BRANCH   5   7
ATOM      7  C   UNL A   1      41.525  24.054  26.712  1.00  0.00     0.039 A 
ATOM      8  C   UNL A   1      42.327  24.352  27.818  1.00  0.00     0.014 A 
ATOM      9  C   UNL A   1      40.586  25.014  26.294  1.00  0.00     0.014 A 
ATOM     10  C   UNL A   1      42.159  25.546  28.517  1.00  0.00     0.010 A 
ATOM     11  C   UNL A   1      40.438  26.224  26.968  1.00  0.00     0.010 A 
ATOM     12  C   UNL A   1      41.215  26.487  28.095  1.00  0.00    -0.014 A 
BRANCH  12  13
ATOM     13  C   UNL A   1      41.192  27.785  28.775  1.00  0.00     0.031 A 
ATOM     14  C   UNL A   1      42.190  28.793  28.298  1.00  0.00     0.074 A 
ATOM     15  C   UNL A   1      40.242  28.176  29.647  1.00  0.00     0.049 A 
ATOM     16  N   UNL A   1      43.113  29.400  28.977  1.00  0.00    -0.248 NA
ATOM     17  C   UNL A   1      42.185  29.124  26.866  1.00  0.00     0.031 C 
ATOM     18  C   UNL A   1      38.989  27.493  29.975  1.00  0.00     0.029 A 
ATOM     19  N   UNL A   1      40.141  29.362  30.322  1.00  0.00    -0.354 N 
ATOM     20  C   UNL A   1      43.682  30.329  28.102  1.00  0.00     0.074 A 
ATOM     21  C   UNL A   1      43.155  30.035  26.794  1.00  0.00     0.031 C 
ATOM     22  C   UNL A   1      38.153  28.371  30.574  1.00  0.00     0.029 A 
ATOM     23  C   UNL A   1      38.863  29.620  30.797  1.00  0.00     0.049 A 
ATOM     24  H   UNL A   1      40.901  29.973  30.457  1.00  0.00     0.167 HD
ATOM     25  C   UNL A   1      44.419  31.392  28.529  1.00  0.00     0.034 A 
ATOM     26  C   UNL A   1      38.397  30.798  31.274  1.00  0.00     0.034 A 
ATOM     27  C   UNL A   1      44.844  31.256  29.893  1.00  0.00     0.049 A 
ATOM     28  C   UNL A   1      39.556  31.635  31.650  1.00  0.00     0.074 A 
ATOM     29  C   UNL A   1      45.614  30.359  30.605  1.00  0.00     0.029 A 
ATOM     30  N   UNL A   1      44.207  32.029  30.829  1.00  0.00    -0.354 N 
ATOM     31  N   UNL A   1      40.346  31.385  32.655  1.00  0.00    -0.248 NA
ATOM     32  C   UNL A   1      40.043  32.620  30.699  1.00  0.00     0.031 C 
ATOM     33  C   UNL A   1      45.037  30.332  31.908  1.00  0.00     0.029 A 
ATOM     34  C   UNL A   1      43.962  31.223  31.907  1.00  0.00     0.049 A 
ATOM     35  H   UNL A   1      43.972  32.982  30.742  1.00  0.00     0.167 HD
ATOM     36  C   UNL A   1      41.587  31.852  32.247  1.00  0.00     0.074 A 
ATOM     37  C   UNL A   1      41.307  32.723  31.111  1.00  0.00     0.031 C 
ATOM     38  C   UNL A   1      42.740  31.264  32.682  1.00  0.00     0.034 A 
BRANCH  25  39
ATOM     39  C   UNL A   1      44.539  32.716  27.810  1.00  0.00     0.023 A 
ATOM     40  C   UNL A   1      45.740  32.984  27.112  1.00  0.00     0.012 A 
ATOM     41  C   UNL A   1      43.656  33.800  28.004  1.00  0.00     0.148 A 
ATOM     42  C   UNL A   1      46.058  34.269  26.658  1.00  0.00     0.002 A 
ATOM     43  C   UNL A   1      43.939  35.057  27.477  1.00  0.00     0.091 A 
ATOM     44  F   UNL A   1      42.597  33.660  28.810  1.00  0.00    -0.205 F 
ATOM     45  C   UNL A   1      45.151  35.305  26.830  1.00  0.00     0.022 A 
BRANCH  43  46
ATOM     46  S   UNL A   1      42.754  36.401  27.608  1.00  0.00     0.127 S 
ATOM     47  O   UNL A   1      41.543  35.775  27.075  1.00  0.00    -0.237 OA
ATOM     48  O   UNL A   1      42.732  36.646  29.054  1.00  0.00    -0.237 OA
ATOM     49  O   UNL A   1      43.324  37.483  26.832  1.00  0.00    -0.744 OA
ENDBRANCH  43  46
ENDBRANCH  25  39
BRANCH  26  50
ATOM     50  C   UNL A   1      37.024  31.348  31.254  1.00  0.00     0.023 A 
ATOM     51  C   UNL A   1      36.441  31.810  32.451  1.00  0.00     0.012 A 
ATOM     52  C   UNL A   1      36.388  31.664  30.033  1.00  0.00     0.148 A 
ATOM     53  C   UNL A   1      35.276  32.585  32.431  1.00  0.00     0.002 A 
ATOM     54  C   UNL A   1      35.225  32.428  30.019  1.00  0.00     0.091 A 
ATOM     55  F   UNL A   1      36.974  31.293  28.887  1.00  0.00    -0.205 F 
ATOM     56  C   UNL A   1      34.673  32.900  31.217  1.00  0.00     0.022 A 
BRANCH  54  57
ATOM     57  S   UNL A   1      34.400  32.888  28.490  1.00  0.00     0.127 S 
ATOM     58  O   UNL A   1      33.883  31.600  28.025  1.00  0.00    -0.237 OA
ATOM     59  O   UNL A   1      33.381  33.820  28.965  1.00  0.00    -0.237 OA
ATOM     60  O   UNL A   1      35.436  33.458  27.638  1.00  0.00    -0.744 OA
ENDBRANCH  54  57
ENDBRANCH  26  50
BRANCH  38  61
ATOM     61  C   UNL A   1      42.669  30.312  33.850  1.00  0.00     0.023 A 
ATOM     62  C   UNL A   1      42.207  28.988  33.701  1.00  0.00     0.012 A 
ATOM     63  C   UNL A   1      43.265  30.691  35.067  1.00  0.00     0.148 A 
ATOM     64  C   UNL A   1      42.312  28.070  34.747  1.00  0.00     0.002 A 
ATOM     65  C   UNL A   1      43.416  29.759  36.087  1.00  0.00     0.091 A 
ATOM     66  F   UNL A   1      43.707  31.952  35.194  1.00  0.00    -0.205 F 
ATOM     67  C   UNL A   1      42.931  28.451  35.935  1.00  0.00     0.022 A 
BRANCH  65  68
ATOM     68  S   UNL A   1      44.339  30.139  37.579  1.00  0.00     0.127 S 
ATOM     69  O   UNL A   1      45.544  30.768  37.043  1.00  0.00    -0.237 OA
ATOM     70  O   UNL A   1      43.436  31.050  38.285  1.00  0.00    -0.237 OA
ATOM     71  O   UNL A   1      44.543  28.864  38.258  1.00  0.00    -0.744 OA
ENDBRANCH  65  68
ENDBRANCH  38  61
ENDBRANCH  12  13
ENDBRANCH   5   7
ENDBRANCH   2   3
ENDBRANCH   1   2
BRANCH   1  72
ATOM     72  C   UNL A   1      37.074  21.295  25.107  1.00  0.00     0.118 C 
BRANCH  72  73
ATOM     73  N   UNL A   1      35.992  21.252  26.084  1.00  0.00    -0.351 N 
ATOM     74  C   UNL A   1      34.754  21.797  26.203  1.00  0.00     0.281 C 
ATOM     75  H   UNL A   1      36.218  20.682  26.855  1.00  0.00     0.163 HD
ATOM     76  O   UNL A   1      34.275  21.683  27.341  1.00  0.00    -0.268 OA
BRANCH  74  77
ATOM     77  C   UNL A   1      33.952  22.504  25.078  1.00  0.00     0.178 C 
ATOM     78  C   UNL A   1      34.714  22.903  23.810  1.00  0.00     0.079 C 
ATOM     79  C   UNL A   1      32.887  21.493  24.456  1.00  0.00     0.062 C 
ATOM     80  C   UNL A   1      33.687  23.030  22.694  1.00  0.00     0.008 C 
ATOM     81  C   UNL A   1      32.534  22.116  23.078  1.00  0.00     0.011 C 
BRANCH  77  82
ATOM     82  N   UNL A   1      33.084  23.590  25.607  1.00  0.00    -0.331 N 
ATOM     83  H   UNL A   1      32.637  23.187  26.431  1.00  0.00     0.347 HD
ATOM     84  H   UNL A   1      32.595  23.832  24.745  1.00  0.00     0.347 HD
BRANCH  82  85
ATOM     85  C   UNL A   1      33.478  24.926  26.019  1.00  0.00     0.183 C 
ATOM     86  C   UNL A   1      33.654  26.112  25.131  1.00  0.00     0.071 C 
ATOM     87  C   UNL A   1      32.526  26.070  26.132  1.00  0.00     0.071 C 
ENDBRANCH  82  85
ENDBRANCH  77  82
BRANCH  79  88
ATOM     88  C   UNL A   1      33.297  20.010  24.248  1.00  0.00     0.032 C 
BRANCH  88  89
ATOM     89  C   UNL A   1      32.527  18.945  25.052  1.00  0.00     0.123 C 
BRANCH  89  90
ATOM     90  N   UNL A   1      33.011  17.586  24.924  1.00  0.00    -0.337 N 
ATOM     91  C   UNL A   1      32.716  16.534  25.746  1.00  0.00     0.107 A 
ATOM     92  C   UNL A   1      33.819  17.113  23.928  1.00  0.00     0.199 A 
ATOM     93  C   UNL A   1      33.388  15.462  25.206  1.00  0.00     0.130 A 
ATOM     94  N   UNL A   1      34.056  15.826  24.069  1.00  0.00    -0.245 NA
ENDBRANCH  89  90
ENDBRANCH  88  89
ENDBRANCH  79  88
ENDBRANCH  74  77
ENDBRANCH  72  73
ENDBRANCH   1  72
TORSDOF 18
ENDMDL
