MODEL 1
REMARK VINA RESULT:     -12.6      0.000      0.000
REMARK SMILES O=C(COc1ccc(-c2cc3cc(Br)ccc3oc2=O)cc1)NCCCNC(=O)c1ccc(-c2c3nc(c(-c4cccc(S(=O)(=O)[O-])c4F)c4ccc([nH]4)c(-c4cccc(S(=O)(=O)[O-])c4F)c4nc(c(-c5cccc(S(=O)(=O)[O-])c5F)c5ccc2[nH]5)C=C4)C=C3)cc1
REMARK SMILES IDX 25 1 24 2 23 3 1 4 2 5 3 7 4 8 5 9 6 10 22 11 7 12 21 13
REMARK SMILES IDX 8 14 9 15 10 16 19 17 11 18 18 19 20 20 12 21 17 22 13 23
REMARK SMILES IDX 16 24 14 25 15 26 26 27 27 28 28 29 29 31 30 32 31 33 92 34
REMARK SMILES IDX 32 35 91 36 33 37 34 38 35 39 85 40 36 41 90 42 84 43 86 44
REMARK SMILES IDX 37 45 89 46 83 47 82 48 38 50 70 51 50 52 69 53 51 54 54 55
REMARK SMILES IDX 68 56 87 57 52 58 53 59 67 61 88 62 55 63 39 64 40 65 48 66
REMARK SMILES IDX 41 67 43 68 49 69 42 70 44 71 45 72 46 73 47 74 71 75 72 76
REMARK SMILES IDX 80 77 73 78 75 79 81 80 74 81 76 82 77 83 78 84 79 85 56 86
REMARK SMILES IDX 57 87 65 88 58 89 60 90 66 91 59 92 61 93 62 94 63 95 64 96
REMARK H PARENT 23 6 27 30 86 49 54 60
REMARK Flexibility Score: inf
ROOT
ATOM      1  C   UNL A   1      38.068  19.658  25.097  1.00  0.00     0.042 C 
ENDROOT
BRANCH   1   2
ATOM      2  C   UNL A   1      37.006  20.711  24.805  1.00  0.00     0.117 C 
BRANCH   2   3
ATOM      3  N   UNL A   1      35.679  20.366  25.274  1.00  0.00    -0.353 N 
ATOM      4  O   UNL A   1      35.389  22.270  26.521  1.00  0.00    -0.271 OA
ATOM      5  C   UNL A   1      34.932  21.237  26.038  1.00  0.00     0.257 C 
ATOM      6  H   UNL A   1      35.302  19.487  25.041  1.00  0.00     0.163 HD
BRANCH   5   7
ATOM      7  C   UNL A   1      33.458  20.847  26.216  1.00  0.00     0.329 C 
BRANCH   7   8
ATOM      8  O   UNL A   1      32.590  20.961  25.098  1.00  0.00    -0.484 OA
BRANCH   8   9
ATOM      9  C   UNL A   1      32.603  22.124  24.379  1.00  0.00     0.120 A 
ATOM     10  C   UNL A   1      31.577  23.018  24.688  1.00  0.00     0.047 A 
ATOM     11  C   UNL A   1      33.475  22.437  23.342  1.00  0.00     0.047 A 
ATOM     12  C   UNL A   1      31.365  24.160  23.907  1.00  0.00     0.013 A 
ATOM     13  C   UNL A   1      33.262  23.577  22.558  1.00  0.00     0.013 A 
ATOM     14  C   UNL A   1      32.164  24.418  22.786  1.00  0.00    -0.011 A 
BRANCH  14  15
ATOM     15  C   UNL A   1      31.719  25.475  21.826  1.00  0.00     0.068 A 
ATOM     16  C   UNL A   1      31.057  26.603  22.176  1.00  0.00     0.028 A 
ATOM     17  C   UNL A   1      32.801  25.882  20.854  1.00  0.00     0.344 A 
ATOM     18  C   UNL A   1      31.942  27.544  22.901  1.00  0.00     0.019 A 
ATOM     19  O   UNL A   1      33.708  26.804  21.403  1.00  0.00    -0.422 OA
ATOM     20  O   UNL A   1      32.916  25.396  19.740  1.00  0.00    -0.246 OA
ATOM     21  C   UNL A   1      31.506  28.327  23.965  1.00  0.00     0.027 A 
ATOM     22  C   UNL A   1      33.297  27.544  22.535  1.00  0.00     0.138 A 
ATOM     23  C   UNL A   1      32.452  29.049  24.694  1.00  0.00     0.018 A 
ATOM     24  C   UNL A   1      34.242  28.253  23.264  1.00  0.00     0.049 A 
ATOM     25  Br  UNL A   1      31.887  30.084  26.173  1.00  0.00    -0.051 Br
ATOM     26  C   UNL A   1      33.813  28.999  24.365  1.00  0.00     0.019 A 
ENDBRANCH  14  15
ENDBRANCH   8   9
ENDBRANCH   7   8
ENDBRANCH   5   7
ENDBRANCH   2   3
ENDBRANCH   1   2
BRANCH   1  27
ATOM     27  C   UNL A   1      39.332  20.189  25.766  1.00  0.00     0.118 C 
BRANCH  27  28
ATOM     28  N   UNL A   1      40.409  19.210  25.833  1.00  0.00    -0.352 N 
ATOM     29  C   UNL A   1      41.755  19.373  26.050  1.00  0.00     0.251 C 
ATOM     30  H   UNL A   1      40.124  18.276  25.702  1.00  0.00     0.163 HD
ATOM     31  O   UNL A   1      42.489  18.392  25.961  1.00  0.00    -0.269 OA
BRANCH  29  32
ATOM     32  C   UNL A   1      42.336  20.703  26.360  1.00  0.00     0.039 A 
ATOM     33  C   UNL A   1      42.825  21.475  25.300  1.00  0.00     0.014 A 
ATOM     34  C   UNL A   1      42.442  21.185  27.667  1.00  0.00     0.014 A 
ATOM     35  C   UNL A   1      43.359  22.744  25.545  1.00  0.00     0.010 A 
ATOM     36  C   UNL A   1      42.907  22.481  27.902  1.00  0.00     0.010 A 
ATOM     37  C   UNL A   1      43.375  23.274  26.845  1.00  0.00    -0.014 A 
BRANCH  37  38
ATOM     38  C   UNL A   1      43.851  24.660  27.095  1.00  0.00     0.031 A 
ATOM     39  C   UNL A   1      42.928  25.711  27.653  1.00  0.00     0.074 A 
ATOM     40  C   UNL A   1      45.112  24.995  26.755  1.00  0.00     0.049 A 
ATOM     41  N   UNL A   1      43.189  26.957  27.959  1.00  0.00    -0.248 NA
ATOM     42  C   UNL A   1      41.525  25.324  27.873  1.00  0.00     0.031 C 
ATOM     43  C   UNL A   1      46.078  24.103  26.106  1.00  0.00     0.029 A 
ATOM     44  N   UNL A   1      45.795  26.178  26.891  1.00  0.00    -0.354 N 
ATOM     45  C   UNL A   1      41.984  27.509  28.376  1.00  0.00     0.074 A 
ATOM     46  C   UNL A   1      40.982  26.473  28.251  1.00  0.00     0.031 C 
ATOM     47  C   UNL A   1      47.230  24.765  25.918  1.00  0.00     0.029 A 
ATOM     48  C   UNL A   1      47.086  26.128  26.418  1.00  0.00     0.049 A 
ATOM     49  H   UNL A   1      45.399  26.986  27.291  1.00  0.00     0.167 HD
ATOM     50  C   UNL A   1      41.738  28.753  28.855  1.00  0.00     0.034 A 
ATOM     51  C   UNL A   1      48.052  27.068  26.403  1.00  0.00     0.034 A 
ATOM     52  C   UNL A   1      42.744  29.768  29.028  1.00  0.00     0.049 A 
ATOM     53  C   UNL A   1      47.777  28.410  27.026  1.00  0.00     0.074 A 
ATOM     54  C   UNL A   1      42.611  31.026  29.591  1.00  0.00     0.029 A 
ATOM     55  N   UNL A   1      44.070  29.642  28.643  1.00  0.00    -0.354 N 
ATOM     56  N   UNL A   1      46.677  28.850  27.587  1.00  0.00    -0.248 NA
ATOM     57  C   UNL A   1      48.893  29.367  27.057  1.00  0.00     0.031 C 
ATOM     58  C   UNL A   1      43.857  31.663  29.539  1.00  0.00     0.029 A 
ATOM     59  C   UNL A   1      44.767  30.798  28.955  1.00  0.00     0.049 A 
ATOM     60  H   UNL A   1      44.458  28.848  28.210  1.00  0.00     0.167 HD
ATOM     61  C   UNL A   1      46.978  30.120  28.068  1.00  0.00     0.074 A 
ATOM     62  C   UNL A   1      48.371  30.366  27.756  1.00  0.00     0.031 C 
ATOM     63  C   UNL A   1      46.166  31.010  28.691  1.00  0.00     0.034 A 
BRANCH  50  64
ATOM     64  C   UNL A   1      40.331  29.064  29.299  1.00  0.00     0.023 A 
ATOM     65  C   UNL A   1      39.389  29.499  28.344  1.00  0.00     0.012 A 
ATOM     66  C   UNL A   1      39.922  28.870  30.633  1.00  0.00     0.148 A 
ATOM     67  C   UNL A   1      38.073  29.769  28.715  1.00  0.00     0.002 A 
ATOM     68  C   UNL A   1      38.597  29.102  30.986  1.00  0.00     0.091 A 
ATOM     69  F   UNL A   1      40.835  28.476  31.533  1.00  0.00    -0.205 F 
ATOM     70  C   UNL A   1      37.674  29.560  30.032  1.00  0.00     0.022 A 
BRANCH  68  71
ATOM     71  S   UNL A   1      37.969  28.790  32.641  1.00  0.00     0.127 S 
ATOM     72  O   UNL A   1      38.899  29.564  33.461  1.00  0.00    -0.237 OA
ATOM     73  O   UNL A   1      36.615  29.343  32.569  1.00  0.00    -0.237 OA
ATOM     74  O   UNL A   1      38.021  27.345  32.822  1.00  0.00    -0.744 OA
ENDBRANCH  68  71
ENDBRANCH  50  64
BRANCH  51  75
ATOM     75  C   UNL A   1      49.404  26.732  25.875  1.00  0.00     0.023 A 
ATOM     76  C   UNL A   1      50.274  25.953  26.661  1.00  0.00     0.012 A 
ATOM     77  C   UNL A   1      49.817  27.142  24.593  1.00  0.00     0.148 A 
ATOM     78  C   UNL A   1      51.545  25.615  26.194  1.00  0.00     0.002 A 
ATOM     79  C   UNL A   1      51.063  26.757  24.113  1.00  0.00     0.091 A 
ATOM     80  F   UNL A   1      48.979  27.895  23.865  1.00  0.00    -0.205 F 
ATOM     81  C   UNL A   1      51.935  26.007  24.917  1.00  0.00     0.022 A 
BRANCH  79  82
ATOM     82  S   UNL A   1      51.588  27.102  22.430  1.00  0.00     0.127 S 
ATOM     83  O   UNL A   1      51.753  28.553  22.458  1.00  0.00    -0.237 OA
ATOM     84  O   UNL A   1      52.836  26.343  22.335  1.00  0.00    -0.237 OA
ATOM     85  O   UNL A   1      50.518  26.599  21.579  1.00  0.00    -0.744 OA
ENDBRANCH  79  82
ENDBRANCH  51  75
BRANCH  63  86
ATOM     86  C   UNL A   1      46.770  32.328  29.102  1.00  0.00     0.023 A 
ATOM     87  C   UNL A   1      47.376  32.452  30.368  1.00  0.00     0.012 A 
ATOM     88  C   UNL A   1      46.780  33.427  28.222  1.00  0.00     0.148 A 
ATOM     89  C   UNL A   1      47.946  33.661  30.767  1.00  0.00     0.002 A 
ATOM     90  C   UNL A   1      47.391  34.615  28.609  1.00  0.00     0.091 A 
ATOM     91  F   UNL A   1      46.179  33.301  27.028  1.00  0.00    -0.205 F 
ATOM     92  C   UNL A   1      47.963  34.738  29.884  1.00  0.00     0.022 A 
BRANCH  90  93
ATOM     93  S   UNL A   1      47.530  36.015  27.490  1.00  0.00     0.127 S 
ATOM     94  O   UNL A   1      48.088  37.043  28.365  1.00  0.00    -0.237 OA
ATOM     95  O   UNL A   1      48.455  35.516  26.470  1.00  0.00    -0.237 OA
ATOM     96  O   UNL A   1      46.180  36.259  27.002  1.00  0.00    -0.744 OA
ENDBRANCH  90  93
ENDBRANCH  63  86
ENDBRANCH  37  38
ENDBRANCH  29  32
ENDBRANCH  27  28
ENDBRANCH   1  27
TORSDOF 16
ENDMDL
MODEL 2
REMARK VINA RESULT:     -12.5      4.592      7.992
REMARK SMILES O=C(COc1ccc(-c2cc3cc(Br)ccc3oc2=O)cc1)NCCCNC(=O)c1ccc(-c2c3nc(c(-c4cccc(S(=O)(=O)[O-])c4F)c4ccc([nH]4)c(-c4cccc(S(=O)(=O)[O-])c4F)c4nc(c(-c5cccc(S(=O)(=O)[O-])c5F)c5ccc2[nH]5)C=C4)C=C3)cc1
REMARK SMILES IDX 25 1 24 2 23 3 1 4 2 5 3 7 4 8 5 9 6 10 22 11 7 12 21 13
REMARK SMILES IDX 8 14 9 15 10 16 19 17 11 18 18 19 20 20 12 21 17 22 13 23
REMARK SMILES IDX 16 24 14 25 15 26 26 27 27 28 28 29 29 31 30 32 31 33 92 34
REMARK SMILES IDX 32 35 91 36 33 37 34 38 35 39 85 40 36 41 90 42 84 43 86 44
REMARK SMILES IDX 37 45 89 46 83 47 82 48 38 50 70 51 50 52 69 53 51 54 54 55
REMARK SMILES IDX 68 56 87 57 52 58 53 59 67 61 88 62 55 63 39 64 40 65 48 66
REMARK SMILES IDX 41 67 43 68 49 69 42 70 44 71 45 72 46 73 47 74 71 75 72 76
REMARK SMILES IDX 80 77 73 78 75 79 81 80 74 81 76 82 77 83 78 84 79 85 56 86
REMARK SMILES IDX 57 87 65 88 58 89 60 90 66 91 59 92 61 93 62 94 63 95 64 96
REMARK H PARENT 23 6 27 30 86 49 54 60
REMARK Flexibility Score: inf
ROOT
ATOM      1  C   UNL A   1      42.254  18.451  26.087  1.00  0.00     0.042 C 
ENDROOT
BRANCH   1   2
ATOM      2  C   UNL A   1      43.575  18.764  25.394  1.00  0.00     0.117 C 
BRANCH   2   3
ATOM      3  N   UNL A   1      44.156  20.038  25.766  1.00  0.00    -0.353 N 
ATOM      4  O   UNL A   1      44.681  20.669  23.624  1.00  0.00    -0.271 OA
ATOM      5  C   UNL A   1      44.589  20.940  24.818  1.00  0.00     0.257 C 
ATOM      6  H   UNL A   1      44.245  20.264  26.720  1.00  0.00     0.163 HD
BRANCH   5   7
ATOM      7  C   UNL A   1      44.915  22.342  25.354  1.00  0.00     0.329 C 
BRANCH   7   8
ATOM      8  O   UNL A   1      46.078  22.504  26.153  1.00  0.00    -0.484 OA
BRANCH   8   9
ATOM      9  C   UNL A   1      46.019  23.350  27.226  1.00  0.00     0.120 A 
ATOM     10  C   UNL A   1      44.907  23.177  28.052  1.00  0.00     0.047 A 
ATOM     11  C   UNL A   1      46.903  24.389  27.500  1.00  0.00     0.047 A 
ATOM     12  C   UNL A   1      44.630  24.089  29.076  1.00  0.00     0.013 A 
ATOM     13  C   UNL A   1      46.624  25.304  28.523  1.00  0.00     0.013 A 
ATOM     14  C   UNL A   1      45.448  25.207  29.281  1.00  0.00    -0.011 A 
BRANCH  14  15
ATOM     15  C   UNL A   1      44.953  26.295  30.180  1.00  0.00     0.068 A 
ATOM     16  C   UNL A   1      44.190  26.095  31.280  1.00  0.00     0.028 A 
ATOM     17  C   UNL A   1      46.031  27.281  30.563  1.00  0.00     0.344 A 
ATOM     18  C   UNL A   1      44.971  25.463  32.369  1.00  0.00     0.019 A 
ATOM     19  O   UNL A   1      46.841  26.820  31.614  1.00  0.00    -0.422 OA
ATOM     20  O   UNL A   1      46.223  28.327  29.964  1.00  0.00    -0.246 OA
ATOM     21  C   UNL A   1      44.436  24.508  33.229  1.00  0.00     0.027 A 
ATOM     22  C   UNL A   1      46.333  25.793  32.442  1.00  0.00     0.138 A 
ATOM     23  C   UNL A   1      45.295  23.845  34.107  1.00  0.00     0.018 A 
ATOM     24  C   UNL A   1      47.192  25.128  33.305  1.00  0.00     0.049 A 
ATOM     25  Br  UNL A   1      44.598  22.511  35.252  1.00  0.00    -0.051 Br
ATOM     26  C   UNL A   1      46.667  24.133  34.134  1.00  0.00     0.019 A 
ENDBRANCH  14  15
ENDBRANCH   8   9
ENDBRANCH   7   8
ENDBRANCH   5   7
ENDBRANCH   2   3
ENDBRANCH   1   2
BRANCH   1  27
ATOM     27  C   UNL A   1      41.532  19.661  26.670  1.00  0.00     0.118 C 
BRANCH  27  28
ATOM     28  N   UNL A   1      40.147  19.776  26.234  1.00  0.00    -0.352 N 
ATOM     29  C   UNL A   1      39.314  20.866  26.178  1.00  0.00     0.251 C 
ATOM     30  H   UNL A   1      39.741  18.932  25.928  1.00  0.00     0.163 HD
ATOM     31  O   UNL A   1      38.137  20.694  25.864  1.00  0.00    -0.269 OA
BRANCH  29  32
ATOM     32  C   UNL A   1      39.794  22.230  26.512  1.00  0.00     0.039 A 
ATOM     33  C   UNL A   1      40.803  22.359  27.473  1.00  0.00     0.014 A 
ATOM     34  C   UNL A   1      39.249  23.377  25.929  1.00  0.00     0.014 A 
ATOM     35  C   UNL A   1      41.302  23.623  27.800  1.00  0.00     0.010 A 
ATOM     36  C   UNL A   1      39.798  24.632  26.202  1.00  0.00     0.010 A 
ATOM     37  C   UNL A   1      40.827  24.771  27.144  1.00  0.00    -0.014 A 
BRANCH  37  38
ATOM     38  C   UNL A   1      41.424  26.105  27.418  1.00  0.00     0.031 A 
ATOM     39  C   UNL A   1      40.700  27.125  28.256  1.00  0.00     0.074 A 
ATOM     40  C   UNL A   1      42.606  26.427  26.853  1.00  0.00     0.049 A 
ATOM     41  N   UNL A   1      41.090  28.320  28.618  1.00  0.00    -0.248 NA
ATOM     42  C   UNL A   1      39.352  26.769  28.730  1.00  0.00     0.031 C 
ATOM     43  C   UNL A   1      43.363  25.573  25.933  1.00  0.00     0.029 A 
ATOM     44  N   UNL A   1      43.370  27.562  26.954  1.00  0.00    -0.354 N 
ATOM     45  C   UNL A   1      40.032  28.870  29.331  1.00  0.00     0.074 A 
ATOM     46  C   UNL A   1      38.967  27.890  29.322  1.00  0.00     0.031 C 
ATOM     47  C   UNL A   1      44.488  26.207  25.570  1.00  0.00     0.029 A 
ATOM     48  C   UNL A   1      44.531  27.515  26.217  1.00  0.00     0.049 A 
ATOM     49  H   UNL A   1      43.113  28.337  27.504  1.00  0.00     0.167 HD
ATOM     50  C   UNL A   1      39.963  30.065  29.968  1.00  0.00     0.034 A 
ATOM     51  C   UNL A   1      45.525  28.414  26.088  1.00  0.00     0.034 A 
ATOM     52  C   UNL A   1      41.041  31.017  30.020  1.00  0.00     0.049 A 
ATOM     53  C   UNL A   1      45.464  29.693  26.880  1.00  0.00     0.074 A 
ATOM     54  C   UNL A   1      41.100  32.213  30.715  1.00  0.00     0.029 A 
ATOM     55  N   UNL A   1      42.249  30.884  29.353  1.00  0.00    -0.354 N 
ATOM     56  N   UNL A   1      44.531  30.111  27.700  1.00  0.00    -0.248 NA
ATOM     57  C   UNL A   1      46.617  30.599  26.766  1.00  0.00     0.031 C 
ATOM     58  C   UNL A   1      42.344  32.806  30.463  1.00  0.00     0.029 A 
ATOM     59  C   UNL A   1      43.062  31.973  29.620  1.00  0.00     0.049 A 
ATOM     60  H   UNL A   1      42.492  30.126  28.774  1.00  0.00     0.167 HD
ATOM     61  C   UNL A   1      44.998  31.311  28.225  1.00  0.00     0.074 A 
ATOM     62  C   UNL A   1      46.309  31.537  27.651  1.00  0.00     0.031 C 
ATOM     63  C   UNL A   1      44.387  32.160  29.088  1.00  0.00     0.034 A 
BRANCH  50  64
ATOM     64  C   UNL A   1      38.699  30.379  30.726  1.00  0.00     0.023 A 
ATOM     65  C   UNL A   1      38.562  29.922  32.054  1.00  0.00     0.012 A 
ATOM     66  C   UNL A   1      37.680  31.170  30.160  1.00  0.00     0.148 A 
ATOM     67  C   UNL A   1      37.419  30.218  32.794  1.00  0.00     0.002 A 
ATOM     68  C   UNL A   1      36.561  31.495  30.919  1.00  0.00     0.091 A 
ATOM     69  F   UNL A   1      37.816  31.578  28.891  1.00  0.00    -0.205 F 
ATOM     70  C   UNL A   1      36.424  31.013  32.231  1.00  0.00     0.022 A 
BRANCH  68  71
ATOM     71  S   UNL A   1      35.260  32.575  30.310  1.00  0.00     0.127 S 
ATOM     72  O   UNL A   1      36.010  33.789  29.992  1.00  0.00    -0.237 OA
ATOM     73  O   UNL A   1      34.768  31.841  29.143  1.00  0.00    -0.237 OA
ATOM     74  O   UNL A   1      34.298  32.694  31.397  1.00  0.00    -0.744 OA
ENDBRANCH  68  71
ENDBRANCH  50  64
BRANCH  51  75
ATOM     75  C   UNL A   1      46.717  28.086  25.257  1.00  0.00     0.023 A 
ATOM     76  C   UNL A   1      46.634  28.209  23.857  1.00  0.00     0.012 A 
ATOM     77  C   UNL A   1      47.937  27.692  25.840  1.00  0.00     0.148 A 
ATOM     78  C   UNL A   1      47.733  27.916  23.048  1.00  0.00     0.002 A 
ATOM     79  C   UNL A   1      49.044  27.453  25.033  1.00  0.00     0.091 A 
ATOM     80  F   UNL A   1      47.994  27.567  27.174  1.00  0.00    -0.205 F 
ATOM     81  C   UNL A   1      48.940  27.549  23.637  1.00  0.00     0.022 A 
BRANCH  79  82
ATOM     82  S   UNL A   1      50.669  27.110  25.716  1.00  0.00     0.127 S 
ATOM     83  O   UNL A   1      50.456  25.820  26.366  1.00  0.00    -0.237 OA
ATOM     84  O   UNL A   1      51.503  27.064  24.514  1.00  0.00    -0.237 OA
ATOM     85  O   UNL A   1      50.961  28.230  26.602  1.00  0.00    -0.744 OA
ENDBRANCH  79  82
ENDBRANCH  51  75
BRANCH  63  86
ATOM     86  C   UNL A   1      45.138  33.404  29.486  1.00  0.00     0.023 A 
ATOM     87  C   UNL A   1      46.023  33.363  30.582  1.00  0.00     0.012 A 
ATOM     88  C   UNL A   1      45.006  34.598  28.751  1.00  0.00     0.148 A 
ATOM     89  C   UNL A   1      46.733  34.501  30.964  1.00  0.00     0.002 A 
ATOM     90  C   UNL A   1      45.751  35.716  29.110  1.00  0.00     0.091 A 
ATOM     91  F   UNL A   1      44.142  34.629  27.724  1.00  0.00    -0.205 F 
ATOM     92  C   UNL A   1      46.606  35.673  30.222  1.00  0.00     0.022 A 
BRANCH  90  93
ATOM     93  S   UNL A   1      45.706  37.232  28.147  1.00  0.00     0.127 S 
ATOM     94  O   UNL A   1      46.545  38.121  28.947  1.00  0.00    -0.237 OA
ATOM     95  O   UNL A   1      46.299  36.818  26.874  1.00  0.00    -0.237 OA
ATOM     96  O   UNL A   1      44.298  37.596  28.058  1.00  0.00    -0.744 OA
ENDBRANCH  90  93
ENDBRANCH  63  86
ENDBRANCH  37  38
ENDBRANCH  29  32
ENDBRANCH  27  28
ENDBRANCH   1  27
TORSDOF 16
ENDMDL
MODEL 3
REMARK VINA RESULT:     -12.0      2.738      7.781
REMARK SMILES O=C(COc1ccc(-c2cc3cc(Br)ccc3oc2=O)cc1)NCCCNC(=O)c1ccc(-c2c3nc(c(-c4cccc(S(=O)(=O)[O-])c4F)c4ccc([nH]4)c(-c4cccc(S(=O)(=O)[O-])c4F)c4nc(c(-c5cccc(S(=O)(=O)[O-])c5F)c5ccc2[nH]5)C=C4)C=C3)cc1
REMARK SMILES IDX 25 1 24 2 23 3 1 4 2 5 3 7 4 8 5 9 6 10 22 11 7 12 21 13
REMARK SMILES IDX 8 14 9 15 10 16 19 17 11 18 18 19 20 20 12 21 17 22 13 23
REMARK SMILES IDX 16 24 14 25 15 26 26 27 27 28 28 29 29 31 30 32 31 33 92 34
REMARK SMILES IDX 32 35 91 36 33 37 34 38 35 39 85 40 36 41 90 42 84 43 86 44
REMARK SMILES IDX 37 45 89 46 83 47 82 48 38 50 70 51 50 52 69 53 51 54 54 55
REMARK SMILES IDX 68 56 87 57 52 58 53 59 67 61 88 62 55 63 39 64 40 65 48 66
REMARK SMILES IDX 41 67 43 68 49 69 42 70 44 71 45 72 46 73 47 74 71 75 72 76
REMARK SMILES IDX 80 77 73 78 75 79 81 80 74 81 76 82 77 83 78 84 79 85 56 86
REMARK SMILES IDX 57 87 65 88 58 89 60 90 66 91 59 92 61 93 62 94 63 95 64 96
REMARK H PARENT 23 6 27 30 86 49 54 60
REMARK Flexibility Score: inf
ROOT
ATOM      1  C   UNL A   1      37.717  20.609  25.022  1.00  0.00     0.042 C 
ENDROOT
BRANCH   1   2
ATOM      2  C   UNL A   1      36.432  21.362  24.699  1.00  0.00     0.117 C 
BRANCH   2   3
ATOM      3  N   UNL A   1      35.235  20.546  24.744  1.00  0.00    -0.353 N 
ATOM      4  O   UNL A   1      34.399  21.494  26.659  1.00  0.00    -0.271 OA
ATOM      5  C   UNL A   1      34.256  20.749  25.693  1.00  0.00     0.257 C 
ATOM      6  H   UNL A   1      35.119  19.829  24.080  1.00  0.00     0.163 HD
BRANCH   5   7
ATOM      7  C   UNL A   1      32.939  20.002  25.439  1.00  0.00     0.329 C 
BRANCH   7   8
ATOM      8  O   UNL A   1      31.802  20.755  25.043  1.00  0.00    -0.484 OA
BRANCH   8   9
ATOM      9  C   UNL A   1      31.998  21.908  24.336  1.00  0.00     0.120 A 
ATOM     10  C   UNL A   1      31.377  23.039  24.868  1.00  0.00     0.047 A 
ATOM     11  C   UNL A   1      32.673  22.021  23.124  1.00  0.00     0.047 A 
ATOM     12  C   UNL A   1      31.346  24.241  24.151  1.00  0.00     0.013 A 
ATOM     13  C   UNL A   1      32.639  23.222  22.405  1.00  0.00     0.013 A 
ATOM     14  C   UNL A   1      31.917  24.328  22.875  1.00  0.00    -0.011 A 
BRANCH  14  15
ATOM     15  C   UNL A   1      31.604  25.527  22.038  1.00  0.00     0.068 A 
ATOM     16  C   UNL A   1      31.004  26.650  22.497  1.00  0.00     0.028 A 
ATOM     17  C   UNL A   1      32.766  25.967  21.180  1.00  0.00     0.344 A 
ATOM     18  C   UNL A   1      31.909  27.423  23.379  1.00  0.00     0.019 A 
ATOM     19  O   UNL A   1      33.702  26.741  21.886  1.00  0.00    -0.422 OA
ATOM     20  O   UNL A   1      32.910  25.616  20.019  1.00  0.00    -0.246 OA
ATOM     21  C   UNL A   1      31.468  28.098  24.513  1.00  0.00     0.027 A 
ATOM     22  C   UNL A   1      33.279  27.364  23.082  1.00  0.00     0.138 A 
ATOM     23  C   UNL A   1      32.419  28.650  25.373  1.00  0.00     0.018 A 
ATOM     24  C   UNL A   1      34.228  27.901  23.941  1.00  0.00     0.049 A 
ATOM     25  Br  UNL A   1      31.844  29.533  26.944  1.00  0.00    -0.051 Br
ATOM     26  C   UNL A   1      33.790  28.536  25.106  1.00  0.00     0.019 A 
ENDBRANCH  14  15
ENDBRANCH   8   9
ENDBRANCH   7   8
ENDBRANCH   5   7
ENDBRANCH   2   3
ENDBRANCH   1   2
BRANCH   1  27
ATOM     27  C   UNL A   1      38.769  21.423  25.768  1.00  0.00     0.118 C 
BRANCH  27  28
ATOM     28  N   UNL A   1      39.957  20.656  26.117  1.00  0.00    -0.352 N 
ATOM     29  C   UNL A   1      41.161  21.059  26.639  1.00  0.00     0.251 C 
ATOM     30  H   UNL A   1      39.884  19.688  25.953  1.00  0.00     0.163 HD
ATOM     31  O   UNL A   1      42.060  20.229  26.757  1.00  0.00    -0.269 OA
BRANCH  29  32
ATOM     32  C   UNL A   1      41.404  22.469  27.034  1.00  0.00     0.039 A 
ATOM     33  C   UNL A   1      41.789  22.731  28.353  1.00  0.00     0.014 A 
ATOM     34  C   UNL A   1      41.226  23.533  26.146  1.00  0.00     0.014 A 
ATOM     35  C   UNL A   1      42.051  24.042  28.761  1.00  0.00     0.010 A 
ATOM     36  C   UNL A   1      41.560  24.833  26.533  1.00  0.00     0.010 A 
ATOM     37  C   UNL A   1      41.971  25.104  27.845  1.00  0.00    -0.014 A 
BRANCH  37  38
ATOM     38  C   UNL A   1      42.345  26.485  28.249  1.00  0.00     0.031 A 
ATOM     39  C   UNL A   1      43.764  26.974  28.132  1.00  0.00     0.074 A 
ATOM     40  C   UNL A   1      41.407  27.291  28.789  1.00  0.00     0.049 A 
ATOM     41  N   UNL A   1      44.254  28.155  28.410  1.00  0.00    -0.248 NA
ATOM     42  C   UNL A   1      44.771  26.005  27.668  1.00  0.00     0.031 C 
ATOM     43  C   UNL A   1      40.018  26.907  29.058  1.00  0.00     0.029 A 
ATOM     44  N   UNL A   1      41.481  28.591  29.222  1.00  0.00    -0.354 N 
ATOM     45  C   UNL A   1      45.623  28.066  28.185  1.00  0.00     0.074 A 
ATOM     46  C   UNL A   1      45.892  26.703  27.782  1.00  0.00     0.031 C 
ATOM     47  C   UNL A   1      39.370  27.953  29.594  1.00  0.00     0.029 A 
ATOM     48  C   UNL A   1      40.293  29.077  29.718  1.00  0.00     0.049 A 
ATOM     49  H   UNL A   1      42.306  29.126  29.181  1.00  0.00     0.167 HD
ATOM     50  C   UNL A   1      46.565  29.036  28.270  1.00  0.00     0.034 A 
ATOM     51  C   UNL A   1      39.977  30.293  30.204  1.00  0.00     0.034 A 
ATOM     52  C   UNL A   1      46.289  30.405  28.621  1.00  0.00     0.049 A 
ATOM     53  C   UNL A   1      41.021  31.377  30.200  1.00  0.00     0.074 A 
ATOM     54  C   UNL A   1      47.160  31.480  28.645  1.00  0.00     0.029 A 
ATOM     55  N   UNL A   1      45.048  30.888  29.009  1.00  0.00    -0.354 N 
ATOM     56  N   UNL A   1      42.270  31.319  29.805  1.00  0.00    -0.248 NA
ATOM     57  C   UNL A   1      40.597  32.707  30.661  1.00  0.00     0.031 C 
ATOM     58  C   UNL A   1      46.445  32.614  29.054  1.00  0.00     0.029 A 
ATOM     59  C   UNL A   1      45.128  32.245  29.273  1.00  0.00     0.049 A 
ATOM     60  H   UNL A   1      44.231  30.345  29.085  1.00  0.00     0.167 HD
ATOM     61  C   UNL A   1      42.771  32.609  29.938  1.00  0.00     0.074 A 
ATOM     62  C   UNL A   1      41.682  33.432  30.423  1.00  0.00     0.031 C 
ATOM     63  C   UNL A   1      44.025  33.066  29.701  1.00  0.00     0.034 A 
BRANCH  50  64
ATOM     64  C   UNL A   1      47.980  28.668  27.904  1.00  0.00     0.023 A 
ATOM     65  C   UNL A   1      48.406  28.820  26.568  1.00  0.00     0.012 A 
ATOM     66  C   UNL A   1      48.902  28.236  28.877  1.00  0.00     0.148 A 
ATOM     67  C   UNL A   1      49.716  28.516  26.199  1.00  0.00     0.002 A 
ATOM     68  C   UNL A   1      50.217  27.974  28.509  1.00  0.00     0.091 A 
ATOM     69  F   UNL A   1      48.475  28.077  30.138  1.00  0.00    -0.205 F 
ATOM     70  C   UNL A   1      50.623  28.103  27.171  1.00  0.00     0.022 A 
BRANCH  68  71
ATOM     71  S   UNL A   1      51.480  27.510  29.700  1.00  0.00     0.127 S 
ATOM     72  O   UNL A   1      52.638  27.292  28.834  1.00  0.00    -0.237 OA
ATOM     73  O   UNL A   1      51.567  28.704  30.542  1.00  0.00    -0.237 OA
ATOM     74  O   UNL A   1      50.972  26.327  30.381  1.00  0.00    -0.744 OA
ENDBRANCH  68  71
ENDBRANCH  50  64
BRANCH  51  75
ATOM     75  C   UNL A   1      38.579  30.579  30.631  1.00  0.00     0.023 A 
ATOM     76  C   UNL A   1      38.177  30.240  31.937  1.00  0.00     0.012 A 
ATOM     77  C   UNL A   1      37.661  31.215  29.773  1.00  0.00     0.148 A 
ATOM     78  C   UNL A   1      36.876  30.500  32.372  1.00  0.00     0.002 A 
ATOM     79  C   UNL A   1      36.385  31.520  30.230  1.00  0.00     0.091 A 
ATOM     80  F   UNL A   1      38.058  31.518  28.528  1.00  0.00    -0.205 F 
ATOM     81  C   UNL A   1      35.985  31.149  31.523  1.00  0.00     0.022 A 
BRANCH  79  82
ATOM     82  S   UNL A   1      35.220  32.474  29.251  1.00  0.00     0.127 S 
ATOM     83  O   UNL A   1      34.132  32.687  30.201  1.00  0.00    -0.237 OA
ATOM     84  O   UNL A   1      35.999  33.671  28.928  1.00  0.00    -0.237 OA
ATOM     85  O   UNL A   1      34.906  31.639  28.099  1.00  0.00    -0.744 OA
ENDBRANCH  79  82
ENDBRANCH  51  75
BRANCH  63  86
ATOM     86  C   UNL A   1      44.286  34.531  29.939  1.00  0.00     0.023 A 
ATOM     87  C   UNL A   1      44.654  34.972  31.225  1.00  0.00     0.012 A 
ATOM     88  C   UNL A   1      44.214  35.461  28.885  1.00  0.00     0.148 A 
ATOM     89  C   UNL A   1      44.907  36.323  31.467  1.00  0.00     0.002 A 
ATOM     90  C   UNL A   1      44.512  36.798  29.123  1.00  0.00     0.091 A 
ATOM     91  F   UNL A   1      43.840  35.030  27.670  1.00  0.00    -0.205 F 
ATOM     92  C   UNL A   1      44.846  37.233  30.415  1.00  0.00     0.022 A 
BRANCH  90  93
ATOM     93  S   UNL A   1      44.542  38.012  27.797  1.00  0.00     0.127 S 
ATOM     94  O   UNL A   1      43.169  37.949  27.303  1.00  0.00    -0.237 OA
ATOM     95  O   UNL A   1      44.878  39.248  28.506  1.00  0.00    -0.237 OA
ATOM     96  O   UNL A   1      45.572  37.554  26.875  1.00  0.00    -0.744 OA
ENDBRANCH  90  93
ENDBRANCH  63  86
ENDBRANCH  37  38
ENDBRANCH  29  32
ENDBRANCH  27  28
ENDBRANCH   1  27
TORSDOF 16
ENDMDL
