MODEL 1
REMARK VINA RESULT:     -10.3      0.000      0.000
REMARK SMILES O=C(CSc1nnnn1C1CC1)N[C@H](CO)C(=O)NCCCNC(=O)c1ccc(-c2c3nc(c(-c4cccc(S(=O)(=O)[O-])c4F)c4ccc([nH]4)c(-c4cccc(S(=O)(=O)[O-])c4F)c4nc(c(-c5cccc(S(=O)(=O)[O-])c5F)c5ccc2[nH]5)C=C4)C=C3)cc1
REMARK SMILES IDX 20 1 19 2 17 3 18 4 14 6 13 7 1 8 2 9 3 11 4 12 5 13 6 14
REMARK SMILES IDX 9 15 7 16 8 17 10 18 11 19 12 20 15 21 16 22 21 24 22 25
REMARK SMILES IDX 23 26 24 27 25 29 26 30 27 31 88 32 28 33 87 34 29 35 30 36
REMARK SMILES IDX 31 37 81 38 32 39 86 40 80 41 82 42 33 43 85 44 79 45 78 46
REMARK SMILES IDX 34 48 66 49 46 50 65 51 47 52 50 53 64 54 83 55 48 56 49 57
REMARK SMILES IDX 63 59 84 60 51 61 35 62 36 63 44 64 37 65 39 66 45 67 38 68
REMARK SMILES IDX 40 69 41 70 42 71 43 72 67 73 68 74 76 75 69 76 71 77 77 78
REMARK SMILES IDX 70 79 72 80 73 81 74 82 75 83 52 84 53 85 61 86 54 87 56 88
REMARK SMILES IDX 62 89 55 90 57 91 58 92 59 93 60 94
REMARK H PARENT 19 5 13 10 16 23 23 28 82 47 50 58
REMARK Flexibility Score: inf
ROOT
ATOM      1  C   UNL A   1      36.687  23.384  24.651  1.00  0.00     0.117 C 
ENDROOT
BRANCH   1   2
ATOM      2  N   UNL A   1      35.747  23.473  25.753  1.00  0.00    -0.354 N 
ATOM      3  C   UNL A   1      34.382  23.523  25.719  1.00  0.00     0.244 C 
ATOM      4  O   UNL A   1      33.756  23.386  26.773  1.00  0.00    -0.273 OA
ATOM      5  H   UNL A   1      36.149  23.500  26.651  1.00  0.00     0.163 HD
BRANCH   3   6
ATOM      6  C   UNL A   1      33.610  23.666  24.397  1.00  0.00     0.197 C 
BRANCH   6   7
ATOM      7  N   UNL A   1      33.529  25.114  24.139  1.00  0.00    -0.342 N 
ATOM      8  O   UNL A   1      33.587  25.154  21.859  1.00  0.00    -0.274 OA
ATOM      9  C   UNL A   1      33.346  25.718  22.927  1.00  0.00     0.231 C 
ATOM     10  H   UNL A   1      33.618  25.708  24.919  1.00  0.00     0.164 HD
BRANCH   9  11
ATOM     11  C   UNL A   1      32.691  27.094  22.918  1.00  0.00     0.178 C 
BRANCH  11  12
ATOM     12  S   UNL A   1      30.885  27.126  22.922  1.00  0.00    -0.075 SA
BRANCH  12  13
ATOM     13  C   UNL A   1      30.518  26.622  24.536  1.00  0.00     0.210 A 
ATOM     14  N   UNL A   1      29.837  25.533  24.814  1.00  0.00    -0.102 NA
ATOM     15  N   UNL A   1      31.004  27.140  25.717  1.00  0.00    -0.217 N 
ATOM     16  N   UNL A   1      29.900  25.376  26.174  1.00  0.00    -0.023 NA
ATOM     17  N   UNL A   1      30.632  26.331  26.729  1.00  0.00    -0.044 NA
BRANCH  15  18
ATOM     18  C   UNL A   1      31.745  28.347  26.022  1.00  0.00     0.112 C 
ATOM     19  C   UNL A   1      32.227  28.813  27.378  1.00  0.00     0.029 C 
ATOM     20  C   UNL A   1      33.219  28.307  26.384  1.00  0.00     0.029 C 
ENDBRANCH  15  18
ENDBRANCH  12  13
ENDBRANCH  11  12
ENDBRANCH   9  11
ENDBRANCH   6   7
BRANCH   6  21
ATOM     21  C   UNL A   1      32.337  22.800  24.381  1.00  0.00     0.191 C 
BRANCH  21  22
ATOM     22  O   UNL A   1      31.418  23.110  25.434  1.00  0.00    -0.394 OA
ATOM     23  H   UNL A   1      31.662  23.957  25.838  1.00  0.00     0.210 HD
ENDBRANCH  21  22
ENDBRANCH   6  21
ENDBRANCH   3   6
ENDBRANCH   1   2
BRANCH   1  24
ATOM     24  C   UNL A   1      37.359  22.029  24.498  1.00  0.00     0.042 C 
BRANCH  24  25
ATOM     25  C   UNL A   1      38.281  21.720  25.660  1.00  0.00     0.118 C 
BRANCH  25  26
ATOM     26  N   UNL A   1      38.835  20.361  25.606  1.00  0.00    -0.352 N 
ATOM     27  C   UNL A   1      40.134  19.973  25.892  1.00  0.00     0.251 C 
ATOM     28  H   UNL A   1      38.214  19.646  25.338  1.00  0.00     0.163 HD
ATOM     29  O   UNL A   1      40.555  18.873  25.584  1.00  0.00    -0.269 OA
BRANCH  27  30
ATOM     30  C   UNL A   1      40.994  20.972  26.552  1.00  0.00     0.039 A 
ATOM     31  C   UNL A   1      41.745  21.873  25.793  1.00  0.00     0.014 A 
ATOM     32  C   UNL A   1      40.859  21.117  27.929  1.00  0.00     0.014 A 
ATOM     33  C   UNL A   1      42.265  23.004  26.420  1.00  0.00     0.010 A 
ATOM     34  C   UNL A   1      41.241  22.305  28.505  1.00  0.00     0.010 A 
ATOM     35  C   UNL A   1      41.972  23.243  27.772  1.00  0.00    -0.014 A 
BRANCH  35  36
ATOM     36  C   UNL A   1      42.307  24.529  28.390  1.00  0.00     0.031 A 
ATOM     37  C   UNL A   1      41.291  25.618  28.260  1.00  0.00     0.074 A 
ATOM     38  C   UNL A   1      43.333  24.674  29.259  1.00  0.00     0.049 A 
ATOM     39  N   UNL A   1      41.429  26.769  27.683  1.00  0.00    -0.248 NA
ATOM     40  C   UNL A   1      39.933  25.370  28.768  1.00  0.00     0.031 C 
ATOM     41  C   UNL A   1      44.227  23.628  29.775  1.00  0.00     0.029 A 
ATOM     42  N   UNL A   1      43.678  25.760  30.006  1.00  0.00    -0.354 N 
ATOM     43  C   UNL A   1      40.255  27.477  27.953  1.00  0.00     0.074 A 
ATOM     44  C   UNL A   1      39.315  26.511  28.458  1.00  0.00     0.031 C 
ATOM     45  C   UNL A   1      44.783  24.047  30.930  1.00  0.00     0.029 A 
ATOM     46  C   UNL A   1      44.450  25.444  31.118  1.00  0.00     0.049 A 
ATOM     47  H   UNL A   1      43.406  26.679  29.780  1.00  0.00     0.167 HD
ATOM     48  C   UNL A   1      40.227  28.841  27.962  1.00  0.00     0.034 A 
ATOM     49  C   UNL A   1      44.771  26.258  32.149  1.00  0.00     0.034 A 
ATOM     50  C   UNL A   1      41.406  29.399  27.349  1.00  0.00     0.049 A 
ATOM     51  C   UNL A   1      44.599  27.649  31.681  1.00  0.00     0.074 A 
ATOM     52  C   UNL A   1      42.027  29.296  26.121  1.00  0.00     0.029 A 
ATOM     53  N   UNL A   1      42.334  29.963  28.190  1.00  0.00    -0.354 N 
ATOM     54  N   UNL A   1      45.344  28.202  30.764  1.00  0.00    -0.248 NA
ATOM     55  C   UNL A   1      43.348  28.330  31.964  1.00  0.00     0.031 C 
ATOM     56  C   UNL A   1      43.424  29.343  26.412  1.00  0.00     0.029 A 
ATOM     57  C   UNL A   1      43.566  29.522  27.790  1.00  0.00     0.049 A 
ATOM     58  H   UNL A   1      42.148  30.571  28.941  1.00  0.00     0.167 HD
ATOM     59  C   UNL A   1      44.469  29.005  30.048  1.00  0.00     0.074 A 
ATOM     60  C   UNL A   1      43.307  29.160  30.919  1.00  0.00     0.031 C 
ATOM     61  C   UNL A   1      44.642  29.215  28.707  1.00  0.00     0.034 A 
BRANCH  48  62
ATOM     62  C   UNL A   1      39.331  29.706  28.835  1.00  0.00     0.023 A 
ATOM     63  C   UNL A   1      39.551  29.660  30.234  1.00  0.00     0.012 A 
ATOM     64  C   UNL A   1      38.134  30.320  28.405  1.00  0.00     0.148 A 
ATOM     65  C   UNL A   1      38.601  30.123  31.151  1.00  0.00     0.002 A 
ATOM     66  C   UNL A   1      37.232  30.860  29.320  1.00  0.00     0.091 A 
ATOM     67  F   UNL A   1      37.778  30.275  27.119  1.00  0.00    -0.205 F 
ATOM     68  C   UNL A   1      37.441  30.731  30.694  1.00  0.00     0.022 A 
BRANCH  66  69
ATOM     69  S   UNL A   1      35.752  31.720  28.773  1.00  0.00     0.127 S 
ATOM     70  O   UNL A   1      35.118  32.049  30.045  1.00  0.00    -0.237 OA
ATOM     71  O   UNL A   1      36.313  32.859  28.046  1.00  0.00    -0.237 OA
ATOM     72  O   UNL A   1      35.049  30.765  27.924  1.00  0.00    -0.744 OA
ENDBRANCH  66  69
ENDBRANCH  48  62
BRANCH  49  73
ATOM     73  C   UNL A   1      45.075  25.928  33.556  1.00  0.00     0.023 A 
ATOM     74  C   UNL A   1      46.413  25.893  33.987  1.00  0.00     0.012 A 
ATOM     75  C   UNL A   1      44.052  25.899  34.532  1.00  0.00     0.148 A 
ATOM     76  C   UNL A   1      46.729  25.865  35.349  1.00  0.00     0.002 A 
ATOM     77  C   UNL A   1      44.372  25.863  35.887  1.00  0.00     0.091 A 
ATOM     78  F   UNL A   1      42.777  25.997  34.134  1.00  0.00    -0.205 F 
ATOM     79  C   UNL A   1      45.710  25.859  36.298  1.00  0.00     0.022 A 
BRANCH  77  80
ATOM     80  S   UNL A   1      43.112  25.868  37.169  1.00  0.00     0.127 S 
ATOM     81  O   UNL A   1      42.128  24.926  36.633  1.00  0.00    -0.237 OA
ATOM     82  O   UNL A   1      43.858  25.378  38.326  1.00  0.00    -0.237 OA
ATOM     83  O   UNL A   1      42.641  27.243  37.251  1.00  0.00    -0.744 OA
ENDBRANCH  77  80
ENDBRANCH  49  73
BRANCH  61  84
ATOM     84  C   UNL A   1      45.958  28.815  28.084  1.00  0.00     0.023 A 
ATOM     85  C   UNL A   1      47.098  29.645  28.135  1.00  0.00     0.012 A 
ATOM     86  C   UNL A   1      46.099  27.511  27.579  1.00  0.00     0.148 A 
ATOM     87  C   UNL A   1      48.335  29.202  27.661  1.00  0.00     0.002 A 
ATOM     88  C   UNL A   1      47.342  27.056  27.153  1.00  0.00     0.091 A 
ATOM     89  F   UNL A   1      45.014  26.721  27.540  1.00  0.00    -0.205 F 
ATOM     90  C   UNL A   1      48.461  27.902  27.181  1.00  0.00     0.022 A 
BRANCH  88  91
ATOM     91  S   UNL A   1      47.583  25.349  26.651  1.00  0.00     0.127 S 
ATOM     92  O   UNL A   1      47.291  24.621  27.883  1.00  0.00    -0.237 OA
ATOM     93  O   UNL A   1      46.586  25.180  25.591  1.00  0.00    -0.237 OA
ATOM     94  O   UNL A   1      48.961  25.272  26.178  1.00  0.00    -0.744 OA
ENDBRANCH  88  91
ENDBRANCH  61  84
ENDBRANCH  35  36
ENDBRANCH  27  30
ENDBRANCH  25  26
ENDBRANCH  24  25
ENDBRANCH   1  24
TORSDOF 20
ENDMDL
MODEL 2
REMARK VINA RESULT:     -10.1      4.510      9.561
REMARK SMILES O=C(CSc1nnnn1C1CC1)N[C@H](CO)C(=O)NCCCNC(=O)c1ccc(-c2c3nc(c(-c4cccc(S(=O)(=O)[O-])c4F)c4ccc([nH]4)c(-c4cccc(S(=O)(=O)[O-])c4F)c4nc(c(-c5cccc(S(=O)(=O)[O-])c5F)c5ccc2[nH]5)C=C4)C=C3)cc1
REMARK SMILES IDX 20 1 19 2 17 3 18 4 14 6 13 7 1 8 2 9 3 11 4 12 5 13 6 14
REMARK SMILES IDX 9 15 7 16 8 17 10 18 11 19 12 20 15 21 16 22 21 24 22 25
REMARK SMILES IDX 23 26 24 27 25 29 26 30 27 31 88 32 28 33 87 34 29 35 30 36
REMARK SMILES IDX 31 37 81 38 32 39 86 40 80 41 82 42 33 43 85 44 79 45 78 46
REMARK SMILES IDX 34 48 66 49 46 50 65 51 47 52 50 53 64 54 83 55 48 56 49 57
REMARK SMILES IDX 63 59 84 60 51 61 35 62 36 63 44 64 37 65 39 66 45 67 38 68
REMARK SMILES IDX 40 69 41 70 42 71 43 72 67 73 68 74 76 75 69 76 71 77 77 78
REMARK SMILES IDX 70 79 72 80 73 81 74 82 75 83 52 84 53 85 61 86 54 87 56 88
REMARK SMILES IDX 62 89 55 90 57 91 58 92 59 93 60 94
REMARK H PARENT 19 5 13 10 16 23 23 28 82 47 50 58
REMARK Flexibility Score: inf
ROOT
ATOM      1  C   UNL A   1      37.970  30.292  32.647  1.00  0.00     0.117 C 
ENDROOT
BRANCH   1   2
ATOM      2  N   UNL A   1      38.163  29.990  34.054  1.00  0.00    -0.354 N 
ATOM      3  C   UNL A   1      38.293  30.848  35.109  1.00  0.00     0.244 C 
ATOM      4  O   UNL A   1      38.240  30.394  36.254  1.00  0.00    -0.273 OA
ATOM      5  H   UNL A   1      38.205  29.032  34.279  1.00  0.00     0.163 HD
BRANCH   3   6
ATOM      6  C   UNL A   1      38.424  32.367  34.905  1.00  0.00     0.197 C 
BRANCH   6   7
ATOM      7  N   UNL A   1      37.081  32.832  34.518  1.00  0.00    -0.342 N 
ATOM      8  O   UNL A   1      36.301  33.620  36.511  1.00  0.00    -0.274 OA
ATOM      9  C   UNL A   1      36.219  33.566  35.284  1.00  0.00     0.231 C 
ATOM     10  H   UNL A   1      36.772  32.590  33.616  1.00  0.00     0.164 HD
BRANCH   9  11
ATOM     11  C   UNL A   1      35.208  34.446  34.559  1.00  0.00     0.178 C 
BRANCH  11  12
ATOM     12  S   UNL A   1      35.620  34.914  32.863  1.00  0.00    -0.075 SA
BRANCH  12  13
ATOM     13  C   UNL A   1      34.385  36.069  32.497  1.00  0.00     0.210 A 
ATOM     14  N   UNL A   1      34.200  37.170  33.189  1.00  0.00    -0.102 NA
ATOM     15  N   UNL A   1      33.570  36.115  31.386  1.00  0.00    -0.217 N 
ATOM     16  N   UNL A   1      33.265  37.902  32.505  1.00  0.00    -0.023 NA
ATOM     17  N   UNL A   1      32.898  37.283  31.393  1.00  0.00    -0.044 NA
BRANCH  15  18
ATOM     18  C   UNL A   1      33.306  35.160  30.330  1.00  0.00     0.112 C 
ATOM     19  C   UNL A   1      32.915  35.457  28.898  1.00  0.00     0.029 C 
ATOM     20  C   UNL A   1      34.285  34.940  29.191  1.00  0.00     0.029 C 
ENDBRANCH  15  18
ENDBRANCH  12  13
ENDBRANCH  11  12
ENDBRANCH   9  11
ENDBRANCH   6   7
BRANCH   6  21
ATOM     21  C   UNL A   1      39.651  32.726  34.047  1.00  0.00     0.191 C 
BRANCH  21  22
ATOM     22  O   UNL A   1      39.336  33.521  32.899  1.00  0.00    -0.394 OA
ATOM     23  H   UNL A   1      39.823  34.358  32.942  1.00  0.00     0.210 HD
ENDBRANCH  21  22
ENDBRANCH   6  21
ENDBRANCH   3   6
ENDBRANCH   1   2
BRANCH   1  24
ATOM     24  C   UNL A   1      36.520  30.481  32.233  1.00  0.00     0.042 C 
BRANCH  24  25
ATOM     25  C   UNL A   1      36.183  29.704  30.976  1.00  0.00     0.118 C 
BRANCH  25  26
ATOM     26  N   UNL A   1      35.695  30.559  29.887  1.00  0.00    -0.352 N 
ATOM     27  C   UNL A   1      36.420  31.037  28.807  1.00  0.00     0.251 C 
ATOM     28  H   UNL A   1      34.748  30.823  29.927  1.00  0.00     0.163 HD
ATOM     29  O   UNL A   1      35.996  31.931  28.097  1.00  0.00    -0.269 OA
BRANCH  27  30
ATOM     30  C   UNL A   1      37.749  30.439  28.583  1.00  0.00     0.039 A 
ATOM     31  C   UNL A   1      38.897  31.052  29.092  1.00  0.00     0.014 A 
ATOM     32  C   UNL A   1      37.786  29.157  28.046  1.00  0.00     0.014 A 
ATOM     33  C   UNL A   1      40.073  30.308  29.168  1.00  0.00     0.010 A 
ATOM     34  C   UNL A   1      38.902  28.384  28.266  1.00  0.00     0.010 A 
ATOM     35  C   UNL A   1      40.062  28.954  28.796  1.00  0.00    -0.014 A 
BRANCH  35  36
ATOM     36  C   UNL A   1      41.214  28.095  29.082  1.00  0.00     0.031 A 
ATOM     37  C   UNL A   1      41.799  28.197  30.454  1.00  0.00     0.074 A 
ATOM     38  C   UNL A   1      41.578  27.071  28.276  1.00  0.00     0.049 A 
ATOM     39  N   UNL A   1      42.999  28.555  30.782  1.00  0.00    -0.248 NA
ATOM     40  C   UNL A   1      40.922  27.942  31.608  1.00  0.00     0.031 C 
ATOM     41  C   UNL A   1      40.902  26.604  27.059  1.00  0.00     0.029 A 
ATOM     42  N   UNL A   1      42.529  26.118  28.478  1.00  0.00    -0.354 N 
ATOM     43  C   UNL A   1      43.098  28.351  32.161  1.00  0.00     0.074 A 
ATOM     44  C   UNL A   1      41.752  28.153  32.631  1.00  0.00     0.031 C 
ATOM     45  C   UNL A   1      41.260  25.328  26.812  1.00  0.00     0.029 A 
ATOM     46  C   UNL A   1      42.329  24.968  27.720  1.00  0.00     0.049 A 
ATOM     47  H   UNL A   1      43.284  26.230  29.099  1.00  0.00     0.167 HD
ATOM     48  C   UNL A   1      44.299  28.127  32.768  1.00  0.00     0.034 A 
ATOM     49  C   UNL A   1      42.970  23.784  27.847  1.00  0.00     0.034 A 
ATOM     50  C   UNL A   1      45.402  28.462  31.901  1.00  0.00     0.049 A 
ATOM     51  C   UNL A   1      44.236  24.043  28.564  1.00  0.00     0.074 A 
ATOM     52  C   UNL A   1      45.818  29.585  31.215  1.00  0.00     0.029 A 
ATOM     53  N   UNL A   1      46.105  27.413  31.360  1.00  0.00    -0.354 N 
ATOM     54  N   UNL A   1      45.221  24.738  28.065  1.00  0.00    -0.248 NA
ATOM     55  C   UNL A   1      44.276  23.842  30.001  1.00  0.00     0.031 C 
ATOM     56  C   UNL A   1      46.364  29.086  29.994  1.00  0.00     0.029 A 
ATOM     57  C   UNL A   1      46.294  27.692  30.034  1.00  0.00     0.049 A 
ATOM     58  H   UNL A   1      46.414  26.610  31.837  1.00  0.00     0.167 HD
ATOM     59  C   UNL A   1      45.730  25.438  29.149  1.00  0.00     0.074 A 
ATOM     60  C   UNL A   1      45.216  24.735  30.322  1.00  0.00     0.031 C 
ATOM     61  C   UNL A   1      46.267  26.687  28.993  1.00  0.00     0.034 A 
BRANCH  48  62
ATOM     62  C   UNL A   1      44.525  27.270  34.003  1.00  0.00     0.023 A 
ATOM     63  C   UNL A   1      45.278  27.842  35.058  1.00  0.00     0.012 A 
ATOM     64  C   UNL A   1      44.300  25.877  34.072  1.00  0.00     0.148 A 
ATOM     65  C   UNL A   1      45.841  27.063  36.077  1.00  0.00     0.002 A 
ATOM     66  C   UNL A   1      44.788  25.120  35.136  1.00  0.00     0.091 A 
ATOM     67  F   UNL A   1      43.732  25.235  33.049  1.00  0.00    -0.205 F 
ATOM     68  C   UNL A   1      45.590  25.700  36.120  1.00  0.00     0.022 A 
BRANCH  66  69
ATOM     69  S   UNL A   1      44.428  23.364  35.272  1.00  0.00     0.127 S 
ATOM     70  O   UNL A   1      45.035  23.041  36.559  1.00  0.00    -0.237 OA
ATOM     71  O   UNL A   1      42.965  23.352  35.255  1.00  0.00    -0.237 OA
ATOM     72  O   UNL A   1      45.039  22.759  34.094  1.00  0.00    -0.744 OA
ENDBRANCH  66  69
ENDBRANCH  48  62
BRANCH  49  73
ATOM     73  C   UNL A   1      42.506  22.419  27.526  1.00  0.00     0.023 A 
ATOM     74  C   UNL A   1      41.160  22.075  27.742  1.00  0.00     0.012 A 
ATOM     75  C   UNL A   1      43.315  21.536  26.774  1.00  0.00     0.148 A 
ATOM     76  C   UNL A   1      40.621  20.904  27.198  1.00  0.00     0.002 A 
ATOM     77  C   UNL A   1      42.776  20.368  26.241  1.00  0.00     0.091 A 
ATOM     78  F   UNL A   1      44.580  21.886  26.509  1.00  0.00    -0.205 F 
ATOM     79  C   UNL A   1      41.426  20.056  26.441  1.00  0.00     0.022 A 
BRANCH  77  80
ATOM     80  S   UNL A   1      43.747  19.233  25.242  1.00  0.00     0.127 S 
ATOM     81  O   UNL A   1      43.984  20.018  24.030  1.00  0.00    -0.237 OA
ATOM     82  O   UNL A   1      44.928  19.030  26.078  1.00  0.00    -0.237 OA
ATOM     83  O   UNL A   1      42.901  18.064  25.042  1.00  0.00    -0.744 OA
ENDBRANCH  77  80
ENDBRANCH  49  73
BRANCH  61  84
ATOM     84  C   UNL A   1      46.573  27.165  27.594  1.00  0.00     0.023 A 
ATOM     85  C   UNL A   1      45.655  27.930  26.844  1.00  0.00     0.012 A 
ATOM     86  C   UNL A   1      47.869  26.981  27.084  1.00  0.00     0.148 A 
ATOM     87  C   UNL A   1      46.006  28.466  25.602  1.00  0.00     0.002 A 
ATOM     88  C   UNL A   1      48.232  27.556  25.871  1.00  0.00     0.091 A 
ATOM     89  F   UNL A   1      48.742  26.259  27.804  1.00  0.00    -0.205 F 
ATOM     90  C   UNL A   1      47.300  28.289  25.121  1.00  0.00     0.022 A 
BRANCH  88  91
ATOM     91  S   UNL A   1      49.922  27.468  25.271  1.00  0.00     0.127 S 
ATOM     92  O   UNL A   1      49.804  28.037  23.931  1.00  0.00    -0.237 OA
ATOM     93  O   UNL A   1      50.648  28.306  26.228  1.00  0.00    -0.237 OA
ATOM     94  O   UNL A   1      50.285  26.057  25.334  1.00  0.00    -0.744 OA
ENDBRANCH  88  91
ENDBRANCH  61  84
ENDBRANCH  35  36
ENDBRANCH  27  30
ENDBRANCH  25  26
ENDBRANCH  24  25
ENDBRANCH   1  24
TORSDOF 20
ENDMDL
MODEL 3
REMARK VINA RESULT:     -10.1      2.995      7.776
REMARK SMILES O=C(CSc1nnnn1C1CC1)N[C@H](CO)C(=O)NCCCNC(=O)c1ccc(-c2c3nc(c(-c4cccc(S(=O)(=O)[O-])c4F)c4ccc([nH]4)c(-c4cccc(S(=O)(=O)[O-])c4F)c4nc(c(-c5cccc(S(=O)(=O)[O-])c5F)c5ccc2[nH]5)C=C4)C=C3)cc1
REMARK SMILES IDX 20 1 19 2 17 3 18 4 14 6 13 7 1 8 2 9 3 11 4 12 5 13 6 14
REMARK SMILES IDX 9 15 7 16 8 17 10 18 11 19 12 20 15 21 16 22 21 24 22 25
REMARK SMILES IDX 23 26 24 27 25 29 26 30 27 31 88 32 28 33 87 34 29 35 30 36
REMARK SMILES IDX 31 37 81 38 32 39 86 40 80 41 82 42 33 43 85 44 79 45 78 46
REMARK SMILES IDX 34 48 66 49 46 50 65 51 47 52 50 53 64 54 83 55 48 56 49 57
REMARK SMILES IDX 63 59 84 60 51 61 35 62 36 63 44 64 37 65 39 66 45 67 38 68
REMARK SMILES IDX 40 69 41 70 42 71 43 72 67 73 68 74 76 75 69 76 71 77 77 78
REMARK SMILES IDX 70 79 72 80 73 81 74 82 75 83 52 84 53 85 61 86 54 87 56 88
REMARK SMILES IDX 62 89 55 90 57 91 58 92 59 93 60 94
REMARK H PARENT 19 5 13 10 16 23 23 28 82 47 50 58
REMARK Flexibility Score: inf
ROOT
ATOM      1  C   UNL A   1      33.105  30.244  26.413  1.00  0.00     0.117 C 
ENDROOT
BRANCH   1   2
ATOM      2  N   UNL A   1      32.087  30.187  25.380  1.00  0.00    -0.354 N 
ATOM      3  C   UNL A   1      31.521  29.093  24.788  1.00  0.00     0.244 C 
ATOM      4  O   UNL A   1      30.523  29.250  24.080  1.00  0.00    -0.273 OA
ATOM      5  H   UNL A   1      31.757  31.058  25.062  1.00  0.00     0.163 HD
BRANCH   3   6
ATOM      6  C   UNL A   1      32.046  27.671  25.046  1.00  0.00     0.197 C 
BRANCH   6   7
ATOM      7  N   UNL A   1      32.303  27.096  23.714  1.00  0.00    -0.342 N 
ATOM      8  O   UNL A   1      34.151  25.827  24.136  1.00  0.00    -0.274 OA
ATOM      9  C   UNL A   1      33.197  26.107  23.411  1.00  0.00     0.231 C 
ATOM     10  H   UNL A   1      31.778  27.461  22.966  1.00  0.00     0.164 HD
BRANCH   9  11
ATOM     11  C   UNL A   1      32.904  25.245  22.189  1.00  0.00     0.178 C 
BRANCH  11  12
ATOM     12  S   UNL A   1      33.058  23.458  22.410  1.00  0.00    -0.075 SA
BRANCH  12  13
ATOM     13  C   UNL A   1      32.339  23.223  23.967  1.00  0.00     0.210 A 
ATOM     14  N   UNL A   1      31.054  23.375  24.197  1.00  0.00    -0.102 NA
ATOM     15  N   UNL A   1      32.922  22.696  25.099  1.00  0.00    -0.217 N 
ATOM     16  N   UNL A   1      30.840  22.939  25.479  1.00  0.00    -0.023 NA
ATOM     17  N   UNL A   1      31.963  22.497  26.025  1.00  0.00    -0.044 NA
BRANCH  15  18
ATOM     18  C   UNL A   1      34.297  22.397  25.439  1.00  0.00     0.112 C 
ATOM     19  C   UNL A   1      34.796  21.529  26.574  1.00  0.00     0.029 C 
ATOM     20  C   UNL A   1      34.906  21.032  25.172  1.00  0.00     0.029 C 
ENDBRANCH  15  18
ENDBRANCH  12  13
ENDBRANCH  11  12
ENDBRANCH   9  11
ENDBRANCH   6   7
BRANCH   6  21
ATOM     21  C   UNL A   1      31.176  26.916  26.066  1.00  0.00     0.191 C 
BRANCH  21  22
ATOM     22  O   UNL A   1      31.663  25.606  26.379  1.00  0.00    -0.394 OA
ATOM     23  H   UNL A   1      31.045  25.166  26.982  1.00  0.00     0.210 HD
ENDBRANCH  21  22
ENDBRANCH   6  21
ENDBRANCH   3   6
ENDBRANCH   1   2
BRANCH   1  24
ATOM     24  C   UNL A   1      32.924  31.369  27.419  1.00  0.00     0.042 C 
BRANCH  24  25
ATOM     25  C   UNL A   1      34.253  31.927  27.890  1.00  0.00     0.118 C 
BRANCH  25  26
ATOM     26  N   UNL A   1      34.255  32.275  29.316  1.00  0.00    -0.352 N 
ATOM     27  C   UNL A   1      35.191  31.904  30.268  1.00  0.00     0.251 C 
ATOM     28  H   UNL A   1      33.510  32.835  29.632  1.00  0.00     0.163 HD
ATOM     29  O   UNL A   1      34.977  32.034  31.460  1.00  0.00    -0.269 OA
BRANCH  27  30
ATOM     30  C   UNL A   1      36.442  31.305  29.770  1.00  0.00     0.039 A 
ATOM     31  C   UNL A   1      37.586  32.090  29.602  1.00  0.00     0.014 A 
ATOM     32  C   UNL A   1      36.493  29.918  29.685  1.00  0.00     0.014 A 
ATOM     33  C   UNL A   1      38.819  31.453  29.467  1.00  0.00     0.010 A 
ATOM     34  C   UNL A   1      37.723  29.302  29.707  1.00  0.00     0.010 A 
ATOM     35  C   UNL A   1      38.891  30.055  29.567  1.00  0.00    -0.014 A 
BRANCH  35  36
ATOM     36  C   UNL A   1      40.190  29.382  29.661  1.00  0.00     0.031 A 
ATOM     37  C   UNL A   1      40.701  29.106  31.039  1.00  0.00     0.074 A 
ATOM     38  C   UNL A   1      40.784  28.792  28.599  1.00  0.00     0.049 A 
ATOM     39  N   UNL A   1      41.789  29.546  31.586  1.00  0.00    -0.248 NA
ATOM     40  C   UNL A   1      39.865  28.305  31.946  1.00  0.00     0.031 C 
ATOM     41  C   UNL A   1      40.256  28.661  27.234  1.00  0.00     0.029 A 
ATOM     42  N   UNL A   1      41.908  28.024  28.562  1.00  0.00    -0.354 N 
ATOM     43  C   UNL A   1      41.889  28.896  32.818  1.00  0.00     0.074 A 
ATOM     44  C   UNL A   1      40.602  28.298  33.059  1.00  0.00     0.031 C 
ATOM     45  C   UNL A   1      40.881  27.642  26.610  1.00  0.00     0.029 A 
ATOM     46  C   UNL A   1      41.976  27.196  27.447  1.00  0.00     0.049 A 
ATOM     47  H   UNL A   1      42.605  28.052  29.257  1.00  0.00     0.167 HD
ATOM     48  C   UNL A   1      43.093  28.704  33.432  1.00  0.00     0.034 A 
ATOM     49  C   UNL A   1      42.848  26.185  27.232  1.00  0.00     0.034 A 
ATOM     50  C   UNL A   1      44.124  29.520  32.842  1.00  0.00     0.049 A 
ATOM     51  C   UNL A   1      44.010  26.410  28.116  1.00  0.00     0.074 A 
ATOM     52  C   UNL A   1      44.314  30.869  32.618  1.00  0.00     0.029 A 
ATOM     53  N   UNL A   1      45.047  28.878  32.053  1.00  0.00    -0.354 N 
ATOM     54  N   UNL A   1      44.840  27.407  27.981  1.00  0.00    -0.248 NA
ATOM     55  C   UNL A   1      44.051  25.731  29.399  1.00  0.00     0.031 C 
ATOM     56  C   UNL A   1      44.987  30.940  31.361  1.00  0.00     0.029 A 
ATOM     57  C   UNL A   1      45.211  29.633  30.923  1.00  0.00     0.049 A 
ATOM     58  H   UNL A   1      45.505  28.033  32.261  1.00  0.00     0.167 HD
ATOM     59  C   UNL A   1      45.160  27.766  29.282  1.00  0.00     0.074 A 
ATOM     60  C   UNL A   1      44.772  26.615  30.093  1.00  0.00     0.031 C 
ATOM     61  C   UNL A   1      45.426  29.068  29.609  1.00  0.00     0.034 A 
BRANCH  48  62
ATOM     62  C   UNL A   1      43.459  27.528  34.323  1.00  0.00     0.023 A 
ATOM     63  C   UNL A   1      43.935  27.826  35.624  1.00  0.00     0.012 A 
ATOM     64  C   UNL A   1      43.635  26.199  33.876  1.00  0.00     0.148 A 
ATOM     65  C   UNL A   1      44.617  26.881  36.400  1.00  0.00     0.002 A 
ATOM     66  C   UNL A   1      44.235  25.239  34.689  1.00  0.00     0.091 A 
ATOM     67  F   UNL A   1      43.352  25.870  32.614  1.00  0.00    -0.205 F 
ATOM     68  C   UNL A   1      44.762  25.583  35.935  1.00  0.00     0.022 A 
BRANCH  66  69
ATOM     69  S   UNL A   1      44.381  23.528  34.158  1.00  0.00     0.127 S 
ATOM     70  O   UNL A   1      42.980  23.131  34.065  1.00  0.00    -0.237 OA
ATOM     71  O   UNL A   1      45.073  23.665  32.876  1.00  0.00    -0.237 OA
ATOM     72  O   UNL A   1      45.174  22.876  35.193  1.00  0.00    -0.744 OA
ENDBRANCH  66  69
ENDBRANCH  48  62
BRANCH  49  73
ATOM     73  C   UNL A   1      42.692  24.957  26.426  1.00  0.00     0.023 A 
ATOM     74  C   UNL A   1      43.585  24.701  25.371  1.00  0.00     0.012 A 
ATOM     75  C   UNL A   1      41.832  23.916  26.848  1.00  0.00     0.148 A 
ATOM     76  C   UNL A   1      43.649  23.437  24.774  1.00  0.00     0.002 A 
ATOM     77  C   UNL A   1      41.895  22.663  26.246  1.00  0.00     0.091 A 
ATOM     78  F   UNL A   1      41.023  24.132  27.894  1.00  0.00    -0.205 F 
ATOM     79  C   UNL A   1      42.811  22.417  25.216  1.00  0.00     0.022 A 
BRANCH  77  80
ATOM     80  S   UNL A   1      40.855  21.294  26.772  1.00  0.00     0.127 S 
ATOM     81  O   UNL A   1      39.600  21.579  26.075  1.00  0.00    -0.237 OA
ATOM     82  O   UNL A   1      41.591  20.142  26.257  1.00  0.00    -0.237 OA
ATOM     83  O   UNL A   1      40.771  21.400  28.222  1.00  0.00    -0.744 OA
ENDBRANCH  77  80
ENDBRANCH  49  73
BRANCH  61  84
ATOM     84  C   UNL A   1      45.664  30.053  28.489  1.00  0.00     0.023 A 
ATOM     85  C   UNL A   1      44.604  30.702  27.822  1.00  0.00     0.012 A 
ATOM     86  C   UNL A   1      46.981  30.456  28.211  1.00  0.00     0.148 A 
ATOM     87  C   UNL A   1      44.851  31.701  26.875  1.00  0.00     0.002 A 
ATOM     88  C   UNL A   1      47.222  31.483  27.304  1.00  0.00     0.091 A 
ATOM     89  F   UNL A   1      47.987  29.842  28.854  1.00  0.00    -0.205 F 
ATOM     90  C   UNL A   1      46.160  32.100  26.625  1.00  0.00     0.022 A 
BRANCH  88  91
ATOM     91  S   UNL A   1      48.879  32.124  27.047  1.00  0.00     0.127 S 
ATOM     92  O   UNL A   1      49.264  32.535  28.395  1.00  0.00    -0.237 OA
ATOM     93  O   UNL A   1      49.601  30.957  26.535  1.00  0.00    -0.237 OA
ATOM     94  O   UNL A   1      48.734  33.199  26.071  1.00  0.00    -0.744 OA
ENDBRANCH  88  91
ENDBRANCH  61  84
ENDBRANCH  35  36
ENDBRANCH  27  30
ENDBRANCH  25  26
ENDBRANCH  24  25
ENDBRANCH   1  24
TORSDOF 20
ENDMDL
