MODEL 1
REMARK VINA RESULT:     -11.4      0.000      0.000
REMARK SMILES O=C(C[C@H](c1ccsc1)n1cccc1)NCCCNC(=O)c1ccc(-c2c3nc(c(-c4cccc(S(=O)(=O)[O-])c4F)c4ccc([nH]4)c(-c4cccc(S(=O)(=O)[O-])c4F)c4nc(c(-c5cccc(S(=O)(=O)[O-])c5F)c5ccc2[nH]5)C=C4)C=C3)cc1
REMARK SMILES IDX 17 1 16 2 15 3 1 4 2 5 3 7 4 8 10 9 11 10 14 11 12 12 13 13
REMARK SMILES IDX 5 14 6 15 9 16 7 17 8 18 18 19 19 20 20 21 21 23 22 24 23 25
REMARK SMILES IDX 84 26 24 27 83 28 25 29 26 30 27 31 77 32 28 33 82 34 76 35
REMARK SMILES IDX 78 36 29 37 81 38 75 39 74 40 30 42 62 43 42 44 61 45 43 46
REMARK SMILES IDX 46 47 60 48 79 49 44 50 45 51 59 53 80 54 47 55 31 56 32 57
REMARK SMILES IDX 40 58 33 59 35 60 41 61 34 62 36 63 37 64 38 65 39 66 63 67
REMARK SMILES IDX 64 68 72 69 65 70 67 71 73 72 66 73 68 74 69 75 70 76 71 77
REMARK SMILES IDX 48 78 49 79 57 80 50 81 52 82 58 83 51 84 53 85 54 86 55 87
REMARK SMILES IDX 56 88
REMARK H PARENT 15 6 19 22 78 41 46 52
REMARK Flexibility Score: inf
ROOT
ATOM      1  C   UNL A   1      33.365  29.360  25.918  1.00  0.00     0.042 C 
ENDROOT
BRANCH   1   2
ATOM      2  C   UNL A   1      33.593  28.819  24.507  1.00  0.00     0.117 C 
BRANCH   2   3
ATOM      3  N   UNL A   1      33.354  27.391  24.405  1.00  0.00    -0.356 N 
ATOM      4  O   UNL A   1      33.846  27.240  22.164  1.00  0.00    -0.275 OA
ATOM      5  C   UNL A   1      33.582  26.700  23.236  1.00  0.00     0.222 C 
ATOM      6  H   UNL A   1      33.020  26.904  25.193  1.00  0.00     0.163 HD
BRANCH   5   7
ATOM      7  C   UNL A   1      33.533  25.195  23.361  1.00  0.00     0.130 C 
BRANCH   7   8
ATOM      8  C   UNL A   1      33.922  24.653  24.747  1.00  0.00     0.127 C 
BRANCH   8   9
ATOM      9  N   UNL A   1      32.762  24.011  25.402  1.00  0.00    -0.346 N 
ATOM     10  C   UNL A   1      32.418  22.680  25.384  1.00  0.00     0.086 A 
ATOM     11  C   UNL A   1      31.781  24.704  26.076  1.00  0.00     0.086 A 
ATOM     12  C   UNL A   1      31.238  22.524  26.078  1.00  0.00     0.019 A 
ATOM     13  C   UNL A   1      30.831  23.806  26.508  1.00  0.00     0.019 A 
ENDBRANCH   8   9
BRANCH   8  14
ATOM     14  C   UNL A   1      35.171  23.784  24.821  1.00  0.00    -0.014 A 
ATOM     15  C   UNL A   1      35.948  23.505  26.002  1.00  0.00     0.017 A 
ATOM     16  C   UNL A   1      35.682  23.079  23.742  1.00  0.00     0.070 A 
ATOM     17  C   UNL A   1      36.977  22.619  25.773  1.00  0.00     0.065 A 
ATOM     18  S   UNL A   1      37.035  22.116  24.145  1.00  0.00    -0.152 S 
ENDBRANCH   8  14
ENDBRANCH   7   8
ENDBRANCH   5   7
ENDBRANCH   2   3
ENDBRANCH   1   2
BRANCH   1  19
ATOM     19  C   UNL A   1      34.592  29.245  26.829  1.00  0.00     0.118 C 
BRANCH  19  20
ATOM     20  N   UNL A   1      35.093  30.554  27.230  1.00  0.00    -0.352 N 
ATOM     21  C   UNL A   1      36.222  30.879  27.944  1.00  0.00     0.251 C 
ATOM     22  H   UNL A   1      34.540  31.318  26.949  1.00  0.00     0.163 HD
ATOM     23  O   UNL A   1      36.313  32.008  28.425  1.00  0.00    -0.269 OA
BRANCH  21  24
ATOM     24  C   UNL A   1      37.307  29.898  28.181  1.00  0.00     0.039 A 
ATOM     25  C   UNL A   1      38.292  29.754  27.193  1.00  0.00     0.014 A 
ATOM     26  C   UNL A   1      37.337  29.085  29.316  1.00  0.00     0.014 A 
ATOM     27  C   UNL A   1      39.363  28.878  27.391  1.00  0.00     0.010 A 
ATOM     28  C   UNL A   1      38.403  28.201  29.511  1.00  0.00     0.010 A 
ATOM     29  C   UNL A   1      39.447  28.134  28.576  1.00  0.00    -0.014 A 
BRANCH  29  30
ATOM     30  C   UNL A   1      40.757  27.531  28.963  1.00  0.00     0.031 A 
ATOM     31  C   UNL A   1      40.850  26.041  28.548  1.00  0.00     0.074 A 
ATOM     32  C   UNL A   1      41.684  28.315  29.595  1.00  0.00     0.049 A 
ATOM     33  N   UNL A   1      41.607  25.085  29.005  1.00  0.00    -0.248 NA
ATOM     34  C   UNL A   1      39.885  25.513  27.542  1.00  0.00     0.031 C 
ATOM     35  C   UNL A   1      41.479  29.737  29.935  1.00  0.00     0.029 A 
ATOM     36  N   UNL A   1      42.968  28.100  30.074  1.00  0.00    -0.354 N 
ATOM     37  C   UNL A   1      41.384  23.952  28.181  1.00  0.00     0.074 A 
ATOM     38  C   UNL A   1      40.215  24.228  27.411  1.00  0.00     0.031 C 
ATOM     39  C   UNL A   1      42.543  30.230  30.608  1.00  0.00     0.029 A 
ATOM     40  C   UNL A   1      43.567  29.205  30.735  1.00  0.00     0.049 A 
ATOM     41  H   UNL A   1      43.434  27.240  29.963  1.00  0.00     0.167 HD
ATOM     42  C   UNL A   1      42.267  22.918  28.059  1.00  0.00     0.034 A 
ATOM     43  C   UNL A   1      44.789  29.305  31.353  1.00  0.00     0.034 A 
ATOM     44  C   UNL A   1      43.392  23.151  28.894  1.00  0.00     0.049 A 
ATOM     45  C   UNL A   1      45.536  28.093  30.997  1.00  0.00     0.074 A 
ATOM     46  C   UNL A   1      43.612  23.053  30.240  1.00  0.00     0.029 A 
ATOM     47  N   UNL A   1      44.427  23.830  28.303  1.00  0.00    -0.354 N 
ATOM     48  N   UNL A   1      46.062  27.874  29.827  1.00  0.00    -0.248 NA
ATOM     49  C   UNL A   1      45.690  27.024  31.992  1.00  0.00     0.031 C 
ATOM     50  C   UNL A   1      44.621  24.002  30.488  1.00  0.00     0.029 A 
ATOM     51  C   UNL A   1      45.047  24.562  29.277  1.00  0.00     0.049 A 
ATOM     52  H   UNL A   1      44.677  23.796  27.350  1.00  0.00     0.167 HD
ATOM     53  C   UNL A   1      46.267  26.518  29.861  1.00  0.00     0.074 A 
ATOM     54  C   UNL A   1      46.375  26.154  31.254  1.00  0.00     0.031 C 
ATOM     55  C   UNL A   1      45.748  25.756  28.866  1.00  0.00     0.034 A 
BRANCH  42  56
ATOM     56  C   UNL A   1      42.409  21.772  27.078  1.00  0.00     0.023 A 
ATOM     57  C   UNL A   1      41.629  20.614  27.374  1.00  0.00     0.012 A 
ATOM     58  C   UNL A   1      43.425  21.627  26.120  1.00  0.00     0.148 A 
ATOM     59  C   UNL A   1      41.923  19.355  26.855  1.00  0.00     0.002 A 
ATOM     60  C   UNL A   1      43.678  20.371  25.554  1.00  0.00     0.091 A 
ATOM     61  F   UNL A   1      44.206  22.669  25.820  1.00  0.00    -0.205 F 
ATOM     62  C   UNL A   1      42.960  19.232  25.950  1.00  0.00     0.022 A 
BRANCH  60  63
ATOM     63  S   UNL A   1      44.934  20.112  24.295  1.00  0.00     0.127 S 
ATOM     64  O   UNL A   1      44.727  18.723  23.931  1.00  0.00    -0.237 OA
ATOM     65  O   UNL A   1      44.542  21.081  23.267  1.00  0.00    -0.237 OA
ATOM     66  O   UNL A   1      46.204  20.440  24.949  1.00  0.00    -0.744 OA
ENDBRANCH  60  63
ENDBRANCH  42  56
BRANCH  43  67
ATOM     67  C   UNL A   1      45.504  30.279  32.274  1.00  0.00     0.023 A 
ATOM     68  C   UNL A   1      46.728  30.892  31.976  1.00  0.00     0.012 A 
ATOM     69  C   UNL A   1      44.894  30.699  33.501  1.00  0.00     0.148 A 
ATOM     70  C   UNL A   1      47.256  31.919  32.788  1.00  0.00     0.002 A 
ATOM     71  C   UNL A   1      45.348  31.792  34.233  1.00  0.00     0.091 A 
ATOM     72  F   UNL A   1      43.868  30.010  34.009  1.00  0.00    -0.205 F 
ATOM     73  C   UNL A   1      46.546  32.402  33.885  1.00  0.00     0.022 A 
BRANCH  71  74
ATOM     74  S   UNL A   1      44.351  32.546  35.537  1.00  0.00     0.127 S 
ATOM     75  O   UNL A   1      44.969  32.015  36.751  1.00  0.00    -0.237 OA
ATOM     76  O   UNL A   1      44.591  33.969  35.298  1.00  0.00    -0.237 OA
ATOM     77  O   UNL A   1      42.977  32.118  35.308  1.00  0.00    -0.744 OA
ENDBRANCH  71  74
ENDBRANCH  43  67
BRANCH  55  78
ATOM     78  C   UNL A   1      45.657  26.459  27.516  1.00  0.00     0.023 A 
ATOM     79  C   UNL A   1      44.384  26.928  27.128  1.00  0.00     0.012 A 
ATOM     80  C   UNL A   1      46.710  26.582  26.576  1.00  0.00     0.148 A 
ATOM     81  C   UNL A   1      44.160  27.483  25.866  1.00  0.00     0.002 A 
ATOM     82  C   UNL A   1      46.486  27.136  25.311  1.00  0.00     0.091 A 
ATOM     83  F   UNL A   1      47.921  26.140  26.913  1.00  0.00    -0.205 F 
ATOM     84  C   UNL A   1      45.208  27.590  24.959  1.00  0.00     0.022 A 
BRANCH  82  85
ATOM     85  S   UNL A   1      47.756  27.291  24.038  1.00  0.00     0.127 S 
ATOM     86  O   UNL A   1      47.960  25.904  23.618  1.00  0.00    -0.237 OA
ATOM     87  O   UNL A   1      47.099  28.125  23.034  1.00  0.00    -0.237 OA
ATOM     88  O   UNL A   1      48.918  27.902  24.675  1.00  0.00    -0.744 OA
ENDBRANCH  82  85
ENDBRANCH  55  78
ENDBRANCH  29  30
ENDBRANCH  21  24
ENDBRANCH  19  20
ENDBRANCH   1  19
TORSDOF 16
ENDMDL
MODEL 2
REMARK VINA RESULT:     -11.2      1.871      2.366
REMARK SMILES O=C(C[C@H](c1ccsc1)n1cccc1)NCCCNC(=O)c1ccc(-c2c3nc(c(-c4cccc(S(=O)(=O)[O-])c4F)c4ccc([nH]4)c(-c4cccc(S(=O)(=O)[O-])c4F)c4nc(c(-c5cccc(S(=O)(=O)[O-])c5F)c5ccc2[nH]5)C=C4)C=C3)cc1
REMARK SMILES IDX 17 1 16 2 15 3 1 4 2 5 3 7 4 8 10 9 11 10 14 11 12 12 13 13
REMARK SMILES IDX 5 14 6 15 9 16 7 17 8 18 18 19 19 20 20 21 21 23 22 24 23 25
REMARK SMILES IDX 84 26 24 27 83 28 25 29 26 30 27 31 77 32 28 33 82 34 76 35
REMARK SMILES IDX 78 36 29 37 81 38 75 39 74 40 30 42 62 43 42 44 61 45 43 46
REMARK SMILES IDX 46 47 60 48 79 49 44 50 45 51 59 53 80 54 47 55 31 56 32 57
REMARK SMILES IDX 40 58 33 59 35 60 41 61 34 62 36 63 37 64 38 65 39 66 63 67
REMARK SMILES IDX 64 68 72 69 65 70 67 71 73 72 66 73 68 74 69 75 70 76 71 77
REMARK SMILES IDX 48 78 49 79 57 80 50 81 52 82 58 83 51 84 53 85 54 86 55 87
REMARK SMILES IDX 56 88
REMARK H PARENT 15 6 19 22 78 41 46 52
REMARK Flexibility Score: inf
ROOT
ATOM      1  C   UNL A   1      33.008  29.387  27.383  1.00  0.00     0.042 C 
ENDROOT
BRANCH   1   2
ATOM      2  C   UNL A   1      32.229  28.393  26.523  1.00  0.00     0.117 C 
BRANCH   2   3
ATOM      3  N   UNL A   1      32.917  27.126  26.362  1.00  0.00    -0.356 N 
ATOM      4  O   UNL A   1      31.081  25.814  26.803  1.00  0.00    -0.275 OA
ATOM      5  C   UNL A   1      32.250  25.924  26.441  1.00  0.00     0.222 C 
ATOM      6  H   UNL A   1      33.887  27.126  26.192  1.00  0.00     0.163 HD
BRANCH   5   7
ATOM      7  C   UNL A   1      33.048  24.718  26.001  1.00  0.00     0.130 C 
BRANCH   7   8
ATOM      8  C   UNL A   1      32.401  23.898  24.872  1.00  0.00     0.127 C 
BRANCH   8   9
ATOM      9  N   UNL A   1      32.396  24.665  23.607  1.00  0.00    -0.346 N 
ATOM     10  C   UNL A   1      31.304  25.125  22.910  1.00  0.00     0.086 A 
ATOM     11  C   UNL A   1      33.530  24.958  22.883  1.00  0.00     0.086 A 
ATOM     12  C   UNL A   1      31.748  25.742  21.761  1.00  0.00     0.019 A 
ATOM     13  C   UNL A   1      33.155  25.628  21.739  1.00  0.00     0.019 A 
ENDBRANCH   8   9
BRANCH   8  14
ATOM     14  C   UNL A   1      32.910  22.476  24.674  1.00  0.00    -0.014 A 
ATOM     15  C   UNL A   1      34.205  21.972  25.055  1.00  0.00     0.017 A 
ATOM     16  C   UNL A   1      32.138  21.449  24.154  1.00  0.00     0.070 A 
ATOM     17  C   UNL A   1      34.347  20.623  24.822  1.00  0.00     0.065 A 
ATOM     18  S   UNL A   1      32.942  19.941  24.138  1.00  0.00    -0.152 S 
ENDBRANCH   8  14
ENDBRANCH   7   8
ENDBRANCH   5   7
ENDBRANCH   2   3
ENDBRANCH   1   2
BRANCH   1  19
ATOM     19  C   UNL A   1      34.516  29.392  27.108  1.00  0.00     0.118 C 
BRANCH  19  20
ATOM     20  N   UNL A   1      35.104  30.706  27.339  1.00  0.00    -0.352 N 
ATOM     21  C   UNL A   1      36.304  31.038  27.923  1.00  0.00     0.251 C 
ATOM     22  H   UNL A   1      34.561  31.467  27.033  1.00  0.00     0.163 HD
ATOM     23  O   UNL A   1      36.483  32.200  28.285  1.00  0.00    -0.269 OA
BRANCH  21  24
ATOM     24  C   UNL A   1      37.363  30.031  28.161  1.00  0.00     0.039 A 
ATOM     25  C   UNL A   1      38.339  29.853  27.170  1.00  0.00     0.014 A 
ATOM     26  C   UNL A   1      37.378  29.226  29.303  1.00  0.00     0.014 A 
ATOM     27  C   UNL A   1      39.387  28.950  27.368  1.00  0.00     0.010 A 
ATOM     28  C   UNL A   1      38.421  28.315  29.499  1.00  0.00     0.010 A 
ATOM     29  C   UNL A   1      39.458  28.213  28.559  1.00  0.00    -0.014 A 
BRANCH  29  30
ATOM     30  C   UNL A   1      40.754  27.578  28.943  1.00  0.00     0.031 A 
ATOM     31  C   UNL A   1      40.809  26.086  28.529  1.00  0.00     0.074 A 
ATOM     32  C   UNL A   1      41.701  28.339  29.572  1.00  0.00     0.049 A 
ATOM     33  N   UNL A   1      41.543  25.111  28.985  1.00  0.00    -0.248 NA
ATOM     34  C   UNL A   1      39.828  25.581  27.526  1.00  0.00     0.031 C 
ATOM     35  C   UNL A   1      41.533  29.766  29.911  1.00  0.00     0.029 A 
ATOM     36  N   UNL A   1      42.981  28.093  30.048  1.00  0.00    -0.354 N 
ATOM     37  C   UNL A   1      41.289  23.983  28.163  1.00  0.00     0.074 A 
ATOM     38  C   UNL A   1      40.126  24.288  27.396  1.00  0.00     0.031 C 
ATOM     39  C   UNL A   1      42.610  30.233  30.581  1.00  0.00     0.029 A 
ATOM     40  C   UNL A   1      43.608  29.184  30.706  1.00  0.00     0.049 A 
ATOM     41  H   UNL A   1      43.425  27.221  29.936  1.00  0.00     0.167 HD
ATOM     42  C   UNL A   1      42.146  22.928  28.040  1.00  0.00     0.034 A 
ATOM     43  C   UNL A   1      44.834  29.254  31.322  1.00  0.00     0.034 A 
ATOM     44  C   UNL A   1      43.279  23.134  28.873  1.00  0.00     0.049 A 
ATOM     45  C   UNL A   1      45.550  28.023  30.964  1.00  0.00     0.074 A 
ATOM     46  C   UNL A   1      43.499  23.032  30.218  1.00  0.00     0.029 A 
ATOM     47  N   UNL A   1      44.329  23.786  28.278  1.00  0.00    -0.354 N 
ATOM     48  N   UNL A   1      46.068  27.790  29.794  1.00  0.00    -0.248 NA
ATOM     49  C   UNL A   1      45.680  26.951  31.960  1.00  0.00     0.031 C 
ATOM     50  C   UNL A   1      44.533  23.956  30.462  1.00  0.00     0.029 A 
ATOM     51  C   UNL A   1      44.969  24.504  29.249  1.00  0.00     0.049 A 
ATOM     52  H   UNL A   1      44.576  23.745  27.325  1.00  0.00     0.167 HD
ATOM     53  C   UNL A   1      46.239  26.430  29.829  1.00  0.00     0.074 A 
ATOM     54  C   UNL A   1      46.341  26.064  31.222  1.00  0.00     0.031 C 
ATOM     55  C   UNL A   1      45.699  25.679  28.835  1.00  0.00     0.034 A 
BRANCH  42  56
ATOM     56  C   UNL A   1      42.257  21.778  27.060  1.00  0.00     0.023 A 
ATOM     57  C   UNL A   1      41.341  20.704  27.271  1.00  0.00     0.012 A 
ATOM     58  C   UNL A   1      43.335  21.533  26.193  1.00  0.00     0.148 A 
ATOM     59  C   UNL A   1      41.549  19.425  26.762  1.00  0.00     0.002 A 
ATOM     60  C   UNL A   1      43.508  20.261  25.635  1.00  0.00     0.091 A 
ATOM     61  F   UNL A   1      44.242  22.491  25.977  1.00  0.00    -0.205 F 
ATOM     62  C   UNL A   1      42.644  19.199  25.951  1.00  0.00     0.022 A 
BRANCH  60  63
ATOM     63  S   UNL A   1      44.838  19.880  24.488  1.00  0.00     0.127 S 
ATOM     64  O   UNL A   1      46.020  20.191  25.269  1.00  0.00    -0.237 OA
ATOM     65  O   UNL A   1      44.626  18.452  24.237  1.00  0.00    -0.237 OA
ATOM     66  O   UNL A   1      44.583  20.721  23.315  1.00  0.00    -0.744 OA
ENDBRANCH  60  63
ENDBRANCH  42  56
BRANCH  43  67
ATOM     67  C   UNL A   1      45.575  30.211  32.239  1.00  0.00     0.023 A 
ATOM     68  C   UNL A   1      45.030  30.767  33.405  1.00  0.00     0.012 A 
ATOM     69  C   UNL A   1      46.948  30.537  31.993  1.00  0.00     0.148 A 
ATOM     70  C   UNL A   1      45.821  31.508  34.308  1.00  0.00     0.002 A 
ATOM     71  C   UNL A   1      47.757  31.159  32.939  1.00  0.00     0.091 A 
ATOM     72  F   UNL A   1      47.494  30.278  30.800  1.00  0.00    -0.205 F 
ATOM     73  C   UNL A   1      47.190  31.664  34.102  1.00  0.00     0.022 A 
BRANCH  71  74
ATOM     74  S   UNL A   1      49.555  31.201  32.775  1.00  0.00     0.127 S 
ATOM     75  O   UNL A   1      49.975  31.741  34.067  1.00  0.00    -0.237 OA
ATOM     76  O   UNL A   1      49.861  29.785  32.573  1.00  0.00    -0.237 OA
ATOM     77  O   UNL A   1      49.848  32.052  31.629  1.00  0.00    -0.744 OA
ENDBRANCH  71  74
ENDBRANCH  43  67
BRANCH  55  78
ATOM     78  C   UNL A   1      45.621  26.383  27.485  1.00  0.00     0.023 A 
ATOM     79  C   UNL A   1      44.345  26.807  27.061  1.00  0.00     0.012 A 
ATOM     80  C   UNL A   1      46.697  26.547  26.577  1.00  0.00     0.148 A 
ATOM     81  C   UNL A   1      44.138  27.357  25.794  1.00  0.00     0.002 A 
ATOM     82  C   UNL A   1      46.490  27.098  25.307  1.00  0.00     0.091 A 
ATOM     83  F   UNL A   1      47.913  26.150  26.949  1.00  0.00    -0.205 F 
ATOM     84  C   UNL A   1      45.207  27.506  24.918  1.00  0.00     0.022 A 
BRANCH  82  85
ATOM     85  S   UNL A   1      47.791  27.303  24.073  1.00  0.00     0.127 S 
ATOM     86  O   UNL A   1      48.056  25.926  23.654  1.00  0.00    -0.237 OA
ATOM     87  O   UNL A   1      47.134  28.119  23.053  1.00  0.00    -0.237 OA
ATOM     88  O   UNL A   1      48.911  27.951  24.745  1.00  0.00    -0.744 OA
ENDBRANCH  82  85
ENDBRANCH  55  78
ENDBRANCH  29  30
ENDBRANCH  21  24
ENDBRANCH  19  20
ENDBRANCH   1  19
TORSDOF 16
ENDMDL
MODEL 3
REMARK VINA RESULT:     -10.7      4.116     10.067
REMARK SMILES O=C(C[C@H](c1ccsc1)n1cccc1)NCCCNC(=O)c1ccc(-c2c3nc(c(-c4cccc(S(=O)(=O)[O-])c4F)c4ccc([nH]4)c(-c4cccc(S(=O)(=O)[O-])c4F)c4nc(c(-c5cccc(S(=O)(=O)[O-])c5F)c5ccc2[nH]5)C=C4)C=C3)cc1
REMARK SMILES IDX 17 1 16 2 15 3 1 4 2 5 3 7 4 8 10 9 11 10 14 11 12 12 13 13
REMARK SMILES IDX 5 14 6 15 9 16 7 17 8 18 18 19 19 20 20 21 21 23 22 24 23 25
REMARK SMILES IDX 84 26 24 27 83 28 25 29 26 30 27 31 77 32 28 33 82 34 76 35
REMARK SMILES IDX 78 36 29 37 81 38 75 39 74 40 30 42 62 43 42 44 61 45 43 46
REMARK SMILES IDX 46 47 60 48 79 49 44 50 45 51 59 53 80 54 47 55 31 56 32 57
REMARK SMILES IDX 40 58 33 59 35 60 41 61 34 62 36 63 37 64 38 65 39 66 63 67
REMARK SMILES IDX 64 68 72 69 65 70 67 71 73 72 66 73 68 74 69 75 70 76 71 77
REMARK SMILES IDX 48 78 49 79 57 80 50 81 52 82 58 83 51 84 53 85 54 86 55 87
REMARK SMILES IDX 56 88
REMARK H PARENT 15 6 19 22 78 41 46 52
REMARK Flexibility Score: inf
ROOT
ATOM      1  C   UNL A   1      36.708  22.352  25.631  1.00  0.00     0.042 C 
ENDROOT
BRANCH   1   2
ATOM      2  C   UNL A   1      35.374  22.182  26.358  1.00  0.00     0.117 C 
BRANCH   2   3
ATOM      3  N   UNL A   1      34.299  22.942  25.748  1.00  0.00    -0.356 N 
ATOM      4  O   UNL A   1      33.205  23.405  27.716  1.00  0.00    -0.275 OA
ATOM      5  C   UNL A   1      33.332  23.565  26.504  1.00  0.00     0.222 C 
ATOM      6  H   UNL A   1      34.260  23.013  24.767  1.00  0.00     0.163 HD
BRANCH   5   7
ATOM      7  C   UNL A   1      32.439  24.519  25.745  1.00  0.00     0.130 C 
BRANCH   7   8
ATOM      8  C   UNL A   1      33.153  25.763  25.192  1.00  0.00     0.127 C 
BRANCH   8   9
ATOM      9  N   UNL A   1      32.994  25.849  23.724  1.00  0.00    -0.346 N 
ATOM     10  C   UNL A   1      33.424  26.854  22.891  1.00  0.00     0.086 A 
ATOM     11  C   UNL A   1      32.289  24.934  22.974  1.00  0.00     0.086 A 
ATOM     12  C   UNL A   1      33.021  26.559  21.607  1.00  0.00     0.019 A 
ATOM     13  C   UNL A   1      32.296  25.349  21.661  1.00  0.00     0.019 A 
ENDBRANCH   8   9
BRANCH   8  14
ATOM     14  C   UNL A   1      32.854  27.091  25.876  1.00  0.00    -0.014 A 
ATOM     15  C   UNL A   1      31.556  27.698  26.030  1.00  0.00     0.017 A 
ATOM     16  C   UNL A   1      33.814  27.861  26.514  1.00  0.00     0.070 A 
ATOM     17  C   UNL A   1      31.589  28.861  26.765  1.00  0.00     0.065 A 
ATOM     18  S   UNL A   1      33.170  29.250  27.273  1.00  0.00    -0.152 S 
ENDBRANCH   8  14
ENDBRANCH   7   8
ENDBRANCH   5   7
ENDBRANCH   2   3
ENDBRANCH   1   2
BRANCH   1  19
ATOM     19  C   UNL A   1      37.585  23.472  26.202  1.00  0.00     0.118 C 
BRANCH  19  20
ATOM     20  N   UNL A   1      38.821  22.953  26.773  1.00  0.00    -0.352 N 
ATOM     21  C   UNL A   1      39.888  23.630  27.315  1.00  0.00     0.251 C 
ATOM     22  H   UNL A   1      38.906  21.972  26.768  1.00  0.00     0.163 HD
ATOM     23  O   UNL A   1      40.951  23.030  27.473  1.00  0.00    -0.269 OA
BRANCH  21  24
ATOM     24  C   UNL A   1      39.802  25.065  27.674  1.00  0.00     0.039 A 
ATOM     25  C   UNL A   1      39.287  25.399  28.935  1.00  0.00     0.014 A 
ATOM     26  C   UNL A   1      40.160  26.076  26.779  1.00  0.00     0.014 A 
ATOM     27  C   UNL A   1      39.231  26.736  29.339  1.00  0.00     0.010 A 
ATOM     28  C   UNL A   1      40.096  27.415  27.179  1.00  0.00     0.010 A 
ATOM     29  C   UNL A   1      39.684  27.746  28.479  1.00  0.00    -0.014 A 
BRANCH  29  30
ATOM     30  C   UNL A   1      40.004  29.090  29.043  1.00  0.00     0.031 A 
ATOM     31  C   UNL A   1      38.838  30.091  28.847  1.00  0.00     0.074 A 
ATOM     32  C   UNL A   1      41.218  29.281  29.646  1.00  0.00     0.049 A 
ATOM     33  N   UNL A   1      38.838  31.393  28.836  1.00  0.00    -0.248 NA
ATOM     34  C   UNL A   1      37.485  29.562  28.512  1.00  0.00     0.031 C 
ATOM     35  C   UNL A   1      42.255  28.238  29.779  1.00  0.00     0.029 A 
ATOM     36  N   UNL A   1      41.831  30.358  30.270  1.00  0.00    -0.354 N 
ATOM     37  C   UNL A   1      37.482  31.806  28.753  1.00  0.00     0.074 A 
ATOM     38  C   UNL A   1      36.724  30.650  28.402  1.00  0.00     0.031 C 
ATOM     39  C   UNL A   1      43.367  28.735  30.364  1.00  0.00     0.029 A 
ATOM     40  C   UNL A   1      43.159  30.130  30.719  1.00  0.00     0.049 A 
ATOM     41  H   UNL A   1      41.376  31.222  30.395  1.00  0.00     0.167 HD
ATOM     42  C   UNL A   1      37.041  33.038  29.138  1.00  0.00     0.034 A 
ATOM     43  C   UNL A   1      44.044  30.989  31.322  1.00  0.00     0.034 A 
ATOM     44  C   UNL A   1      38.139  33.818  29.592  1.00  0.00     0.049 A 
ATOM     45  C   UNL A   1      43.280  32.191  31.679  1.00  0.00     0.074 A 
ATOM     46  C   UNL A   1      39.153  34.485  28.962  1.00  0.00     0.029 A 
ATOM     47  N   UNL A   1      38.406  33.725  30.934  1.00  0.00    -0.354 N 
ATOM     48  N   UNL A   1      42.432  32.255  32.663  1.00  0.00    -0.248 NA
ATOM     49  C   UNL A   1      43.436  33.408  30.872  1.00  0.00     0.031 C 
ATOM     50  C   UNL A   1      40.202  34.469  29.902  1.00  0.00     0.029 A 
ATOM     51  C   UNL A   1      39.754  33.890  31.096  1.00  0.00     0.049 A 
ATOM     52  H   UNL A   1      37.748  33.566  31.649  1.00  0.00     0.167 HD
ATOM     53  C   UNL A   1      41.714  33.379  32.342  1.00  0.00     0.074 A 
ATOM     54  C   UNL A   1      42.572  34.191  31.512  1.00  0.00     0.031 C 
ATOM     55  C   UNL A   1      40.363  33.287  32.258  1.00  0.00     0.034 A 
BRANCH  42  56
ATOM     56  C   UNL A   1      35.670  33.620  29.415  1.00  0.00     0.023 A 
ATOM     57  C   UNL A   1      35.043  34.261  28.305  1.00  0.00     0.012 A 
ATOM     58  C   UNL A   1      35.112  33.854  30.683  1.00  0.00     0.148 A 
ATOM     59  C   UNL A   1      34.010  35.184  28.452  1.00  0.00     0.002 A 
ATOM     60  C   UNL A   1      34.035  34.738  30.820  1.00  0.00     0.091 A 
ATOM     61  F   UNL A   1      35.672  33.303  31.764  1.00  0.00    -0.205 F 
ATOM     62  C   UNL A   1      33.513  35.433  29.717  1.00  0.00     0.022 A 
BRANCH  60  63
ATOM     63  S   UNL A   1      33.243  35.060  32.401  1.00  0.00     0.127 S 
ATOM     64  O   UNL A   1      34.157  36.003  33.019  1.00  0.00    -0.237 OA
ATOM     65  O   UNL A   1      31.958  35.632  31.989  1.00  0.00    -0.237 OA
ATOM     66  O   UNL A   1      33.119  33.748  33.040  1.00  0.00    -0.744 OA
ENDBRANCH  60  63
ENDBRANCH  42  56
BRANCH  43  67
ATOM     67  C   UNL A   1      45.523  31.015  31.667  1.00  0.00     0.023 A 
ATOM     68  C   UNL A   1      46.031  31.307  32.940  1.00  0.00     0.012 A 
ATOM     69  C   UNL A   1      46.504  30.645  30.690  1.00  0.00     0.148 A 
ATOM     70  C   UNL A   1      47.400  31.145  33.243  1.00  0.00     0.002 A 
ATOM     71  C   UNL A   1      47.826  30.366  31.018  1.00  0.00     0.091 A 
ATOM     72  F   UNL A   1      46.172  30.592  29.396  1.00  0.00    -0.205 F 
ATOM     73  C   UNL A   1      48.287  30.630  32.301  1.00  0.00     0.022 A 
BRANCH  71  74
ATOM     74  S   UNL A   1      48.936  29.525  29.867  1.00  0.00     0.127 S 
ATOM     75  O   UNL A   1      49.957  30.541  29.617  1.00  0.00    -0.237 OA
ATOM     76  O   UNL A   1      49.384  28.390  30.673  1.00  0.00    -0.237 OA
ATOM     77  O   UNL A   1      48.133  29.162  28.706  1.00  0.00    -0.744 OA
ENDBRANCH  71  74
ENDBRANCH  43  67
BRANCH  55  78
ATOM     78  C   UNL A   1      39.742  32.251  33.189  1.00  0.00     0.023 A 
ATOM     79  C   UNL A   1      39.424  30.998  32.625  1.00  0.00     0.012 A 
ATOM     80  C   UNL A   1      39.359  32.476  34.534  1.00  0.00     0.148 A 
ATOM     81  C   UNL A   1      38.749  30.016  33.354  1.00  0.00     0.002 A 
ATOM     82  C   UNL A   1      38.682  31.493  35.264  1.00  0.00     0.091 A 
ATOM     83  F   UNL A   1      39.641  33.653  35.091  1.00  0.00    -0.205 F 
ATOM     84  C   UNL A   1      38.379  30.260  34.671  1.00  0.00     0.022 A 
BRANCH  82  85
ATOM     85  S   UNL A   1      38.118  31.708  36.966  1.00  0.00     0.127 S 
ATOM     86  O   UNL A   1      37.062  32.713  36.829  1.00  0.00    -0.237 OA
ATOM     87  O   UNL A   1      37.627  30.374  37.308  1.00  0.00    -0.237 OA
ATOM     88  O   UNL A   1      39.272  32.153  37.739  1.00  0.00    -0.744 OA
ENDBRANCH  82  85
ENDBRANCH  55  78
ENDBRANCH  29  30
ENDBRANCH  21  24
ENDBRANCH  19  20
ENDBRANCH   1  19
TORSDOF 16
ENDMDL
