MODEL 1
REMARK VINA RESULT:     -11.2      0.000      0.000
REMARK SMILES CC[C@](C)([NH2+]CC(=O)N[C@H](C)c1cccs1)C(=O)NCCCNC(=O)c1ccc(-c2c3nc(c(-c4cccc(S(=O)(=O)[O-])c4F)c4ccc([nH]4)c(-c4cccc(S(=O)(=O)[O-])c4F)c4nc(c(-c5cccc(S(=O)(=O)[O-])c5F)c5ccc2[nH]5)C=C4)C=C3)cc1
REMARK SMILES IDX 20 1 19 2 17 3 18 4 3 6 4 7 2 8 1 9 5 10 6 13 7 14 8 15 9 16
REMARK SMILES IDX 10 18 11 19 12 20 13 21 16 22 14 23 15 24 21 25 22 26 23 27
REMARK SMILES IDX 24 28 25 30 26 31 27 32 88 33 28 34 87 35 29 36 30 37 31 38
REMARK SMILES IDX 81 39 32 40 86 41 80 42 82 43 33 44 85 45 79 46 78 47 34 49
REMARK SMILES IDX 66 50 46 51 65 52 47 53 50 54 64 55 83 56 48 57 49 58 63 60
REMARK SMILES IDX 84 61 51 62 35 63 36 64 44 65 37 66 39 67 45 68 38 69 40 70
REMARK SMILES IDX 41 71 42 72 43 73 67 74 68 75 76 76 69 77 71 78 77 79 70 80
REMARK SMILES IDX 72 81 73 82 74 83 75 84 52 85 53 86 61 87 54 88 56 89 62 90
REMARK SMILES IDX 55 91 57 92 58 93 59 94 60 95
REMARK H PARENT 19 5 5 11 5 12 9 17 23 29 82 48 50 59
REMARK Flexibility Score: inf
ROOT
ATOM      1  C   UNL A   1      31.862  30.528  25.974  1.00  0.00     0.118 C 
ENDROOT
BRANCH   1   2
ATOM      2  N   UNL A   1      31.117  30.403  24.717  1.00  0.00    -0.351 N 
ATOM      3  C   UNL A   1      30.551  29.467  23.897  1.00  0.00     0.281 C 
ATOM      4  O   UNL A   1      29.733  30.010  23.128  1.00  0.00    -0.268 OA
ATOM      5  H   UNL A   1      30.979  31.298  24.331  1.00  0.00     0.163 HD
BRANCH   3   6
ATOM      6  C   UNL A   1      30.904  27.892  23.699  1.00  0.00     0.172 C 
ATOM      7  C   UNL A   1      29.421  27.333  23.652  1.00  0.00     0.090 C 
BRANCH   6   8
ATOM      8  C   UNL A   1      31.489  26.875  24.813  1.00  0.00     0.075 C 
ATOM      9  C   UNL A   1      31.502  26.822  26.411  1.00  0.00     0.011 C 
ENDBRANCH   6   8
BRANCH   6  10
ATOM     10  N   UNL A   1      31.587  27.738  22.439  1.00  0.00    -0.326 N 
ATOM     11  H   UNL A   1      32.573  27.939  22.608  1.00  0.00     0.347 HD
ATOM     12  H   UNL A   1      31.088  28.372  21.815  1.00  0.00     0.347 HD
BRANCH  10  13
ATOM     13  C   UNL A   1      31.529  26.451  21.738  1.00  0.00     0.362 C 
BRANCH  13  14
ATOM     14  C   UNL A   1      32.705  25.452  21.507  1.00  0.00     0.275 C 
ATOM     15  O   UNL A   1      33.089  25.388  20.318  1.00  0.00    -0.268 OA
ATOM     16  N   UNL A   1      33.486  24.655  22.278  1.00  0.00    -0.344 N 
ATOM     17  H   UNL A   1      33.919  24.021  21.661  1.00  0.00     0.164 HD
BRANCH  16  18
ATOM     18  C   UNL A   1      33.991  24.303  23.653  1.00  0.00     0.119 C 
ATOM     19  C   UNL A   1      35.215  23.389  23.487  1.00  0.00     0.037 C 
BRANCH  18  20
ATOM     20  C   UNL A   1      33.043  23.617  24.634  1.00  0.00     0.027 A 
ATOM     21  C   UNL A   1      33.392  23.055  25.857  1.00  0.00     0.017 A 
ATOM     22  S   UNL A   1      31.396  23.227  24.300  1.00  0.00    -0.147 S 
ATOM     23  C   UNL A   1      32.263  22.690  26.646  1.00  0.00     0.012 A 
ATOM     24  C   UNL A   1      31.090  22.841  25.945  1.00  0.00     0.065 A 
ENDBRANCH  18  20
ENDBRANCH  16  18
ENDBRANCH  13  14
ENDBRANCH  10  13
ENDBRANCH   6  10
ENDBRANCH   3   6
ENDBRANCH   1   2
BRANCH   1  25
ATOM     25  C   UNL A   1      31.533  31.735  26.839  1.00  0.00     0.042 C 
BRANCH  25  26
ATOM     26  C   UNL A   1      32.773  32.485  27.307  1.00  0.00     0.118 C 
BRANCH  26  27
ATOM     27  N   UNL A   1      32.537  33.906  27.581  1.00  0.00    -0.352 N 
ATOM     28  C   UNL A   1      33.140  34.742  28.497  1.00  0.00     0.251 C 
ATOM     29  H   UNL A   1      31.842  34.329  27.027  1.00  0.00     0.163 HD
ATOM     30  O   UNL A   1      32.729  35.895  28.637  1.00  0.00    -0.269 OA
BRANCH  28  31
ATOM     31  C   UNL A   1      34.259  34.248  29.327  1.00  0.00     0.039 A 
ATOM     32  C   UNL A   1      33.996  33.490  30.473  1.00  0.00     0.014 A 
ATOM     33  C   UNL A   1      35.577  34.501  28.948  1.00  0.00     0.014 A 
ATOM     34  C   UNL A   1      35.058  32.924  31.185  1.00  0.00     0.010 A 
ATOM     35  C   UNL A   1      36.613  33.821  29.567  1.00  0.00     0.010 A 
ATOM     36  C   UNL A   1      36.374  33.053  30.714  1.00  0.00    -0.014 A 
BRANCH  36  37
ATOM     37  C   UNL A   1      37.531  32.448  31.422  1.00  0.00     0.031 A 
ATOM     38  C   UNL A   1      38.284  31.312  30.775  1.00  0.00     0.074 A 
ATOM     39  C   UNL A   1      37.844  32.846  32.672  1.00  0.00     0.049 A 
ATOM     40  N   UNL A   1      39.260  30.587  31.256  1.00  0.00    -0.248 NA
ATOM     41  C   UNL A   1      37.852  30.904  29.426  1.00  0.00     0.031 C 
ATOM     42  C   UNL A   1      37.131  33.868  33.444  1.00  0.00     0.029 A 
ATOM     43  N   UNL A   1      38.831  32.419  33.525  1.00  0.00    -0.354 N 
ATOM     44  C   UNL A   1      39.516  29.613  30.297  1.00  0.00     0.074 A 
ATOM     45  C   UNL A   1      38.556  29.800  29.235  1.00  0.00     0.031 C 
ATOM     46  C   UNL A   1      37.717  34.002  34.644  1.00  0.00     0.029 A 
ATOM     47  C   UNL A   1      38.823  33.057  34.744  1.00  0.00     0.049 A 
ATOM     48  H   UNL A   1      39.484  31.722  33.286  1.00  0.00     0.167 HD
ATOM     49  C   UNL A   1      40.491  28.675  30.276  1.00  0.00     0.034 A 
ATOM     50  C   UNL A   1      39.619  32.894  35.820  1.00  0.00     0.034 A 
ATOM     51  C   UNL A   1      41.485  28.543  31.301  1.00  0.00     0.049 A 
ATOM     52  C   UNL A   1      40.737  31.888  35.746  1.00  0.00     0.074 A 
ATOM     53  C   UNL A   1      42.580  27.699  31.335  1.00  0.00     0.029 A 
ATOM     54  N   UNL A   1      41.506  29.277  32.477  1.00  0.00    -0.354 N 
ATOM     55  N   UNL A   1      41.061  31.084  34.762  1.00  0.00    -0.248 NA
ATOM     56  C   UNL A   1      41.625  31.795  36.914  1.00  0.00     0.031 C 
ATOM     57  C   UNL A   1      43.247  27.903  32.546  1.00  0.00     0.029 A 
ATOM     58  C   UNL A   1      42.589  28.902  33.248  1.00  0.00     0.049 A 
ATOM     59  H   UNL A   1      40.846  29.965  32.725  1.00  0.00     0.167 HD
ATOM     60  C   UNL A   1      42.210  30.419  35.176  1.00  0.00     0.074 A 
ATOM     61  C   UNL A   1      42.535  30.930  36.491  1.00  0.00     0.031 C 
ATOM     62  C   UNL A   1      42.924  29.462  34.532  1.00  0.00     0.034 A 
BRANCH  49  63
ATOM     63  C   UNL A   1      40.559  27.763  29.078  1.00  0.00     0.023 A 
ATOM     64  C   UNL A   1      39.665  26.677  28.971  1.00  0.00     0.012 A 
ATOM     65  C   UNL A   1      41.482  27.999  28.040  1.00  0.00     0.148 A 
ATOM     66  C   UNL A   1      39.718  25.814  27.876  1.00  0.00     0.002 A 
ATOM     67  C   UNL A   1      41.493  27.168  26.926  1.00  0.00     0.091 A 
ATOM     68  F   UNL A   1      42.339  29.023  28.167  1.00  0.00    -0.205 F 
ATOM     69  C   UNL A   1      40.623  26.067  26.850  1.00  0.00     0.022 A 
BRANCH  67  70
ATOM     70  S   UNL A   1      42.562  27.455  25.512  1.00  0.00     0.127 S 
ATOM     71  O   UNL A   1      41.950  28.642  24.916  1.00  0.00    -0.237 OA
ATOM     72  O   UNL A   1      43.856  27.693  26.152  1.00  0.00    -0.237 OA
ATOM     73  O   UNL A   1      42.495  26.246  24.704  1.00  0.00    -0.744 OA
ENDBRANCH  67  70
ENDBRANCH  49  63
BRANCH  50  74
ATOM     74  C   UNL A   1      39.433  33.750  37.026  1.00  0.00     0.023 A 
ATOM     75  C   UNL A   1      39.868  35.090  36.998  1.00  0.00     0.012 A 
ATOM     76  C   UNL A   1      38.813  33.256  38.190  1.00  0.00     0.148 A 
ATOM     77  C   UNL A   1      39.723  35.911  38.116  1.00  0.00     0.002 A 
ATOM     78  C   UNL A   1      38.621  34.095  39.282  1.00  0.00     0.091 A 
ATOM     79  F   UNL A   1      38.413  31.978  38.202  1.00  0.00    -0.205 F 
ATOM     80  C   UNL A   1      39.092  35.418  39.255  1.00  0.00     0.022 A 
BRANCH  78  81
ATOM     81  S   UNL A   1      37.708  33.586  40.743  1.00  0.00     0.127 S 
ATOM     82  O   UNL A   1      36.447  33.132  40.164  1.00  0.00    -0.237 OA
ATOM     83  O   UNL A   1      38.561  32.523  41.274  1.00  0.00    -0.237 OA
ATOM     84  O   UNL A   1      37.627  34.769  41.588  1.00  0.00    -0.744 OA
ENDBRANCH  78  81
ENDBRANCH  50  74
BRANCH  62  85
ATOM     85  C   UNL A   1      44.158  28.935  35.213  1.00  0.00     0.023 A 
ATOM     86  C   UNL A   1      45.406  29.547  34.984  1.00  0.00     0.012 A 
ATOM     87  C   UNL A   1      44.062  27.884  36.147  1.00  0.00     0.148 A 
ATOM     88  C   UNL A   1      46.547  29.098  35.649  1.00  0.00     0.002 A 
ATOM     89  C   UNL A   1      45.191  27.479  36.845  1.00  0.00     0.091 A 
ATOM     90  F   UNL A   1      42.866  27.307  36.337  1.00  0.00    -0.205 F 
ATOM     91  C   UNL A   1      46.437  28.074  36.587  1.00  0.00     0.022 A 
BRANCH  89  92
ATOM     92  S   UNL A   1      45.124  26.244  38.147  1.00  0.00     0.127 S 
ATOM     93  O   UNL A   1      44.725  25.049  37.403  1.00  0.00    -0.237 OA
ATOM     94  O   UNL A   1      46.504  26.228  38.631  1.00  0.00    -0.237 OA
ATOM     95  O   UNL A   1      44.149  26.730  39.114  1.00  0.00    -0.744 OA
ENDBRANCH  89  92
ENDBRANCH  62  85
ENDBRANCH  36  37
ENDBRANCH  28  31
ENDBRANCH  26  27
ENDBRANCH  25  26
ENDBRANCH   1  25
TORSDOF 19
ENDMDL
MODEL 2
REMARK VINA RESULT:     -11.2      5.774      8.870
REMARK SMILES CC[C@](C)([NH2+]CC(=O)N[C@H](C)c1cccs1)C(=O)NCCCNC(=O)c1ccc(-c2c3nc(c(-c4cccc(S(=O)(=O)[O-])c4F)c4ccc([nH]4)c(-c4cccc(S(=O)(=O)[O-])c4F)c4nc(c(-c5cccc(S(=O)(=O)[O-])c5F)c5ccc2[nH]5)C=C4)C=C3)cc1
REMARK SMILES IDX 20 1 19 2 17 3 18 4 3 6 4 7 2 8 1 9 5 10 6 13 7 14 8 15 9 16
REMARK SMILES IDX 10 18 11 19 12 20 13 21 16 22 14 23 15 24 21 25 22 26 23 27
REMARK SMILES IDX 24 28 25 30 26 31 27 32 88 33 28 34 87 35 29 36 30 37 31 38
REMARK SMILES IDX 81 39 32 40 86 41 80 42 82 43 33 44 85 45 79 46 78 47 34 49
REMARK SMILES IDX 66 50 46 51 65 52 47 53 50 54 64 55 83 56 48 57 49 58 63 60
REMARK SMILES IDX 84 61 51 62 35 63 36 64 44 65 37 66 39 67 45 68 38 69 40 70
REMARK SMILES IDX 41 71 42 72 43 73 67 74 68 75 76 76 69 77 71 78 77 79 70 80
REMARK SMILES IDX 72 81 73 82 74 83 75 84 52 85 53 86 61 87 54 88 56 89 62 90
REMARK SMILES IDX 55 91 57 92 58 93 59 94 60 95
REMARK H PARENT 19 5 5 11 5 12 9 17 23 29 82 48 50 59
REMARK Flexibility Score: inf
ROOT
ATOM      1  C   UNL A   1      35.417  22.540  24.028  1.00  0.00     0.118 C 
ENDROOT
BRANCH   1   2
ATOM      2  N   UNL A   1      34.649  22.700  25.268  1.00  0.00    -0.351 N 
ATOM      3  C   UNL A   1      33.551  23.339  25.772  1.00  0.00     0.281 C 
ATOM      4  O   UNL A   1      33.188  22.796  26.834  1.00  0.00    -0.268 OA
ATOM      5  H   UNL A   1      35.067  22.163  25.980  1.00  0.00     0.163 HD
BRANCH   3   6
ATOM      6  C   UNL A   1      32.822  24.711  25.291  1.00  0.00     0.172 C 
ATOM      7  C   UNL A   1      33.940  25.735  25.752  1.00  0.00     0.090 C 
BRANCH   6   8
ATOM      8  C   UNL A   1      31.554  25.438  25.987  1.00  0.00     0.075 C 
ATOM      9  C   UNL A   1      31.231  26.918  26.497  1.00  0.00     0.011 C 
ENDBRANCH   6   8
BRANCH   6  10
ATOM     10  N   UNL A   1      32.678  24.666  23.857  1.00  0.00    -0.326 N 
ATOM     11  H   UNL A   1      31.732  24.983  23.643  1.00  0.00     0.347 HD
ATOM     12  H   UNL A   1      32.904  23.700  23.623  1.00  0.00     0.347 HD
BRANCH  10  13
ATOM     13  C   UNL A   1      33.589  25.448  23.015  1.00  0.00     0.362 C 
BRANCH  13  14
ATOM     14  C   UNL A   1      33.200  26.446  21.882  1.00  0.00     0.275 C 
ATOM     15  O   UNL A   1      33.306  25.970  20.729  1.00  0.00    -0.268 OA
ATOM     16  N   UNL A   1      32.706  27.707  21.806  1.00  0.00    -0.344 N 
ATOM     17  H   UNL A   1      32.866  28.006  20.881  1.00  0.00     0.164 HD
BRANCH  16  18
ATOM     18  C   UNL A   1      32.023  28.857  22.500  1.00  0.00     0.119 C 
ATOM     19  C   UNL A   1      32.572  28.935  23.933  1.00  0.00     0.037 C 
BRANCH  18  20
ATOM     20  C   UNL A   1      30.500  28.860  22.597  1.00  0.00     0.027 A 
ATOM     21  C   UNL A   1      29.703  27.814  23.050  1.00  0.00     0.017 A 
ATOM     22  S   UNL A   1      29.476  30.094  21.958  1.00  0.00    -0.147 S 
ATOM     23  C   UNL A   1      28.340  28.190  23.235  1.00  0.00     0.012 A 
ATOM     24  C   UNL A   1      28.104  29.463  22.776  1.00  0.00     0.065 A 
ENDBRANCH  18  20
ENDBRANCH  16  18
ENDBRANCH  13  14
ENDBRANCH  10  13
ENDBRANCH   6  10
ENDBRANCH   3   6
ENDBRANCH   1   2
BRANCH   1  25
ATOM     25  C   UNL A   1      36.868  22.112  24.180  1.00  0.00     0.042 C 
BRANCH  25  26
ATOM     26  C   UNL A   1      37.298  21.980  25.635  1.00  0.00     0.118 C 
BRANCH  26  27
ATOM     27  N   UNL A   1      38.392  21.026  25.845  1.00  0.00    -0.352 N 
ATOM     28  C   UNL A   1      39.667  21.235  26.327  1.00  0.00     0.251 C 
ATOM     29  H   UNL A   1      38.186  20.094  25.604  1.00  0.00     0.163 HD
ATOM     30  O   UNL A   1      40.476  20.306  26.338  1.00  0.00    -0.269 OA
BRANCH  28  31
ATOM     31  C   UNL A   1      40.068  22.575  26.805  1.00  0.00     0.039 A 
ATOM     32  C   UNL A   1      40.976  22.695  27.862  1.00  0.00     0.014 A 
ATOM     33  C   UNL A   1      39.576  23.718  26.177  1.00  0.00     0.014 A 
ATOM     34  C   UNL A   1      41.445  23.960  28.228  1.00  0.00     0.010 A 
ATOM     35  C   UNL A   1      40.150  24.951  26.444  1.00  0.00     0.010 A 
ATOM     36  C   UNL A   1      41.064  25.096  27.496  1.00  0.00    -0.014 A 
BRANCH  36  37
ATOM     37  C   UNL A   1      41.556  26.456  27.831  1.00  0.00     0.031 A 
ATOM     38  C   UNL A   1      42.975  26.837  27.488  1.00  0.00     0.074 A 
ATOM     39  C   UNL A   1      40.773  27.308  28.524  1.00  0.00     0.049 A 
ATOM     40  N   UNL A   1      43.628  27.933  27.772  1.00  0.00    -0.248 NA
ATOM     41  C   UNL A   1      43.784  25.833  26.771  1.00  0.00     0.031 C 
ATOM     42  C   UNL A   1      39.416  27.022  28.999  1.00  0.00     0.029 A 
ATOM     43  N   UNL A   1      41.015  28.583  28.970  1.00  0.00    -0.354 N 
ATOM     44  C   UNL A   1      44.927  27.727  27.319  1.00  0.00     0.074 A 
ATOM     45  C   UNL A   1      44.988  26.382  26.798  1.00  0.00     0.031 C 
ATOM     46  C   UNL A   1      38.941  28.096  29.650  1.00  0.00     0.029 A 
ATOM     47  C   UNL A   1      39.966  29.134  29.669  1.00  0.00     0.049 A 
ATOM     48  H   UNL A   1      41.861  29.059  28.804  1.00  0.00     0.167 HD
ATOM     49  C   UNL A   1      45.967  28.592  27.295  1.00  0.00     0.034 A 
ATOM     50  C   UNL A   1      39.849  30.339  30.260  1.00  0.00     0.034 A 
ATOM     51  C   UNL A   1      45.878  29.950  27.748  1.00  0.00     0.049 A 
ATOM     52  C   UNL A   1      40.997  31.308  30.163  1.00  0.00     0.074 A 
ATOM     53  C   UNL A   1      46.836  30.946  27.677  1.00  0.00     0.029 A 
ATOM     54  N   UNL A   1      44.765  30.505  28.360  1.00  0.00    -0.354 N 
ATOM     55  N   UNL A   1      42.165  31.148  29.589  1.00  0.00    -0.248 NA
ATOM     56  C   UNL A   1      40.797  32.637  30.759  1.00  0.00     0.031 C 
ATOM     57  C   UNL A   1      46.309  32.096  28.272  1.00  0.00     0.029 A 
ATOM     58  C   UNL A   1      45.011  31.827  28.678  1.00  0.00     0.049 A 
ATOM     59  H   UNL A   1      43.923  30.027  28.540  1.00  0.00     0.167 HD
ATOM     60  C   UNL A   1      42.824  32.366  29.720  1.00  0.00     0.074 A 
ATOM     61  C   UNL A   1      41.915  33.258  30.410  1.00  0.00     0.031 C 
ATOM     62  C   UNL A   1      44.072  32.712  29.317  1.00  0.00     0.034 A 
BRANCH  49  63
ATOM     63  C   UNL A   1      47.267  28.109  26.705  1.00  0.00     0.023 A 
ATOM     64  C   UNL A   1      48.331  27.742  27.556  1.00  0.00     0.012 A 
ATOM     65  C   UNL A   1      47.427  27.981  25.311  1.00  0.00     0.148 A 
ATOM     66  C   UNL A   1      49.546  27.302  27.031  1.00  0.00     0.002 A 
ATOM     67  C   UNL A   1      48.621  27.491  24.797  1.00  0.00     0.091 A 
ATOM     68  F   UNL A   1      46.414  28.355  24.515  1.00  0.00    -0.205 F 
ATOM     69  C   UNL A   1      49.686  27.166  25.654  1.00  0.00     0.022 A 
BRANCH  67  70
ATOM     70  S   UNL A   1      48.875  27.199  23.043  1.00  0.00     0.127 S 
ATOM     71  O   UNL A   1      48.186  25.923  22.854  1.00  0.00    -0.237 OA
ATOM     72  O   UNL A   1      48.200  28.350  22.442  1.00  0.00    -0.237 OA
ATOM     73  O   UNL A   1      50.317  27.165  22.844  1.00  0.00    -0.744 OA
ENDBRANCH  67  70
ENDBRANCH  49  63
BRANCH  50  74
ATOM     74  C   UNL A   1      38.573  30.724  30.931  1.00  0.00     0.023 A 
ATOM     75  C   UNL A   1      38.402  30.448  32.302  1.00  0.00     0.012 A 
ATOM     76  C   UNL A   1      37.541  31.378  30.231  1.00  0.00     0.148 A 
ATOM     77  C   UNL A   1      37.214  30.781  32.954  1.00  0.00     0.002 A 
ATOM     78  C   UNL A   1      36.383  31.756  30.898  1.00  0.00     0.091 A 
ATOM     79  F   UNL A   1      37.719  31.625  28.926  1.00  0.00    -0.205 F 
ATOM     80  C   UNL A   1      36.208  31.442  32.256  1.00  0.00     0.022 A 
BRANCH  78  81
ATOM     81  S   UNL A   1      35.088  32.723  30.113  1.00  0.00     0.127 S 
ATOM     82  O   UNL A   1      34.165  32.945  31.223  1.00  0.00    -0.237 OA
ATOM     83  O   UNL A   1      35.823  33.909  29.674  1.00  0.00    -0.237 OA
ATOM     84  O   UNL A   1      34.582  31.894  29.027  1.00  0.00    -0.744 OA
ENDBRANCH  78  81
ENDBRANCH  50  74
BRANCH  62  85
ATOM     85  C   UNL A   1      44.518  34.128  29.566  1.00  0.00     0.023 A 
ATOM     86  C   UNL A   1      45.198  34.454  30.756  1.00  0.00     0.012 A 
ATOM     87  C   UNL A   1      44.336  35.115  28.577  1.00  0.00     0.148 A 
ATOM     88  C   UNL A   1      45.659  35.752  30.973  1.00  0.00     0.002 A 
ATOM     89  C   UNL A   1      44.845  36.391  28.777  1.00  0.00     0.091 A 
ATOM     90  F   UNL A   1      43.671  34.786  27.460  1.00  0.00    -0.205 F 
ATOM     91  C   UNL A   1      45.495  36.715  29.980  1.00  0.00     0.022 A 
BRANCH  89  92
ATOM     92  S   UNL A   1      44.775  37.663  27.513  1.00  0.00     0.127 S 
ATOM     93  O   UNL A   1      45.087  38.866  28.284  1.00  0.00    -0.237 OA
ATOM     94  O   UNL A   1      45.827  37.241  26.588  1.00  0.00    -0.237 OA
ATOM     95  O   UNL A   1      43.428  37.609  26.961  1.00  0.00    -0.744 OA
ENDBRANCH  89  92
ENDBRANCH  62  85
ENDBRANCH  36  37
ENDBRANCH  28  31
ENDBRANCH  26  27
ENDBRANCH  25  26
ENDBRANCH   1  25
TORSDOF 19
ENDMDL
MODEL 3
REMARK VINA RESULT:     -10.9      2.578      8.068
REMARK SMILES CC[C@](C)([NH2+]CC(=O)N[C@H](C)c1cccs1)C(=O)NCCCNC(=O)c1ccc(-c2c3nc(c(-c4cccc(S(=O)(=O)[O-])c4F)c4ccc([nH]4)c(-c4cccc(S(=O)(=O)[O-])c4F)c4nc(c(-c5cccc(S(=O)(=O)[O-])c5F)c5ccc2[nH]5)C=C4)C=C3)cc1
REMARK SMILES IDX 20 1 19 2 17 3 18 4 3 6 4 7 2 8 1 9 5 10 6 13 7 14 8 15 9 16
REMARK SMILES IDX 10 18 11 19 12 20 13 21 16 22 14 23 15 24 21 25 22 26 23 27
REMARK SMILES IDX 24 28 25 30 26 31 27 32 88 33 28 34 87 35 29 36 30 37 31 38
REMARK SMILES IDX 81 39 32 40 86 41 80 42 82 43 33 44 85 45 79 46 78 47 34 49
REMARK SMILES IDX 66 50 46 51 65 52 47 53 50 54 64 55 83 56 48 57 49 58 63 60
REMARK SMILES IDX 84 61 51 62 35 63 36 64 44 65 37 66 39 67 45 68 38 69 40 70
REMARK SMILES IDX 41 71 42 72 43 73 67 74 68 75 76 76 69 77 71 78 77 79 70 80
REMARK SMILES IDX 72 81 73 82 74 83 75 84 52 85 53 86 61 87 54 88 56 89 62 90
REMARK SMILES IDX 55 91 57 92 58 93 59 94 60 95
REMARK H PARENT 19 5 5 11 5 12 9 17 23 29 82 48 50 59
REMARK Flexibility Score: inf
ROOT
ATOM      1  C   UNL A   1      33.126  28.426  25.651  1.00  0.00     0.118 C 
ENDROOT
BRANCH   1   2
ATOM      2  N   UNL A   1      32.012  27.569  26.070  1.00  0.00    -0.351 N 
ATOM      3  C   UNL A   1      31.147  26.628  25.589  1.00  0.00     0.281 C 
ATOM      4  O   UNL A   1      30.638  25.991  26.533  1.00  0.00    -0.268 OA
ATOM      5  H   UNL A   1      31.823  27.727  27.023  1.00  0.00     0.163 HD
BRANCH   3   6
ATOM      6  C   UNL A   1      30.612  26.367  24.076  1.00  0.00     0.172 C 
ATOM      7  C   UNL A   1      32.019  26.293  23.349  1.00  0.00     0.090 C 
BRANCH   6   8
ATOM      8  C   UNL A   1      29.910  27.441  23.090  1.00  0.00     0.075 C 
ATOM      9  C   UNL A   1      30.199  28.955  22.665  1.00  0.00     0.011 C 
ENDBRANCH   6   8
BRANCH   6  10
ATOM     10  N   UNL A   1      29.917  25.104  24.054  1.00  0.00    -0.326 N 
ATOM     11  H   UNL A   1      29.209  25.167  23.322  1.00  0.00     0.347 HD
ATOM     12  H   UNL A   1      29.584  24.997  25.012  1.00  0.00     0.347 HD
BRANCH  10  13
ATOM     13  C   UNL A   1      30.671  23.869  23.812  1.00  0.00     0.362 C 
BRANCH  13  14
ATOM     14  C   UNL A   1      31.283  22.915  24.884  1.00  0.00     0.275 C 
ATOM     15  O   UNL A   1      30.510  22.663  25.836  1.00  0.00    -0.268 OA
ATOM     16  N   UNL A   1      32.435  22.216  25.039  1.00  0.00    -0.344 N 
ATOM     17  H   UNL A   1      32.472  21.963  25.990  1.00  0.00     0.164 HD
BRANCH  16  18
ATOM     18  C   UNL A   1      33.684  21.654  24.411  1.00  0.00     0.119 C 
ATOM     19  C   UNL A   1      33.718  20.145  24.701  1.00  0.00     0.037 C 
BRANCH  18  20
ATOM     20  C   UNL A   1      35.038  22.225  24.822  1.00  0.00     0.027 A 
ATOM     21  C   UNL A   1      36.275  21.860  24.304  1.00  0.00     0.017 A 
ATOM     22  S   UNL A   1      35.294  23.282  26.162  1.00  0.00    -0.147 S 
ATOM     23  C   UNL A   1      37.332  22.720  24.721  1.00  0.00     0.012 A 
ATOM     24  C   UNL A   1      36.902  23.623  25.664  1.00  0.00     0.065 A 
ENDBRANCH  18  20
ENDBRANCH  16  18
ENDBRANCH  13  14
ENDBRANCH  10  13
ENDBRANCH   6  10
ENDBRANCH   3   6
ENDBRANCH   1   2
BRANCH   1  25
ATOM     25  C   UNL A   1      32.838  29.916  25.560  1.00  0.00     0.042 C 
BRANCH  25  26
ATOM     26  C   UNL A   1      32.180  30.472  26.817  1.00  0.00     0.118 C 
BRANCH  26  27
ATOM     27  N   UNL A   1      32.239  31.933  26.920  1.00  0.00    -0.352 N 
ATOM     28  C   UNL A   1      33.207  32.742  27.474  1.00  0.00     0.251 C 
ATOM     29  H   UNL A   1      31.468  32.410  26.536  1.00  0.00     0.163 HD
ATOM     30  O   UNL A   1      33.021  33.958  27.545  1.00  0.00    -0.269 OA
BRANCH  28  31
ATOM     31  C   UNL A   1      34.453  32.150  28.004  1.00  0.00     0.039 A 
ATOM     32  C   UNL A   1      35.636  32.897  28.003  1.00  0.00     0.014 A 
ATOM     33  C   UNL A   1      34.444  30.864  28.543  1.00  0.00     0.014 A 
ATOM     34  C   UNL A   1      36.781  32.378  28.616  1.00  0.00     0.010 A 
ATOM     35  C   UNL A   1      35.532  30.416  29.273  1.00  0.00     0.010 A 
ATOM     36  C   UNL A   1      36.727  31.148  29.290  1.00  0.00    -0.014 A 
BRANCH  36  37
ATOM     37  C   UNL A   1      37.909  30.569  29.977  1.00  0.00     0.031 A 
ATOM     38  C   UNL A   1      38.244  31.016  31.379  1.00  0.00     0.074 A 
ATOM     39  C   UNL A   1      38.731  29.728  29.318  1.00  0.00     0.049 A 
ATOM     40  N   UNL A   1      39.276  30.706  32.120  1.00  0.00    -0.248 NA
ATOM     41  C   UNL A   1      37.323  31.975  32.015  1.00  0.00     0.031 C 
ATOM     42  C   UNL A   1      38.568  29.295  27.927  1.00  0.00     0.029 A 
ATOM     43  N   UNL A   1      39.882  29.101  29.724  1.00  0.00    -0.354 N 
ATOM     44  C   UNL A   1      39.152  31.469  33.277  1.00  0.00     0.074 A 
ATOM     45  C   UNL A   1      37.983  32.300  33.115  1.00  0.00     0.031 C 
ATOM     46  C   UNL A   1      39.569  28.460  27.605  1.00  0.00     0.029 A 
ATOM     47  C   UNL A   1      40.462  28.322  28.749  1.00  0.00     0.049 A 
ATOM     48  H   UNL A   1      40.257  29.199  30.630  1.00  0.00     0.167 HD
ATOM     49  C   UNL A   1      39.915  31.449  34.394  1.00  0.00     0.034 A 
ATOM     50  C   UNL A   1      41.589  27.582  28.779  1.00  0.00     0.034 A 
ATOM     51  C   UNL A   1      41.032  30.568  34.575  1.00  0.00     0.049 A 
ATOM     52  C   UNL A   1      42.384  27.526  30.056  1.00  0.00     0.074 A 
ATOM     53  C   UNL A   1      41.813  30.388  35.703  1.00  0.00     0.029 A 
ATOM     54  N   UNL A   1      41.531  29.718  33.601  1.00  0.00    -0.354 N 
ATOM     55  N   UNL A   1      42.160  28.136  31.195  1.00  0.00    -0.248 NA
ATOM     56  C   UNL A   1      43.565  26.651  30.066  1.00  0.00     0.031 C 
ATOM     57  C   UNL A   1      42.802  29.448  35.399  1.00  0.00     0.029 A 
ATOM     58  C   UNL A   1      42.612  29.015  34.095  1.00  0.00     0.049 A 
ATOM     59  H   UNL A   1      41.166  29.628  32.690  1.00  0.00     0.167 HD
ATOM     60  C   UNL A   1      43.146  27.688  32.068  1.00  0.00     0.074 A 
ATOM     61  C   UNL A   1      43.956  26.741  31.328  1.00  0.00     0.031 C 
ATOM     62  C   UNL A   1      43.371  28.037  33.359  1.00  0.00     0.034 A 
BRANCH  49  63
ATOM     63  C   UNL A   1      39.524  32.366  35.525  1.00  0.00     0.023 A 
ATOM     64  C   UNL A   1      38.698  31.887  36.564  1.00  0.00     0.012 A 
ATOM     65  C   UNL A   1      40.002  33.690  35.582  1.00  0.00     0.148 A 
ATOM     66  C   UNL A   1      38.316  32.721  37.614  1.00  0.00     0.002 A 
ATOM     67  C   UNL A   1      39.662  34.499  36.659  1.00  0.00     0.091 A 
ATOM     68  F   UNL A   1      40.768  34.136  34.576  1.00  0.00    -0.205 F 
ATOM     69  C   UNL A   1      38.807  34.022  37.667  1.00  0.00     0.022 A 
BRANCH  67  70
ATOM     70  S   UNL A   1      40.307  36.162  36.866  1.00  0.00     0.127 S 
ATOM     71  O   UNL A   1      39.859  36.807  35.632  1.00  0.00    -0.237 OA
ATOM     72  O   UNL A   1      39.614  36.610  38.074  1.00  0.00    -0.237 OA
ATOM     73  O   UNL A   1      41.749  36.020  37.008  1.00  0.00    -0.744 OA
ENDBRANCH  67  70
ENDBRANCH  49  63
BRANCH  50  74
ATOM     74  C   UNL A   1      41.990  26.780  27.588  1.00  0.00     0.023 A 
ATOM     75  C   UNL A   1      42.658  27.412  26.520  1.00  0.00     0.012 A 
ATOM     76  C   UNL A   1      41.736  25.397  27.513  1.00  0.00     0.148 A 
ATOM     77  C   UNL A   1      43.032  26.692  25.385  1.00  0.00     0.002 A 
ATOM     78  C   UNL A   1      42.160  24.674  26.404  1.00  0.00     0.091 A 
ATOM     79  F   UNL A   1      41.093  24.814  28.534  1.00  0.00    -0.205 F 
ATOM     80  C   UNL A   1      42.792  25.322  25.330  1.00  0.00     0.022 A 
BRANCH  78  81
ATOM     81  S   UNL A   1      42.007  22.887  26.300  1.00  0.00     0.127 S 
ATOM     82  O   UNL A   1      42.754  22.454  27.476  1.00  0.00    -0.237 OA
ATOM     83  O   UNL A   1      40.558  22.705  26.387  1.00  0.00    -0.237 OA
ATOM     84  O   UNL A   1      42.581  22.517  25.014  1.00  0.00    -0.744 OA
ENDBRANCH  78  81
ENDBRANCH  50  74
BRANCH  62  85
ATOM     85  C   UNL A   1      44.507  27.361  34.078  1.00  0.00     0.023 A 
ATOM     86  C   UNL A   1      45.802  27.911  34.024  1.00  0.00     0.012 A 
ATOM     87  C   UNL A   1      44.267  26.225  34.877  1.00  0.00     0.148 A 
ATOM     88  C   UNL A   1      46.851  27.320  34.727  1.00  0.00     0.002 A 
ATOM     89  C   UNL A   1      45.304  25.675  35.617  1.00  0.00     0.091 A 
ATOM     90  F   UNL A   1      43.029  25.710  34.901  1.00  0.00    -0.205 F 
ATOM     91  C   UNL A   1      46.600  26.211  35.533  1.00  0.00     0.022 A 
BRANCH  89  92
ATOM     92  S   UNL A   1      45.051  24.315  36.763  1.00  0.00     0.127 S 
ATOM     93  O   UNL A   1      44.534  23.273  35.877  1.00  0.00    -0.237 OA
ATOM     94  O   UNL A   1      46.405  24.075  37.263  1.00  0.00    -0.237 OA
ATOM     95  O   UNL A   1      44.114  24.803  37.766  1.00  0.00    -0.744 OA
ENDBRANCH  89  92
ENDBRANCH  62  85
ENDBRANCH  36  37
ENDBRANCH  28  31
ENDBRANCH  26  27
ENDBRANCH  25  26
ENDBRANCH   1  25
TORSDOF 19
ENDMDL
