MODEL 1
REMARK VINA RESULT:      -9.5      0.000      0.000
REMARK SMILES O=C(CCCC[C@@H]1CCSS1)NCCCNC(=O)c1ccc(-c2c3nc(c(-c4cccc(S(=O)(=O)[O-])c4F)c4ccc([nH]4)c(-c4cccc(S(=O)(=O)[O-])c4F)c4nc(c(-c5cccc(S(=O)(=O)[O-])c5F)c5ccc2[nH]5)C=C4)C=C3)cc1
REMARK SMILES IDX 13 1 12 2 1 3 2 4 3 6 4 7 5 8 6 9 7 10 8 11 11 12 9 13 10 14
REMARK SMILES IDX 14 15 15 16 16 17 17 18 18 20 19 21 20 22 81 23 21 24 80 25
REMARK SMILES IDX 22 26 23 27 24 28 74 29 25 30 79 31 73 32 75 33 26 34 78 35
REMARK SMILES IDX 72 36 71 37 27 39 59 40 39 41 58 42 40 43 43 44 57 45 76 46
REMARK SMILES IDX 41 47 42 48 56 50 77 51 44 52 28 53 29 54 37 55 30 56 32 57
REMARK SMILES IDX 38 58 31 59 33 60 34 61 35 62 36 63 60 64 61 65 69 66 62 67
REMARK SMILES IDX 64 68 70 69 63 70 65 71 66 72 67 73 68 74 45 75 46 76 54 77
REMARK SMILES IDX 47 78 49 79 55 80 48 81 50 82 51 83 52 84 53 85
REMARK H PARENT 12 5 16 19 75 38 43 49
REMARK Flexibility Score: inf
ROOT
ATOM      1  C   UNL A   1      33.871  35.349  28.830  1.00  0.00     0.117 C 
ENDROOT
BRANCH   1   2
ATOM      2  N   UNL A   1      33.842  34.960  30.223  1.00  0.00    -0.356 N 
ATOM      3  O   UNL A   1      32.632  36.757  30.994  1.00  0.00    -0.275 OA
ATOM      4  C   UNL A   1      33.186  35.685  31.188  1.00  0.00     0.219 C 
ATOM      5  H   UNL A   1      34.315  34.140  30.492  1.00  0.00     0.163 HD
BRANCH   4   6
ATOM      6  C   UNL A   1      33.159  34.983  32.527  1.00  0.00     0.100 C 
BRANCH   6   7
ATOM      7  C   UNL A   1      34.571  34.607  32.977  1.00  0.00     0.010 C 
BRANCH   7   8
ATOM      8  C   UNL A   1      34.924  33.112  32.951  1.00  0.00     0.002 C 
BRANCH   8   9
ATOM      9  C   UNL A   1      36.149  32.679  32.129  1.00  0.00     0.015 C 
BRANCH   9  10
ATOM     10  C   UNL A   1      36.841  33.724  31.233  1.00  0.00     0.059 C 
ATOM     11  C   UNL A   1      37.298  33.220  29.853  1.00  0.00     0.027 C 
ATOM     12  S   UNL A   1      38.267  34.492  32.080  1.00  0.00    -0.091 SA
ATOM     13  C   UNL A   1      38.357  34.136  29.247  1.00  0.00     0.083 C 
ATOM     14  S   UNL A   1      39.595  34.388  30.534  1.00  0.00    -0.094 SA
ENDBRANCH   9  10
ENDBRANCH   8   9
ENDBRANCH   7   8
ENDBRANCH   6   7
ENDBRANCH   4   6
ENDBRANCH   1   2
BRANCH   1  15
ATOM     15  C   UNL A   1      33.701  34.154  27.904  1.00  0.00     0.042 C 
BRANCH  15  16
ATOM     16  C   UNL A   1      34.351  32.865  28.400  1.00  0.00     0.118 C 
BRANCH  16  17
ATOM     17  N   UNL A   1      33.763  31.661  27.830  1.00  0.00    -0.352 N 
ATOM     18  C   UNL A   1      34.324  30.418  27.649  1.00  0.00     0.251 C 
ATOM     19  H   UNL A   1      32.829  31.750  27.530  1.00  0.00     0.163 HD
ATOM     20  O   UNL A   1      33.710  29.557  27.025  1.00  0.00    -0.269 OA
BRANCH  18  21
ATOM     21  C   UNL A   1      35.675  30.128  28.179  1.00  0.00     0.039 A 
ATOM     22  C   UNL A   1      35.799  29.679  29.496  1.00  0.00     0.014 A 
ATOM     23  C   UNL A   1      36.813  30.282  27.383  1.00  0.00     0.014 A 
ATOM     24  C   UNL A   1      37.055  29.311  29.988  1.00  0.00     0.010 A 
ATOM     25  C   UNL A   1      38.049  29.838  27.848  1.00  0.00     0.010 A 
ATOM     26  C   UNL A   1      38.185  29.347  29.155  1.00  0.00    -0.014 A 
BRANCH  26  27
ATOM     27  C   UNL A   1      39.506  28.852  29.626  1.00  0.00     0.031 A 
ATOM     28  C   UNL A   1      40.242  29.562  30.731  1.00  0.00     0.074 A 
ATOM     29  C   UNL A   1      40.087  27.805  29.003  1.00  0.00     0.049 A 
ATOM     30  N   UNL A   1      41.420  29.302  31.238  1.00  0.00    -0.248 NA
ATOM     31  C   UNL A   1      39.580  30.732  31.329  1.00  0.00     0.031 C 
ATOM     32  C   UNL A   1      39.517  27.074  27.868  1.00  0.00     0.029 A 
ATOM     33  N   UNL A   1      41.296  27.190  29.217  1.00  0.00    -0.354 N 
ATOM     34  C   UNL A   1      41.655  30.291  32.185  1.00  0.00     0.074 A 
ATOM     35  C   UNL A   1      40.512  31.178  32.160  1.00  0.00     0.031 C 
ATOM     36  C   UNL A   1      40.370  26.109  27.491  1.00  0.00     0.029 A 
ATOM     37  C   UNL A   1      41.563  26.172  28.331  1.00  0.00     0.049 A 
ATOM     38  H   UNL A   1      41.913  27.452  29.937  1.00  0.00     0.167 HD
ATOM     39  C   UNL A   1      42.712  30.435  33.020  1.00  0.00     0.034 A 
ATOM     40  C   UNL A   1      42.650  25.386  28.196  1.00  0.00     0.034 A 
ATOM     41  C   UNL A   1      43.833  29.536  33.068  1.00  0.00     0.049 A 
ATOM     42  C   UNL A   1      43.801  25.556  29.150  1.00  0.00     0.074 A 
ATOM     43  C   UNL A   1      44.907  29.547  33.941  1.00  0.00     0.029 A 
ATOM     44  N   UNL A   1      44.036  28.474  32.200  1.00  0.00    -0.354 N 
ATOM     45  N   UNL A   1      43.930  26.394  30.147  1.00  0.00    -0.248 NA
ATOM     46  C   UNL A   1      44.945  24.646  28.979  1.00  0.00     0.031 C 
ATOM     47  C   UNL A   1      45.779  28.515  33.576  1.00  0.00     0.029 A 
ATOM     48  C   UNL A   1      45.227  27.836  32.502  1.00  0.00     0.049 A 
ATOM     49  H   UNL A   1      43.424  28.214  31.475  1.00  0.00     0.167 HD
ATOM     50  C   UNL A   1      45.150  26.095  30.743  1.00  0.00     0.074 A 
ATOM     51  C   UNL A   1      45.710  24.980  30.009  1.00  0.00     0.031 C 
ATOM     52  C   UNL A   1      45.757  26.698  31.795  1.00  0.00     0.034 A 
BRANCH  39  53
ATOM     53  C   UNL A   1      42.689  31.592  33.987  1.00  0.00     0.023 A 
ATOM     54  C   UNL A   1      43.221  32.838  33.597  1.00  0.00     0.012 A 
ATOM     55  C   UNL A   1      42.086  31.466  35.254  1.00  0.00     0.148 A 
ATOM     56  C   UNL A   1      43.190  33.929  34.465  1.00  0.00     0.002 A 
ATOM     57  C   UNL A   1      42.016  32.570  36.096  1.00  0.00     0.091 A 
ATOM     58  F   UNL A   1      41.601  30.270  35.616  1.00  0.00    -0.205 F 
ATOM     59  C   UNL A   1      42.579  33.798  35.708  1.00  0.00     0.022 A 
BRANCH  57  60
ATOM     60  S   UNL A   1      41.179  32.528  37.684  1.00  0.00     0.127 S 
ATOM     61  O   UNL A   1      42.039  31.624  38.446  1.00  0.00    -0.237 OA
ATOM     62  O   UNL A   1      41.245  33.929  38.102  1.00  0.00    -0.237 OA
ATOM     63  O   UNL A   1      39.835  32.035  37.418  1.00  0.00    -0.744 OA
ENDBRANCH  57  60
ENDBRANCH  39  53
BRANCH  40  64
ATOM     64  C   UNL A   1      42.682  24.331  27.143  1.00  0.00     0.023 A 
ATOM     65  C   UNL A   1      43.352  24.580  25.929  1.00  0.00     0.012 A 
ATOM     66  C   UNL A   1      42.068  23.079  27.343  1.00  0.00     0.148 A 
ATOM     67  C   UNL A   1      43.379  23.617  24.920  1.00  0.00     0.002 A 
ATOM     68  C   UNL A   1      42.148  22.103  26.358  1.00  0.00     0.091 A 
ATOM     69  F   UNL A   1      41.427  22.864  28.501  1.00  0.00    -0.205 F 
ATOM     70  C   UNL A   1      42.786  22.376  25.137  1.00  0.00     0.022 A 
BRANCH  68  71
ATOM     71  S   UNL A   1      41.529  20.435  26.599  1.00  0.00     0.127 S 
ATOM     72  O   UNL A   1      40.083  20.647  26.580  1.00  0.00    -0.237 OA
ATOM     73  O   UNL A   1      42.066  19.743  25.427  1.00  0.00    -0.237 OA
ATOM     74  O   UNL A   1      42.084  19.988  27.869  1.00  0.00    -0.744 OA
ENDBRANCH  68  71
ENDBRANCH  40  64
BRANCH  52  75
ATOM     75  C   UNL A   1      47.086  26.148  32.247  1.00  0.00     0.023 A 
ATOM     76  C   UNL A   1      48.280  26.638  31.681  1.00  0.00     0.012 A 
ATOM     77  C   UNL A   1      47.153  25.198  33.286  1.00  0.00     0.148 A 
ATOM     78  C   UNL A   1      49.517  26.165  32.118  1.00  0.00     0.002 A 
ATOM     79  C   UNL A   1      48.390  24.772  33.752  1.00  0.00     0.091 A 
ATOM     80  F   UNL A   1      46.006  24.732  33.801  1.00  0.00    -0.205 F 
ATOM     81  C   UNL A   1      49.573  25.243  33.159  1.00  0.00     0.022 A 
BRANCH  79  82
ATOM     82  S   UNL A   1      48.565  23.660  35.153  1.00  0.00     0.127 S 
ATOM     83  O   UNL A   1      47.976  22.428  34.631  1.00  0.00    -0.237 OA
ATOM     84  O   UNL A   1      50.016  23.616  35.331  1.00  0.00    -0.237 OA
ATOM     85  O   UNL A   1      47.838  24.281  36.252  1.00  0.00    -0.744 OA
ENDBRANCH  79  82
ENDBRANCH  52  75
ENDBRANCH  26  27
ENDBRANCH  18  21
ENDBRANCH  16  17
ENDBRANCH  15  16
ENDBRANCH   1  15
TORSDOF 17
ENDMDL
MODEL 2
REMARK VINA RESULT:      -9.4      4.356      9.981
REMARK SMILES O=C(CCCC[C@@H]1CCSS1)NCCCNC(=O)c1ccc(-c2c3nc(c(-c4cccc(S(=O)(=O)[O-])c4F)c4ccc([nH]4)c(-c4cccc(S(=O)(=O)[O-])c4F)c4nc(c(-c5cccc(S(=O)(=O)[O-])c5F)c5ccc2[nH]5)C=C4)C=C3)cc1
REMARK SMILES IDX 13 1 12 2 1 3 2 4 3 6 4 7 5 8 6 9 7 10 8 11 11 12 9 13 10 14
REMARK SMILES IDX 14 15 15 16 16 17 17 18 18 20 19 21 20 22 81 23 21 24 80 25
REMARK SMILES IDX 22 26 23 27 24 28 74 29 25 30 79 31 73 32 75 33 26 34 78 35
REMARK SMILES IDX 72 36 71 37 27 39 59 40 39 41 58 42 40 43 43 44 57 45 76 46
REMARK SMILES IDX 41 47 42 48 56 50 77 51 44 52 28 53 29 54 37 55 30 56 32 57
REMARK SMILES IDX 38 58 31 59 33 60 34 61 35 62 36 63 60 64 61 65 69 66 62 67
REMARK SMILES IDX 64 68 70 69 63 70 65 71 66 72 67 73 68 74 45 75 46 76 54 77
REMARK SMILES IDX 47 78 49 79 55 80 48 81 50 82 51 83 52 84 53 85
REMARK H PARENT 12 5 16 19 75 38 43 49
REMARK Flexibility Score: inf
ROOT
ATOM      1  C   UNL A   1      31.877  29.883  26.960  1.00  0.00     0.117 C 
ENDROOT
BRANCH   1   2
ATOM      2  N   UNL A   1      31.624  29.116  25.761  1.00  0.00    -0.356 N 
ATOM      3  O   UNL A   1      33.809  28.546  25.323  1.00  0.00    -0.275 OA
ATOM      4  C   UNL A   1      32.618  28.475  25.061  1.00  0.00     0.219 C 
ATOM      5  H   UNL A   1      30.700  29.050  25.430  1.00  0.00     0.163 HD
BRANCH   4   6
ATOM      6  C   UNL A   1      32.078  27.603  23.949  1.00  0.00     0.100 C 
BRANCH   6   7
ATOM      7  C   UNL A   1      30.629  27.201  24.223  1.00  0.00     0.010 C 
BRANCH   7   8
ATOM      8  C   UNL A   1      29.573  27.726  23.239  1.00  0.00     0.002 C 
BRANCH   8   9
ATOM      9  C   UNL A   1      29.875  29.036  22.494  1.00  0.00     0.015 C 
BRANCH   9  10
ATOM     10  C   UNL A   1      28.782  30.122  22.443  1.00  0.00     0.059 C 
ATOM     11  C   UNL A   1      28.643  30.865  21.104  1.00  0.00     0.027 C 
ATOM     12  S   UNL A   1      29.000  31.351  23.777  1.00  0.00    -0.091 SA
ATOM     13  C   UNL A   1      27.909  32.192  21.275  1.00  0.00     0.083 C 
ATOM     14  S   UNL A   1      28.710  33.031  22.655  1.00  0.00    -0.094 SA
ENDBRANCH   9  10
ENDBRANCH   8   9
ENDBRANCH   7   8
ENDBRANCH   6   7
ENDBRANCH   4   6
ENDBRANCH   1   2
BRANCH   1  15
ATOM     15  C   UNL A   1      31.798  31.381  26.702  1.00  0.00     0.042 C 
BRANCH  15  16
ATOM     16  C   UNL A   1      32.992  32.181  27.216  1.00  0.00     0.118 C 
BRANCH  16  17
ATOM     17  N   UNL A   1      32.678  33.574  27.498  1.00  0.00    -0.352 N 
ATOM     18  C   UNL A   1      33.215  34.413  28.447  1.00  0.00     0.251 C 
ATOM     19  H   UNL A   1      31.981  33.973  26.929  1.00  0.00     0.163 HD
ATOM     20  O   UNL A   1      32.727  35.526  28.624  1.00  0.00    -0.269 OA
BRANCH  18  21
ATOM     21  C   UNL A   1      34.360  33.966  29.272  1.00  0.00     0.039 A 
ATOM     22  C   UNL A   1      34.125  33.079  30.325  1.00  0.00     0.014 A 
ATOM     23  C   UNL A   1      35.660  34.404  29.003  1.00  0.00     0.014 A 
ATOM     24  C   UNL A   1      35.203  32.573  31.058  1.00  0.00     0.010 A 
ATOM     25  C   UNL A   1      36.736  33.836  29.681  1.00  0.00     0.010 A 
ATOM     26  C   UNL A   1      36.522  32.913  30.715  1.00  0.00    -0.014 A 
BRANCH  26  27
ATOM     27  C   UNL A   1      37.683  32.295  31.410  1.00  0.00     0.031 A 
ATOM     28  C   UNL A   1      38.442  31.162  30.775  1.00  0.00     0.074 A 
ATOM     29  C   UNL A   1      38.007  32.702  32.656  1.00  0.00     0.049 A 
ATOM     30  N   UNL A   1      39.447  30.473  31.252  1.00  0.00    -0.248 NA
ATOM     31  C   UNL A   1      38.001  30.727  29.440  1.00  0.00     0.031 C 
ATOM     32  C   UNL A   1      37.305  33.737  33.417  1.00  0.00     0.029 A 
ATOM     33  N   UNL A   1      38.992  32.274  33.512  1.00  0.00    -0.354 N 
ATOM     34  C   UNL A   1      39.735  29.506  30.296  1.00  0.00     0.074 A 
ATOM     35  C   UNL A   1      38.777  29.674  29.225  1.00  0.00     0.031 C 
ATOM     36  C   UNL A   1      37.884  33.869  34.621  1.00  0.00     0.029 A 
ATOM     37  C   UNL A   1      38.975  32.906  34.734  1.00  0.00     0.049 A 
ATOM     38  H   UNL A   1      39.650  31.582  33.273  1.00  0.00     0.167 HD
ATOM     39  C   UNL A   1      40.723  28.579  30.294  1.00  0.00     0.034 A 
ATOM     40  C   UNL A   1      39.739  32.722  35.829  1.00  0.00     0.034 A 
ATOM     41  C   UNL A   1      41.696  28.433  31.343  1.00  0.00     0.049 A 
ATOM     42  C   UNL A   1      40.841  31.699  35.793  1.00  0.00     0.074 A 
ATOM     43  C   UNL A   1      42.789  27.585  31.389  1.00  0.00     0.029 A 
ATOM     44  N   UNL A   1      41.688  29.138  32.536  1.00  0.00    -0.354 N 
ATOM     45  N   UNL A   1      41.200  30.907  34.812  1.00  0.00    -0.248 NA
ATOM     46  C   UNL A   1      41.666  31.567  37.003  1.00  0.00     0.031 C 
ATOM     47  C   UNL A   1      43.419  27.749  32.627  1.00  0.00     0.029 A 
ATOM     48  C   UNL A   1      42.743  28.730  33.335  1.00  0.00     0.049 A 
ATOM     49  H   UNL A   1      41.028  29.826  32.781  1.00  0.00     0.167 HD
ATOM     50  C   UNL A   1      42.310  30.207  35.273  1.00  0.00     0.074 A 
ATOM     51  C   UNL A   1      42.579  30.688  36.613  1.00  0.00     0.031 C 
ATOM     52  C   UNL A   1      43.032  29.245  34.649  1.00  0.00     0.034 A 
BRANCH  39  53
ATOM     53  C   UNL A   1      40.830  27.671  29.095  1.00  0.00     0.023 A 
ATOM     54  C   UNL A   1      39.938  26.587  28.959  1.00  0.00     0.012 A 
ATOM     55  C   UNL A   1      41.768  27.924  28.075  1.00  0.00     0.148 A 
ATOM     56  C   UNL A   1      40.002  25.747  27.848  1.00  0.00     0.002 A 
ATOM     57  C   UNL A   1      41.795  27.111  26.947  1.00  0.00     0.091 A 
ATOM     58  F   UNL A   1      42.620  28.947  28.229  1.00  0.00    -0.205 F 
ATOM     59  C   UNL A   1      40.922  26.016  26.839  1.00  0.00     0.022 A 
BRANCH  57  60
ATOM     60  S   UNL A   1      42.886  27.420  25.555  1.00  0.00     0.127 S 
ATOM     61  O   UNL A   1      44.073  27.952  26.223  1.00  0.00    -0.237 OA
ATOM     62  O   UNL A   1      43.053  26.078  24.994  1.00  0.00    -0.237 OA
ATOM     63  O   UNL A   1      42.183  28.357  24.691  1.00  0.00    -0.744 OA
ENDBRANCH  57  60
ENDBRANCH  39  53
BRANCH  40  64
ATOM     64  C   UNL A   1      39.518  33.561  37.042  1.00  0.00     0.023 A 
ATOM     65  C   UNL A   1      39.999  34.884  37.069  1.00  0.00     0.012 A 
ATOM     66  C   UNL A   1      38.824  33.060  38.161  1.00  0.00     0.148 A 
ATOM     67  C   UNL A   1      39.824  35.683  38.199  1.00  0.00     0.002 A 
ATOM     68  C   UNL A   1      38.602  33.879  39.261  1.00  0.00     0.091 A 
ATOM     69  F   UNL A   1      38.383  31.795  38.120  1.00  0.00    -0.205 F 
ATOM     70  C   UNL A   1      39.117  35.184  39.291  1.00  0.00     0.022 A 
BRANCH  68  71
ATOM     71  S   UNL A   1      37.594  33.368  40.656  1.00  0.00     0.127 S 
ATOM     72  O   UNL A   1      38.410  32.307  41.243  1.00  0.00    -0.237 OA
ATOM     73  O   UNL A   1      37.524  34.600  41.443  1.00  0.00    -0.237 OA
ATOM     74  O   UNL A   1      36.321  32.945  40.089  1.00  0.00    -0.744 OA
ENDBRANCH  68  71
ENDBRANCH  40  64
BRANCH  52  75
ATOM     75  C   UNL A   1      44.210  28.663  35.387  1.00  0.00     0.023 A 
ATOM     76  C   UNL A   1      45.500  29.194  35.188  1.00  0.00     0.012 A 
ATOM     77  C   UNL A   1      44.026  27.636  36.335  1.00  0.00     0.148 A 
ATOM     78  C   UNL A   1      46.591  28.690  35.894  1.00  0.00     0.002 A 
ATOM     79  C   UNL A   1      45.109  27.175  37.073  1.00  0.00     0.091 A 
ATOM     80  F   UNL A   1      42.794  27.131  36.499  1.00  0.00    -0.205 F 
ATOM     81  C   UNL A   1      46.395  27.691  36.843  1.00  0.00     0.022 A 
BRANCH  79  82
ATOM     82  S   UNL A   1      44.938  25.960  38.385  1.00  0.00     0.127 S 
ATOM     83  O   UNL A   1      46.329  25.760  38.789  1.00  0.00    -0.237 OA
ATOM     84  O   UNL A   1      44.116  26.675  39.362  1.00  0.00    -0.237 OA
ATOM     85  O   UNL A   1      44.292  24.803  37.782  1.00  0.00    -0.744 OA
ENDBRANCH  79  82
ENDBRANCH  52  75
ENDBRANCH  26  27
ENDBRANCH  18  21
ENDBRANCH  16  17
ENDBRANCH  15  16
ENDBRANCH   1  15
TORSDOF 17
ENDMDL
MODEL 3
REMARK VINA RESULT:      -9.3      3.414      5.832
REMARK SMILES O=C(CCCC[C@@H]1CCSS1)NCCCNC(=O)c1ccc(-c2c3nc(c(-c4cccc(S(=O)(=O)[O-])c4F)c4ccc([nH]4)c(-c4cccc(S(=O)(=O)[O-])c4F)c4nc(c(-c5cccc(S(=O)(=O)[O-])c5F)c5ccc2[nH]5)C=C4)C=C3)cc1
REMARK SMILES IDX 13 1 12 2 1 3 2 4 3 6 4 7 5 8 6 9 7 10 8 11 11 12 9 13 10 14
REMARK SMILES IDX 14 15 15 16 16 17 17 18 18 20 19 21 20 22 81 23 21 24 80 25
REMARK SMILES IDX 22 26 23 27 24 28 74 29 25 30 79 31 73 32 75 33 26 34 78 35
REMARK SMILES IDX 72 36 71 37 27 39 59 40 39 41 58 42 40 43 43 44 57 45 76 46
REMARK SMILES IDX 41 47 42 48 56 50 77 51 44 52 28 53 29 54 37 55 30 56 32 57
REMARK SMILES IDX 38 58 31 59 33 60 34 61 35 62 36 63 60 64 61 65 69 66 62 67
REMARK SMILES IDX 64 68 70 69 63 70 65 71 66 72 67 73 68 74 45 75 46 76 54 77
REMARK SMILES IDX 47 78 49 79 55 80 48 81 50 82 51 83 52 84 53 85
REMARK H PARENT 12 5 16 19 75 38 43 49
REMARK Flexibility Score: inf
ROOT
ATOM      1  C   UNL A   1      31.601  28.518  24.871  1.00  0.00     0.117 C 
ENDROOT
BRANCH   1   2
ATOM      2  N   UNL A   1      32.375  27.302  24.990  1.00  0.00    -0.356 N 
ATOM      3  O   UNL A   1      31.359  26.505  26.894  1.00  0.00    -0.275 OA
ATOM      4  C   UNL A   1      32.159  26.373  25.979  1.00  0.00     0.219 C 
ATOM      5  H   UNL A   1      33.090  27.133  24.335  1.00  0.00     0.163 HD
BRANCH   4   6
ATOM      6  C   UNL A   1      32.978  25.116  25.787  1.00  0.00     0.100 C 
BRANCH   6   7
ATOM      7  C   UNL A   1      34.149  25.365  24.837  1.00  0.00     0.010 C 
BRANCH   7   8
ATOM      8  C   UNL A   1      34.199  24.502  23.567  1.00  0.00     0.002 C 
BRANCH   8   9
ATOM      9  C   UNL A   1      35.258  23.390  23.496  1.00  0.00     0.015 C 
BRANCH   9  10
ATOM     10  C   UNL A   1      35.035  22.107  24.321  1.00  0.00     0.059 C 
ATOM     11  C   UNL A   1      33.585  21.600  24.384  1.00  0.00     0.027 C 
ATOM     12  S   UNL A   1      35.669  22.291  26.025  1.00  0.00    -0.091 SA
ATOM     13  C   UNL A   1      33.376  20.652  25.561  1.00  0.00     0.083 C 
ATOM     14  S   UNL A   1      34.069  21.486  27.002  1.00  0.00    -0.094 SA
ENDBRANCH   9  10
ENDBRANCH   8   9
ENDBRANCH   7   8
ENDBRANCH   6   7
ENDBRANCH   4   6
ENDBRANCH   1   2
BRANCH   1  15
ATOM     15  C   UNL A   1      32.406  29.744  25.272  1.00  0.00     0.042 C 
BRANCH  15  16
ATOM     16  C   UNL A   1      32.131  30.254  26.684  1.00  0.00     0.118 C 
BRANCH  16  17
ATOM     17  N   UNL A   1      32.187  31.704  26.799  1.00  0.00    -0.352 N 
ATOM     18  C   UNL A   1      33.131  32.494  27.415  1.00  0.00     0.251 C 
ATOM     19  H   UNL A   1      31.443  32.190  26.375  1.00  0.00     0.163 HD
ATOM     20  O   UNL A   1      32.939  33.701  27.523  1.00  0.00    -0.269 OA
BRANCH  18  21
ATOM     21  C   UNL A   1      34.361  31.886  27.972  1.00  0.00     0.039 A 
ATOM     22  C   UNL A   1      35.489  32.691  28.148  1.00  0.00     0.014 A 
ATOM     23  C   UNL A   1      34.401  30.537  28.333  1.00  0.00     0.014 A 
ATOM     24  C   UNL A   1      36.630  32.160  28.757  1.00  0.00     0.010 A 
ATOM     25  C   UNL A   1      35.508  30.034  29.012  1.00  0.00     0.010 A 
ATOM     26  C   UNL A   1      36.635  30.839  29.233  1.00  0.00    -0.014 A 
BRANCH  26  27
ATOM     27  C   UNL A   1      37.799  30.295  29.984  1.00  0.00     0.031 A 
ATOM     28  C   UNL A   1      38.072  30.735  31.397  1.00  0.00     0.074 A 
ATOM     29  C   UNL A   1      38.661  29.462  29.364  1.00  0.00     0.049 A 
ATOM     30  N   UNL A   1      39.062  30.403  32.187  1.00  0.00    -0.248 NA
ATOM     31  C   UNL A   1      37.126  31.689  31.995  1.00  0.00     0.031 C 
ATOM     32  C   UNL A   1      38.556  29.017  27.973  1.00  0.00     0.029 A 
ATOM     33  N   UNL A   1      39.811  28.862  29.816  1.00  0.00    -0.354 N 
ATOM     34  C   UNL A   1      38.878  31.131  33.356  1.00  0.00     0.074 A 
ATOM     35  C   UNL A   1      37.700  31.949  33.161  1.00  0.00     0.031 C 
ATOM     36  C   UNL A   1      39.591  28.213  27.687  1.00  0.00     0.029 A 
ATOM     37  C   UNL A   1      40.455  28.111  28.859  1.00  0.00     0.049 A 
ATOM     38  H   UNL A   1      40.144  28.960  30.737  1.00  0.00     0.167 HD
ATOM     39  C   UNL A   1      39.604  31.104  34.499  1.00  0.00     0.034 A 
ATOM     40  C   UNL A   1      41.616  27.429  28.912  1.00  0.00     0.034 A 
ATOM     41  C   UNL A   1      40.756  30.267  34.705  1.00  0.00     0.049 A 
ATOM     42  C   UNL A   1      42.393  27.400  30.200  1.00  0.00     0.074 A 
ATOM     43  C   UNL A   1      41.503  30.102  35.859  1.00  0.00     0.029 A 
ATOM     44  N   UNL A   1      41.338  29.467  33.735  1.00  0.00    -0.354 N 
ATOM     45  N   UNL A   1      42.111  27.966  31.347  1.00  0.00    -0.248 NA
ATOM     46  C   UNL A   1      43.634  26.609  30.210  1.00  0.00     0.031 C 
ATOM     47  C   UNL A   1      42.560  29.231  35.574  1.00  0.00     0.029 A 
ATOM     48  C   UNL A   1      42.447  28.822  34.256  1.00  0.00     0.049 A 
ATOM     49  H   UNL A   1      41.012  29.372  32.811  1.00  0.00     0.167 HD
ATOM     50  C   UNL A   1      43.117  27.576  32.224  1.00  0.00     0.074 A 
ATOM     51  C   UNL A   1      44.003  26.704  31.480  1.00  0.00     0.031 C 
ATOM     52  C   UNL A   1      43.299  27.919  33.523  1.00  0.00     0.034 A 
BRANCH  39  53
ATOM     53  C   UNL A   1      39.151  31.979  35.640  1.00  0.00     0.023 A 
ATOM     54  C   UNL A   1      38.248  31.468  36.596  1.00  0.00     0.012 A 
ATOM     55  C   UNL A   1      39.663  33.281  35.803  1.00  0.00     0.148 A 
ATOM     56  C   UNL A   1      37.833  32.250  37.673  1.00  0.00     0.002 A 
ATOM     57  C   UNL A   1      39.282  34.038  36.904  1.00  0.00     0.091 A 
ATOM     58  F   UNL A   1      40.506  33.758  34.875  1.00  0.00    -0.205 F 
ATOM     59  C   UNL A   1      38.357  33.530  37.832  1.00  0.00     0.022 A 
BRANCH  57  60
ATOM     60  S   UNL A   1      39.960  35.666  37.245  1.00  0.00     0.127 S 
ATOM     61  O   UNL A   1      39.265  36.022  38.482  1.00  0.00    -0.237 OA
ATOM     62  O   UNL A   1      41.385  35.375  37.410  1.00  0.00    -0.237 OA
ATOM     63  O   UNL A   1      39.637  36.488  36.088  1.00  0.00    -0.744 OA
ENDBRANCH  57  60
ENDBRANCH  39  53
BRANCH  40  64
ATOM     64  C   UNL A   1      42.093  26.674  27.718  1.00  0.00     0.023 A 
ATOM     65  C   UNL A   1      42.822  27.344  26.717  1.00  0.00     0.012 A 
ATOM     66  C   UNL A   1      41.842  25.295  27.577  1.00  0.00     0.148 A 
ATOM     67  C   UNL A   1      43.262  26.666  25.580  1.00  0.00     0.002 A 
ATOM     68  C   UNL A   1      42.332  24.612  26.470  1.00  0.00     0.091 A 
ATOM     69  F   UNL A   1      41.137  24.677  28.535  1.00  0.00    -0.205 F 
ATOM     70  C   UNL A   1      43.026  25.298  25.461  1.00  0.00     0.022 A 
BRANCH  68  71
ATOM     71  S   UNL A   1      42.190  22.830  26.295  1.00  0.00     0.127 S 
ATOM     72  O   UNL A   1      40.751  22.628  26.456  1.00  0.00    -0.237 OA
ATOM     73  O   UNL A   1      42.694  22.621  24.937  1.00  0.00    -0.237 OA
ATOM     74  O   UNL A   1      43.028  22.263  27.342  1.00  0.00    -0.744 OA
ENDBRANCH  68  71
ENDBRANCH  40  64
BRANCH  52  75
ATOM     75  C   UNL A   1      44.482  27.328  34.245  1.00  0.00     0.023 A 
ATOM     76  C   UNL A   1      45.724  27.992  34.224  1.00  0.00     0.012 A 
ATOM     77  C   UNL A   1      44.341  26.151  35.008  1.00  0.00     0.148 A 
ATOM     78  C   UNL A   1      46.816  27.475  34.920  1.00  0.00     0.002 A 
ATOM     79  C   UNL A   1      45.418  25.672  35.742  1.00  0.00     0.091 A 
ATOM     80  F   UNL A   1      43.155  25.525  35.003  1.00  0.00    -0.205 F 
ATOM     81  C   UNL A   1      46.661  26.325  35.688  1.00  0.00     0.022 A 
BRANCH  79  82
ATOM     82  S   UNL A   1      45.288  24.252  36.836  1.00  0.00     0.127 S 
ATOM     83  O   UNL A   1      44.870  23.200  35.910  1.00  0.00    -0.237 OA
ATOM     84  O   UNL A   1      46.657  24.120  37.333  1.00  0.00    -0.237 OA
ATOM     85  O   UNL A   1      44.308  24.615  37.850  1.00  0.00    -0.744 OA
ENDBRANCH  79  82
ENDBRANCH  52  75
ENDBRANCH  26  27
ENDBRANCH  18  21
ENDBRANCH  16  17
ENDBRANCH  15  16
ENDBRANCH   1  15
TORSDOF 17
ENDMDL
