MODEL 1
REMARK VINA RESULT:     -11.7      0.000      0.000
REMARK SMILES O=C(NCCCNC(=O)c1ccc(COc2cccc(Cl)c2Cl)o1)c1ccc(-c2c3nc(c(-c4cccc(S(=O)(=O)[O-])c4F)c4ccc([nH]4)c(-c4cccc(S(=O)(=O)[O-])c4F)c4nc(c(-c5cccc(S(=O)(=O)[O-])c5F)c5ccc2[nH]5)C=C4)C=C3)cc1
REMARK SMILES IDX 5 1 4 2 3 3 1 4 2 5 25 7 26 8 87 9 27 10 86 11 28 12 29 13
REMARK SMILES IDX 30 14 80 15 31 16 85 17 79 18 81 19 32 20 84 21 78 22 77 23
REMARK SMILES IDX 33 25 65 26 45 27 64 28 46 29 49 30 63 31 82 32 47 33 48 34
REMARK SMILES IDX 62 36 83 37 50 38 34 39 35 40 43 41 36 42 38 43 44 44 37 45
REMARK SMILES IDX 39 46 40 47 41 48 42 49 66 50 67 51 75 52 68 53 70 54 76 55
REMARK SMILES IDX 69 56 71 57 72 58 73 59 74 60 51 61 52 62 60 63 53 64 55 65
REMARK SMILES IDX 61 66 54 67 56 68 57 69 58 70 59 71 6 72 7 73 8 74 9 76
REMARK SMILES IDX 10 77 11 78 24 79 12 80 13 81 14 82 15 83 16 84 17 85 22 86
REMARK SMILES IDX 18 87 20 88 23 89 19 90 21 91
REMARK H PARENT 3 6 81 24 49 35 7 75
REMARK Flexibility Score: inf
ROOT
ATOM      1  C   UNL A   1      31.584  32.194  26.579  1.00  0.00     0.042 C 
ENDROOT
BRANCH   1   2
ATOM      2  C   UNL A   1      32.761  32.710  27.396  1.00  0.00     0.118 C 
BRANCH   2   3
ATOM      3  N   UNL A   1      32.610  34.121  27.724  1.00  0.00    -0.352 N 
ATOM      4  O   UNL A   1      32.668  35.937  29.038  1.00  0.00    -0.269 OA
ATOM      5  C   UNL A   1      33.157  34.847  28.752  1.00  0.00     0.251 C 
ATOM      6  H   UNL A   1      32.026  34.631  27.116  1.00  0.00     0.163 HD
BRANCH   5   7
ATOM      7  C   UNL A   1      34.322  34.326  29.499  1.00  0.00     0.039 A 
ATOM      8  C   UNL A   1      34.142  33.501  30.613  1.00  0.00     0.014 A 
ATOM      9  C   UNL A   1      35.612  34.602  29.037  1.00  0.00     0.014 A 
ATOM     10  C   UNL A   1      35.241  33.046  31.329  1.00  0.00     0.010 A 
ATOM     11  C   UNL A   1      36.719  34.070  29.705  1.00  0.00     0.010 A 
ATOM     12  C   UNL A   1      36.541  33.297  30.862  1.00  0.00    -0.014 A 
BRANCH  12  13
ATOM     13  C   UNL A   1      37.683  32.610  31.513  1.00  0.00     0.031 A 
ATOM     14  C   UNL A   1      38.395  31.467  30.852  1.00  0.00     0.074 A 
ATOM     15  C   UNL A   1      38.052  33.029  32.740  1.00  0.00     0.049 A 
ATOM     16  N   UNL A   1      39.419  30.783  31.289  1.00  0.00    -0.248 NA
ATOM     17  C   UNL A   1      37.896  31.026  29.540  1.00  0.00     0.031 C 
ATOM     18  C   UNL A   1      37.382  34.090  33.501  1.00  0.00     0.029 A 
ATOM     19  N   UNL A   1      39.061  32.615  33.570  1.00  0.00    -0.354 N 
ATOM     20  C   UNL A   1      39.664  29.806  30.334  1.00  0.00     0.074 A 
ATOM     21  C   UNL A   1      38.683  29.987  29.285  1.00  0.00     0.031 C 
ATOM     22  C   UNL A   1      38.005  34.251  34.676  1.00  0.00     0.029 A 
ATOM     23  C   UNL A   1      39.083  33.276  34.776  1.00  0.00     0.049 A 
ATOM     24  H   UNL A   1      39.707  31.913  33.327  1.00  0.00     0.167 HD
ATOM     25  C   UNL A   1      40.630  28.858  30.330  1.00  0.00     0.034 A 
ATOM     26  C   UNL A   1      39.869  33.103  35.856  1.00  0.00     0.034 A 
ATOM     27  C   UNL A   1      41.633  28.724  31.354  1.00  0.00     0.049 A 
ATOM     28  C   UNL A   1      40.945  32.060  35.804  1.00  0.00     0.074 A 
ATOM     29  C   UNL A   1      42.730  27.879  31.376  1.00  0.00     0.029 A 
ATOM     30  N   UNL A   1      41.653  29.436  32.543  1.00  0.00    -0.354 N 
ATOM     31  N   UNL A   1      41.277  31.272  34.810  1.00  0.00    -0.248 NA
ATOM     32  C   UNL A   1      41.766  31.893  37.010  1.00  0.00     0.031 C 
ATOM     33  C   UNL A   1      43.400  28.065  32.590  1.00  0.00     0.029 A 
ATOM     34  C   UNL A   1      42.724  29.030  33.320  1.00  0.00     0.049 A 
ATOM     35  H   UNL A   1      41.002  30.129  32.797  1.00  0.00     0.167 HD
ATOM     36  C   UNL A   1      42.348  30.516  35.269  1.00  0.00     0.074 A 
ATOM     37  C   UNL A   1      42.635  30.972  36.615  1.00  0.00     0.031 C 
ATOM     38  C   UNL A   1      43.015  29.517  34.643  1.00  0.00     0.034 A 
BRANCH  25  39
ATOM     39  C   UNL A   1      40.696  27.910  29.164  1.00  0.00     0.023 A 
ATOM     40  C   UNL A   1      39.777  26.846  29.084  1.00  0.00     0.012 A 
ATOM     41  C   UNL A   1      41.587  28.142  28.097  1.00  0.00     0.148 A 
ATOM     42  C   UNL A   1      39.746  26.020  27.960  1.00  0.00     0.002 A 
ATOM     43  C   UNL A   1      41.530  27.332  26.967  1.00  0.00     0.091 A 
ATOM     44  F   UNL A   1      42.465  29.149  28.204  1.00  0.00    -0.205 F 
ATOM     45  C   UNL A   1      40.614  26.270  26.900  1.00  0.00     0.022 A 
BRANCH  43  46
ATOM     46  S   UNL A   1      42.560  27.606  25.521  1.00  0.00     0.127 S 
ATOM     47  O   UNL A   1      42.235  26.438  24.703  1.00  0.00    -0.237 OA
ATOM     48  O   UNL A   1      42.040  28.874  25.008  1.00  0.00    -0.237 OA
ATOM     49  O   UNL A   1      43.931  27.663  26.008  1.00  0.00    -0.744 OA
ENDBRANCH  43  46
ENDBRANCH  25  39
BRANCH  26  50
ATOM     50  C   UNL A   1      39.669  33.959  37.058  1.00  0.00     0.023 A 
ATOM     51  C   UNL A   1      40.088  35.302  37.031  1.00  0.00     0.012 A 
ATOM     52  C   UNL A   1      39.015  33.467  38.203  1.00  0.00     0.148 A 
ATOM     53  C   UNL A   1      39.874  36.134  38.131  1.00  0.00     0.002 A 
ATOM     54  C   UNL A   1      38.753  34.316  39.272  1.00  0.00     0.091 A 
ATOM     55  F   UNL A   1      38.643  32.178  38.225  1.00  0.00    -0.205 F 
ATOM     56  C   UNL A   1      39.195  35.646  39.245  1.00  0.00     0.022 A 
BRANCH  54  57
ATOM     57  S   UNL A   1      37.743  33.779  40.656  1.00  0.00     0.127 S 
ATOM     58  O   UNL A   1      36.561  33.250  39.983  1.00  0.00    -0.237 OA
ATOM     59  O   UNL A   1      38.590  32.770  41.296  1.00  0.00    -0.237 OA
ATOM     60  O   UNL A   1      37.549  34.980  41.460  1.00  0.00    -0.744 OA
ENDBRANCH  54  57
ENDBRANCH  26  50
BRANCH  38  61
ATOM     61  C   UNL A   1      44.107  28.832  35.416  1.00  0.00     0.023 A 
ATOM     62  C   UNL A   1      45.424  29.322  35.320  1.00  0.00     0.012 A 
ATOM     63  C   UNL A   1      43.827  27.757  36.281  1.00  0.00     0.148 A 
ATOM     64  C   UNL A   1      46.453  28.734  36.053  1.00  0.00     0.002 A 
ATOM     65  C   UNL A   1      44.849  27.203  37.040  1.00  0.00     0.091 A 
ATOM     66  F   UNL A   1      42.569  27.296  36.341  1.00  0.00    -0.205 F 
ATOM     67  C   UNL A   1      46.165  27.684  36.921  1.00  0.00     0.022 A 
BRANCH  65  68
ATOM     68  S   UNL A   1      44.554  25.904  38.244  1.00  0.00     0.127 S 
ATOM     69  O   UNL A   1      43.937  24.868  37.419  1.00  0.00    -0.237 OA
ATOM     70  O   UNL A   1      45.907  25.591  38.706  1.00  0.00    -0.237 OA
ATOM     71  O   UNL A   1      43.693  26.492  39.261  1.00  0.00    -0.744 OA
ENDBRANCH  65  68
ENDBRANCH  38  61
ENDBRANCH  12  13
ENDBRANCH   5   7
ENDBRANCH   2   3
ENDBRANCH   1   2
BRANCH   1  72
ATOM     72  C   UNL A   1      31.793  30.775  26.066  1.00  0.00     0.118 C 
BRANCH  72  73
ATOM     73  N   UNL A   1      31.695  29.800  27.140  1.00  0.00    -0.349 N 
ATOM     74  C   UNL A   1      31.786  28.437  27.066  1.00  0.00     0.286 C 
ATOM     75  H   UNL A   1      31.544  30.169  28.040  1.00  0.00     0.163 HD
ATOM     76  O   UNL A   1      31.383  27.790  28.054  1.00  0.00    -0.266 OA
BRANCH  74  77
ATOM     77  C   UNL A   1      32.352  27.815  25.897  1.00  0.00     0.191 A 
ATOM     78  C   UNL A   1      33.637  27.793  25.374  1.00  0.00     0.057 A 
ATOM     79  O   UNL A   1      31.552  27.008  25.139  1.00  0.00    -0.452 OA
ATOM     80  C   UNL A   1      33.603  26.966  24.227  1.00  0.00     0.050 A 
ATOM     81  C   UNL A   1      32.318  26.476  24.146  1.00  0.00     0.142 A 
BRANCH  81  82
ATOM     82  C   UNL A   1      31.675  25.449  23.287  1.00  0.00     0.304 C 
BRANCH  82  83
ATOM     83  O   UNL A   1      30.940  24.527  24.118  1.00  0.00    -0.484 OA
BRANCH  83  84
ATOM     84  C   UNL A   1      31.614  23.350  24.329  1.00  0.00     0.140 A 
ATOM     85  C   UNL A   1      31.832  22.500  23.238  1.00  0.00     0.048 A 
ATOM     86  C   UNL A   1      32.170  23.050  25.579  1.00  0.00     0.101 A 
ATOM     87  C   UNL A   1      32.534  21.310  23.401  1.00  0.00     0.005 A 
ATOM     88  C   UNL A   1      32.900  21.863  25.731  1.00  0.00     0.063 A 
ATOM     89  Cl  UNL A   1      31.945  24.150  26.900  1.00  0.00    -0.079 Cl
ATOM     90  C   UNL A   1      33.067  20.991  24.647  1.00  0.00     0.022 A 
ATOM     91  Cl  UNL A   1      33.636  21.410  27.230  1.00  0.00    -0.083 Cl
ENDBRANCH  83  84
ENDBRANCH  82  83
ENDBRANCH  81  82
ENDBRANCH  74  77
ENDBRANCH  72  73
ENDBRANCH   1  72
TORSDOF 16
ENDMDL
MODEL 2
REMARK VINA RESULT:     -11.6      5.855      8.926
REMARK SMILES O=C(NCCCNC(=O)c1ccc(COc2cccc(Cl)c2Cl)o1)c1ccc(-c2c3nc(c(-c4cccc(S(=O)(=O)[O-])c4F)c4ccc([nH]4)c(-c4cccc(S(=O)(=O)[O-])c4F)c4nc(c(-c5cccc(S(=O)(=O)[O-])c5F)c5ccc2[nH]5)C=C4)C=C3)cc1
REMARK SMILES IDX 5 1 4 2 3 3 1 4 2 5 25 7 26 8 87 9 27 10 86 11 28 12 29 13
REMARK SMILES IDX 30 14 80 15 31 16 85 17 79 18 81 19 32 20 84 21 78 22 77 23
REMARK SMILES IDX 33 25 65 26 45 27 64 28 46 29 49 30 63 31 82 32 47 33 48 34
REMARK SMILES IDX 62 36 83 37 50 38 34 39 35 40 43 41 36 42 38 43 44 44 37 45
REMARK SMILES IDX 39 46 40 47 41 48 42 49 66 50 67 51 75 52 68 53 70 54 76 55
REMARK SMILES IDX 69 56 71 57 72 58 73 59 74 60 51 61 52 62 60 63 53 64 55 65
REMARK SMILES IDX 61 66 54 67 56 68 57 69 58 70 59 71 6 72 7 73 8 74 9 76
REMARK SMILES IDX 10 77 11 78 24 79 12 80 13 81 14 82 15 83 16 84 17 85 22 86
REMARK SMILES IDX 18 87 20 88 23 89 19 90 21 91
REMARK H PARENT 3 6 81 24 49 35 7 75
REMARK Flexibility Score: inf
ROOT
ATOM      1  C   UNL A   1      36.216  21.260  24.779  1.00  0.00     0.042 C 
ENDROOT
BRANCH   1   2
ATOM      2  C   UNL A   1      37.477  21.944  25.289  1.00  0.00     0.118 C 
BRANCH   2   3
ATOM      3  N   UNL A   1      38.421  20.986  25.846  1.00  0.00    -0.352 N 
ATOM      4  O   UNL A   1      40.424  20.238  26.520  1.00  0.00    -0.269 OA
ATOM      5  C   UNL A   1      39.662  21.193  26.393  1.00  0.00     0.251 C 
ATOM      6  H   UNL A   1      38.123  20.047  25.828  1.00  0.00     0.163 HD
BRANCH   5   7
ATOM      7  C   UNL A   1      40.073  22.546  26.828  1.00  0.00     0.039 A 
ATOM      8  C   UNL A   1      41.046  22.710  27.817  1.00  0.00     0.014 A 
ATOM      9  C   UNL A   1      39.535  23.665  26.185  1.00  0.00     0.014 A 
ATOM     10  C   UNL A   1      41.399  23.984  28.244  1.00  0.00     0.010 A 
ATOM     11  C   UNL A   1      39.956  24.946  26.552  1.00  0.00     0.010 A 
ATOM     12  C   UNL A   1      40.884  25.114  27.591  1.00  0.00    -0.014 A 
BRANCH  12  13
ATOM     13  C   UNL A   1      41.449  26.447  27.911  1.00  0.00     0.031 A 
ATOM     14  C   UNL A   1      42.849  26.823  27.523  1.00  0.00     0.074 A 
ATOM     15  C   UNL A   1      40.671  27.315  28.589  1.00  0.00     0.049 A 
ATOM     16  N   UNL A   1      43.472  27.955  27.718  1.00  0.00    -0.248 NA
ATOM     17  C   UNL A   1      43.659  25.803  26.839  1.00  0.00     0.031 C 
ATOM     18  C   UNL A   1      39.315  27.025  29.072  1.00  0.00     0.029 A 
ATOM     19  N   UNL A   1      40.900  28.600  29.002  1.00  0.00    -0.354 N 
ATOM     20  C   UNL A   1      44.757  27.776  27.222  1.00  0.00     0.074 A 
ATOM     21  C   UNL A   1      44.826  26.424  26.711  1.00  0.00     0.031 C 
ATOM     22  C   UNL A   1      38.832  28.102  29.703  1.00  0.00     0.029 A 
ATOM     23  C   UNL A   1      39.854  29.141  29.715  1.00  0.00     0.049 A 
ATOM     24  H   UNL A   1      41.731  29.090  28.809  1.00  0.00     0.167 HD
ATOM     25  C   UNL A   1      45.775  28.667  27.187  1.00  0.00     0.034 A 
ATOM     26  C   UNL A   1      39.736  30.332  30.331  1.00  0.00     0.034 A 
ATOM     27  C   UNL A   1      45.675  30.026  27.651  1.00  0.00     0.049 A 
ATOM     28  C   UNL A   1      40.876  31.303  30.248  1.00  0.00     0.074 A 
ATOM     29  C   UNL A   1      46.609  31.042  27.539  1.00  0.00     0.029 A 
ATOM     30  N   UNL A   1      44.588  30.555  28.329  1.00  0.00    -0.354 N 
ATOM     31  N   UNL A   1      42.014  31.178  29.609  1.00  0.00    -0.248 NA
ATOM     32  C   UNL A   1      40.712  32.582  30.949  1.00  0.00     0.031 C 
ATOM     33  C   UNL A   1      46.095  32.179  28.172  1.00  0.00     0.029 A 
ATOM     34  C   UNL A   1      44.838  31.872  28.670  1.00  0.00     0.049 A 
ATOM     35  H   UNL A   1      43.760  30.065  28.537  1.00  0.00     0.167 HD
ATOM     36  C   UNL A   1      42.703  32.364  29.829  1.00  0.00     0.074 A 
ATOM     37  C   UNL A   1      41.834  33.210  30.624  1.00  0.00     0.031 C 
ATOM     38  C   UNL A   1      43.951  32.711  29.433  1.00  0.00     0.034 A 
BRANCH  25  39
ATOM     39  C   UNL A   1      47.083  28.233  26.583  1.00  0.00     0.023 A 
ATOM     40  C   UNL A   1      48.114  27.773  27.425  1.00  0.00     0.012 A 
ATOM     41  C   UNL A   1      47.246  28.171  25.185  1.00  0.00     0.148 A 
ATOM     42  C   UNL A   1      49.294  27.262  26.885  1.00  0.00     0.002 A 
ATOM     43  C   UNL A   1      48.414  27.634  24.654  1.00  0.00     0.091 A 
ATOM     44  F   UNL A   1      46.259  28.633  24.405  1.00  0.00    -0.205 F 
ATOM     45  C   UNL A   1      49.439  27.183  25.501  1.00  0.00     0.022 A 
BRANCH  43  46
ATOM     46  S   UNL A   1      48.675  27.430  22.888  1.00  0.00     0.127 S 
ATOM     47  O   UNL A   1      50.034  27.947  22.730  1.00  0.00    -0.237 OA
ATOM     48  O   UNL A   1      48.551  25.981  22.723  1.00  0.00    -0.237 OA
ATOM     49  O   UNL A   1      47.633  28.209  22.234  1.00  0.00    -0.744 OA
ENDBRANCH  43  46
ENDBRANCH  25  39
BRANCH  26  50
ATOM     50  C   UNL A   1      38.479  30.666  31.056  1.00  0.00     0.023 A 
ATOM     51  C   UNL A   1      38.356  30.341  32.420  1.00  0.00     0.012 A 
ATOM     52  C   UNL A   1      37.430  31.354  30.417  1.00  0.00     0.148 A 
ATOM     53  C   UNL A   1      37.202  30.681  33.128  1.00  0.00     0.002 A 
ATOM     54  C   UNL A   1      36.309  31.741  31.143  1.00  0.00     0.091 A 
ATOM     55  F   UNL A   1      37.550  31.636  29.110  1.00  0.00    -0.205 F 
ATOM     56  C   UNL A   1      36.186  31.392  32.495  1.00  0.00     0.022 A 
BRANCH  54  57
ATOM     57  S   UNL A   1      35.052  32.796  30.414  1.00  0.00     0.127 S 
ATOM     58  O   UNL A   1      34.550  31.963  29.326  1.00  0.00    -0.237 OA
ATOM     59  O   UNL A   1      34.116  32.989  31.523  1.00  0.00    -0.237 OA
ATOM     60  O   UNL A   1      35.765  34.008  30.028  1.00  0.00    -0.744 OA
ENDBRANCH  54  57
ENDBRANCH  26  50
BRANCH  38  61
ATOM     61  C   UNL A   1      44.461  34.054  29.873  1.00  0.00     0.023 A 
ATOM     62  C   UNL A   1      45.200  34.148  31.068  1.00  0.00     0.012 A 
ATOM     63  C   UNL A   1      44.272  35.203  29.081  1.00  0.00     0.148 A 
ATOM     64  C   UNL A   1      45.720  35.371  31.485  1.00  0.00     0.002 A 
ATOM     65  C   UNL A   1      44.829  36.411  29.481  1.00  0.00     0.091 A 
ATOM     66  F   UNL A   1      43.548  35.093  27.957  1.00  0.00    -0.205 F 
ATOM     67  C   UNL A   1      45.545  36.499  30.687  1.00  0.00     0.022 A 
BRANCH  65  68
ATOM     68  S   UNL A   1      44.723  37.895  28.476  1.00  0.00     0.127 S 
ATOM     69  O   UNL A   1      45.782  38.721  29.051  1.00  0.00    -0.237 OA
ATOM     70  O   UNL A   1      45.009  37.384  27.134  1.00  0.00    -0.237 OA
ATOM     71  O   UNL A   1      43.368  38.399  28.651  1.00  0.00    -0.744 OA
ENDBRANCH  65  68
ENDBRANCH  38  61
ENDBRANCH  12  13
ENDBRANCH   5   7
ENDBRANCH   2   3
ENDBRANCH   1   2
BRANCH   1  72
ATOM     72  C   UNL A   1      35.117  21.181  25.830  1.00  0.00     0.118 C 
BRANCH  72  73
ATOM     73  N   UNL A   1      34.181  20.105  25.544  1.00  0.00    -0.349 N 
ATOM     74  C   UNL A   1      32.872  20.192  25.155  1.00  0.00     0.286 C 
ATOM     75  H   UNL A   1      34.537  19.192  25.643  1.00  0.00     0.163 HD
ATOM     76  O   UNL A   1      32.186  19.154  25.251  1.00  0.00    -0.266 OA
BRANCH  74  77
ATOM     77  C   UNL A   1      32.355  21.432  24.639  1.00  0.00     0.191 A 
ATOM     78  C   UNL A   1      31.419  22.334  25.123  1.00  0.00     0.057 A 
ATOM     79  O   UNL A   1      32.891  21.928  23.484  1.00  0.00    -0.452 OA
ATOM     80  C   UNL A   1      31.360  23.405  24.202  1.00  0.00     0.050 A 
ATOM     81  C   UNL A   1      32.306  23.134  23.238  1.00  0.00     0.142 A 
BRANCH  81  82
ATOM     82  C   UNL A   1      32.852  23.919  22.101  1.00  0.00     0.304 C 
BRANCH  82  83
ATOM     83  O   UNL A   1      34.045  24.607  22.529  1.00  0.00    -0.484 OA
BRANCH  83  84
ATOM     84  C   UNL A   1      33.785  25.860  23.027  1.00  0.00     0.140 A 
ATOM     85  C   UNL A   1      33.240  26.821  22.168  1.00  0.00     0.048 A 
ATOM     86  C   UNL A   1      33.956  26.145  24.388  1.00  0.00     0.101 A 
ATOM     87  C   UNL A   1      32.936  28.095  22.638  1.00  0.00     0.005 A 
ATOM     88  C   UNL A   1      33.621  27.421  24.862  1.00  0.00     0.063 A 
ATOM     89  Cl  UNL A   1      34.569  24.918  25.448  1.00  0.00    -0.079 Cl
ATOM     90  C   UNL A   1      33.127  28.395  23.984  1.00  0.00     0.022 A 
ATOM     91  Cl  UNL A   1      33.783  27.866  26.526  1.00  0.00    -0.083 Cl
ENDBRANCH  83  84
ENDBRANCH  82  83
ENDBRANCH  81  82
ENDBRANCH  74  77
ENDBRANCH  72  73
ENDBRANCH   1  72
TORSDOF 16
ENDMDL
MODEL 3
REMARK VINA RESULT:     -11.6      6.559     11.681
REMARK SMILES O=C(NCCCNC(=O)c1ccc(COc2cccc(Cl)c2Cl)o1)c1ccc(-c2c3nc(c(-c4cccc(S(=O)(=O)[O-])c4F)c4ccc([nH]4)c(-c4cccc(S(=O)(=O)[O-])c4F)c4nc(c(-c5cccc(S(=O)(=O)[O-])c5F)c5ccc2[nH]5)C=C4)C=C3)cc1
REMARK SMILES IDX 5 1 4 2 3 3 1 4 2 5 25 7 26 8 87 9 27 10 86 11 28 12 29 13
REMARK SMILES IDX 30 14 80 15 31 16 85 17 79 18 81 19 32 20 84 21 78 22 77 23
REMARK SMILES IDX 33 25 65 26 45 27 64 28 46 29 49 30 63 31 82 32 47 33 48 34
REMARK SMILES IDX 62 36 83 37 50 38 34 39 35 40 43 41 36 42 38 43 44 44 37 45
REMARK SMILES IDX 39 46 40 47 41 48 42 49 66 50 67 51 75 52 68 53 70 54 76 55
REMARK SMILES IDX 69 56 71 57 72 58 73 59 74 60 51 61 52 62 60 63 53 64 55 65
REMARK SMILES IDX 61 66 54 67 56 68 57 69 58 70 59 71 6 72 7 73 8 74 9 76
REMARK SMILES IDX 10 77 11 78 24 79 12 80 13 81 14 82 15 83 16 84 17 85 22 86
REMARK SMILES IDX 18 87 20 88 23 89 19 90 21 91
REMARK H PARENT 3 6 81 24 49 35 7 75
REMARK Flexibility Score: inf
ROOT
ATOM      1  C   UNL A   1      37.537  19.789  24.668  1.00  0.00     0.042 C 
ENDROOT
BRANCH   1   2
ATOM      2  C   UNL A   1      38.624  20.371  25.561  1.00  0.00     0.118 C 
BRANCH   2   3
ATOM      3  N   UNL A   1      39.647  19.384  25.876  1.00  0.00    -0.352 N 
ATOM      4  O   UNL A   1      41.733  18.577  26.047  1.00  0.00    -0.269 OA
ATOM      5  C   UNL A   1      40.989  19.554  26.107  1.00  0.00     0.251 C 
ATOM      6  H   UNL A   1      39.328  18.454  25.930  1.00  0.00     0.163 HD
BRANCH   5   7
ATOM      7  C   UNL A   1      41.531  20.892  26.429  1.00  0.00     0.039 A 
ATOM      8  C   UNL A   1      41.797  21.815  25.414  1.00  0.00     0.014 A 
ATOM      9  C   UNL A   1      41.702  21.258  27.768  1.00  0.00     0.014 A 
ATOM     10  C   UNL A   1      42.339  23.056  25.725  1.00  0.00     0.010 A 
ATOM     11  C   UNL A   1      42.163  22.539  28.085  1.00  0.00     0.010 A 
ATOM     12  C   UNL A   1      42.493  23.443  27.065  1.00  0.00    -0.014 A 
BRANCH  12  13
ATOM     13  C   UNL A   1      42.855  24.849  27.369  1.00  0.00     0.031 A 
ATOM     14  C   UNL A   1      41.876  25.795  28.000  1.00  0.00     0.074 A 
ATOM     15  C   UNL A   1      44.093  25.266  27.036  1.00  0.00     0.049 A 
ATOM     16  N   UNL A   1      42.054  27.043  28.340  1.00  0.00    -0.248 NA
ATOM     17  C   UNL A   1      40.524  25.284  28.277  1.00  0.00     0.031 C 
ATOM     18  C   UNL A   1      45.102  24.443  26.358  1.00  0.00     0.029 A 
ATOM     19  N   UNL A   1      44.714  26.475  27.206  1.00  0.00    -0.354 N 
ATOM     20  C   UNL A   1      40.834  27.485  28.833  1.00  0.00     0.074 A 
ATOM     21  C   UNL A   1      39.918  26.367  28.752  1.00  0.00     0.031 C 
ATOM     22  C   UNL A   1      46.215  25.167  26.181  1.00  0.00     0.029 A 
ATOM     23  C   UNL A   1      45.987  26.515  26.685  1.00  0.00     0.049 A 
ATOM     24  H   UNL A   1      44.291  27.242  27.656  1.00  0.00     0.167 HD
ATOM     25  C   UNL A   1      40.516  28.707  29.320  1.00  0.00     0.034 A 
ATOM     26  C   UNL A   1      46.868  27.530  26.600  1.00  0.00     0.034 A 
ATOM     27  C   UNL A   1      41.452  29.794  29.444  1.00  0.00     0.049 A 
ATOM     28  C   UNL A   1      46.491  28.862  27.175  1.00  0.00     0.074 A 
ATOM     29  C   UNL A   1      41.260  31.028  30.043  1.00  0.00     0.029 A 
ATOM     30  N   UNL A   1      42.745  29.788  28.946  1.00  0.00    -0.354 N 
ATOM     31  N   UNL A   1      45.393  29.202  27.806  1.00  0.00    -0.248 NA
ATOM     32  C   UNL A   1      47.474  29.944  27.045  1.00  0.00     0.031 C 
ATOM     33  C   UNL A   1      42.432  31.776  29.886  1.00  0.00     0.029 A 
ATOM     34  C   UNL A   1      43.354  31.005  29.195  1.00  0.00     0.049 A 
ATOM     35  H   UNL A   1      43.169  29.030  28.483  1.00  0.00     0.167 HD
ATOM     36  C   UNL A   1      45.554  30.538  28.151  1.00  0.00     0.074 A 
ATOM     37  C   UNL A   1      46.873  30.931  27.696  1.00  0.00     0.031 C 
ATOM     38  C   UNL A   1      44.678  31.370  28.765  1.00  0.00     0.034 A 
BRANCH  25  39
ATOM     39  C   UNL A   1      39.112  28.939  29.808  1.00  0.00     0.023 A 
ATOM     40  C   UNL A   1      38.789  28.647  31.147  1.00  0.00     0.012 A 
ATOM     41  C   UNL A   1      38.152  29.552  28.979  1.00  0.00     0.148 A 
ATOM     42  C   UNL A   1      37.527  28.955  31.655  1.00  0.00     0.002 A 
ATOM     43  C   UNL A   1      36.906  29.883  29.500  1.00  0.00     0.091 A 
ATOM     44  F   UNL A   1      38.477  29.803  27.703  1.00  0.00    -0.205 F 
ATOM     45  C   UNL A   1      36.591  29.582  30.835  1.00  0.00     0.022 A 
BRANCH  43  46
ATOM     46  S   UNL A   1      35.652  30.747  28.547  1.00  0.00     0.127 S 
ATOM     47  O   UNL A   1      34.944  29.634  27.915  1.00  0.00    -0.237 OA
ATOM     48  O   UNL A   1      34.893  31.437  29.591  1.00  0.00    -0.237 OA
ATOM     49  O   UNL A   1      36.372  31.625  27.636  1.00  0.00    -0.744 OA
ENDBRANCH  43  46
ENDBRANCH  25  39
BRANCH  26  50
ATOM     50  C   UNL A   1      48.196  27.302  25.966  1.00  0.00     0.023 A 
ATOM     51  C   UNL A   1      49.260  26.802  26.740  1.00  0.00     0.012 A 
ATOM     52  C   UNL A   1      48.393  27.521  24.589  1.00  0.00     0.148 A 
ATOM     53  C   UNL A   1      50.501  26.543  26.156  1.00  0.00     0.002 A 
ATOM     54  C   UNL A   1      49.613  27.205  24.003  1.00  0.00     0.091 A 
ATOM     55  F   UNL A   1      47.378  28.020  23.867  1.00  0.00    -0.205 F 
ATOM     56  C   UNL A   1      50.674  26.730  24.787  1.00  0.00     0.022 A 
BRANCH  54  57
ATOM     57  S   UNL A   1      49.832  27.276  22.221  1.00  0.00     0.127 S 
ATOM     58  O   UNL A   1      49.636  28.696  21.948  1.00  0.00    -0.237 OA
ATOM     59  O   UNL A   1      51.206  26.800  22.050  1.00  0.00    -0.237 OA
ATOM     60  O   UNL A   1      48.823  26.367  21.689  1.00  0.00    -0.744 OA
ENDBRANCH  54  57
ENDBRANCH  26  50
BRANCH  38  61
ATOM     61  C   UNL A   1      45.110  32.796  28.959  1.00  0.00     0.023 A 
ATOM     62  C   UNL A   1      45.793  33.150  30.140  1.00  0.00     0.012 A 
ATOM     63  C   UNL A   1      44.904  33.765  27.959  1.00  0.00     0.148 A 
ATOM     64  C   UNL A   1      46.241  34.455  30.334  1.00  0.00     0.002 A 
ATOM     65  C   UNL A   1      45.390  35.054  28.141  1.00  0.00     0.091 A 
ATOM     66  F   UNL A   1      44.235  33.410  26.853  1.00  0.00    -0.205 F 
ATOM     67  C   UNL A   1      46.051  35.403  29.332  1.00  0.00     0.022 A 
BRANCH  65  68
ATOM     68  S   UNL A   1      45.263  36.315  26.870  1.00  0.00     0.127 S 
ATOM     69  O   UNL A   1      46.008  35.707  25.770  1.00  0.00    -0.237 OA
ATOM     70  O   UNL A   1      43.817  36.398  26.655  1.00  0.00    -0.237 OA
ATOM     71  O   UNL A   1      45.855  37.518  27.441  1.00  0.00    -0.744 OA
ENDBRANCH  65  68
ENDBRANCH  38  61
ENDBRANCH  12  13
ENDBRANCH   5   7
ENDBRANCH   2   3
ENDBRANCH   1   2
BRANCH   1  72
ATOM     72  C   UNL A   1      36.143  20.287  25.028  1.00  0.00     0.118 C 
BRANCH  72  73
ATOM     73  N   UNL A   1      35.158  19.221  24.946  1.00  0.00    -0.349 N 
ATOM     74  C   UNL A   1      33.794  19.312  25.001  1.00  0.00     0.286 C 
ATOM     75  H   UNL A   1      35.521  18.312  24.835  1.00  0.00     0.163 HD
ATOM     76  O   UNL A   1      33.166  18.254  25.204  1.00  0.00    -0.266 OA
BRANCH  74  77
ATOM     77  C   UNL A   1      33.148  20.584  24.802  1.00  0.00     0.191 A 
ATOM     78  C   UNL A   1      32.584  21.186  23.687  1.00  0.00     0.057 A 
ATOM     79  O   UNL A   1      32.945  21.386  25.889  1.00  0.00    -0.452 OA
ATOM     80  C   UNL A   1      32.048  22.424  24.111  1.00  0.00     0.050 A 
ATOM     81  C   UNL A   1      32.256  22.485  25.472  1.00  0.00     0.142 A 
BRANCH  81  82
ATOM     82  C   UNL A   1      31.799  23.424  26.528  1.00  0.00     0.304 C 
BRANCH  82  83
ATOM     83  O   UNL A   1      32.755  24.496  26.656  1.00  0.00    -0.484 OA
BRANCH  83  84
ATOM     84  C   UNL A   1      32.430  25.591  25.893  1.00  0.00     0.140 A 
ATOM     85  C   UNL A   1      31.344  26.380  26.286  1.00  0.00     0.048 A 
ATOM     86  C   UNL A   1      33.229  25.977  24.809  1.00  0.00     0.101 A 
ATOM     87  C   UNL A   1      30.997  27.514  25.557  1.00  0.00     0.005 A 
ATOM     88  C   UNL A   1      32.892  27.136  24.096  1.00  0.00     0.063 A 
ATOM     89  Cl  UNL A   1      34.610  25.021  24.381  1.00  0.00    -0.079 Cl
ATOM     90  C   UNL A   1      31.770  27.891  24.462  1.00  0.00     0.022 A 
ATOM     91  Cl  UNL A   1      33.821  27.703  22.752  1.00  0.00    -0.083 Cl
ENDBRANCH  83  84
ENDBRANCH  82  83
ENDBRANCH  81  82
ENDBRANCH  74  77
ENDBRANCH  72  73
ENDBRANCH   1  72
TORSDOF 16
ENDMDL
