MODEL 1
REMARK VINA RESULT:     -11.7      0.000      0.000
REMARK SMILES O=C(Cc1ccc(S(=O)(=O)C[C@H]2CCCO2)cc1)NCCCNC(=O)c1ccc(-c2c3nc(c(-c4cccc(S(=O)(=O)[O-])c4F)c4ccc([nH]4)c(-c4cccc(S(=O)(=O)[O-])c4F)c4nc(c(-c5cccc(S(=O)(=O)[O-])c5F)c5ccc2[nH]5)C=C4)C=C3)cc1
REMARK SMILES IDX 20 1 19 2 1 3 2 4 3 6 4 7 5 8 18 9 6 10 17 11 7 12 8 13 9 14
REMARK SMILES IDX 10 15 11 16 12 17 13 18 16 19 14 20 15 21 21 22 22 23 23 24
REMARK SMILES IDX 24 25 25 27 26 28 27 29 88 30 28 31 87 32 29 33 30 34 31 35
REMARK SMILES IDX 81 36 32 37 86 38 80 39 82 40 33 41 85 42 79 43 78 44 34 46
REMARK SMILES IDX 66 47 46 48 65 49 47 50 50 51 64 52 83 53 48 54 49 55 63 57
REMARK SMILES IDX 84 58 51 59 35 60 36 61 44 62 37 63 39 64 45 65 38 66 40 67
REMARK SMILES IDX 41 68 42 69 43 70 67 71 68 72 76 73 69 74 71 75 77 76 70 77
REMARK SMILES IDX 72 78 73 79 74 80 75 81 52 82 53 83 61 84 54 85 56 86 62 87
REMARK SMILES IDX 55 88 57 89 58 90 59 91 60 92
REMARK H PARENT 19 5 23 26 82 45 50 56
REMARK Flexibility Score: inf
ROOT
ATOM      1  C   UNL A   1      31.141  29.539  23.858  1.00  0.00     0.117 C 
ENDROOT
BRANCH   1   2
ATOM      2  N   UNL A   1      30.248  28.414  24.045  1.00  0.00    -0.356 N 
ATOM      3  O   UNL A   1      30.640  27.429  22.001  1.00  0.00    -0.275 OA
ATOM      4  C   UNL A   1      30.148  27.388  23.124  1.00  0.00     0.224 C 
ATOM      5  H   UNL A   1      29.693  28.378  24.858  1.00  0.00     0.163 HD
BRANCH   4   6
ATOM      6  C   UNL A   1      29.411  26.164  23.644  1.00  0.00     0.135 C 
BRANCH   6   7
ATOM      7  C   UNL A   1      30.282  25.167  24.390  1.00  0.00    -0.039 A 
ATOM      8  C   UNL A   1      30.647  25.437  25.717  1.00  0.00     0.005 A 
ATOM      9  C   UNL A   1      30.736  23.975  23.803  1.00  0.00     0.005 A 
ATOM     10  C   UNL A   1      31.449  24.541  26.431  1.00  0.00     0.020 A 
ATOM     11  C   UNL A   1      31.590  23.111  24.488  1.00  0.00     0.020 A 
ATOM     12  C   UNL A   1      31.919  23.379  25.810  1.00  0.00     0.067 A 
BRANCH  12  13
ATOM     13  S   UNL A   1      32.941  22.281  26.754  1.00  0.00     0.180 S 
ATOM     14  O   UNL A   1      32.528  22.465  28.135  1.00  0.00    -0.224 OA
ATOM     15  O   UNL A   1      32.840  20.964  26.149  1.00  0.00    -0.224 OA
BRANCH  13  16
ATOM     16  C   UNL A   1      34.634  22.784  26.670  1.00  0.00     0.174 C 
BRANCH  16  17
ATOM     17  C   UNL A   1      35.251  22.994  25.292  1.00  0.00     0.133 C 
ATOM     18  C   UNL A   1      36.538  23.809  25.359  1.00  0.00     0.035 C 
ATOM     19  O   UNL A   1      35.602  21.764  24.657  1.00  0.00    -0.377 OA
ATOM     20  C   UNL A   1      37.591  22.736  25.482  1.00  0.00     0.031 C 
ATOM     21  C   UNL A   1      37.027  21.638  24.609  1.00  0.00     0.160 C 
ENDBRANCH  16  17
ENDBRANCH  13  16
ENDBRANCH  12  13
ENDBRANCH   6   7
ENDBRANCH   4   6
ENDBRANCH   1   2
BRANCH   1  22
ATOM     22  C   UNL A   1      32.496  29.344  24.520  1.00  0.00     0.042 C 
BRANCH  22  23
ATOM     23  C   UNL A   1      32.535  29.649  26.014  1.00  0.00     0.118 C 
BRANCH  23  24
ATOM     24  N   UNL A   1      32.372  31.062  26.328  1.00  0.00    -0.352 N 
ATOM     25  C   UNL A   1      33.144  31.882  27.117  1.00  0.00     0.251 C 
ATOM     26  H   UNL A   1      31.593  31.495  25.911  1.00  0.00     0.163 HD
ATOM     27  O   UNL A   1      32.762  33.031  27.334  1.00  0.00    -0.269 OA
BRANCH  25  28
ATOM     28  C   UNL A   1      34.402  31.394  27.732  1.00  0.00     0.039 A 
ATOM     29  C   UNL A   1      35.404  32.323  28.030  1.00  0.00     0.014 A 
ATOM     30  C   UNL A   1      34.616  30.039  28.001  1.00  0.00     0.014 A 
ATOM     31  C   UNL A   1      36.584  31.904  28.652  1.00  0.00     0.010 A 
ATOM     32  C   UNL A   1      35.760  29.634  28.690  1.00  0.00     0.010 A 
ATOM     33  C   UNL A   1      36.760  30.560  29.019  1.00  0.00    -0.014 A 
BRANCH  33  34
ATOM     34  C   UNL A   1      37.973  30.123  29.763  1.00  0.00     0.031 A 
ATOM     35  C   UNL A   1      38.232  30.601  31.168  1.00  0.00     0.074 A 
ATOM     36  C   UNL A   1      38.883  29.343  29.146  1.00  0.00     0.049 A 
ATOM     37  N   UNL A   1      39.228  30.308  31.966  1.00  0.00    -0.248 NA
ATOM     38  C   UNL A   1      37.264  31.547  31.745  1.00  0.00     0.031 C 
ATOM     39  C   UNL A   1      38.806  28.893  27.755  1.00  0.00     0.029 A 
ATOM     40  N   UNL A   1      40.062  28.807  29.603  1.00  0.00    -0.354 N 
ATOM     41  C   UNL A   1      39.026  31.054  33.121  1.00  0.00     0.074 A 
ATOM     42  C   UNL A   1      37.831  31.843  32.907  1.00  0.00     0.031 C 
ATOM     43  C   UNL A   1      39.881  28.137  27.476  1.00  0.00     0.029 A 
ATOM     44  C   UNL A   1      40.732  28.062  28.660  1.00  0.00     0.049 A 
ATOM     45  H   UNL A   1      40.396  28.942  30.519  1.00  0.00     0.167 HD
ATOM     46  C   UNL A   1      39.745  31.061  34.269  1.00  0.00     0.034 A 
ATOM     47  C   UNL A   1      41.895  27.383  28.741  1.00  0.00     0.034 A 
ATOM     48  C   UNL A   1      40.903  30.239  34.502  1.00  0.00     0.049 A 
ATOM     49  C   UNL A   1      42.632  27.344  30.052  1.00  0.00     0.074 A 
ATOM     50  C   UNL A   1      41.642  30.104  35.665  1.00  0.00     0.029 A 
ATOM     51  N   UNL A   1      41.493  29.416  33.557  1.00  0.00    -0.354 N 
ATOM     52  N   UNL A   1      42.321  27.914  31.191  1.00  0.00    -0.248 NA
ATOM     53  C   UNL A   1      43.855  26.531  30.101  1.00  0.00     0.031 C 
ATOM     54  C   UNL A   1      42.687  29.205  35.418  1.00  0.00     0.029 A 
ATOM     55  C   UNL A   1      42.588  28.769  34.108  1.00  0.00     0.049 A 
ATOM     56  H   UNL A   1      41.179  29.305  32.630  1.00  0.00     0.167 HD
ATOM     57  C   UNL A   1      43.289  27.501  32.099  1.00  0.00     0.074 A 
ATOM     58  C   UNL A   1      44.180  26.612  31.384  1.00  0.00     0.031 C 
ATOM     59  C   UNL A   1      43.437  27.843  33.404  1.00  0.00     0.034 A 
BRANCH  46  60
ATOM     60  C   UNL A   1      39.256  31.934  35.397  1.00  0.00     0.023 A 
ATOM     61  C   UNL A   1      38.323  31.413  36.318  1.00  0.00     0.012 A 
ATOM     62  C   UNL A   1      39.757  33.236  35.584  1.00  0.00     0.148 A 
ATOM     63  C   UNL A   1      37.872  32.184  37.387  1.00  0.00     0.002 A 
ATOM     64  C   UNL A   1      39.334  33.984  36.677  1.00  0.00     0.091 A 
ATOM     65  F   UNL A   1      40.626  33.723  34.687  1.00  0.00    -0.205 F 
ATOM     66  C   UNL A   1      38.384  33.465  37.573  1.00  0.00     0.022 A 
BRANCH  64  67
ATOM     67  S   UNL A   1      39.994  35.615  37.047  1.00  0.00     0.127 S 
ATOM     68  O   UNL A   1      39.302  35.937  38.294  1.00  0.00    -0.237 OA
ATOM     69  O   UNL A   1      41.424  35.344  37.197  1.00  0.00    -0.237 OA
ATOM     70  O   UNL A   1      39.653  36.452  35.905  1.00  0.00    -0.744 OA
ENDBRANCH  64  67
ENDBRANCH  46  60
BRANCH  47  71
ATOM     71  C   UNL A   1      42.381  26.605  27.567  1.00  0.00     0.023 A 
ATOM     72  C   UNL A   1      43.195  27.241  26.609  1.00  0.00     0.012 A 
ATOM     73  C   UNL A   1      42.072  25.240  27.409  1.00  0.00     0.148 A 
ATOM     74  C   UNL A   1      43.667  26.541  25.499  1.00  0.00     0.002 A 
ATOM     75  C   UNL A   1      42.591  24.535  26.329  1.00  0.00     0.091 A 
ATOM     76  F   UNL A   1      41.285  24.657  28.324  1.00  0.00    -0.205 F 
ATOM     77  C   UNL A   1      43.374  25.187  25.364  1.00  0.00     0.022 A 
BRANCH  75  78
ATOM     78  S   UNL A   1      42.375  22.761  26.151  1.00  0.00     0.127 S 
ATOM     79  O   UNL A   1      42.940  22.520  24.827  1.00  0.00    -0.237 OA
ATOM     80  O   UNL A   1      43.170  22.244  27.266  1.00  0.00    -0.237 OA
ATOM     81  O   UNL A   1      40.942  22.529  26.284  1.00  0.00    -0.744 OA
ENDBRANCH  75  78
ENDBRANCH  47  71
BRANCH  59  82
ATOM     82  C   UNL A   1      44.591  27.235  34.157  1.00  0.00     0.023 A 
ATOM     83  C   UNL A   1      45.860  27.845  34.102  1.00  0.00     0.012 A 
ATOM     84  C   UNL A   1      44.409  26.092  34.959  1.00  0.00     0.148 A 
ATOM     85  C   UNL A   1      46.937  27.308  34.806  1.00  0.00     0.002 A 
ATOM     86  C   UNL A   1      45.477  25.589  35.695  1.00  0.00     0.091 A 
ATOM     87  F   UNL A   1      43.202  25.509  34.983  1.00  0.00    -0.205 F 
ATOM     88  C   UNL A   1      46.744  26.188  35.610  1.00  0.00     0.022 A 
BRANCH  86  89
ATOM     89  S   UNL A   1      45.287  24.205  36.825  1.00  0.00     0.127 S 
ATOM     90  O   UNL A   1      44.256  24.701  37.735  1.00  0.00    -0.237 OA
ATOM     91  O   UNL A   1      44.846  23.129  35.934  1.00  0.00    -0.237 OA
ATOM     92  O   UNL A   1      46.602  23.992  37.414  1.00  0.00    -0.744 OA
ENDBRANCH  86  89
ENDBRANCH  59  82
ENDBRANCH  33  34
ENDBRANCH  25  28
ENDBRANCH  23  24
ENDBRANCH  22  23
ENDBRANCH   1  22
TORSDOF 17
ENDMDL
MODEL 2
REMARK VINA RESULT:     -11.5      5.170     10.330
REMARK SMILES O=C(Cc1ccc(S(=O)(=O)C[C@H]2CCCO2)cc1)NCCCNC(=O)c1ccc(-c2c3nc(c(-c4cccc(S(=O)(=O)[O-])c4F)c4ccc([nH]4)c(-c4cccc(S(=O)(=O)[O-])c4F)c4nc(c(-c5cccc(S(=O)(=O)[O-])c5F)c5ccc2[nH]5)C=C4)C=C3)cc1
REMARK SMILES IDX 20 1 19 2 1 3 2 4 3 6 4 7 5 8 18 9 6 10 17 11 7 12 8 13 9 14
REMARK SMILES IDX 10 15 11 16 12 17 13 18 16 19 14 20 15 21 21 22 22 23 23 24
REMARK SMILES IDX 24 25 25 27 26 28 27 29 88 30 28 31 87 32 29 33 30 34 31 35
REMARK SMILES IDX 81 36 32 37 86 38 80 39 82 40 33 41 85 42 79 43 78 44 34 46
REMARK SMILES IDX 66 47 46 48 65 49 47 50 50 51 64 52 83 53 48 54 49 55 63 57
REMARK SMILES IDX 84 58 51 59 35 60 36 61 44 62 37 63 39 64 45 65 38 66 40 67
REMARK SMILES IDX 41 68 42 69 43 70 67 71 68 72 76 73 69 74 71 75 77 76 70 77
REMARK SMILES IDX 72 78 73 79 74 80 75 81 52 82 53 83 61 84 54 85 56 86 62 87
REMARK SMILES IDX 55 88 57 89 58 90 59 91 60 92
REMARK H PARENT 19 5 23 26 82 45 50 56
REMARK Flexibility Score: inf
ROOT
ATOM      1  C   UNL A   1      34.829  21.508  26.285  1.00  0.00     0.117 C 
ENDROOT
BRANCH   1   2
ATOM      2  N   UNL A   1      33.501  21.911  25.869  1.00  0.00    -0.356 N 
ATOM      3  O   UNL A   1      32.767  22.566  27.951  1.00  0.00    -0.275 OA
ATOM      4  C   UNL A   1      32.604  22.507  26.736  1.00  0.00     0.224 C 
ATOM      5  H   UNL A   1      33.228  21.757  24.936  1.00  0.00     0.163 HD
BRANCH   4   6
ATOM      6  C   UNL A   1      31.406  23.139  26.045  1.00  0.00     0.135 C 
BRANCH   6   7
ATOM      7  C   UNL A   1      31.627  24.563  25.564  1.00  0.00    -0.039 A 
ATOM      8  C   UNL A   1      31.341  25.629  26.430  1.00  0.00     0.005 A 
ATOM      9  C   UNL A   1      32.112  24.858  24.280  1.00  0.00     0.005 A 
ATOM     10  C   UNL A   1      31.531  26.951  26.016  1.00  0.00     0.020 A 
ATOM     11  C   UNL A   1      32.239  26.175  23.840  1.00  0.00     0.020 A 
ATOM     12  C   UNL A   1      31.980  27.219  24.719  1.00  0.00     0.067 A 
BRANCH  12  13
ATOM     13  S   UNL A   1      32.193  28.911  24.240  1.00  0.00     0.180 S 
ATOM     14  O   UNL A   1      32.579  29.608  25.456  1.00  0.00    -0.224 OA
ATOM     15  O   UNL A   1      33.086  28.930  23.094  1.00  0.00    -0.224 OA
BRANCH  13  16
ATOM     16  C   UNL A   1      30.651  29.613  23.735  1.00  0.00     0.174 C 
BRANCH  16  17
ATOM     17  C   UNL A   1      29.889  28.927  22.606  1.00  0.00     0.133 C 
ATOM     18  C   UNL A   1      28.581  28.311  23.089  1.00  0.00     0.035 C 
ATOM     19  O   UNL A   1      29.530  29.832  21.560  1.00  0.00    -0.377 OA
ATOM     20  C   UNL A   1      27.594  29.426  22.852  1.00  0.00     0.031 C 
ATOM     21  C   UNL A   1      28.114  30.043  21.574  1.00  0.00     0.160 C 
ENDBRANCH  16  17
ENDBRANCH  13  16
ENDBRANCH  12  13
ENDBRANCH   6   7
ENDBRANCH   4   6
ENDBRANCH   1   2
BRANCH   1  22
ATOM     22  C   UNL A   1      35.862  22.614  26.141  1.00  0.00     0.042 C 
BRANCH  22  23
ATOM     23  C   UNL A   1      36.939  22.360  25.091  1.00  0.00     0.118 C 
BRANCH  23  24
ATOM     24  N   UNL A   1      37.897  21.331  25.472  1.00  0.00    -0.352 N 
ATOM     25  C   UNL A   1      39.112  21.450  26.104  1.00  0.00     0.251 C 
ATOM     26  H   UNL A   1      37.635  20.411  25.241  1.00  0.00     0.163 HD
ATOM     27  O   UNL A   1      39.816  20.450  26.236  1.00  0.00    -0.269 OA
BRANCH  25  28
ATOM     28  C   UNL A   1      39.594  22.763  26.597  1.00  0.00     0.039 A 
ATOM     29  C   UNL A   1      40.576  22.782  27.593  1.00  0.00     0.014 A 
ATOM     30  C   UNL A   1      39.084  23.969  26.109  1.00  0.00     0.014 A 
ATOM     31  C   UNL A   1      41.088  24.002  28.048  1.00  0.00     0.010 A 
ATOM     32  C   UNL A   1      39.648  25.182  26.509  1.00  0.00     0.010 A 
ATOM     33  C   UNL A   1      40.652  25.214  27.486  1.00  0.00    -0.014 A 
BRANCH  33  34
ATOM     34  C   UNL A   1      41.257  26.508  27.901  1.00  0.00     0.031 A 
ATOM     35  C   UNL A   1      42.704  26.814  27.612  1.00  0.00     0.074 A 
ATOM     36  C   UNL A   1      40.517  27.392  28.601  1.00  0.00     0.049 A 
ATOM     37  N   UNL A   1      43.387  27.897  27.888  1.00  0.00    -0.248 NA
ATOM     38  C   UNL A   1      43.494  25.762  26.952  1.00  0.00     0.031 C 
ATOM     39  C   UNL A   1      39.135  27.178  29.036  1.00  0.00     0.029 A 
ATOM     40  N   UNL A   1      40.829  28.637  29.088  1.00  0.00    -0.354 N 
ATOM     41  C   UNL A   1      44.688  27.646  27.467  1.00  0.00     0.074 A 
ATOM     42  C   UNL A   1      44.708  26.295  26.949  1.00  0.00     0.031 C 
ATOM     43  C   UNL A   1      38.713  28.260  29.711  1.00  0.00     0.029 A 
ATOM     44  C   UNL A   1      39.797  29.237  29.772  1.00  0.00     0.049 A 
ATOM     45  H   UNL A   1      41.708  29.061  28.960  1.00  0.00     0.167 HD
ATOM     46  C   UNL A   1      45.761  28.473  27.475  1.00  0.00     0.034 A 
ATOM     47  C   UNL A   1      39.725  30.442  30.373  1.00  0.00     0.034 A 
ATOM     48  C   UNL A   1      45.729  29.834  27.941  1.00  0.00     0.049 A 
ATOM     49  C   UNL A   1      40.906  31.371  30.299  1.00  0.00     0.074 A 
ATOM     50  C   UNL A   1      46.738  30.781  27.903  1.00  0.00     0.029 A 
ATOM     51  N   UNL A   1      44.634  30.443  28.534  1.00  0.00    -0.354 N 
ATOM     52  N   UNL A   1      42.072  31.179  29.730  1.00  0.00    -0.248 NA
ATOM     53  C   UNL A   1      40.746  32.699  30.908  1.00  0.00     0.031 C 
ATOM     54  C   UNL A   1      46.256  31.960  28.482  1.00  0.00     0.029 A 
ATOM     55  C   UNL A   1      44.942  31.753  28.866  1.00  0.00     0.049 A 
ATOM     56  H   UNL A   1      43.765  30.009  28.693  1.00  0.00     0.167 HD
ATOM     57  C   UNL A   1      42.770  32.371  29.883  1.00  0.00     0.074 A 
ATOM     58  C   UNL A   1      41.885  33.288  30.573  1.00  0.00     0.031 C 
ATOM     59  C   UNL A   1      44.037  32.674  29.503  1.00  0.00     0.034 A 
BRANCH  46  60
ATOM     60  C   UNL A   1      47.050  27.952  26.893  1.00  0.00     0.023 A 
ATOM     61  C   UNL A   1      48.045  27.452  27.758  1.00  0.00     0.012 A 
ATOM     62  C   UNL A   1      47.256  27.898  25.501  1.00  0.00     0.148 A 
ATOM     63  C   UNL A   1      49.237  26.938  27.251  1.00  0.00     0.002 A 
ATOM     64  C   UNL A   1      48.429  27.345  25.000  1.00  0.00     0.091 A 
ATOM     65  F   UNL A   1      46.309  28.398  24.694  1.00  0.00    -0.205 F 
ATOM     66  C   UNL A   1      49.425  26.875  25.873  1.00  0.00     0.022 A 
BRANCH  64  67
ATOM     67  S   UNL A   1      48.732  27.147  23.240  1.00  0.00     0.127 S 
ATOM     68  O   UNL A   1      48.023  28.301  22.688  1.00  0.00    -0.237 OA
ATOM     69  O   UNL A   1      50.191  27.236  23.165  1.00  0.00    -0.237 OA
ATOM     70  O   UNL A   1      48.186  25.845  22.885  1.00  0.00    -0.744 OA
ENDBRANCH  64  67
ENDBRANCH  46  60
BRANCH  47  71
ATOM     71  C   UNL A   1      38.450  30.876  31.012  1.00  0.00     0.023 A 
ATOM     72  C   UNL A   1      38.277  30.688  32.398  1.00  0.00     0.012 A 
ATOM     73  C   UNL A   1      37.429  31.499  30.270  1.00  0.00     0.148 A 
ATOM     74  C   UNL A   1      37.097  31.083  33.027  1.00  0.00     0.002 A 
ATOM     75  C   UNL A   1      36.278  31.939  30.914  1.00  0.00     0.091 A 
ATOM     76  F   UNL A   1      37.607  31.656  28.951  1.00  0.00    -0.205 F 
ATOM     77  C   UNL A   1      36.102  31.717  32.288  1.00  0.00     0.022 A 
BRANCH  75  78
ATOM     78  S   UNL A   1      35.007  32.884  30.065  1.00  0.00     0.127 S 
ATOM     79  O   UNL A   1      34.082  33.189  31.152  1.00  0.00    -0.237 OA
ATOM     80  O   UNL A   1      35.767  34.029  29.559  1.00  0.00    -0.237 OA
ATOM     81  O   UNL A   1      34.498  32.001  29.023  1.00  0.00    -0.744 OA
ENDBRANCH  75  78
ENDBRANCH  47  71
BRANCH  59  82
ATOM     82  C   UNL A   1      44.540  34.063  29.799  1.00  0.00     0.023 A 
ATOM     83  C   UNL A   1      45.219  34.317  31.007  1.00  0.00     0.012 A 
ATOM     84  C   UNL A   1      44.387  35.103  28.861  1.00  0.00     0.148 A 
ATOM     85  C   UNL A   1      45.708  35.590  31.292  1.00  0.00     0.002 A 
ATOM     86  C   UNL A   1      44.919  36.359  29.133  1.00  0.00     0.091 A 
ATOM     87  F   UNL A   1      43.719  34.851  27.727  1.00  0.00    -0.205 F 
ATOM     88  C   UNL A   1      45.568  36.608  30.352  1.00  0.00     0.022 A 
BRANCH  86  89
ATOM     89  S   UNL A   1      44.860  37.697  27.934  1.00  0.00     0.127 S 
ATOM     90  O   UNL A   1      45.617  37.132  26.819  1.00  0.00    -0.237 OA
ATOM     91  O   UNL A   1      43.423  37.835  27.687  1.00  0.00    -0.237 OA
ATOM     92  O   UNL A   1      45.466  38.845  28.594  1.00  0.00    -0.744 OA
ENDBRANCH  86  89
ENDBRANCH  59  82
ENDBRANCH  33  34
ENDBRANCH  25  28
ENDBRANCH  23  24
ENDBRANCH  22  23
ENDBRANCH   1  22
TORSDOF 17
ENDMDL
MODEL 3
REMARK VINA RESULT:     -11.4      5.156     10.346
REMARK SMILES O=C(Cc1ccc(S(=O)(=O)C[C@H]2CCCO2)cc1)NCCCNC(=O)c1ccc(-c2c3nc(c(-c4cccc(S(=O)(=O)[O-])c4F)c4ccc([nH]4)c(-c4cccc(S(=O)(=O)[O-])c4F)c4nc(c(-c5cccc(S(=O)(=O)[O-])c5F)c5ccc2[nH]5)C=C4)C=C3)cc1
REMARK SMILES IDX 20 1 19 2 1 3 2 4 3 6 4 7 5 8 18 9 6 10 17 11 7 12 8 13 9 14
REMARK SMILES IDX 10 15 11 16 12 17 13 18 16 19 14 20 15 21 21 22 22 23 23 24
REMARK SMILES IDX 24 25 25 27 26 28 27 29 88 30 28 31 87 32 29 33 30 34 31 35
REMARK SMILES IDX 81 36 32 37 86 38 80 39 82 40 33 41 85 42 79 43 78 44 34 46
REMARK SMILES IDX 66 47 46 48 65 49 47 50 50 51 64 52 83 53 48 54 49 55 63 57
REMARK SMILES IDX 84 58 51 59 35 60 36 61 44 62 37 63 39 64 45 65 38 66 40 67
REMARK SMILES IDX 41 68 42 69 43 70 67 71 68 72 76 73 69 74 71 75 77 76 70 77
REMARK SMILES IDX 72 78 73 79 74 80 75 81 52 82 53 83 61 84 54 85 56 86 62 87
REMARK SMILES IDX 55 88 57 89 58 90 59 91 60 92
REMARK H PARENT 19 5 23 26 82 45 50 56
REMARK Flexibility Score: inf
ROOT
ATOM      1  C   UNL A   1      35.114  21.284  25.350  1.00  0.00     0.117 C 
ENDROOT
BRANCH   1   2
ATOM      2  N   UNL A   1      34.268  21.443  24.186  1.00  0.00    -0.356 N 
ATOM      3  O   UNL A   1      32.511  20.176  24.966  1.00  0.00    -0.275 OA
ATOM      4  C   UNL A   1      32.979  20.948  24.135  1.00  0.00     0.224 C 
ATOM      5  H   UNL A   1      34.624  21.923  23.403  1.00  0.00     0.163 HD
BRANCH   4   6
ATOM      6  C   UNL A   1      32.157  21.488  22.975  1.00  0.00     0.135 C 
BRANCH   6   7
ATOM      7  C   UNL A   1      32.036  23.002  22.931  1.00  0.00    -0.039 A 
ATOM      8  C   UNL A   1      30.941  23.619  23.553  1.00  0.00     0.005 A 
ATOM      9  C   UNL A   1      32.986  23.816  22.292  1.00  0.00     0.005 A 
ATOM     10  C   UNL A   1      30.799  25.010  23.527  1.00  0.00     0.020 A 
ATOM     11  C   UNL A   1      32.814  25.197  22.207  1.00  0.00     0.020 A 
ATOM     12  C   UNL A   1      31.739  25.795  22.852  1.00  0.00     0.067 A 
BRANCH  12  13
ATOM     13  S   UNL A   1      31.509  27.551  22.840  1.00  0.00     0.180 S 
ATOM     14  O   UNL A   1      32.797  28.104  22.458  1.00  0.00    -0.224 OA
ATOM     15  O   UNL A   1      30.341  27.832  22.022  1.00  0.00    -0.224 OA
BRANCH  13  16
ATOM     16  C   UNL A   1      31.178  28.145  24.473  1.00  0.00     0.174 C 
BRANCH  16  17
ATOM     17  C   UNL A   1      31.951  27.524  25.631  1.00  0.00     0.133 C 
ATOM     18  C   UNL A   1      33.070  28.434  26.126  1.00  0.00     0.035 C 
ATOM     19  O   UNL A   1      31.124  27.270  26.767  1.00  0.00    -0.377 OA
ATOM     20  C   UNL A   1      32.387  29.214  27.222  1.00  0.00     0.031 C 
ATOM     21  C   UNL A   1      31.464  28.177  27.820  1.00  0.00     0.160 C 
ENDBRANCH  16  17
ENDBRANCH  13  16
ENDBRANCH  12  13
ENDBRANCH   6   7
ENDBRANCH   4   6
ENDBRANCH   1   2
BRANCH   1  22
ATOM     22  C   UNL A   1      36.416  20.558  25.049  1.00  0.00     0.042 C 
BRANCH  22  23
ATOM     23  C   UNL A   1      37.677  21.267  25.532  1.00  0.00     0.118 C 
BRANCH  23  24
ATOM     24  N   UNL A   1      38.764  20.360  25.875  1.00  0.00    -0.352 N 
ATOM     25  C   UNL A   1      40.002  20.632  26.409  1.00  0.00     0.251 C 
ATOM     26  H   UNL A   1      38.585  19.408  25.698  1.00  0.00     0.163 HD
ATOM     27  O   UNL A   1      40.815  19.717  26.523  1.00  0.00    -0.269 OA
BRANCH  25  28
ATOM     28  C   UNL A   1      40.375  22.008  26.817  1.00  0.00     0.039 A 
ATOM     29  C   UNL A   1      41.194  22.172  27.940  1.00  0.00     0.014 A 
ATOM     30  C   UNL A   1      39.920  23.134  26.125  1.00  0.00     0.014 A 
ATOM     31  C   UNL A   1      41.604  23.452  28.325  1.00  0.00     0.010 A 
ATOM     32  C   UNL A   1      40.391  24.403  26.465  1.00  0.00     0.010 A 
ATOM     33  C   UNL A   1      41.234  24.578  27.571  1.00  0.00    -0.014 A 
BRANCH  33  34
ATOM     34  C   UNL A   1      41.741  25.933  27.922  1.00  0.00     0.031 A 
ATOM     35  C   UNL A   1      43.153  26.341  27.588  1.00  0.00     0.074 A 
ATOM     36  C   UNL A   1      40.948  26.781  28.606  1.00  0.00     0.049 A 
ATOM     37  N   UNL A   1      43.752  27.484  27.806  1.00  0.00    -0.248 NA
ATOM     38  C   UNL A   1      44.011  25.330  26.949  1.00  0.00     0.031 C 
ATOM     39  C   UNL A   1      39.597  26.476  29.081  1.00  0.00     0.029 A 
ATOM     40  N   UNL A   1      41.169  28.066  29.038  1.00  0.00    -0.354 N 
ATOM     41  C   UNL A   1      45.060  27.321  27.364  1.00  0.00     0.074 A 
ATOM     42  C   UNL A   1      45.178  25.956  26.897  1.00  0.00     0.031 C 
ATOM     43  C   UNL A   1      39.103  27.547  29.725  1.00  0.00     0.029 A 
ATOM     44  C   UNL A   1      40.106  28.608  29.723  1.00  0.00     0.049 A 
ATOM     45  H   UNL A   1      42.008  28.553  28.873  1.00  0.00     0.167 HD
ATOM     46  C   UNL A   1      46.063  28.231  27.315  1.00  0.00     0.034 A 
ATOM     47  C   UNL A   1      39.950  29.827  30.280  1.00  0.00     0.034 A 
ATOM     48  C   UNL A   1      45.932  29.602  27.731  1.00  0.00     0.049 A 
ATOM     49  C   UNL A   1      41.052  30.843  30.143  1.00  0.00     0.074 A 
ATOM     50  C   UNL A   1      46.861  30.624  27.632  1.00  0.00     0.029 A 
ATOM     51  N   UNL A   1      44.805  30.145  28.326  1.00  0.00    -0.354 N 
ATOM     52  N   UNL A   1      42.217  30.722  29.554  1.00  0.00    -0.248 NA
ATOM     53  C   UNL A   1      40.798  32.177  30.705  1.00  0.00     0.031 C 
ATOM     54  C   UNL A   1      46.297  31.783  28.178  1.00  0.00     0.029 A 
ATOM     55  C   UNL A   1      45.012  31.487  28.601  1.00  0.00     0.049 A 
ATOM     56  H   UNL A   1      43.976  29.650  28.522  1.00  0.00     0.167 HD
ATOM     57  C   UNL A   1      42.820  31.971  29.646  1.00  0.00     0.074 A 
ATOM     58  C   UNL A   1      41.879  32.840  30.322  1.00  0.00     0.031 C 
ATOM     59  C   UNL A   1      44.050  32.358  29.224  1.00  0.00     0.034 A 
BRANCH  46  60
ATOM     60  C   UNL A   1      47.378  27.791  26.723  1.00  0.00     0.023 A 
ATOM     61  C   UNL A   1      48.414  27.367  27.580  1.00  0.00     0.012 A 
ATOM     62  C   UNL A   1      47.571  27.737  25.329  1.00  0.00     0.148 A 
ATOM     63  C   UNL A   1      49.631  26.928  27.064  1.00  0.00     0.002 A 
ATOM     64  C   UNL A   1      48.773  27.258  24.820  1.00  0.00     0.091 A 
ATOM     65  F   UNL A   1      46.584  28.164  24.528  1.00  0.00    -0.205 F 
ATOM     66  C   UNL A   1      49.807  26.864  25.685  1.00  0.00     0.022 A 
BRANCH  64  67
ATOM     67  S   UNL A   1      49.068  27.064  23.058  1.00  0.00     0.127 S 
ATOM     68  O   UNL A   1      48.529  28.316  22.529  1.00  0.00    -0.237 OA
ATOM     69  O   UNL A   1      50.526  26.956  22.998  1.00  0.00    -0.237 OA
ATOM     70  O   UNL A   1      48.356  25.856  22.664  1.00  0.00    -0.744 OA
ENDBRANCH  64  67
ENDBRANCH  46  60
BRANCH  47  71
ATOM     71  C   UNL A   1      38.659  30.183  30.933  1.00  0.00     0.023 A 
ATOM     72  C   UNL A   1      38.427  29.783  32.264  1.00  0.00     0.012 A 
ATOM     73  C   UNL A   1      37.677  30.937  30.261  1.00  0.00     0.148 A 
ATOM     74  C   UNL A   1      37.229  30.101  32.904  1.00  0.00     0.002 A 
ATOM     75  C   UNL A   1      36.509  31.296  30.924  1.00  0.00     0.091 A 
ATOM     76  F   UNL A   1      37.910  31.296  28.991  1.00  0.00    -0.205 F 
ATOM     77  C   UNL A   1      36.275  30.865  32.239  1.00  0.00     0.022 A 
BRANCH  75  78
ATOM     78  S   UNL A   1      35.289  32.390  30.188  1.00  0.00     0.127 S 
ATOM     79  O   UNL A   1      34.806  31.592  29.066  1.00  0.00    -0.237 OA
ATOM     80  O   UNL A   1      34.332  32.559  31.283  1.00  0.00    -0.237 OA
ATOM     81  O   UNL A   1      36.016  33.605  29.841  1.00  0.00    -0.744 OA
ENDBRANCH  75  78
ENDBRANCH  47  71
BRANCH  59  82
ATOM     82  C   UNL A   1      44.446  33.793  29.456  1.00  0.00     0.023 A 
ATOM     83  C   UNL A   1      44.976  34.178  30.703  1.00  0.00     0.012 A 
ATOM     84  C   UNL A   1      44.343  34.747  28.425  1.00  0.00     0.148 A 
ATOM     85  C   UNL A   1      45.365  35.497  30.932  1.00  0.00     0.002 A 
ATOM     86  C   UNL A   1      44.777  36.050  28.646  1.00  0.00     0.091 A 
ATOM     87  F   UNL A   1      43.815  34.370  27.251  1.00  0.00    -0.205 F 
ATOM     88  C   UNL A   1      45.276  36.430  29.901  1.00  0.00     0.022 A 
BRANCH  86  89
ATOM     89  S   UNL A   1      44.779  37.286  27.342  1.00  0.00     0.127 S 
ATOM     90  O   UNL A   1      45.193  38.486  28.067  1.00  0.00    -0.237 OA
ATOM     91  O   UNL A   1      45.781  36.760  26.411  1.00  0.00    -0.237 OA
ATOM     92  O   UNL A   1      43.423  37.304  26.812  1.00  0.00    -0.744 OA
ENDBRANCH  86  89
ENDBRANCH  59  82
ENDBRANCH  33  34
ENDBRANCH  25  28
ENDBRANCH  23  24
ENDBRANCH  22  23
ENDBRANCH   1  22
TORSDOF 17
ENDMDL
