MODEL 1
REMARK VINA RESULT:     -12.5      0.000      0.000
REMARK SMILES O=C(NCCCNC(=O)[C@@H]1C[N@H+](Cc2ccco2)CC12CCOCC2)c1ccc(-c2c3nc(c(-c4cccc(S(=O)(=O)[O-])c4F)c4ccc([nH]4)c(-c4cccc(S(=O)(=O)[O-])c4F)c4nc(c(-c5cccc(S(=O)(=O)[O-])c5F)c5ccc2[nH]5)C=C4)C=C3)cc1
REMARK SMILES IDX 4 1 3 2 1 3 2 4 26 6 27 7 88 8 28 9 87 10 29 11 30 12 31 13
REMARK SMILES IDX 81 14 32 15 86 16 80 17 82 18 33 19 85 20 79 21 78 22 34 24
REMARK SMILES IDX 66 25 46 26 65 27 47 28 50 29 64 30 83 31 48 32 49 33 63 35
REMARK SMILES IDX 84 36 51 37 35 38 36 39 44 40 37 41 39 42 45 43 38 44 40 45
REMARK SMILES IDX 41 46 42 47 43 48 67 49 68 50 76 51 69 52 71 53 77 54 70 55
REMARK SMILES IDX 72 56 73 57 74 58 75 59 52 60 53 61 61 62 54 63 56 64 62 65
REMARK SMILES IDX 55 66 57 67 58 68 59 69 60 70 5 71 6 72 7 73 8 74 9 76 10 77
REMARK SMILES IDX 11 78 20 79 12 80 19 81 21 82 25 83 22 85 24 86 23 87 13 88
REMARK SMILES IDX 14 89 15 90 18 91 16 92 17 93
REMARK H PARENT 3 5 82 23 50 34 7 75 12 84
REMARK Flexibility Score: inf
ROOT
ATOM      1  C   UNL A   1      32.578  30.190  26.060  1.00  0.00     0.118 C 
ENDROOT
BRANCH   1   2
ATOM      2  N   UNL A   1      32.302  31.535  26.557  1.00  0.00    -0.352 N 
ATOM      3  O   UNL A   1      32.689  33.430  27.738  1.00  0.00    -0.269 OA
ATOM      4  C   UNL A   1      33.105  32.363  27.320  1.00  0.00     0.251 C 
ATOM      5  H   UNL A   1      31.422  31.903  26.314  1.00  0.00     0.163 HD
BRANCH   4   6
ATOM      6  C   UNL A   1      34.459  31.879  27.669  1.00  0.00     0.039 A 
ATOM      7  C   UNL A   1      34.663  30.515  27.850  1.00  0.00     0.014 A 
ATOM      8  C   UNL A   1      35.457  32.796  27.997  1.00  0.00     0.014 A 
ATOM      9  C   UNL A   1      35.722  30.101  28.642  1.00  0.00     0.010 A 
ATOM     10  C   UNL A   1      36.619  32.342  28.633  1.00  0.00     0.010 A 
ATOM     11  C   UNL A   1      36.729  31.001  29.029  1.00  0.00    -0.014 A 
BRANCH  11  12
ATOM     12  C   UNL A   1      37.890  30.489  29.809  1.00  0.00     0.031 A 
ATOM     13  C   UNL A   1      38.094  30.835  31.264  1.00  0.00     0.074 A 
ATOM     14  C   UNL A   1      38.763  29.669  29.186  1.00  0.00     0.049 A 
ATOM     15  N   UNL A   1      39.076  30.489  32.056  1.00  0.00    -0.248 NA
ATOM     16  C   UNL A   1      37.084  31.689  31.912  1.00  0.00     0.031 C 
ATOM     17  C   UNL A   1      38.691  29.284  27.772  1.00  0.00     0.029 A 
ATOM     18  N   UNL A   1      39.859  28.992  29.653  1.00  0.00    -0.354 N 
ATOM     19  C   UNL A   1      38.851  31.145  33.263  1.00  0.00     0.074 A 
ATOM     20  C   UNL A   1      37.624  31.895  33.107  1.00  0.00     0.031 C 
ATOM     21  C   UNL A   1      39.645  28.385  27.507  1.00  0.00     0.029 A 
ATOM     22  C   UNL A   1      40.464  28.209  28.698  1.00  0.00     0.049 A 
ATOM     23  H   UNL A   1      40.181  29.060  30.580  1.00  0.00     0.167 HD
ATOM     24  C   UNL A   1      39.596  31.117  34.394  1.00  0.00     0.034 A 
ATOM     25  C   UNL A   1      41.574  27.451  28.752  1.00  0.00     0.034 A 
ATOM     26  C   UNL A   1      40.772  30.301  34.568  1.00  0.00     0.049 A 
ATOM     27  C   UNL A   1      42.337  27.390  30.038  1.00  0.00     0.074 A 
ATOM     28  C   UNL A   1      41.557  30.153  35.699  1.00  0.00     0.029 A 
ATOM     29  N   UNL A   1      41.324  29.487  33.591  1.00  0.00    -0.354 N 
ATOM     30  N   UNL A   1      42.062  27.960  31.185  1.00  0.00    -0.248 NA
ATOM     31  C   UNL A   1      43.558  26.575  30.042  1.00  0.00     0.031 C 
ATOM     32  C   UNL A   1      42.590  29.257  35.400  1.00  0.00     0.029 A 
ATOM     33  C   UNL A   1      42.439  28.835  34.090  1.00  0.00     0.049 A 
ATOM     34  H   UNL A   1      40.975  29.388  32.675  1.00  0.00     0.167 HD
ATOM     35  C   UNL A   1      43.066  27.561  32.055  1.00  0.00     0.074 A 
ATOM     36  C   UNL A   1      43.936  26.673  31.310  1.00  0.00     0.031 C 
ATOM     37  C   UNL A   1      43.263  27.917  33.348  1.00  0.00     0.034 A 
BRANCH  24  38
ATOM     38  C   UNL A   1      39.158  31.970  35.559  1.00  0.00     0.023 A 
ATOM     39  C   UNL A   1      38.317  31.428  36.552  1.00  0.00     0.012 A 
ATOM     40  C   UNL A   1      39.649  33.284  35.715  1.00  0.00     0.148 A 
ATOM     41  C   UNL A   1      37.954  32.184  37.667  1.00  0.00     0.002 A 
ATOM     42  C   UNL A   1      39.313  34.018  36.849  1.00  0.00     0.091 A 
ATOM     43  F   UNL A   1      40.429  33.794  34.752  1.00  0.00    -0.205 F 
ATOM     44  C   UNL A   1      38.460  33.472  37.821  1.00  0.00     0.022 A 
BRANCH  42  45
ATOM     45  S   UNL A   1      39.981  35.656  37.169  1.00  0.00     0.127 S 
ATOM     46  O   UNL A   1      39.285  36.022  38.401  1.00  0.00    -0.237 OA
ATOM     47  O   UNL A   1      41.410  35.383  37.335  1.00  0.00    -0.237 OA
ATOM     48  O   UNL A   1      39.652  36.454  35.997  1.00  0.00    -0.744 OA
ENDBRANCH  42  45
ENDBRANCH  24  38
BRANCH  25  49
ATOM     49  C   UNL A   1      41.987  26.670  27.554  1.00  0.00     0.023 A 
ATOM     50  C   UNL A   1      42.788  27.283  26.573  1.00  0.00     0.012 A 
ATOM     51  C   UNL A   1      41.669  25.303  27.426  1.00  0.00     0.148 A 
ATOM     52  C   UNL A   1      43.253  26.553  25.479  1.00  0.00     0.002 A 
ATOM     53  C   UNL A   1      42.193  24.566  26.372  1.00  0.00     0.091 A 
ATOM     54  F   UNL A   1      40.889  24.740  28.360  1.00  0.00    -0.205 F 
ATOM     55  C   UNL A   1      42.972  25.191  25.388  1.00  0.00     0.022 A 
BRANCH  53  56
ATOM     56  S   UNL A   1      42.018  22.779  26.289  1.00  0.00     0.127 S 
ATOM     57  O   UNL A   1      40.567  22.619  26.313  1.00  0.00    -0.237 OA
ATOM     58  O   UNL A   1      42.653  22.467  25.007  1.00  0.00    -0.237 OA
ATOM     59  O   UNL A   1      42.740  22.269  27.447  1.00  0.00    -0.744 OA
ENDBRANCH  53  56
ENDBRANCH  25  49
BRANCH  37  60
ATOM     60  C   UNL A   1      44.456  27.322  34.042  1.00  0.00     0.023 A 
ATOM     61  C   UNL A   1      45.703  27.973  33.965  1.00  0.00     0.012 A 
ATOM     62  C   UNL A   1      44.335  26.142  34.801  1.00  0.00     0.148 A 
ATOM     63  C   UNL A   1      46.820  27.439  34.604  1.00  0.00     0.002 A 
ATOM     64  C   UNL A   1      45.444  25.641  35.473  1.00  0.00     0.091 A 
ATOM     65  F   UNL A   1      43.147  25.523  34.840  1.00  0.00    -0.205 F 
ATOM     66  C   UNL A   1      46.689  26.281  35.367  1.00  0.00     0.022 A 
BRANCH  64  67
ATOM     67  S   UNL A   1      45.333  24.201  36.542  1.00  0.00     0.127 S 
ATOM     68  O   UNL A   1      46.735  23.976  36.886  1.00  0.00    -0.237 OA
ATOM     69  O   UNL A   1      44.504  24.689  37.644  1.00  0.00    -0.237 OA
ATOM     70  O   UNL A   1      44.705  23.163  35.736  1.00  0.00    -0.744 OA
ENDBRANCH  64  67
ENDBRANCH  37  60
ENDBRANCH  11  12
ENDBRANCH   4   6
ENDBRANCH   1   2
BRANCH   1  71
ATOM     71  C   UNL A   1      31.437  29.226  26.272  1.00  0.00     0.042 C 
BRANCH  71  72
ATOM     72  C   UNL A   1      31.749  28.236  27.370  1.00  0.00     0.117 C 
BRANCH  72  73
ATOM     73  N   UNL A   1      31.275  26.882  27.103  1.00  0.00    -0.356 N 
ATOM     74  C   UNL A   1      31.790  25.783  26.497  1.00  0.00     0.229 C 
ATOM     75  H   UNL A   1      30.365  26.731  27.445  1.00  0.00     0.163 HD
ATOM     76  O   UNL A   1      31.081  24.766  26.567  1.00  0.00    -0.275 OA
BRANCH  74  77
ATOM     77  C   UNL A   1      33.163  25.647  25.817  1.00  0.00     0.145 C 
ATOM     78  C   UNL A   1      33.152  26.383  24.487  1.00  0.00     0.276 C 
ATOM     79  C   UNL A   1      33.771  24.279  25.466  1.00  0.00     0.041 C 
ATOM     80  N   UNL A   1      32.767  25.375  23.519  1.00  0.00    -0.327 N 
ATOM     81  C   UNL A   1      33.255  24.064  23.996  1.00  0.00     0.270 C 
ATOM     82  C   UNL A   1      35.335  24.347  25.400  1.00  0.00     0.042 C 
ATOM     83  C   UNL A   1      33.506  23.267  26.603  1.00  0.00     0.042 C 
ATOM     84  H   UNL A   1      33.245  25.584  22.642  1.00  0.00     0.348 HD
ATOM     85  C   UNL A   1      35.952  22.950  25.244  1.00  0.00     0.161 C 
ATOM     86  C   UNL A   1      34.149  21.917  26.372  1.00  0.00     0.161 C 
ATOM     87  O   UNL A   1      35.559  22.076  26.296  1.00  0.00    -0.381 OA
BRANCH  80  88
ATOM     88  C   UNL A   1      31.469  25.475  22.826  1.00  0.00     0.338 C 
BRANCH  88  89
ATOM     89  C   UNL A   1      30.652  26.747  22.923  1.00  0.00     0.157 A 
ATOM     90  C   UNL A   1      29.493  27.134  23.576  1.00  0.00     0.052 A 
ATOM     91  O   UNL A   1      31.164  27.849  22.280  1.00  0.00    -0.463 OA
ATOM     92  C   UNL A   1      29.197  28.457  23.162  1.00  0.00     0.042 A 
ATOM     93  C   UNL A   1      30.255  28.853  22.384  1.00  0.00     0.195 A 
ENDBRANCH  88  89
ENDBRANCH  80  88
ENDBRANCH  74  77
ENDBRANCH  72  73
ENDBRANCH  71  72
ENDBRANCH   1  71
TORSDOF 15
ENDMDL
MODEL 2
REMARK VINA RESULT:     -12.4      0.431      7.792
REMARK SMILES O=C(NCCCNC(=O)[C@@H]1C[N@H+](Cc2ccco2)CC12CCOCC2)c1ccc(-c2c3nc(c(-c4cccc(S(=O)(=O)[O-])c4F)c4ccc([nH]4)c(-c4cccc(S(=O)(=O)[O-])c4F)c4nc(c(-c5cccc(S(=O)(=O)[O-])c5F)c5ccc2[nH]5)C=C4)C=C3)cc1
REMARK SMILES IDX 4 1 3 2 1 3 2 4 26 6 27 7 88 8 28 9 87 10 29 11 30 12 31 13
REMARK SMILES IDX 81 14 32 15 86 16 80 17 82 18 33 19 85 20 79 21 78 22 34 24
REMARK SMILES IDX 66 25 46 26 65 27 47 28 50 29 64 30 83 31 48 32 49 33 63 35
REMARK SMILES IDX 84 36 51 37 35 38 36 39 44 40 37 41 39 42 45 43 38 44 40 45
REMARK SMILES IDX 41 46 42 47 43 48 67 49 68 50 76 51 69 52 71 53 77 54 70 55
REMARK SMILES IDX 72 56 73 57 74 58 75 59 52 60 53 61 61 62 54 63 56 64 62 65
REMARK SMILES IDX 55 66 57 67 58 68 59 69 60 70 5 71 6 72 7 73 8 74 9 76 10 77
REMARK SMILES IDX 11 78 20 79 12 80 19 81 21 82 25 83 22 85 24 86 23 87 13 88
REMARK SMILES IDX 14 89 15 90 18 91 16 92 17 93
REMARK H PARENT 3 5 82 23 50 34 7 75 12 84
REMARK Flexibility Score: inf
ROOT
ATOM      1  C   UNL A   1      32.660  30.009  26.038  1.00  0.00     0.118 C 
ENDROOT
BRANCH   1   2
ATOM      2  N   UNL A   1      32.395  31.364  26.513  1.00  0.00    -0.352 N 
ATOM      3  O   UNL A   1      32.795  33.273  27.666  1.00  0.00    -0.269 OA
ATOM      4  C   UNL A   1      33.203  32.196  27.266  1.00  0.00     0.251 C 
ATOM      5  H   UNL A   1      31.519  31.737  26.261  1.00  0.00     0.163 HD
BRANCH   4   6
ATOM      6  C   UNL A   1      34.551  31.705  27.627  1.00  0.00     0.039 A 
ATOM      7  C   UNL A   1      34.740  30.343  27.834  1.00  0.00     0.014 A 
ATOM      8  C   UNL A   1      35.558  32.617  27.941  1.00  0.00     0.014 A 
ATOM      9  C   UNL A   1      35.793  29.932  28.636  1.00  0.00     0.010 A 
ATOM     10  C   UNL A   1      36.713  32.163  28.588  1.00  0.00     0.010 A 
ATOM     11  C   UNL A   1      36.808  30.829  29.010  1.00  0.00    -0.014 A 
BRANCH  11  12
ATOM     12  C   UNL A   1      37.963  30.319  29.801  1.00  0.00     0.031 A 
ATOM     13  C   UNL A   1      38.995  29.392  29.207  1.00  0.00     0.074 A 
ATOM     14  C   UNL A   1      38.090  30.732  31.080  1.00  0.00     0.049 A 
ATOM     15  N   UNL A   1      40.032  28.844  29.787  1.00  0.00    -0.248 NA
ATOM     16  C   UNL A   1      38.842  29.015  27.791  1.00  0.00     0.031 C 
ATOM     17  C   UNL A   1      37.140  31.605  31.779  1.00  0.00     0.029 A 
ATOM     18  N   UNL A   1      39.067  30.502  32.012  1.00  0.00    -0.354 N 
ATOM     19  C   UNL A   1      40.604  27.997  28.842  1.00  0.00     0.074 A 
ATOM     20  C   UNL A   1      39.810  28.119  27.638  1.00  0.00     0.031 C 
ATOM     21  C   UNL A   1      37.616  31.899  32.993  1.00  0.00     0.029 A 
ATOM     22  C   UNL A   1      38.848  31.153  33.204  1.00  0.00     0.049 A 
ATOM     23  H   UNL A   1      39.849  29.928  31.845  1.00  0.00     0.167 HD
ATOM     24  C   UNL A   1      41.691  27.199  28.967  1.00  0.00     0.034 A 
ATOM     25  C   UNL A   1      39.539  31.136  34.358  1.00  0.00     0.034 A 
ATOM     26  C   UNL A   1      42.523  27.146  30.143  1.00  0.00     0.049 A 
ATOM     27  C   UNL A   1      40.774  30.294  34.441  1.00  0.00     0.074 A 
ATOM     28  C   UNL A   1      43.685  26.419  30.342  1.00  0.00     0.029 A 
ATOM     29  N   UNL A   1      42.293  27.856  31.311  1.00  0.00    -0.354 N 
ATOM     30  N   UNL A   1      41.334  29.562  33.510  1.00  0.00    -0.248 NA
ATOM     31  C   UNL A   1      41.478  30.282  35.728  1.00  0.00     0.031 C 
ATOM     32  C   UNL A   1      44.150  26.683  31.636  1.00  0.00     0.029 A 
ATOM     33  C   UNL A   1      43.287  27.585  32.236  1.00  0.00     0.049 A 
ATOM     34  H   UNL A   1      41.532  28.464  31.461  1.00  0.00     0.167 HD
ATOM     35  C   UNL A   1      42.467  29.013  34.092  1.00  0.00     0.074 A 
ATOM     36  C   UNL A   1      42.531  29.526  35.446  1.00  0.00     0.031 C 
ATOM     37  C   UNL A   1      43.361  28.144  33.561  1.00  0.00     0.034 A 
BRANCH  24  38
ATOM     38  C   UNL A   1      42.076  26.328  27.797  1.00  0.00     0.023 A 
ATOM     39  C   UNL A   1      42.931  26.832  26.796  1.00  0.00     0.012 A 
ATOM     40  C   UNL A   1      41.660  24.981  27.733  1.00  0.00     0.148 A 
ATOM     41  C   UNL A   1      43.346  26.019  25.741  1.00  0.00     0.002 A 
ATOM     42  C   UNL A   1      42.109  24.167  26.698  1.00  0.00     0.091 A 
ATOM     43  F   UNL A   1      40.829  24.522  28.679  1.00  0.00    -0.205 F 
ATOM     44  C   UNL A   1      42.946  24.686  25.697  1.00  0.00     0.022 A 
BRANCH  42  45
ATOM     45  S   UNL A   1      41.708  22.416  26.606  1.00  0.00     0.127 S 
ATOM     46  O   UNL A   1      42.390  22.022  25.374  1.00  0.00    -0.237 OA
ATOM     47  O   UNL A   1      42.313  21.892  27.831  1.00  0.00    -0.237 OA
ATOM     48  O   UNL A   1      40.254  22.345  26.573  1.00  0.00    -0.744 OA
ENDBRANCH  42  45
ENDBRANCH  24  38
BRANCH  25  49
ATOM     49  C   UNL A   1      39.083  31.977  35.498  1.00  0.00     0.023 A 
ATOM     50  C   UNL A   1      38.233  31.419  36.471  1.00  0.00     0.012 A 
ATOM     51  C   UNL A   1      39.555  33.293  35.671  1.00  0.00     0.148 A 
ATOM     52  C   UNL A   1      37.852  32.160  37.589  1.00  0.00     0.002 A 
ATOM     53  C   UNL A   1      39.228  34.000  36.821  1.00  0.00     0.091 A 
ATOM     54  F   UNL A   1      40.347  33.817  34.724  1.00  0.00    -0.205 F 
ATOM     55  C   UNL A   1      38.363  33.443  37.774  1.00  0.00     0.022 A 
BRANCH  53  56
ATOM     56  S   UNL A   1      39.988  35.582  37.206  1.00  0.00     0.127 S 
ATOM     57  O   UNL A   1      39.364  35.911  38.485  1.00  0.00    -0.237 OA
ATOM     58  O   UNL A   1      41.408  35.232  37.284  1.00  0.00    -0.237 OA
ATOM     59  O   UNL A   1      39.653  36.452  36.086  1.00  0.00    -0.744 OA
ENDBRANCH  53  56
ENDBRANCH  25  49
BRANCH  37  60
ATOM     60  C   UNL A   1      44.498  27.714  34.445  1.00  0.00     0.023 A 
ATOM     61  C   UNL A   1      45.689  28.467  34.463  1.00  0.00     0.012 A 
ATOM     62  C   UNL A   1      44.375  26.590  35.284  1.00  0.00     0.148 A 
ATOM     63  C   UNL A   1      46.754  28.087  35.277  1.00  0.00     0.002 A 
ATOM     64  C   UNL A   1      45.425  26.244  36.127  1.00  0.00     0.091 A 
ATOM     65  F   UNL A   1      43.245  25.871  35.233  1.00  0.00    -0.205 F 
ATOM     66  C   UNL A   1      46.618  26.983  36.117  1.00  0.00     0.022 A 
BRANCH  64  67
ATOM     67  S   UNL A   1      45.293  24.887  37.296  1.00  0.00     0.127 S 
ATOM     68  O   UNL A   1      46.584  24.953  37.978  1.00  0.00    -0.237 OA
ATOM     69  O   UNL A   1      44.149  25.287  38.116  1.00  0.00    -0.237 OA
ATOM     70  O   UNL A   1      45.063  23.696  36.490  1.00  0.00    -0.744 OA
ENDBRANCH  64  67
ENDBRANCH  37  60
ENDBRANCH  11  12
ENDBRANCH   4   6
ENDBRANCH   1   2
BRANCH   1  71
ATOM     71  C   UNL A   1      31.495  29.069  26.228  1.00  0.00     0.042 C 
BRANCH  71  72
ATOM     72  C   UNL A   1      31.761  28.079  27.337  1.00  0.00     0.117 C 
BRANCH  72  73
ATOM     73  N   UNL A   1      31.243  26.741  27.079  1.00  0.00    -0.356 N 
ATOM     74  C   UNL A   1      31.730  25.612  26.504  1.00  0.00     0.229 C 
ATOM     75  H   UNL A   1      30.319  26.630  27.398  1.00  0.00     0.163 HD
ATOM     76  O   UNL A   1      30.980  24.625  26.571  1.00  0.00    -0.275 OA
BRANCH  74  77
ATOM     77  C   UNL A   1      33.114  25.413  25.863  1.00  0.00     0.145 C 
ATOM     78  C   UNL A   1      33.162  26.115  24.516  1.00  0.00     0.276 C 
ATOM     79  C   UNL A   1      33.683  24.016  25.561  1.00  0.00     0.041 C 
ATOM     80  N   UNL A   1      32.766  25.097  23.563  1.00  0.00    -0.327 N 
ATOM     81  C   UNL A   1      33.196  23.783  24.084  1.00  0.00     0.270 C 
ATOM     82  C   UNL A   1      35.249  24.029  25.534  1.00  0.00     0.042 C 
ATOM     83  C   UNL A   1      33.354  23.043  26.715  1.00  0.00     0.042 C 
ATOM     84  H   UNL A   1      33.273  25.268  22.694  1.00  0.00     0.348 HD
ATOM     85  C   UNL A   1      35.821  22.608  25.427  1.00  0.00     0.161 C 
ATOM     86  C   UNL A   1      33.955  21.666  26.532  1.00  0.00     0.161 C 
ATOM     87  O   UNL A   1      35.371  21.775  26.489  1.00  0.00    -0.381 OA
BRANCH  80  88
ATOM     88  C   UNL A   1      31.490  25.224  22.834  1.00  0.00     0.338 C 
BRANCH  88  89
ATOM     89  C   UNL A   1      30.653  26.478  22.982  1.00  0.00     0.157 A 
ATOM     90  C   UNL A   1      29.610  26.883  23.798  1.00  0.00     0.052 A 
ATOM     91  O   UNL A   1      31.002  27.540  22.183  1.00  0.00    -0.463 OA
ATOM     92  C   UNL A   1      29.195  28.162  23.350  1.00  0.00     0.042 A 
ATOM     93  C   UNL A   1      30.086  28.525  22.373  1.00  0.00     0.195 A 
ENDBRANCH  88  89
ENDBRANCH  80  88
ENDBRANCH  74  77
ENDBRANCH  72  73
ENDBRANCH  71  72
ENDBRANCH   1  71
TORSDOF 15
ENDMDL
MODEL 3
REMARK VINA RESULT:     -12.3      1.260      1.570
REMARK SMILES O=C(NCCCNC(=O)[C@@H]1C[N@H+](Cc2ccco2)CC12CCOCC2)c1ccc(-c2c3nc(c(-c4cccc(S(=O)(=O)[O-])c4F)c4ccc([nH]4)c(-c4cccc(S(=O)(=O)[O-])c4F)c4nc(c(-c5cccc(S(=O)(=O)[O-])c5F)c5ccc2[nH]5)C=C4)C=C3)cc1
REMARK SMILES IDX 4 1 3 2 1 3 2 4 26 6 27 7 88 8 28 9 87 10 29 11 30 12 31 13
REMARK SMILES IDX 81 14 32 15 86 16 80 17 82 18 33 19 85 20 79 21 78 22 34 24
REMARK SMILES IDX 66 25 46 26 65 27 47 28 50 29 64 30 83 31 48 32 49 33 63 35
REMARK SMILES IDX 84 36 51 37 35 38 36 39 44 40 37 41 39 42 45 43 38 44 40 45
REMARK SMILES IDX 41 46 42 47 43 48 67 49 68 50 76 51 69 52 71 53 77 54 70 55
REMARK SMILES IDX 72 56 73 57 74 58 75 59 52 60 53 61 61 62 54 63 56 64 62 65
REMARK SMILES IDX 55 66 57 67 58 68 59 69 60 70 5 71 6 72 7 73 8 74 9 76 10 77
REMARK SMILES IDX 11 78 20 79 12 80 19 81 21 82 25 83 22 85 24 86 23 87 13 88
REMARK SMILES IDX 14 89 15 90 18 91 16 92 17 93
REMARK H PARENT 3 5 82 23 50 34 7 75 12 84
REMARK Flexibility Score: inf
ROOT
ATOM      1  C   UNL A   1      32.668  30.456  26.401  1.00  0.00     0.118 C 
ENDROOT
BRANCH   1   2
ATOM      2  N   UNL A   1      32.522  31.828  26.877  1.00  0.00    -0.352 N 
ATOM      3  O   UNL A   1      33.114  33.710  27.991  1.00  0.00    -0.269 OA
ATOM      4  C   UNL A   1      33.424  32.606  27.580  1.00  0.00     0.251 C 
ATOM      5  H   UNL A   1      31.663  32.260  26.668  1.00  0.00     0.163 HD
BRANCH   4   6
ATOM      6  C   UNL A   1      34.752  32.023  27.876  1.00  0.00     0.039 A 
ATOM      7  C   UNL A   1      34.838  30.679  28.222  1.00  0.00     0.014 A 
ATOM      8  C   UNL A   1      35.863  32.859  27.991  1.00  0.00     0.014 A 
ATOM      9  C   UNL A   1      35.924  30.254  28.970  1.00  0.00     0.010 A 
ATOM     10  C   UNL A   1      37.031  32.364  28.582  1.00  0.00     0.010 A 
ATOM     11  C   UNL A   1      37.048  31.080  29.146  1.00  0.00    -0.014 A 
BRANCH  11  12
ATOM     12  C   UNL A   1      38.224  30.545  29.886  1.00  0.00     0.031 A 
ATOM     13  C   UNL A   1      38.487  30.893  31.331  1.00  0.00     0.074 A 
ATOM     14  C   UNL A   1      39.055  29.703  29.237  1.00  0.00     0.049 A 
ATOM     15  N   UNL A   1      39.489  30.528  32.091  1.00  0.00    -0.248 NA
ATOM     16  C   UNL A   1      37.520  31.772  32.010  1.00  0.00     0.031 C 
ATOM     17  C   UNL A   1      38.926  29.314  27.829  1.00  0.00     0.029 A 
ATOM     18  N   UNL A   1      40.153  29.004  29.669  1.00  0.00    -0.354 N 
ATOM     19  C   UNL A   1      39.321  31.194  33.301  1.00  0.00     0.074 A 
ATOM     20  C   UNL A   1      38.106  31.971  33.185  1.00  0.00     0.031 C 
ATOM     21  C   UNL A   1      39.849  28.393  27.535  1.00  0.00     0.029 A 
ATOM     22  C   UNL A   1      40.706  28.203  28.697  1.00  0.00     0.049 A 
ATOM     23  H   UNL A   1      40.509  29.068  30.584  1.00  0.00     0.167 HD
ATOM     24  C   UNL A   1      40.105  31.154  34.405  1.00  0.00     0.034 A 
ATOM     25  C   UNL A   1      41.800  27.421  28.715  1.00  0.00     0.034 A 
ATOM     26  C   UNL A   1      41.267  30.313  34.541  1.00  0.00     0.049 A 
ATOM     27  C   UNL A   1      42.607  27.349  29.974  1.00  0.00     0.074 A 
ATOM     28  C   UNL A   1      42.089  30.153  35.644  1.00  0.00     0.029 A 
ATOM     29  N   UNL A   1      41.767  29.483  33.550  1.00  0.00    -0.354 N 
ATOM     30  N   UNL A   1      42.385  27.930  31.127  1.00  0.00    -0.248 NA
ATOM     31  C   UNL A   1      43.809  26.507  29.939  1.00  0.00     0.031 C 
ATOM     32  C   UNL A   1      43.090  29.232  35.315  1.00  0.00     0.029 A 
ATOM     33  C   UNL A   1      42.884  28.808  34.013  1.00  0.00     0.049 A 
ATOM     34  H   UNL A   1      41.383  29.388  32.647  1.00  0.00     0.167 HD
ATOM     35  C   UNL A   1      43.410  27.512  31.963  1.00  0.00     0.074 A 
ATOM     36  C   UNL A   1      44.233  26.601  31.192  1.00  0.00     0.031 C 
ATOM     37  C   UNL A   1      43.661  27.869  33.247  1.00  0.00     0.034 A 
BRANCH  24  38
ATOM     38  C   UNL A   1      39.727  32.023  35.580  1.00  0.00     0.023 A 
ATOM     39  C   UNL A   1      40.239  33.332  35.680  1.00  0.00     0.012 A 
ATOM     40  C   UNL A   1      38.797  31.572  36.541  1.00  0.00     0.148 A 
ATOM     41  C   UNL A   1      39.850  34.170  36.726  1.00  0.00     0.002 A 
ATOM     42  C   UNL A   1      38.386  32.426  37.559  1.00  0.00     0.091 A 
ATOM     43  F   UNL A   1      38.337  30.317  36.446  1.00  0.00    -0.205 F 
ATOM     44  C   UNL A   1      38.917  33.722  37.658  1.00  0.00     0.022 A 
BRANCH  42  45
ATOM     45  S   UNL A   1      37.128  31.961  38.757  1.00  0.00     0.127 S 
ATOM     46  O   UNL A   1      37.004  30.525  38.511  1.00  0.00    -0.237 OA
ATOM     47  O   UNL A   1      37.766  32.307  40.029  1.00  0.00    -0.237 OA
ATOM     48  O   UNL A   1      35.956  32.761  38.433  1.00  0.00    -0.744 OA
ENDBRANCH  42  45
ENDBRANCH  24  38
BRANCH  25  49
ATOM     49  C   UNL A   1      42.153  26.625  27.508  1.00  0.00     0.023 A 
ATOM     50  C   UNL A   1      42.923  27.220  26.491  1.00  0.00     0.012 A 
ATOM     51  C   UNL A   1      41.810  25.263  27.403  1.00  0.00     0.148 A 
ATOM     52  C   UNL A   1      43.333  26.476  25.385  1.00  0.00     0.002 A 
ATOM     53  C   UNL A   1      42.280  24.511  26.334  1.00  0.00     0.091 A 
ATOM     54  F   UNL A   1      41.059  24.718  28.371  1.00  0.00    -0.205 F 
ATOM     55  C   UNL A   1      43.028  25.118  25.314  1.00  0.00     0.022 A 
BRANCH  53  56
ATOM     56  S   UNL A   1      42.075  22.727  26.270  1.00  0.00     0.127 S 
ATOM     57  O   UNL A   1      42.754  22.303  27.492  1.00  0.00    -0.237 OA
ATOM     58  O   UNL A   1      40.618  22.583  26.292  1.00  0.00    -0.237 OA
ATOM     59  O   UNL A   1      42.693  22.315  25.017  1.00  0.00    -0.744 OA
ENDBRANCH  53  56
ENDBRANCH  25  49
BRANCH  37  60
ATOM     60  C   UNL A   1      44.864  27.250  33.901  1.00  0.00     0.023 A 
ATOM     61  C   UNL A   1      46.133  27.832  33.717  1.00  0.00     0.012 A 
ATOM     62  C   UNL A   1      44.733  26.119  34.729  1.00  0.00     0.148 A 
ATOM     63  C   UNL A   1      47.261  27.276  34.317  1.00  0.00     0.002 A 
ATOM     64  C   UNL A   1      45.856  25.597  35.361  1.00  0.00     0.091 A 
ATOM     65  F   UNL A   1      43.521  25.564  34.871  1.00  0.00    -0.205 F 
ATOM     66  C   UNL A   1      47.121  26.166  35.148  1.00  0.00     0.022 A 
BRANCH  64  67
ATOM     67  S   UNL A   1      45.742  24.221  36.511  1.00  0.00     0.127 S 
ATOM     68  O   UNL A   1      44.792  24.732  37.497  1.00  0.00    -0.237 OA
ATOM     69  O   UNL A   1      45.225  23.145  35.665  1.00  0.00    -0.237 OA
ATOM     70  O   UNL A   1      47.099  24.002  36.994  1.00  0.00    -0.744 OA
ENDBRANCH  64  67
ENDBRANCH  37  60
ENDBRANCH  11  12
ENDBRANCH   4   6
ENDBRANCH   1   2
BRANCH   1  71
ATOM     71  C   UNL A   1      31.614  29.519  26.939  1.00  0.00     0.042 C 
BRANCH  71  72
ATOM     72  C   UNL A   1      32.231  28.261  27.502  1.00  0.00     0.117 C 
BRANCH  72  73
ATOM     73  N   UNL A   1      31.500  27.041  27.176  1.00  0.00    -0.356 N 
ATOM     74  C   UNL A   1      31.791  25.889  26.521  1.00  0.00     0.229 C 
ATOM     75  H   UNL A   1      30.575  27.059  27.511  1.00  0.00     0.163 HD
ATOM     76  O   UNL A   1      30.893  25.032  26.546  1.00  0.00    -0.275 OA
BRANCH  74  77
ATOM     77  C   UNL A   1      33.114  25.513  25.834  1.00  0.00     0.145 C 
ATOM     78  C   UNL A   1      33.153  26.106  24.435  1.00  0.00     0.276 C 
ATOM     79  C   UNL A   1      33.537  24.050  25.617  1.00  0.00     0.041 C 
ATOM     80  N   UNL A   1      32.617  25.062  23.584  1.00  0.00    -0.327 N 
ATOM     81  C   UNL A   1      32.953  23.755  24.187  1.00  0.00     0.270 C 
ATOM     82  C   UNL A   1      35.094  23.913  25.516  1.00  0.00     0.042 C 
ATOM     83  C   UNL A   1      33.184  23.201  26.858  1.00  0.00     0.042 C 
ATOM     84  H   UNL A   1      33.089  25.120  22.682  1.00  0.00     0.348 HD
ATOM     85  C   UNL A   1      35.529  22.441  25.495  1.00  0.00     0.161 C 
ATOM     86  C   UNL A   1      33.647  21.764  26.756  1.00  0.00     0.161 C 
ATOM     87  O   UNL A   1      35.063  21.735  26.639  1.00  0.00    -0.381 OA
BRANCH  80  88
ATOM     88  C   UNL A   1      31.320  25.255  22.908  1.00  0.00     0.338 C 
BRANCH  88  89
ATOM     89  C   UNL A   1      30.614  26.593  22.987  1.00  0.00     0.157 A 
ATOM     90  C   UNL A   1      29.754  27.208  23.883  1.00  0.00     0.052 A 
ATOM     91  O   UNL A   1      30.902  27.493  21.990  1.00  0.00    -0.463 OA
ATOM     92  C   UNL A   1      29.365  28.446  23.311  1.00  0.00     0.042 A 
ATOM     93  C   UNL A   1      30.105  28.579  22.164  1.00  0.00     0.195 A 
ENDBRANCH  88  89
ENDBRANCH  80  88
ENDBRANCH  74  77
ENDBRANCH  72  73
ENDBRANCH  71  72
ENDBRANCH   1  71
TORSDOF 15
ENDMDL
