MODEL 1
REMARK VINA RESULT:     -11.5      0.000      0.000
REMARK SMILES CC(=O)NCCc1c[nH]c2ccc(C(=O)NCCCNC(=O)c3ccc(-c4c5nc(c(-c6cccc(S(=O)(=O)[O-])c6F)c6ccc([nH]6)c(-c6cccc(S(=O)(=O)[O-])c6F)c6nc(c(-c7cccc(S(=O)(=O)[O-])c7F)c7ccc4[nH]7)C=C6)C=C5)cc3)cc12
REMARK SMILES IDX 18 1 17 2 16 3 14 4 15 5 13 7 7 8 8 9 87 10 9 11 10 12 86 13
REMARK SMILES IDX 11 15 12 16 6 17 5 18 4 19 1 20 2 21 3 22 19 24 20 25 21 26
REMARK SMILES IDX 22 28 23 29 24 30 85 31 25 32 84 33 26 34 27 35 28 36 78 37
REMARK SMILES IDX 29 38 83 39 77 40 79 41 30 42 82 43 76 44 75 45 31 47 63 48
REMARK SMILES IDX 43 49 62 50 44 51 47 52 61 53 80 54 45 55 46 56 60 58 81 59
REMARK SMILES IDX 48 60 32 61 33 62 41 63 34 64 36 65 42 66 35 67 37 68 38 69
REMARK SMILES IDX 39 70 40 71 64 72 65 73 73 74 66 75 68 76 74 77 67 78 69 79
REMARK SMILES IDX 70 80 71 81 72 82 49 83 50 84 58 85 51 86 53 87 59 88 52 89
REMARK SMILES IDX 54 90 55 91 56 92 57 93
REMARK H PARENT 16 6 9 14 4 23 20 27 79 46 47 57
REMARK Flexibility Score: inf
ROOT
ATOM      1  C   UNL A   1      33.190  28.002  25.445  1.00  0.00     0.042 C 
ENDROOT
BRANCH   1   2
ATOM      2  C   UNL A   1      33.205  26.494  25.202  1.00  0.00     0.118 C 
BRANCH   2   3
ATOM      3  N   UNL A   1      32.515  25.795  26.267  1.00  0.00    -0.352 N 
ATOM      4  C   UNL A   1      31.860  24.595  26.328  1.00  0.00     0.251 C 
ATOM      5  O   UNL A   1      31.339  24.301  27.405  1.00  0.00    -0.269 OA
ATOM      6  H   UNL A   1      32.517  26.285  27.122  1.00  0.00     0.163 HD
BRANCH   4   7
ATOM      7  C   UNL A   1      31.798  23.618  25.204  1.00  0.00     0.040 A 
ATOM      8  C   UNL A   1      32.576  19.921  24.518  1.00  0.00    -0.021 A 
ATOM      9  C   UNL A   1      32.405  19.472  23.222  1.00  0.00     0.087 A 
ATOM     10  C   UNL A   1      32.239  21.311  24.518  1.00  0.00     0.003 A 
ATOM     11  N   UNL A   1      31.954  20.517  22.459  1.00  0.00    -0.361 N 
ATOM     12  C   UNL A   1      31.824  21.647  23.233  1.00  0.00     0.046 A 
ATOM     13  C   UNL A   1      32.231  22.313  25.508  1.00  0.00     0.024 A 
ATOM     14  H   UNL A   1      31.753  20.468  21.497  1.00  0.00     0.166 HD
ATOM     15  C   UNL A   1      31.349  22.919  22.904  1.00  0.00     0.027 A 
ATOM     16  C   UNL A   1      31.318  23.886  23.921  1.00  0.00     0.016 A 
BRANCH   8  17
ATOM     17  C   UNL A   1      32.992  19.104  25.704  1.00  0.00     0.059 C 
BRANCH  17  18
ATOM     18  C   UNL A   1      32.556  17.639  25.622  1.00  0.00     0.120 C 
BRANCH  18  19
ATOM     19  N   UNL A   1      33.647  16.704  25.849  1.00  0.00    -0.356 N 
ATOM     20  C   UNL A   1      34.240  16.383  23.482  1.00  0.00     0.114 C 
ATOM     21  C   UNL A   1      34.462  16.099  24.941  1.00  0.00     0.216 C 
ATOM     22  O   UNL A   1      35.367  15.361  25.326  1.00  0.00    -0.275 OA
ATOM     23  H   UNL A   1      33.821  16.478  26.792  1.00  0.00     0.163 HD
ENDBRANCH  18  19
ENDBRANCH  17  18
ENDBRANCH   8  17
ENDBRANCH   4   7
ENDBRANCH   2   3
ENDBRANCH   1   2
BRANCH   1  24
ATOM     24  C   UNL A   1      33.800  28.397  26.789  1.00  0.00     0.118 C 
BRANCH  24  25
ATOM     25  N   UNL A   1      33.773  29.841  26.988  1.00  0.00    -0.352 N 
ATOM     26  C   UNL A   1      34.617  30.647  27.708  1.00  0.00     0.251 C 
ATOM     27  H   UNL A   1      33.035  30.309  26.535  1.00  0.00     0.163 HD
ATOM     28  O   UNL A   1      34.275  31.799  27.961  1.00  0.00    -0.269 OA
BRANCH  26  29
ATOM     29  C   UNL A   1      35.926  30.143  28.179  1.00  0.00     0.039 A 
ATOM     30  C   UNL A   1      36.004  29.542  29.439  1.00  0.00     0.014 A 
ATOM     31  C   UNL A   1      37.084  30.317  27.416  1.00  0.00     0.014 A 
ATOM     32  C   UNL A   1      37.234  29.082  29.916  1.00  0.00     0.010 A 
ATOM     33  C   UNL A   1      38.296  29.793  27.861  1.00  0.00     0.010 A 
ATOM     34  C   UNL A   1      38.387  29.186  29.122  1.00  0.00    -0.014 A 
BRANCH  34  35
ATOM     35  C   UNL A   1      39.699  28.674  29.597  1.00  0.00     0.031 A 
ATOM     36  C   UNL A   1      40.437  29.383  30.701  1.00  0.00     0.074 A 
ATOM     37  C   UNL A   1      40.261  27.618  28.977  1.00  0.00     0.049 A 
ATOM     38  N   UNL A   1      41.613  29.120  31.209  1.00  0.00    -0.248 NA
ATOM     39  C   UNL A   1      39.780  30.562  31.294  1.00  0.00     0.031 C 
ATOM     40  C   UNL A   1      39.681  26.895  27.844  1.00  0.00     0.029 A 
ATOM     41  N   UNL A   1      41.460  26.986  29.194  1.00  0.00    -0.354 N 
ATOM     42  C   UNL A   1      41.854  30.116  32.148  1.00  0.00     0.074 A 
ATOM     43  C   UNL A   1      40.717  31.010  32.117  1.00  0.00     0.031 C 
ATOM     44  C   UNL A   1      40.521  25.919  27.467  1.00  0.00     0.029 A 
ATOM     45  C   UNL A   1      41.710  25.960  28.312  1.00  0.00     0.049 A 
ATOM     46  H   UNL A   1      42.081  27.242  29.914  1.00  0.00     0.167 HD
ATOM     47  C   UNL A   1      42.911  30.260  32.982  1.00  0.00     0.034 A 
ATOM     48  C   UNL A   1      42.779  25.149  28.194  1.00  0.00     0.034 A 
ATOM     49  C   UNL A   1      44.016  29.341  33.043  1.00  0.00     0.049 A 
ATOM     50  C   UNL A   1      43.915  25.294  29.171  1.00  0.00     0.074 A 
ATOM     51  C   UNL A   1      45.094  29.346  33.911  1.00  0.00     0.029 A 
ATOM     52  N   UNL A   1      44.188  28.254  32.200  1.00  0.00    -0.354 N 
ATOM     53  N   UNL A   1      44.051  26.147  30.158  1.00  0.00    -0.248 NA
ATOM     54  C   UNL A   1      45.027  24.342  29.044  1.00  0.00     0.031 C 
ATOM     55  C   UNL A   1      45.925  28.270  33.581  1.00  0.00     0.029 A 
ATOM     56  C   UNL A   1      45.353  27.582  32.523  1.00  0.00     0.049 A 
ATOM     57  H   UNL A   1      43.570  27.997  31.477  1.00  0.00     0.167 HD
ATOM     58  C   UNL A   1      45.240  25.809  30.793  1.00  0.00     0.074 A 
ATOM     59  C   UNL A   1      45.776  24.661  30.091  1.00  0.00     0.031 C 
ATOM     60  C   UNL A   1      45.843  26.405  31.852  1.00  0.00     0.034 A 
BRANCH  47  61
ATOM     61  C   UNL A   1      42.896  31.423  33.941  1.00  0.00     0.023 A 
ATOM     62  C   UNL A   1      43.475  32.648  33.555  1.00  0.00     0.012 A 
ATOM     63  C   UNL A   1      42.262  31.325  35.195  1.00  0.00     0.148 A 
ATOM     64  C   UNL A   1      43.458  33.747  34.414  1.00  0.00     0.002 A 
ATOM     65  C   UNL A   1      42.209  32.438  36.029  1.00  0.00     0.091 A 
ATOM     66  F   UNL A   1      41.732  30.147  35.557  1.00  0.00    -0.205 F 
ATOM     67  C   UNL A   1      42.818  33.644  35.646  1.00  0.00     0.022 A 
BRANCH  65  68
ATOM     68  S   UNL A   1      41.337  32.433  37.599  1.00  0.00     0.127 S 
ATOM     69  O   UNL A   1      41.275  33.861  37.907  1.00  0.00    -0.237 OA
ATOM     70  O   UNL A   1      40.053  31.831  37.238  1.00  0.00    -0.237 OA
ATOM     71  O   UNL A   1      42.147  31.632  38.507  1.00  0.00    -0.744 OA
ENDBRANCH  65  68
ENDBRANCH  47  61
BRANCH  48  72
ATOM     72  C   UNL A   1      42.787  24.074  27.162  1.00  0.00     0.023 A 
ATOM     73  C   UNL A   1      43.470  24.290  25.948  1.00  0.00     0.012 A 
ATOM     74  C   UNL A   1      42.155  22.835  27.382  1.00  0.00     0.148 A 
ATOM     75  C   UNL A   1      43.496  23.306  24.960  1.00  0.00     0.002 A 
ATOM     76  C   UNL A   1      42.231  21.838  26.416  1.00  0.00     0.091 A 
ATOM     77  F   UNL A   1      41.501  22.652  28.538  1.00  0.00    -0.205 F 
ATOM     78  C   UNL A   1      42.885  22.078  25.197  1.00  0.00     0.022 A 
BRANCH  76  79
ATOM     79  S   UNL A   1      41.591  20.182  26.690  1.00  0.00     0.127 S 
ATOM     80  O   UNL A   1      40.178  20.444  26.945  1.00  0.00    -0.237 OA
ATOM     81  O   UNL A   1      41.877  19.530  25.412  1.00  0.00    -0.237 OA
ATOM     82  O   UNL A   1      42.352  19.650  27.814  1.00  0.00    -0.744 OA
ENDBRANCH  76  79
ENDBRANCH  48  72
BRANCH  60  83
ATOM     83  C   UNL A   1      47.132  25.805  32.349  1.00  0.00     0.023 A 
ATOM     84  C   UNL A   1      48.354  26.185  31.762  1.00  0.00     0.012 A 
ATOM     85  C   UNL A   1      47.135  24.919  33.445  1.00  0.00     0.148 A 
ATOM     86  C   UNL A   1      49.559  25.667  32.236  1.00  0.00     0.002 A 
ATOM     87  C   UNL A   1      48.343  24.444  33.942  1.00  0.00     0.091 A 
ATOM     88  F   UNL A   1      45.960  24.552  33.975  1.00  0.00    -0.205 F 
ATOM     89  C   UNL A   1      49.555  24.808  33.332  1.00  0.00     0.022 A 
BRANCH  87  90
ATOM     90  S   UNL A   1      48.436  23.411  35.409  1.00  0.00     0.127 S 
ATOM     91  O   UNL A   1      47.767  24.246  36.405  1.00  0.00    -0.237 OA
ATOM     92  O   UNL A   1      47.682  22.224  35.004  1.00  0.00    -0.237 OA
ATOM     93  O   UNL A   1      49.854  23.173  35.641  1.00  0.00    -0.744 OA
ENDBRANCH  87  90
ENDBRANCH  60  83
ENDBRANCH  34  35
ENDBRANCH  26  29
ENDBRANCH  24  25
ENDBRANCH   1  24
TORSDOF 16
ENDMDL
MODEL 2
REMARK VINA RESULT:     -11.5      1.869      2.492
REMARK SMILES CC(=O)NCCc1c[nH]c2ccc(C(=O)NCCCNC(=O)c3ccc(-c4c5nc(c(-c6cccc(S(=O)(=O)[O-])c6F)c6ccc([nH]6)c(-c6cccc(S(=O)(=O)[O-])c6F)c6nc(c(-c7cccc(S(=O)(=O)[O-])c7F)c7ccc4[nH]7)C=C6)C=C5)cc3)cc12
REMARK SMILES IDX 18 1 17 2 16 3 14 4 15 5 13 7 7 8 8 9 87 10 9 11 10 12 86 13
REMARK SMILES IDX 11 15 12 16 6 17 5 18 4 19 1 20 2 21 3 22 19 24 20 25 21 26
REMARK SMILES IDX 22 28 23 29 24 30 85 31 25 32 84 33 26 34 27 35 28 36 78 37
REMARK SMILES IDX 29 38 83 39 77 40 79 41 30 42 82 43 76 44 75 45 31 47 63 48
REMARK SMILES IDX 43 49 62 50 44 51 47 52 61 53 80 54 45 55 46 56 60 58 81 59
REMARK SMILES IDX 48 60 32 61 33 62 41 63 34 64 36 65 42 66 35 67 37 68 38 69
REMARK SMILES IDX 39 70 40 71 64 72 65 73 73 74 66 75 68 76 74 77 67 78 69 79
REMARK SMILES IDX 70 80 71 81 72 82 49 83 50 84 58 85 51 86 53 87 59 88 52 89
REMARK SMILES IDX 54 90 55 91 56 92 57 93
REMARK H PARENT 16 6 9 14 4 23 20 27 79 46 47 57
REMARK Flexibility Score: inf
ROOT
ATOM      1  C   UNL A   1      33.291  27.873  26.907  1.00  0.00     0.042 C 
ENDROOT
BRANCH   1   2
ATOM      2  C   UNL A   1      31.822  28.219  27.143  1.00  0.00     0.118 C 
BRANCH   2   3
ATOM      3  N   UNL A   1      31.011  27.019  27.174  1.00  0.00    -0.352 N 
ATOM      4  C   UNL A   1      30.510  26.204  26.195  1.00  0.00     0.251 C 
ATOM      5  O   UNL A   1      29.810  25.260  26.565  1.00  0.00    -0.269 OA
ATOM      6  H   UNL A   1      30.771  26.732  28.085  1.00  0.00     0.163 HD
BRANCH   4   7
ATOM      7  C   UNL A   1      30.809  26.358  24.743  1.00  0.00     0.040 A 
ATOM      8  C   UNL A   1      32.758  24.557  21.969  1.00  0.00    -0.021 A 
ATOM      9  C   UNL A   1      32.792  25.165  20.727  1.00  0.00     0.087 A 
ATOM     10  C   UNL A   1      31.994  25.413  22.823  1.00  0.00     0.003 A 
ATOM     11  N   UNL A   1      32.061  26.322  20.793  1.00  0.00    -0.361 N 
ATOM     12  C   UNL A   1      31.544  26.485  22.058  1.00  0.00     0.046 A 
ATOM     13  C   UNL A   1      31.625  25.359  24.181  1.00  0.00     0.024 A 
ATOM     14  H   UNL A   1      31.925  26.947  20.046  1.00  0.00     0.166 HD
ATOM     15  C   UNL A   1      30.700  27.473  22.570  1.00  0.00     0.027 A 
ATOM     16  C   UNL A   1      30.320  27.372  23.917  1.00  0.00     0.016 A 
BRANCH   8  17
ATOM     17  C   UNL A   1      33.367  23.239  22.340  1.00  0.00     0.059 C 
BRANCH  17  18
ATOM     18  C   UNL A   1      34.702  23.367  23.077  1.00  0.00     0.120 C 
BRANCH  18  19
ATOM     19  N   UNL A   1      34.871  22.379  24.131  1.00  0.00    -0.356 N 
ATOM     20  C   UNL A   1      34.455  23.906  26.016  1.00  0.00     0.114 C 
ATOM     21  C   UNL A   1      34.767  22.537  25.480  1.00  0.00     0.216 C 
ATOM     22  O   UNL A   1      34.904  21.567  26.222  1.00  0.00    -0.275 OA
ATOM     23  H   UNL A   1      35.089  21.469  23.826  1.00  0.00     0.163 HD
ENDBRANCH  18  19
ENDBRANCH  17  18
ENDBRANCH   8  17
ENDBRANCH   4   7
ENDBRANCH   2   3
ENDBRANCH   1   2
BRANCH   1  24
ATOM     24  C   UNL A   1      34.036  28.938  26.104  1.00  0.00     0.118 C 
BRANCH  24  25
ATOM     25  N   UNL A   1      33.846  30.268  26.669  1.00  0.00    -0.352 N 
ATOM     26  C   UNL A   1      34.523  30.900  27.680  1.00  0.00     0.251 C 
ATOM     27  H   UNL A   1      33.119  30.792  26.262  1.00  0.00     0.163 HD
ATOM     28  O   UNL A   1      34.045  31.916  28.179  1.00  0.00    -0.269 OA
BRANCH  26  29
ATOM     29  C   UNL A   1      35.817  30.374  28.169  1.00  0.00     0.039 A 
ATOM     30  C   UNL A   1      36.957  30.547  27.378  1.00  0.00     0.014 A 
ATOM     31  C   UNL A   1      35.900  29.660  29.368  1.00  0.00     0.014 A 
ATOM     32  C   UNL A   1      38.185  30.036  27.807  1.00  0.00     0.010 A 
ATOM     33  C   UNL A   1      37.138  29.215  29.828  1.00  0.00     0.010 A 
ATOM     34  C   UNL A   1      38.289  29.384  29.046  1.00  0.00    -0.014 A 
BRANCH  34  35
ATOM     35  C   UNL A   1      39.592  28.863  29.535  1.00  0.00     0.031 A 
ATOM     36  C   UNL A   1      40.317  29.562  30.655  1.00  0.00     0.074 A 
ATOM     37  C   UNL A   1      40.160  27.810  28.915  1.00  0.00     0.049 A 
ATOM     38  N   UNL A   1      41.485  29.290  31.178  1.00  0.00    -0.248 NA
ATOM     39  C   UNL A   1      39.655  30.737  31.248  1.00  0.00     0.031 C 
ATOM     40  C   UNL A   1      39.593  27.097  27.769  1.00  0.00     0.029 A 
ATOM     41  N   UNL A   1      41.353  27.172  29.145  1.00  0.00    -0.354 N 
ATOM     42  C   UNL A   1      41.715  30.278  32.128  1.00  0.00     0.074 A 
ATOM     43  C   UNL A   1      40.582  31.176  32.088  1.00  0.00     0.031 C 
ATOM     44  C   UNL A   1      40.435  26.121  27.396  1.00  0.00     0.029 A 
ATOM     45  C   UNL A   1      41.613  26.152  28.259  1.00  0.00     0.049 A 
ATOM     46  H   UNL A   1      41.965  27.420  29.875  1.00  0.00     0.167 HD
ATOM     47  C   UNL A   1      42.761  30.411  32.979  1.00  0.00     0.034 A 
ATOM     48  C   UNL A   1      42.680  25.338  28.150  1.00  0.00     0.034 A 
ATOM     49  C   UNL A   1      43.862  29.488  33.048  1.00  0.00     0.049 A 
ATOM     50  C   UNL A   1      43.803  25.472  29.144  1.00  0.00     0.074 A 
ATOM     51  C   UNL A   1      44.927  29.483  33.932  1.00  0.00     0.029 A 
ATOM     52  N   UNL A   1      44.042  28.407  32.199  1.00  0.00    -0.354 N 
ATOM     53  N   UNL A   1      43.927  26.317  30.139  1.00  0.00    -0.248 NA
ATOM     54  C   UNL A   1      44.913  24.516  29.026  1.00  0.00     0.031 C 
ATOM     55  C   UNL A   1      45.760  28.406  33.606  1.00  0.00     0.029 A 
ATOM     56  C   UNL A   1      45.200  27.728  32.534  1.00  0.00     0.049 A 
ATOM     57  H   UNL A   1      43.434  28.159  31.465  1.00  0.00     0.167 HD
ATOM     58  C   UNL A   1      45.106  25.970  30.789  1.00  0.00     0.074 A 
ATOM     59  C   UNL A   1      45.648  24.825  30.086  1.00  0.00     0.031 C 
ATOM     60  C   UNL A   1      45.695  26.555  31.861  1.00  0.00     0.034 A 
BRANCH  47  61
ATOM     61  C   UNL A   1      42.736  31.567  33.946  1.00  0.00     0.023 A 
ATOM     62  C   UNL A   1      43.187  32.834  33.525  1.00  0.00     0.012 A 
ATOM     63  C   UNL A   1      42.216  31.418  35.247  1.00  0.00     0.148 A 
ATOM     64  C   UNL A   1      43.157  33.926  34.393  1.00  0.00     0.002 A 
ATOM     65  C   UNL A   1      42.147  32.521  36.092  1.00  0.00     0.091 A 
ATOM     66  F   UNL A   1      41.808  30.202  35.639  1.00  0.00    -0.205 F 
ATOM     67  C   UNL A   1      42.629  33.771  35.672  1.00  0.00     0.022 A 
BRANCH  65  68
ATOM     68  S   UNL A   1      41.409  32.445  37.728  1.00  0.00     0.127 S 
ATOM     69  O   UNL A   1      40.046  32.015  37.418  1.00  0.00    -0.237 OA
ATOM     70  O   UNL A   1      42.231  31.432  38.391  1.00  0.00    -0.237 OA
ATOM     71  O   UNL A   1      41.531  33.784  38.287  1.00  0.00    -0.744 OA
ENDBRANCH  65  68
ENDBRANCH  47  61
BRANCH  48  72
ATOM     72  C   UNL A   1      42.700  24.271  27.109  1.00  0.00     0.023 A 
ATOM     73  C   UNL A   1      43.414  24.488  25.914  1.00  0.00     0.012 A 
ATOM     74  C   UNL A   1      42.047  23.039  27.305  1.00  0.00     0.148 A 
ATOM     75  C   UNL A   1      43.451  23.511  24.919  1.00  0.00     0.002 A 
ATOM     76  C   UNL A   1      42.134  22.048  26.332  1.00  0.00     0.091 A 
ATOM     77  F   UNL A   1      41.363  22.856  28.443  1.00  0.00    -0.205 F 
ATOM     78  C   UNL A   1      42.820  22.289  25.132  1.00  0.00     0.022 A 
BRANCH  76  79
ATOM     79  S   UNL A   1      41.467  20.398  26.579  1.00  0.00     0.127 S 
ATOM     80  O   UNL A   1      42.032  20.036  27.874  1.00  0.00    -0.237 OA
ATOM     81  O   UNL A   1      40.025  20.652  26.584  1.00  0.00    -0.237 OA
ATOM     82  O   UNL A   1      41.930  19.615  25.441  1.00  0.00    -0.744 OA
ENDBRANCH  76  79
ENDBRANCH  48  72
BRANCH  60  83
ATOM     83  C   UNL A   1      46.975  25.947  32.372  1.00  0.00     0.023 A 
ATOM     84  C   UNL A   1      48.213  26.396  31.873  1.00  0.00     0.012 A 
ATOM     85  C   UNL A   1      46.951  24.980  33.397  1.00  0.00     0.148 A 
ATOM     86  C   UNL A   1      49.407  25.869  32.363  1.00  0.00     0.002 A 
ATOM     87  C   UNL A   1      48.146  24.495  33.914  1.00  0.00     0.091 A 
ATOM     88  F   UNL A   1      45.762  24.550  33.843  1.00  0.00    -0.205 F 
ATOM     89  C   UNL A   1      49.375  24.930  33.391  1.00  0.00     0.022 A 
BRANCH  87  90
ATOM     90  S   UNL A   1      48.198  23.356  35.302  1.00  0.00     0.127 S 
ATOM     91  O   UNL A   1      47.487  24.110  36.333  1.00  0.00    -0.237 OA
ATOM     92  O   UNL A   1      47.471  22.197  34.783  1.00  0.00    -0.237 OA
ATOM     93  O   UNL A   1      49.609  23.111  35.566  1.00  0.00    -0.744 OA
ENDBRANCH  87  90
ENDBRANCH  60  83
ENDBRANCH  34  35
ENDBRANCH  26  29
ENDBRANCH  24  25
ENDBRANCH   1  24
TORSDOF 16
ENDMDL
MODEL 3
REMARK VINA RESULT:     -11.4      1.339      1.676
REMARK SMILES CC(=O)NCCc1c[nH]c2ccc(C(=O)NCCCNC(=O)c3ccc(-c4c5nc(c(-c6cccc(S(=O)(=O)[O-])c6F)c6ccc([nH]6)c(-c6cccc(S(=O)(=O)[O-])c6F)c6nc(c(-c7cccc(S(=O)(=O)[O-])c7F)c7ccc4[nH]7)C=C6)C=C5)cc3)cc12
REMARK SMILES IDX 18 1 17 2 16 3 14 4 15 5 13 7 7 8 8 9 87 10 9 11 10 12 86 13
REMARK SMILES IDX 11 15 12 16 6 17 5 18 4 19 1 20 2 21 3 22 19 24 20 25 21 26
REMARK SMILES IDX 22 28 23 29 24 30 85 31 25 32 84 33 26 34 27 35 28 36 78 37
REMARK SMILES IDX 29 38 83 39 77 40 79 41 30 42 82 43 76 44 75 45 31 47 63 48
REMARK SMILES IDX 43 49 62 50 44 51 47 52 61 53 80 54 45 55 46 56 60 58 81 59
REMARK SMILES IDX 48 60 32 61 33 62 41 63 34 64 36 65 42 66 35 67 37 68 38 69
REMARK SMILES IDX 39 70 40 71 64 72 65 73 73 74 66 75 68 76 74 77 67 78 69 79
REMARK SMILES IDX 70 80 71 81 72 82 49 83 50 84 58 85 51 86 53 87 59 88 52 89
REMARK SMILES IDX 54 90 55 91 56 92 57 93
REMARK H PARENT 16 6 9 14 4 23 20 27 79 46 47 57
REMARK Flexibility Score: inf
ROOT
ATOM      1  C   UNL A   1      33.469  27.909  25.420  1.00  0.00     0.042 C 
ENDROOT
BRANCH   1   2
ATOM      2  C   UNL A   1      33.529  26.390  25.269  1.00  0.00     0.118 C 
BRANCH   2   3
ATOM      3  N   UNL A   1      32.755  25.740  26.308  1.00  0.00    -0.352 N 
ATOM      4  C   UNL A   1      32.020  24.586  26.342  1.00  0.00     0.251 C 
ATOM      5  O   UNL A   1      31.441  24.329  27.399  1.00  0.00    -0.269 OA
ATOM      6  H   UNL A   1      32.758  26.229  27.162  1.00  0.00     0.163 HD
BRANCH   4   7
ATOM      7  C   UNL A   1      31.935  23.614  25.215  1.00  0.00     0.040 A 
ATOM      8  C   UNL A   1      32.578  19.891  24.531  1.00  0.00    -0.021 A 
ATOM      9  C   UNL A   1      32.407  19.451  23.232  1.00  0.00     0.087 A 
ATOM     10  C   UNL A   1      32.295  21.293  24.530  1.00  0.00     0.003 A 
ATOM     11  N   UNL A   1      32.008  20.515  22.466  1.00  0.00    -0.361 N 
ATOM     12  C   UNL A   1      31.911  21.647  23.240  1.00  0.00     0.046 A 
ATOM     13  C   UNL A   1      32.313  22.293  25.522  1.00  0.00     0.024 A 
ATOM     14  H   UNL A   1      31.818  20.475  21.501  1.00  0.00     0.166 HD
ATOM     15  C   UNL A   1      31.491  22.938  22.908  1.00  0.00     0.027 A 
ATOM     16  C   UNL A   1      31.483  23.903  23.927  1.00  0.00     0.016 A 
BRANCH   8  17
ATOM     17  C   UNL A   1      32.946  19.056  25.720  1.00  0.00     0.059 C 
BRANCH  17  18
ATOM     18  C   UNL A   1      32.519  17.592  25.597  1.00  0.00     0.120 C 
BRANCH  18  19
ATOM     19  N   UNL A   1      33.613  16.657  25.811  1.00  0.00    -0.356 N 
ATOM     20  C   UNL A   1      34.182  16.341  23.438  1.00  0.00     0.114 C 
ATOM     21  C   UNL A   1      34.419  16.054  24.893  1.00  0.00     0.216 C 
ATOM     22  O   UNL A   1      35.328  15.316  25.268  1.00  0.00    -0.275 OA
ATOM     23  H   UNL A   1      33.796  16.429  26.752  1.00  0.00     0.163 HD
ENDBRANCH  18  19
ENDBRANCH  17  18
ENDBRANCH   8  17
ENDBRANCH   4   7
ENDBRANCH   2   3
ENDBRANCH   1   2
BRANCH   1  24
ATOM     24  C   UNL A   1      33.605  28.372  26.870  1.00  0.00     0.118 C 
BRANCH  24  25
ATOM     25  N   UNL A   1      33.596  29.825  26.973  1.00  0.00    -0.352 N 
ATOM     26  C   UNL A   1      34.463  30.668  27.620  1.00  0.00     0.251 C 
ATOM     27  H   UNL A   1      32.851  30.271  26.507  1.00  0.00     0.163 HD
ATOM     28  O   UNL A   1      34.138  31.839  27.803  1.00  0.00    -0.269 OA
BRANCH  26  29
ATOM     29  C   UNL A   1      35.778  30.183  28.093  1.00  0.00     0.039 A 
ATOM     30  C   UNL A   1      35.879  29.662  29.387  1.00  0.00     0.014 A 
ATOM     31  C   UNL A   1      36.921  30.298  27.296  1.00  0.00     0.014 A 
ATOM     32  C   UNL A   1      37.116  29.222  29.865  1.00  0.00     0.010 A 
ATOM     33  C   UNL A   1      38.138  29.792  27.748  1.00  0.00     0.010 A 
ATOM     34  C   UNL A   1      38.252  29.264  29.042  1.00  0.00    -0.014 A 
BRANCH  34  35
ATOM     35  C   UNL A   1      39.569  28.770  29.520  1.00  0.00     0.031 A 
ATOM     36  C   UNL A   1      40.292  29.487  30.630  1.00  0.00     0.074 A 
ATOM     37  C   UNL A   1      40.151  27.726  28.898  1.00  0.00     0.049 A 
ATOM     38  N   UNL A   1      41.470  29.240  31.142  1.00  0.00    -0.248 NA
ATOM     39  C   UNL A   1      39.614  30.652  31.225  1.00  0.00     0.031 C 
ATOM     40  C   UNL A   1      39.587  26.999  27.759  1.00  0.00     0.029 A 
ATOM     41  N   UNL A   1      41.358  27.112  29.117  1.00  0.00    -0.354 N 
ATOM     42  C   UNL A   1      41.691  30.235  32.087  1.00  0.00     0.074 A 
ATOM     43  C   UNL A   1      40.540  31.111  32.055  1.00  0.00     0.031 C 
ATOM     44  C   UNL A   1      40.443  26.038  27.382  1.00  0.00     0.029 A 
ATOM     45  C   UNL A   1      41.628  26.095  28.232  1.00  0.00     0.049 A 
ATOM     46  H   UNL A   1      41.973  27.375  29.841  1.00  0.00     0.167 HD
ATOM     47  C   UNL A   1      42.743  30.391  32.926  1.00  0.00     0.034 A 
ATOM     48  C   UNL A   1      42.710  25.301  28.115  1.00  0.00     0.034 A 
ATOM     49  C   UNL A   1      43.862  29.490  32.987  1.00  0.00     0.049 A 
ATOM     50  C   UNL A   1      43.840  25.460  29.097  1.00  0.00     0.074 A 
ATOM     51  C   UNL A   1      44.936  29.508  33.860  1.00  0.00     0.029 A 
ATOM     52  N   UNL A   1      44.054  28.409  32.140  1.00  0.00    -0.354 N 
ATOM     53  N   UNL A   1      43.959  26.310  30.088  1.00  0.00    -0.248 NA
ATOM     54  C   UNL A   1      44.967  24.525  28.971  1.00  0.00     0.031 C 
ATOM     55  C   UNL A   1      45.785  28.447  33.529  1.00  0.00     0.029 A 
ATOM     56  C   UNL A   1      45.228  27.754  32.465  1.00  0.00     0.049 A 
ATOM     57  H   UNL A   1      43.443  28.147  31.413  1.00  0.00     0.167 HD
ATOM     58  C   UNL A   1      45.150  25.988  30.727  1.00  0.00     0.074 A 
ATOM     59  C   UNL A   1      45.707  24.851  30.022  1.00  0.00     0.031 C 
ATOM     60  C   UNL A   1      45.739  26.588  31.790  1.00  0.00     0.034 A 
BRANCH  47  61
ATOM     61  C   UNL A   1      42.705  31.550  33.890  1.00  0.00     0.023 A 
ATOM     62  C   UNL A   1      43.168  32.814  33.473  1.00  0.00     0.012 A 
ATOM     63  C   UNL A   1      42.162  31.406  35.182  1.00  0.00     0.148 A 
ATOM     64  C   UNL A   1      43.128  33.908  34.338  1.00  0.00     0.002 A 
ATOM     65  C   UNL A   1      42.083  32.512  36.023  1.00  0.00     0.091 A 
ATOM     66  F   UNL A   1      41.743  30.193  35.570  1.00  0.00    -0.205 F 
ATOM     67  C   UNL A   1      42.577  33.759  35.607  1.00  0.00     0.022 A 
BRANCH  65  68
ATOM     68  S   UNL A   1      41.316  32.443  37.646  1.00  0.00     0.127 S 
ATOM     69  O   UNL A   1      39.983  31.936  37.322  1.00  0.00    -0.237 OA
ATOM     70  O   UNL A   1      42.174  31.492  38.353  1.00  0.00    -0.237 OA
ATOM     71  O   UNL A   1      41.359  33.801  38.169  1.00  0.00    -0.744 OA
ENDBRANCH  65  68
ENDBRANCH  47  61
BRANCH  48  72
ATOM     72  C   UNL A   1      42.740  24.231  27.077  1.00  0.00     0.023 A 
ATOM     73  C   UNL A   1      43.449  24.452  25.880  1.00  0.00     0.012 A 
ATOM     74  C   UNL A   1      42.102  22.991  27.278  1.00  0.00     0.148 A 
ATOM     75  C   UNL A   1      43.494  23.473  24.888  1.00  0.00     0.002 A 
ATOM     76  C   UNL A   1      42.198  21.999  26.309  1.00  0.00     0.091 A 
ATOM     77  F   UNL A   1      41.424  22.804  28.419  1.00  0.00    -0.205 F 
ATOM     78  C   UNL A   1      42.878  22.244  25.106  1.00  0.00     0.022 A 
BRANCH  76  79
ATOM     79  S   UNL A   1      41.551  20.342  26.562  1.00  0.00     0.127 S 
ATOM     80  O   UNL A   1      42.177  19.605  25.469  1.00  0.00    -0.237 OA
ATOM     81  O   UNL A   1      42.061  20.018  27.896  1.00  0.00    -0.237 OA
ATOM     82  O   UNL A   1      40.102  20.473  26.493  1.00  0.00    -0.744 OA
ENDBRANCH  76  79
ENDBRANCH  48  72
BRANCH  60  83
ATOM     83  C   UNL A   1      47.035  26.006  32.291  1.00  0.00     0.023 A 
ATOM     84  C   UNL A   1      47.030  25.128  33.391  1.00  0.00     0.012 A 
ATOM     85  C   UNL A   1      48.247  26.275  31.624  1.00  0.00     0.148 A 
ATOM     86  C   UNL A   1      48.217  24.552  33.843  1.00  0.00     0.002 A 
ATOM     87  C   UNL A   1      49.418  25.660  32.050  1.00  0.00     0.091 A 
ATOM     88  F   UNL A   1      48.234  27.131  30.592  1.00  0.00    -0.205 F 
ATOM     89  C   UNL A   1      49.407  24.807  33.166  1.00  0.00     0.022 A 
BRANCH  87  90
ATOM     90  S   UNL A   1      50.976  25.856  31.178  1.00  0.00     0.127 S 
ATOM     91  O   UNL A   1      50.610  25.462  29.820  1.00  0.00    -0.237 OA
ATOM     92  O   UNL A   1      51.250  27.284  31.346  1.00  0.00    -0.237 OA
ATOM     93  O   UNL A   1      51.925  24.980  31.851  1.00  0.00    -0.744 OA
ENDBRANCH  87  90
ENDBRANCH  60  83
ENDBRANCH  34  35
ENDBRANCH  26  29
ENDBRANCH  24  25
ENDBRANCH   1  24
TORSDOF 16
ENDMDL
