MODEL 1
REMARK VINA RESULT:     -12.9      0.000      0.000
REMARK SMILES Cc1c(Cl)cccc1NC(=O)NCc1cn([C@@H]2C[NH2+][C@H](C(=O)NCCCNC(=O)c3ccc(-c4c5nc(c(-c6cccc(S(=O)(=O)[O-])c6F)c6ccc([nH]6)c(-c6cccc(S(=O)(=O)[O-])c6F)c6nc(c(-c7cccc(S(=O)(=O)[O-])c7F)c7ccc4[nH]7)C=C6)C=C5)cc3)C2)nn1
REMARK SMILES IDX 24 1 23 2 21 3 22 4 20 6 17 7 18 8 93 9 19 10 16 13 14 14
REMARK SMILES IDX 15 15 95 16 94 17 13 18 12 19 9 20 10 21 11 23 8 25 1 26
REMARK SMILES IDX 2 27 3 28 4 29 5 30 7 31 6 32 25 33 26 34 27 35 28 36 29 38
REMARK SMILES IDX 30 39 31 40 92 41 32 42 91 43 33 44 34 45 35 46 85 47 36 48
REMARK SMILES IDX 90 49 84 50 86 51 37 52 89 53 83 54 82 55 38 57 70 58 50 59
REMARK SMILES IDX 69 60 51 61 54 62 68 63 87 64 52 65 53 66 67 68 88 69 55 70
REMARK SMILES IDX 39 71 40 72 48 73 41 74 43 75 49 76 42 77 44 78 45 79 46 80
REMARK SMILES IDX 47 81 71 82 72 83 80 84 73 85 75 86 81 87 74 88 76 89 77 90
REMARK SMILES IDX 78 91 79 92 56 93 57 94 65 95 58 96 60 97 66 98 59 99 61 100
REMARK SMILES IDX 62 101 63 102 64 103
REMARK H PARENT 23 5 19 11 19 12 9 22 12 24 27 37 86 56 54 67
REMARK Flexibility Score: inf
ROOT
ATOM      1  C   UNL A   1      34.125  30.983  27.441  1.00  0.00     0.118 C 
ENDROOT
BRANCH   1   2
ATOM      2  N   UNL A   1      33.083  30.014  27.717  1.00  0.00    -0.351 N 
ATOM      3  C   UNL A   1      32.163  29.408  26.923  1.00  0.00     0.278 C 
ATOM      4  O   UNL A   1      31.461  28.546  27.464  1.00  0.00    -0.268 OA
ATOM      5  H   UNL A   1      33.031  29.745  28.663  1.00  0.00     0.163 HD
BRANCH   3   6
ATOM      6  C   UNL A   1      32.026  29.611  25.403  1.00  0.00     0.274 C 
ATOM      7  C   UNL A   1      31.849  28.142  23.476  1.00  0.00     0.170 C 
ATOM      8  C   UNL A   1      33.295  28.576  23.677  1.00  0.00     0.288 C 
ATOM      9  C   UNL A   1      31.185  28.489  24.805  1.00  0.00     0.109 C 
ATOM     10  N   UNL A   1      33.290  29.692  24.637  1.00  0.00    -0.334 N 
ATOM     11  H   UNL A   1      33.341  30.581  24.139  1.00  0.00     0.347 HD
ATOM     12  H   UNL A   1      34.094  29.633  25.262  1.00  0.00     0.347 HD
BRANCH   7  13
ATOM     13  N   UNL A   1      31.737  26.743  23.123  1.00  0.00    -0.243 N 
ATOM     14  C   UNL A   1      31.368  24.614  23.212  1.00  0.00     0.102 A 
ATOM     15  C   UNL A   1      30.938  25.821  23.715  1.00  0.00     0.137 A 
ATOM     16  N   UNL A   1      32.356  24.836  22.298  1.00  0.00    -0.134 NA
ATOM     17  N   UNL A   1      32.569  26.153  22.241  1.00  0.00    -0.067 NA
BRANCH  14  18
ATOM     18  C   UNL A   1      30.996  23.341  23.849  1.00  0.00     0.178 C 
BRANCH  18  19
ATOM     19  N   UNL A   1      30.435  23.333  25.155  1.00  0.00    -0.332 N 
ATOM     20  N   UNL A   1      32.244  22.634  26.590  1.00  0.00    -0.308 N 
ATOM     21  C   UNL A   1      31.018  23.152  26.351  1.00  0.00     0.319 C 
ATOM     22  H   UNL A   1      32.389  22.534  27.559  1.00  0.00     0.171 HD
ATOM     23  O   UNL A   1      30.326  23.398  27.348  1.00  0.00    -0.248 OA
ATOM     24  H   UNL A   1      29.462  23.485  25.189  1.00  0.00     0.165 HD
BRANCH  20  25
ATOM     25  C   UNL A   1      33.383  22.192  25.873  1.00  0.00     0.047 A 
ATOM     26  C   UNL A   1      34.238  24.609  25.662  1.00  0.00     0.048 C 
ATOM     27  C   UNL A   1      34.408  23.114  25.546  1.00  0.00    -0.009 A 
ATOM     28  C   UNL A   1      35.631  22.616  25.032  1.00  0.00     0.046 A 
ATOM     29  Cl  UNL A   1      36.951  23.664  24.629  1.00  0.00    -0.084 Cl
ATOM     30  C   UNL A   1      35.828  21.252  24.818  1.00  0.00     0.021 A 
ATOM     31  C   UNL A   1      33.534  20.873  25.432  1.00  0.00     0.026 A 
ATOM     32  C   UNL A   1      34.762  20.382  24.982  1.00  0.00     0.004 A 
ENDBRANCH  20  25
ENDBRANCH  18  19
ENDBRANCH  14  18
ENDBRANCH   7  13
ENDBRANCH   3   6
ENDBRANCH   1   2
BRANCH   1  33
ATOM     33  C   UNL A   1      33.709  32.423  27.742  1.00  0.00     0.042 C 
BRANCH  33  34
ATOM     34  C   UNL A   1      34.777  33.154  28.542  1.00  0.00     0.118 C 
BRANCH  34  35
ATOM     35  N   UNL A   1      34.602  32.980  29.992  1.00  0.00    -0.352 N 
ATOM     36  C   UNL A   1      35.266  32.120  30.842  1.00  0.00     0.251 C 
ATOM     37  H   UNL A   1      33.919  33.552  30.412  1.00  0.00     0.163 HD
ATOM     38  O   UNL A   1      34.815  31.873  31.960  1.00  0.00    -0.269 OA
BRANCH  36  39
ATOM     39  C   UNL A   1      36.521  31.505  30.386  1.00  0.00     0.039 A 
ATOM     40  C   UNL A   1      37.678  32.262  30.191  1.00  0.00     0.014 A 
ATOM     41  C   UNL A   1      36.535  30.121  30.227  1.00  0.00     0.014 A 
ATOM     42  C   UNL A   1      38.871  31.596  29.930  1.00  0.00     0.010 A 
ATOM     43  C   UNL A   1      37.733  29.462  30.157  1.00  0.00     0.010 A 
ATOM     44  C   UNL A   1      38.896  30.190  29.950  1.00  0.00    -0.014 A 
BRANCH  44  45
ATOM     45  C   UNL A   1      40.160  29.465  29.913  1.00  0.00     0.031 A 
ATOM     46  C   UNL A   1      40.728  29.204  31.261  1.00  0.00     0.074 A 
ATOM     47  C   UNL A   1      40.658  28.901  28.790  1.00  0.00     0.049 A 
ATOM     48  N   UNL A   1      41.749  29.790  31.795  1.00  0.00    -0.248 NA
ATOM     49  C   UNL A   1      39.973  28.359  32.199  1.00  0.00     0.031 C 
ATOM     50  C   UNL A   1      40.031  28.819  27.464  1.00  0.00     0.029 A 
ATOM     51  N   UNL A   1      41.780  28.148  28.629  1.00  0.00    -0.354 N 
ATOM     52  C   UNL A   1      41.932  29.164  33.025  1.00  0.00     0.074 A 
ATOM     53  C   UNL A   1      40.688  28.507  33.319  1.00  0.00     0.031 C 
ATOM     54  C   UNL A   1      40.637  27.855  26.737  1.00  0.00     0.029 A 
ATOM     55  C   UNL A   1      41.792  27.376  27.468  1.00  0.00     0.049 A 
ATOM     56  H   UNL A   1      42.522  28.149  29.278  1.00  0.00     0.167 HD
ATOM     57  C   UNL A   1      43.186  28.984  33.526  1.00  0.00     0.034 A 
ATOM     58  C   UNL A   1      42.664  26.384  27.157  1.00  0.00     0.034 A 
ATOM     59  C   UNL A   1      44.142  29.808  32.818  1.00  0.00     0.049 A 
ATOM     60  C   UNL A   1      43.871  26.596  27.988  1.00  0.00     0.074 A 
ATOM     61  C   UNL A   1      44.255  31.157  32.538  1.00  0.00     0.029 A 
ATOM     62  N   UNL A   1      44.958  29.168  31.914  1.00  0.00    -0.354 N 
ATOM     63  N   UNL A   1      44.664  27.621  27.843  1.00  0.00    -0.248 NA
ATOM     64  C   UNL A   1      43.937  25.924  29.273  1.00  0.00     0.031 C 
ATOM     65  C   UNL A   1      44.731  31.211  31.194  1.00  0.00     0.029 A 
ATOM     66  C   UNL A   1      44.974  29.907  30.764  1.00  0.00     0.049 A 
ATOM     67  H   UNL A   1      45.444  28.326  32.069  1.00  0.00     0.167 HD
ATOM     68  C   UNL A   1      44.939  28.015  29.145  1.00  0.00     0.074 A 
ATOM     69  C   UNL A   1      44.565  26.871  29.976  1.00  0.00     0.031 C 
ATOM     70  C   UNL A   1      45.150  29.330  29.450  1.00  0.00     0.034 A 
BRANCH  57  71
ATOM     71  C   UNL A   1      43.647  27.779  34.328  1.00  0.00     0.023 A 
ATOM     72  C   UNL A   1      44.364  28.049  35.517  1.00  0.00     0.012 A 
ATOM     73  C   UNL A   1      43.688  26.448  33.854  1.00  0.00     0.148 A 
ATOM     74  C   UNL A   1      45.160  27.079  36.136  1.00  0.00     0.002 A 
ATOM     75  C   UNL A   1      44.421  25.467  34.514  1.00  0.00     0.091 A 
ATOM     76  F   UNL A   1      43.120  26.124  32.692  1.00  0.00    -0.205 F 
ATOM     77  C   UNL A   1      45.191  25.788  35.632  1.00  0.00     0.022 A 
BRANCH  75  78
ATOM     78  S   UNL A   1      44.465  23.766  33.932  1.00  0.00     0.127 S 
ATOM     79  O   UNL A   1      44.851  23.947  32.535  1.00  0.00    -0.237 OA
ATOM     80  O   UNL A   1      45.496  23.187  34.793  1.00  0.00    -0.237 OA
ATOM     81  O   UNL A   1      43.128  23.232  34.160  1.00  0.00    -0.744 OA
ENDBRANCH  75  78
ENDBRANCH  57  71
BRANCH  58  82
ATOM     82  C   UNL A   1      42.465  25.134  26.382  1.00  0.00     0.023 A 
ATOM     83  C   UNL A   1      43.392  24.782  25.377  1.00  0.00     0.012 A 
ATOM     84  C   UNL A   1      41.558  24.146  26.819  1.00  0.00     0.148 A 
ATOM     85  C   UNL A   1      43.443  23.480  24.861  1.00  0.00     0.002 A 
ATOM     86  C   UNL A   1      41.610  22.854  26.302  1.00  0.00     0.091 A 
ATOM     87  F   UNL A   1      40.708  24.442  27.811  1.00  0.00    -0.205 F 
ATOM     88  C   UNL A   1      42.560  22.513  25.332  1.00  0.00     0.022 A 
BRANCH  86  89
ATOM     89  S   UNL A   1      40.526  21.545  26.889  1.00  0.00     0.127 S 
ATOM     90  O   UNL A   1      41.003  20.389  26.129  1.00  0.00    -0.237 OA
ATOM     91  O   UNL A   1      40.838  21.512  28.315  1.00  0.00    -0.237 OA
ATOM     92  O   UNL A   1      39.174  21.969  26.548  1.00  0.00    -0.744 OA
ENDBRANCH  86  89
ENDBRANCH  58  82
BRANCH  70  93
ATOM     93  C   UNL A   1      45.348  30.306  28.316  1.00  0.00     0.023 A 
ATOM     94  C   UNL A   1      44.277  30.929  27.641  1.00  0.00     0.012 A 
ATOM     95  C   UNL A   1      46.658  30.734  28.047  1.00  0.00     0.148 A 
ATOM     96  C   UNL A   1      44.513  31.940  26.705  1.00  0.00     0.002 A 
ATOM     97  C   UNL A   1      46.885  31.772  27.154  1.00  0.00     0.091 A 
ATOM     98  F   UNL A   1      47.666  30.132  28.698  1.00  0.00    -0.205 F 
ATOM     99  C   UNL A   1      45.816  32.373  26.472  1.00  0.00     0.022 A 
BRANCH  97 100
ATOM    100  S   UNL A   1      48.526  32.453  26.913  1.00  0.00     0.127 S 
ATOM    101  O   UNL A   1      49.294  31.268  26.534  1.00  0.00    -0.237 OA
ATOM    102  O   UNL A   1      48.312  33.416  25.832  1.00  0.00    -0.237 OA
ATOM    103  O   UNL A   1      48.900  33.061  28.185  1.00  0.00    -0.744 OA
ENDBRANCH  97 100
ENDBRANCH  70  93
ENDBRANCH  44  45
ENDBRANCH  36  39
ENDBRANCH  34  35
ENDBRANCH  33  34
ENDBRANCH   1  33
TORSDOF 17
ENDMDL
MODEL 2
REMARK VINA RESULT:     -12.8      2.861      7.954
REMARK SMILES Cc1c(Cl)cccc1NC(=O)NCc1cn([C@@H]2C[NH2+][C@H](C(=O)NCCCNC(=O)c3ccc(-c4c5nc(c(-c6cccc(S(=O)(=O)[O-])c6F)c6ccc([nH]6)c(-c6cccc(S(=O)(=O)[O-])c6F)c6nc(c(-c7cccc(S(=O)(=O)[O-])c7F)c7ccc4[nH]7)C=C6)C=C5)cc3)C2)nn1
REMARK SMILES IDX 24 1 23 2 21 3 22 4 20 6 17 7 18 8 93 9 19 10 16 13 14 14
REMARK SMILES IDX 15 15 95 16 94 17 13 18 12 19 9 20 10 21 11 23 8 25 1 26
REMARK SMILES IDX 2 27 3 28 4 29 5 30 7 31 6 32 25 33 26 34 27 35 28 36 29 38
REMARK SMILES IDX 30 39 31 40 92 41 32 42 91 43 33 44 34 45 35 46 85 47 36 48
REMARK SMILES IDX 90 49 84 50 86 51 37 52 89 53 83 54 82 55 38 57 70 58 50 59
REMARK SMILES IDX 69 60 51 61 54 62 68 63 87 64 52 65 53 66 67 68 88 69 55 70
REMARK SMILES IDX 39 71 40 72 48 73 41 74 43 75 49 76 42 77 44 78 45 79 46 80
REMARK SMILES IDX 47 81 71 82 72 83 80 84 73 85 75 86 81 87 74 88 76 89 77 90
REMARK SMILES IDX 78 91 79 92 56 93 57 94 65 95 58 96 60 97 66 98 59 99 61 100
REMARK SMILES IDX 62 101 63 102 64 103
REMARK H PARENT 23 5 19 11 19 12 9 22 12 24 27 37 86 56 54 67
REMARK Flexibility Score: inf
ROOT
ATOM      1  C   UNL A   1      37.716  21.297  25.416  1.00  0.00     0.118 C 
ENDROOT
BRANCH   1   2
ATOM      2  N   UNL A   1      37.443  22.113  24.249  1.00  0.00    -0.351 N 
ATOM      3  C   UNL A   1      36.285  22.530  23.675  1.00  0.00     0.278 C 
ATOM      4  O   UNL A   1      36.401  23.306  22.718  1.00  0.00    -0.268 OA
ATOM      5  H   UNL A   1      38.253  22.423  23.783  1.00  0.00     0.163 HD
BRANCH   3   6
ATOM      6  C   UNL A   1      34.871  22.226  24.199  1.00  0.00     0.274 C 
ATOM      7  C   UNL A   1      32.735  23.385  24.170  1.00  0.00     0.170 C 
ATOM      8  C   UNL A   1      33.460  23.647  25.485  1.00  0.00     0.288 C 
ATOM      9  C   UNL A   1      33.830  22.833  23.264  1.00  0.00     0.109 C 
ATOM     10  N   UNL A   1      34.570  22.685  25.575  1.00  0.00    -0.334 N 
ATOM     11  H   UNL A   1      34.298  21.892  26.156  1.00  0.00     0.347 HD
ATOM     12  H   UNL A   1      35.390  23.121  25.996  1.00  0.00     0.347 HD
BRANCH   7  13
ATOM     13  N   UNL A   1      32.096  24.572  23.647  1.00  0.00    -0.243 N 
ATOM     14  C   UNL A   1      30.772  26.264  23.396  1.00  0.00     0.102 A 
ATOM     15  C   UNL A   1      31.376  25.480  24.352  1.00  0.00     0.137 A 
ATOM     16  N   UNL A   1      31.182  25.858  22.159  1.00  0.00    -0.134 NA
ATOM     17  N   UNL A   1      32.007  24.821  22.324  1.00  0.00    -0.067 NA
BRANCH  14  18
ATOM     18  C   UNL A   1      29.643  27.147  23.728  1.00  0.00     0.178 C 
BRANCH  18  19
ATOM     19  N   UNL A   1      29.267  28.190  22.838  1.00  0.00    -0.332 N 
ATOM     20  N   UNL A   1      31.213  29.610  22.707  1.00  0.00    -0.308 N 
ATOM     21  C   UNL A   1      29.997  29.180  22.300  1.00  0.00     0.319 C 
ATOM     22  H   UNL A   1      31.483  30.405  22.193  1.00  0.00     0.171 HD
ATOM     23  O   UNL A   1      29.463  29.834  21.394  1.00  0.00    -0.248 OA
ATOM     24  H   UNL A   1      28.318  28.186  22.573  1.00  0.00     0.165 HD
BRANCH  20  25
ATOM     25  C   UNL A   1      32.216  29.266  23.646  1.00  0.00     0.047 A 
ATOM     26  C   UNL A   1      31.077  30.704  25.450  1.00  0.00     0.048 C 
ATOM     27  C   UNL A   1      32.084  29.674  24.997  1.00  0.00    -0.009 A 
ATOM     28  C   UNL A   1      32.973  29.136  25.959  1.00  0.00     0.046 A 
ATOM     29  Cl  UNL A   1      32.870  29.555  27.638  1.00  0.00    -0.084 Cl
ATOM     30  C   UNL A   1      33.982  28.244  25.598  1.00  0.00     0.021 A 
ATOM     31  C   UNL A   1      33.372  28.559  23.294  1.00  0.00     0.026 A 
ATOM     32  C   UNL A   1      34.206  27.986  24.256  1.00  0.00     0.004 A 
ENDBRANCH  20  25
ENDBRANCH  18  19
ENDBRANCH  14  18
ENDBRANCH   7  13
ENDBRANCH   3   6
ENDBRANCH   1   2
BRANCH   1  33
ATOM     33  C   UNL A   1      38.689  20.150  25.138  1.00  0.00     0.042 C 
BRANCH  33  34
ATOM     34  C   UNL A   1      39.683  19.978  26.277  1.00  0.00     0.118 C 
BRANCH  34  35
ATOM     35  N   UNL A   1      40.892  19.252  25.856  1.00  0.00    -0.352 N 
ATOM     36  C   UNL A   1      42.189  19.715  25.774  1.00  0.00     0.251 C 
ATOM     37  H   UNL A   1      40.757  18.312  25.596  1.00  0.00     0.163 HD
ATOM     38  O   UNL A   1      43.035  19.094  25.130  1.00  0.00    -0.269 OA
BRANCH  36  39
ATOM     39  C   UNL A   1      42.540  20.962  26.469  1.00  0.00     0.039 A 
ATOM     40  C   UNL A   1      43.033  22.070  25.778  1.00  0.00     0.014 A 
ATOM     41  C   UNL A   1      42.290  21.024  27.837  1.00  0.00     0.014 A 
ATOM     42  C   UNL A   1      43.178  23.271  26.465  1.00  0.00     0.010 A 
ATOM     43  C   UNL A   1      42.255  22.242  28.462  1.00  0.00     0.010 A 
ATOM     44  C   UNL A   1      42.752  23.356  27.803  1.00  0.00    -0.014 A 
BRANCH  44  45
ATOM     45  C   UNL A   1      42.672  24.645  28.480  1.00  0.00     0.031 A 
ATOM     46  C   UNL A   1      41.404  25.372  28.212  1.00  0.00     0.074 A 
ATOM     47  C   UNL A   1      43.557  25.045  29.420  1.00  0.00     0.049 A 
ATOM     48  N   UNL A   1      41.255  26.413  27.461  1.00  0.00    -0.248 NA
ATOM     49  C   UNL A   1      40.133  24.771  28.649  1.00  0.00     0.031 C 
ATOM     50  C   UNL A   1      44.669  24.279  29.998  1.00  0.00     0.029 A 
ATOM     51  N   UNL A   1      43.562  26.180  30.170  1.00  0.00    -0.354 N 
ATOM     52  C   UNL A   1      39.913  26.765  27.580  1.00  0.00     0.074 A 
ATOM     53  C   UNL A   1      39.246  25.597  28.087  1.00  0.00     0.031 C 
ATOM     54  C   UNL A   1      45.055  24.851  31.160  1.00  0.00     0.029 A 
ATOM     55  C   UNL A   1      44.346  26.104  31.321  1.00  0.00     0.049 A 
ATOM     56  H   UNL A   1      43.056  26.988  29.921  1.00  0.00     0.167 HD
ATOM     57  C   UNL A   1      39.538  28.074  27.549  1.00  0.00     0.034 A 
ATOM     58  C   UNL A   1      44.371  26.986  32.351  1.00  0.00     0.034 A 
ATOM     59  C   UNL A   1      40.613  28.901  27.044  1.00  0.00     0.049 A 
ATOM     60  C   UNL A   1      43.833  28.266  31.834  1.00  0.00     0.074 A 
ATOM     61  C   UNL A   1      41.385  28.911  25.898  1.00  0.00     0.029 A 
ATOM     62  N   UNL A   1      41.307  29.644  27.970  1.00  0.00    -0.354 N 
ATOM     63  N   UNL A   1      44.444  28.982  30.933  1.00  0.00    -0.248 NA
ATOM     64  C   UNL A   1      42.408  28.509  31.975  1.00  0.00     0.031 C 
ATOM     65  C   UNL A   1      42.701  29.231  26.347  1.00  0.00     0.029 A 
ATOM     66  C   UNL A   1      42.642  29.494  27.716  1.00  0.00     0.049 A 
ATOM     67  H   UNL A   1      40.911  30.188  28.689  1.00  0.00     0.167 HD
ATOM     68  C   UNL A   1      43.425  29.379  30.077  1.00  0.00     0.074 A 
ATOM     69  C   UNL A   1      42.190  29.160  30.829  1.00  0.00     0.031 C 
ATOM     70  C   UNL A   1      43.659  29.553  28.742  1.00  0.00     0.034 A 
BRANCH  57  71
ATOM     71  C   UNL A   1      38.409  28.684  28.362  1.00  0.00     0.023 A 
ATOM     72  C   UNL A   1      37.454  29.443  27.646  1.00  0.00     0.012 A 
ATOM     73  C   UNL A   1      38.391  28.812  29.770  1.00  0.00     0.148 A 
ATOM     74  C   UNL A   1      36.606  30.355  28.284  1.00  0.00     0.002 A 
ATOM     75  C   UNL A   1      37.496  29.665  30.407  1.00  0.00     0.091 A 
ATOM     76  F   UNL A   1      39.314  28.207  30.517  1.00  0.00    -0.205 F 
ATOM     77  C   UNL A   1      36.629  30.468  29.666  1.00  0.00     0.022 A 
BRANCH  75  78
ATOM     78  S   UNL A   1      37.450  29.821  32.198  1.00  0.00     0.127 S 
ATOM     79  O   UNL A   1      36.312  30.718  32.383  1.00  0.00    -0.237 OA
ATOM     80  O   UNL A   1      37.223  28.435  32.608  1.00  0.00    -0.237 OA
ATOM     81  O   UNL A   1      38.751  30.353  32.585  1.00  0.00    -0.744 OA
ENDBRANCH  75  78
ENDBRANCH  57  71
BRANCH  58  82
ATOM     82  C   UNL A   1      44.596  26.769  33.802  1.00  0.00     0.023 A 
ATOM     83  C   UNL A   1      45.815  27.173  34.387  1.00  0.00     0.012 A 
ATOM     84  C   UNL A   1      43.523  26.452  34.663  1.00  0.00     0.148 A 
ATOM     85  C   UNL A   1      45.946  27.301  35.776  1.00  0.00     0.002 A 
ATOM     86  C   UNL A   1      43.658  26.579  36.043  1.00  0.00     0.091 A 
ATOM     87  F   UNL A   1      42.341  26.122  34.127  1.00  0.00    -0.205 F 
ATOM     88  C   UNL A   1      44.865  27.016  36.603  1.00  0.00     0.022 A 
BRANCH  86  89
ATOM     89  S   UNL A   1      42.293  26.263  37.170  1.00  0.00     0.127 S 
ATOM     90  O   UNL A   1      42.941  26.384  38.476  1.00  0.00    -0.237 OA
ATOM     91  O   UNL A   1      41.373  27.348  36.840  1.00  0.00    -0.237 OA
ATOM     92  O   UNL A   1      41.824  24.919  36.856  1.00  0.00    -0.744 OA
ENDBRANCH  86  89
ENDBRANCH  58  82
BRANCH  70  93
ATOM     93  C   UNL A   1      45.089  29.573  28.261  1.00  0.00     0.023 A 
ATOM     94  C   UNL A   1      45.781  28.410  27.860  1.00  0.00     0.012 A 
ATOM     95  C   UNL A   1      45.687  30.825  28.046  1.00  0.00     0.148 A 
ATOM     96  C   UNL A   1      47.049  28.499  27.276  1.00  0.00     0.002 A 
ATOM     97  C   UNL A   1      46.922  30.912  27.421  1.00  0.00     0.091 A 
ATOM     98  F   UNL A   1      45.014  31.921  28.433  1.00  0.00    -0.205 F 
ATOM     99  C   UNL A   1      47.614  29.751  27.043  1.00  0.00     0.022 A 
BRANCH  97 100
ATOM    100  S   UNL A   1      47.636  32.497  26.983  1.00  0.00     0.127 S 
ATOM    101  O   UNL A   1      48.908  32.103  26.379  1.00  0.00    -0.237 OA
ATOM    102  O   UNL A   1      46.653  33.036  26.042  1.00  0.00    -0.237 OA
ATOM    103  O   UNL A   1      47.740  33.249  28.228  1.00  0.00    -0.744 OA
ENDBRANCH  97 100
ENDBRANCH  70  93
ENDBRANCH  44  45
ENDBRANCH  36  39
ENDBRANCH  34  35
ENDBRANCH  33  34
ENDBRANCH   1  33
TORSDOF 17
ENDMDL
MODEL 3
REMARK VINA RESULT:     -12.7      3.089      8.050
REMARK SMILES Cc1c(Cl)cccc1NC(=O)NCc1cn([C@@H]2C[NH2+][C@H](C(=O)NCCCNC(=O)c3ccc(-c4c5nc(c(-c6cccc(S(=O)(=O)[O-])c6F)c6ccc([nH]6)c(-c6cccc(S(=O)(=O)[O-])c6F)c6nc(c(-c7cccc(S(=O)(=O)[O-])c7F)c7ccc4[nH]7)C=C6)C=C5)cc3)C2)nn1
REMARK SMILES IDX 24 1 23 2 21 3 22 4 20 6 17 7 18 8 93 9 19 10 16 13 14 14
REMARK SMILES IDX 15 15 95 16 94 17 13 18 12 19 9 20 10 21 11 23 8 25 1 26
REMARK SMILES IDX 2 27 3 28 4 29 5 30 7 31 6 32 25 33 26 34 27 35 28 36 29 38
REMARK SMILES IDX 30 39 31 40 92 41 32 42 91 43 33 44 34 45 35 46 85 47 36 48
REMARK SMILES IDX 90 49 84 50 86 51 37 52 89 53 83 54 82 55 38 57 70 58 50 59
REMARK SMILES IDX 69 60 51 61 54 62 68 63 87 64 52 65 53 66 67 68 88 69 55 70
REMARK SMILES IDX 39 71 40 72 48 73 41 74 43 75 49 76 42 77 44 78 45 79 46 80
REMARK SMILES IDX 47 81 71 82 72 83 80 84 73 85 75 86 81 87 74 88 76 89 77 90
REMARK SMILES IDX 78 91 79 92 56 93 57 94 65 95 58 96 60 97 66 98 59 99 61 100
REMARK SMILES IDX 62 101 63 102 64 103
REMARK H PARENT 23 5 19 11 19 12 9 22 12 24 27 37 86 56 54 67
REMARK Flexibility Score: inf
ROOT
ATOM      1  C   UNL A   1      37.444  20.611  25.341  1.00  0.00     0.118 C 
ENDROOT
BRANCH   1   2
ATOM      2  N   UNL A   1      37.444  21.475  24.177  1.00  0.00    -0.351 N 
ATOM      3  C   UNL A   1      36.545  22.377  23.707  1.00  0.00     0.278 C 
ATOM      4  O   UNL A   1      36.896  23.028  22.714  1.00  0.00    -0.268 OA
ATOM      5  H   UNL A   1      38.253  21.391  23.621  1.00  0.00     0.163 HD
BRANCH   3   6
ATOM      6  C   UNL A   1      35.211  22.740  24.381  1.00  0.00     0.274 C 
ATOM      7  C   UNL A   1      33.493  24.419  24.015  1.00  0.00     0.170 C 
ATOM      8  C   UNL A   1      34.473  24.890  25.083  1.00  0.00     0.288 C 
ATOM      9  C   UNL A   1      34.230  23.268  23.340  1.00  0.00     0.109 C 
ATOM     10  N   UNL A   1      35.281  23.727  25.482  1.00  0.00    -0.334 N 
ATOM     11  H   UNL A   1      34.908  23.321  26.340  1.00  0.00     0.347 HD
ATOM     12  H   UNL A   1      36.247  24.004  25.657  1.00  0.00     0.347 HD
BRANCH   7  13
ATOM     13  N   UNL A   1      33.119  25.479  23.104  1.00  0.00    -0.243 N 
ATOM     14  C   UNL A   1      32.743  27.430  22.249  1.00  0.00     0.102 A 
ATOM     15  C   UNL A   1      33.562  26.761  23.130  1.00  0.00     0.137 A 
ATOM     16  N   UNL A   1      31.881  26.541  21.676  1.00  0.00    -0.134 NA
ATOM     17  N   UNL A   1      32.128  25.338  22.201  1.00  0.00    -0.067 NA
BRANCH  14  18
ATOM     18  C   UNL A   1      32.665  28.899  22.238  1.00  0.00     0.178 C 
BRANCH  18  19
ATOM     19  N   UNL A   1      31.467  29.547  21.829  1.00  0.00    -0.332 N 
ATOM     20  N   UNL A   1      29.986  29.339  23.722  1.00  0.00    -0.308 N 
ATOM     21  C   UNL A   1      30.359  29.847  22.525  1.00  0.00     0.319 C 
ATOM     22  H   UNL A   1      29.089  29.665  23.966  1.00  0.00     0.171 HD
ATOM     23  O   UNL A   1      29.543  30.596  21.973  1.00  0.00    -0.248 OA
ATOM     24  H   UNL A   1      31.446  29.819  20.882  1.00  0.00     0.165 HD
BRANCH  20  25
ATOM     25  C   UNL A   1      30.491  28.484  24.732  1.00  0.00     0.047 A 
ATOM     26  C   UNL A   1      28.930  26.589  23.962  1.00  0.00     0.048 C 
ATOM     27  C   UNL A   1      30.090  27.125  24.766  1.00  0.00    -0.009 A 
ATOM     28  C   UNL A   1      30.771  26.238  25.636  1.00  0.00     0.046 A 
ATOM     29  Cl  UNL A   1      30.369  24.555  25.727  1.00  0.00    -0.084 Cl
ATOM     30  C   UNL A   1      31.796  26.682  26.470  1.00  0.00     0.021 A 
ATOM     31  C   UNL A   1      31.355  28.930  25.738  1.00  0.00     0.026 A 
ATOM     32  C   UNL A   1      32.062  28.039  26.549  1.00  0.00     0.004 A 
ENDBRANCH  20  25
ENDBRANCH  18  19
ENDBRANCH  14  18
ENDBRANCH   7  13
ENDBRANCH   3   6
ENDBRANCH   1   2
BRANCH   1  33
ATOM     33  C   UNL A   1      38.555  19.560  25.315  1.00  0.00     0.042 C 
BRANCH  33  34
ATOM     34  C   UNL A   1      39.752  19.998  26.144  1.00  0.00     0.118 C 
BRANCH  34  35
ATOM     35  N   UNL A   1      40.962  19.222  25.828  1.00  0.00    -0.352 N 
ATOM     36  C   UNL A   1      42.273  19.649  25.793  1.00  0.00     0.251 C 
ATOM     37  H   UNL A   1      40.816  18.273  25.611  1.00  0.00     0.163 HD
ATOM     38  O   UNL A   1      43.135  18.975  25.230  1.00  0.00    -0.269 OA
BRANCH  36  39
ATOM     39  C   UNL A   1      42.619  20.923  26.441  1.00  0.00     0.039 A 
ATOM     40  C   UNL A   1      42.917  22.065  25.695  1.00  0.00     0.014 A 
ATOM     41  C   UNL A   1      42.566  20.969  27.831  1.00  0.00     0.014 A 
ATOM     42  C   UNL A   1      43.063  23.276  26.363  1.00  0.00     0.010 A 
ATOM     43  C   UNL A   1      42.524  22.183  28.465  1.00  0.00     0.010 A 
ATOM     44  C   UNL A   1      42.829  23.331  27.749  1.00  0.00    -0.014 A 
BRANCH  44  45
ATOM     45  C   UNL A   1      42.744  24.611  28.441  1.00  0.00     0.031 A 
ATOM     46  C   UNL A   1      41.459  25.321  28.210  1.00  0.00     0.074 A 
ATOM     47  C   UNL A   1      43.644  25.016  29.365  1.00  0.00     0.049 A 
ATOM     48  N   UNL A   1      41.277  26.367  27.473  1.00  0.00    -0.248 NA
ATOM     49  C   UNL A   1      40.209  24.696  28.669  1.00  0.00     0.031 C 
ATOM     50  C   UNL A   1      44.781  24.263  29.909  1.00  0.00     0.029 A 
ATOM     51  N   UNL A   1      43.649  26.144  30.126  1.00  0.00    -0.354 N 
ATOM     52  C   UNL A   1      39.932  26.696  27.626  1.00  0.00     0.074 A 
ATOM     53  C   UNL A   1      39.296  25.513  28.137  1.00  0.00     0.031 C 
ATOM     54  C   UNL A   1      45.185  24.829  31.068  1.00  0.00     0.029 A 
ATOM     55  C   UNL A   1      44.460  26.068  31.259  1.00  0.00     0.049 A 
ATOM     56  H   UNL A   1      43.125  26.946  29.897  1.00  0.00     0.167 HD
ATOM     57  C   UNL A   1      39.537  28.000  27.617  1.00  0.00     0.034 A 
ATOM     58  C   UNL A   1      44.495  26.941  32.297  1.00  0.00     0.034 A 
ATOM     59  C   UNL A   1      40.587  28.849  27.096  1.00  0.00     0.049 A 
ATOM     60  C   UNL A   1      43.925  28.217  31.805  1.00  0.00     0.074 A 
ATOM     61  C   UNL A   1      41.332  28.882  25.933  1.00  0.00     0.029 A 
ATOM     62  N   UNL A   1      41.290  29.594  28.014  1.00  0.00    -0.354 N 
ATOM     63  N   UNL A   1      44.504  28.952  30.898  1.00  0.00    -0.248 NA
ATOM     64  C   UNL A   1      42.500  28.436  31.981  1.00  0.00     0.031 C 
ATOM     65  C   UNL A   1      42.652  29.219  26.356  1.00  0.00     0.029 A 
ATOM     66  C   UNL A   1      42.621  29.467  27.729  1.00  0.00     0.049 A 
ATOM     67  H   UNL A   1      40.902  30.124  28.747  1.00  0.00     0.167 HD
ATOM     68  C   UNL A   1      43.460  29.341  30.069  1.00  0.00     0.074 A 
ATOM     69  C   UNL A   1      42.245  29.095  30.847  1.00  0.00     0.031 C 
ATOM     70  C   UNL A   1      43.660  29.532  28.732  1.00  0.00     0.034 A 
BRANCH  57  71
ATOM     71  C   UNL A   1      38.417  28.583  28.462  1.00  0.00     0.023 A 
ATOM     72  C   UNL A   1      37.430  29.328  27.775  1.00  0.00     0.012 A 
ATOM     73  C   UNL A   1      38.433  28.703  29.870  1.00  0.00     0.148 A 
ATOM     74  C   UNL A   1      36.581  30.220  28.439  1.00  0.00     0.002 A 
ATOM     75  C   UNL A   1      37.537  29.536  30.535  1.00  0.00     0.091 A 
ATOM     76  F   UNL A   1      39.386  28.113  30.591  1.00  0.00    -0.205 F 
ATOM     77  C   UNL A   1      36.637  30.327  29.820  1.00  0.00     0.022 A 
BRANCH  75  78
ATOM     78  S   UNL A   1      37.534  29.682  32.327  1.00  0.00     0.127 S 
ATOM     79  O   UNL A   1      37.316  28.295  32.732  1.00  0.00    -0.237 OA
ATOM     80  O   UNL A   1      38.878  30.200  32.583  1.00  0.00    -0.237 OA
ATOM     81  O   UNL A   1      36.463  30.615  32.650  1.00  0.00    -0.744 OA
ENDBRANCH  75  78
ENDBRANCH  57  71
BRANCH  58  82
ATOM     82  C   UNL A   1      44.756  26.713  33.739  1.00  0.00     0.023 A 
ATOM     83  C   UNL A   1      45.991  27.111  34.296  1.00  0.00     0.012 A 
ATOM     84  C   UNL A   1      43.705  26.392  34.626  1.00  0.00     0.148 A 
ATOM     85  C   UNL A   1      46.158  27.229  35.682  1.00  0.00     0.002 A 
ATOM     86  C   UNL A   1      43.876  26.509  36.003  1.00  0.00     0.091 A 
ATOM     87  F   UNL A   1      42.509  26.068  34.118  1.00  0.00    -0.205 F 
ATOM     88  C   UNL A   1      45.097  26.940  36.535  1.00  0.00     0.022 A 
BRANCH  86  89
ATOM     89  S   UNL A   1      42.539  26.187  37.161  1.00  0.00     0.127 S 
ATOM     90  O   UNL A   1      42.314  24.753  36.977  1.00  0.00    -0.237 OA
ATOM     91  O   UNL A   1      43.151  26.552  38.436  1.00  0.00    -0.237 OA
ATOM     92  O   UNL A   1      41.430  27.028  36.728  1.00  0.00    -0.744 OA
ENDBRANCH  86  89
ENDBRANCH  58  82
BRANCH  70  93
ATOM     93  C   UNL A   1      45.078  29.579  28.218  1.00  0.00     0.023 A 
ATOM     94  C   UNL A   1      45.884  30.735  28.291  1.00  0.00     0.012 A 
ATOM     95  C   UNL A   1      45.664  28.370  27.809  1.00  0.00     0.148 A 
ATOM     96  C   UNL A   1      47.238  30.686  27.946  1.00  0.00     0.002 A 
ATOM     97  C   UNL A   1      47.019  28.315  27.515  1.00  0.00     0.091 A 
ATOM     98  F   UNL A   1      44.884  27.280  27.745  1.00  0.00    -0.205 F 
ATOM     99  C   UNL A   1      47.809  29.472  27.571  1.00  0.00     0.022 A 
BRANCH  97 100
ATOM    100  S   UNL A   1      47.831  26.757  27.152  1.00  0.00     0.127 S 
ATOM    101  O   UNL A   1      47.522  25.968  28.342  1.00  0.00    -0.237 OA
ATOM    102  O   UNL A   1      47.146  26.322  25.933  1.00  0.00    -0.237 OA
ATOM    103  O   UNL A   1      49.241  27.075  26.958  1.00  0.00    -0.744 OA
ENDBRANCH  97 100
ENDBRANCH  70  93
ENDBRANCH  44  45
ENDBRANCH  36  39
ENDBRANCH  34  35
ENDBRANCH  33  34
ENDBRANCH   1  33
TORSDOF 17
ENDMDL
