MODEL 1
REMARK VINA RESULT:     -12.1      0.000      0.000
REMARK SMILES CCCCc1nc(C[N@H+]2CC[NH2+][C@H](C(=O)NCCCNC(=O)c3ccc(-c4c5nc(c(-c6cccc(S(=O)(=O)[O-])c6F)c6ccc([nH]6)c(-c6cccc(S(=O)(=O)[O-])c6F)c6nc(c(-c7cccc(S(=O)(=O)[O-])c7F)c7ccc4[nH]7)C=C6)C=C5)cc3)C2)c(Cl)[nH]1
REMARK SMILES IDX 17 1 16 2 14 3 15 4 13 6 9 7 10 8 86 9 11 11 12 12 8 15 7 16
REMARK SMILES IDX 5 17 6 18 89 19 87 20 88 22 4 23 3 24 2 25 1 26 18 27 19 28
REMARK SMILES IDX 20 29 21 30 22 32 23 33 24 34 85 35 25 36 84 37 26 38 27 39
REMARK SMILES IDX 28 40 78 41 29 42 83 43 77 44 79 45 30 46 82 47 76 48 75 49
REMARK SMILES IDX 31 51 63 52 43 53 62 54 44 55 47 56 61 57 80 58 45 59 46 60
REMARK SMILES IDX 60 62 81 63 48 64 32 65 33 66 41 67 34 68 36 69 42 70 35 71
REMARK SMILES IDX 37 72 38 73 39 74 40 75 64 76 65 77 73 78 66 79 68 80 74 81
REMARK SMILES IDX 67 82 69 83 70 84 71 85 72 86 49 87 50 88 58 89 51 90 53 91
REMARK SMILES IDX 59 92 52 93 54 94 55 95 56 96 57 97
REMARK H PARENT 16 5 9 10 12 13 12 14 89 21 20 31 79 50 47 61
REMARK Flexibility Score: inf
ROOT
ATOM      1  C   UNL A   1      36.485  20.912  24.873  1.00  0.00     0.118 C 
ENDROOT
BRANCH   1   2
ATOM      2  N   UNL A   1      35.599  21.069  26.013  1.00  0.00    -0.351 N 
ATOM      3  C   UNL A   1      34.305  21.530  26.027  1.00  0.00     0.284 C 
ATOM      4  O   UNL A   1      33.596  21.234  26.990  1.00  0.00    -0.268 OA
ATOM      5  H   UNL A   1      35.973  20.812  26.887  1.00  0.00     0.163 HD
BRANCH   3   6
ATOM      6  C   UNL A   1      33.815  22.449  24.895  1.00  0.00     0.328 C 
ATOM      7  N   UNL A   1      32.183  24.384  24.395  1.00  0.00    -0.320 N 
ATOM      8  C   UNL A   1      31.907  23.698  23.128  1.00  0.00     0.324 C 
ATOM      9  C   UNL A   1      32.784  23.491  25.419  1.00  0.00     0.339 C 
ATOM     10  H   UNL A   1      31.261  24.637  24.751  1.00  0.00     0.348 HD
ATOM     11  C   UNL A   1      32.927  22.628  22.692  1.00  0.00     0.323 C 
ATOM     12  N   UNL A   1      33.221  21.672  23.767  1.00  0.00    -0.327 N 
ATOM     13  H   UNL A   1      33.883  20.969  23.439  1.00  0.00     0.347 HD
ATOM     14  H   UNL A   1      32.373  21.190  24.065  1.00  0.00     0.347 HD
BRANCH   7  15
ATOM     15  C   UNL A   1      32.866  25.684  24.266  1.00  0.00     0.323 C 
BRANCH  15  16
ATOM     16  C   UNL A   1      32.111  26.709  23.489  1.00  0.00     0.132 A 
ATOM     17  C   UNL A   1      30.378  27.877  22.928  1.00  0.00     0.107 A 
ATOM     18  N   UNL A   1      30.738  26.799  23.597  1.00  0.00    -0.231 NA
ATOM     19  N   UNL A   1      31.455  28.408  22.262  1.00  0.00    -0.333 N 
ATOM     20  C   UNL A   1      32.549  27.688  22.635  1.00  0.00     0.135 A 
ATOM     21  H   UNL A   1      31.439  29.166  21.633  1.00  0.00     0.169 HD
ATOM     22  Cl  UNL A   1      34.074  28.169  22.081  1.00  0.00    -0.062 Cl
BRANCH  17  23
ATOM     23  C   UNL A   1      29.040  28.533  22.983  1.00  0.00     0.075 C 
BRANCH  23  24
ATOM     24  C   UNL A   1      29.048  30.010  22.612  1.00  0.00     0.008 C 
BRANCH  24  25
ATOM     25  C   UNL A   1      28.219  30.381  21.382  1.00  0.00    -0.003 C 
ATOM     26  C   UNL A   1      28.149  31.876  21.114  1.00  0.00     0.004 C 
ENDBRANCH  24  25
ENDBRANCH  23  24
ENDBRANCH  17  23
ENDBRANCH  15  16
ENDBRANCH   7  15
ENDBRANCH   3   6
ENDBRANCH   1   2
BRANCH   1  27
ATOM     27  C   UNL A   1      37.520  19.795  25.007  1.00  0.00     0.042 C 
BRANCH  27  28
ATOM     28  C   UNL A   1      38.778  20.283  25.708  1.00  0.00     0.118 C 
BRANCH  28  29
ATOM     29  N   UNL A   1      39.818  19.241  25.742  1.00  0.00    -0.352 N 
ATOM     30  C   UNL A   1      41.159  19.348  26.016  1.00  0.00     0.251 C 
ATOM     31  H   UNL A   1      39.503  18.330  25.539  1.00  0.00     0.163 HD
ATOM     32  O   UNL A   1      41.931  18.417  25.755  1.00  0.00    -0.269 OA
BRANCH  30  33
ATOM     33  C   UNL A   1      41.670  20.588  26.607  1.00  0.00     0.039 A 
ATOM     34  C   UNL A   1      42.334  21.541  25.828  1.00  0.00     0.014 A 
ATOM     35  C   UNL A   1      41.402  20.816  27.952  1.00  0.00     0.014 A 
ATOM     36  C   UNL A   1      42.639  22.774  26.393  1.00  0.00     0.010 A 
ATOM     37  C   UNL A   1      41.542  22.082  28.451  1.00  0.00     0.010 A 
ATOM     38  C   UNL A   1      42.216  23.044  27.701  1.00  0.00    -0.014 A 
BRANCH  38  39
ATOM     39  C   UNL A   1      42.355  24.373  28.282  1.00  0.00     0.031 A 
ATOM     40  C   UNL A   1      41.183  25.269  28.073  1.00  0.00     0.074 A 
ATOM     41  C   UNL A   1      43.324  24.636  29.186  1.00  0.00     0.049 A 
ATOM     42  N   UNL A   1      41.135  26.384  27.420  1.00  0.00    -0.248 NA
ATOM     43  C   UNL A   1      39.865  24.785  28.515  1.00  0.00     0.031 C 
ATOM     44  C   UNL A   1      44.308  23.691  29.737  1.00  0.00     0.029 A 
ATOM     45  N   UNL A   1      43.510  25.743  29.954  1.00  0.00    -0.354 N 
ATOM     46  C   UNL A   1      39.833  26.862  27.596  1.00  0.00     0.074 A 
ATOM     47  C   UNL A   1      39.061  25.734  28.034  1.00  0.00     0.031 C 
ATOM     48  C   UNL A   1      44.766  24.160  30.915  1.00  0.00     0.029 A 
ATOM     49  C   UNL A   1      44.258  25.503  31.105  1.00  0.00     0.049 A 
ATOM     50  H   UNL A   1      43.152  26.629  29.720  1.00  0.00     0.167 HD
ATOM     51  C   UNL A   1      39.572  28.199  27.656  1.00  0.00     0.034 A 
ATOM     52  C   UNL A   1      44.399  26.328  32.169  1.00  0.00     0.034 A 
ATOM     53  C   UNL A   1      40.699  28.960  27.164  1.00  0.00     0.049 A 
ATOM     54  C   UNL A   1      44.004  27.682  31.723  1.00  0.00     0.074 A 
ATOM     55  C   UNL A   1      41.416  29.008  25.986  1.00  0.00     0.029 A 
ATOM     56  N   UNL A   1      41.486  29.571  28.111  1.00  0.00    -0.354 N 
ATOM     57  N   UNL A   1      44.663  28.373  30.835  1.00  0.00    -0.248 NA
ATOM     58  C   UNL A   1      42.634  28.106  31.956  1.00  0.00     0.031 C 
ATOM     59  C   UNL A   1      42.768  29.222  26.387  1.00  0.00     0.029 A 
ATOM     60  C   UNL A   1      42.795  29.365  27.776  1.00  0.00     0.049 A 
ATOM     61  H   UNL A   1      41.164  30.071  28.895  1.00  0.00     0.167 HD
ATOM     62  C   UNL A   1      43.675  28.989  30.079  1.00  0.00     0.074 A 
ATOM     63  C   UNL A   1      42.467  28.902  30.897  1.00  0.00     0.031 C 
ATOM     64  C   UNL A   1      43.861  29.233  28.748  1.00  0.00     0.034 A 
BRANCH  51  65
ATOM     65  C   UNL A   1      38.514  28.860  28.535  1.00  0.00     0.023 A 
ATOM     66  C   UNL A   1      37.654  29.791  27.900  1.00  0.00     0.012 A 
ATOM     67  C   UNL A   1      38.489  28.855  29.949  1.00  0.00     0.148 A 
ATOM     68  C   UNL A   1      36.915  30.736  28.623  1.00  0.00     0.002 A 
ATOM     69  C   UNL A   1      37.700  29.752  30.666  1.00  0.00     0.091 A 
ATOM     70  F   UNL A   1      39.303  28.062  30.642  1.00  0.00    -0.205 F 
ATOM     71  C   UNL A   1      36.943  30.721  30.009  1.00  0.00     0.022 A 
BRANCH  69  72
ATOM     72  S   UNL A   1      37.664  29.740  32.467  1.00  0.00     0.127 S 
ATOM     73  O   UNL A   1      39.004  30.224  32.786  1.00  0.00    -0.237 OA
ATOM     74  O   UNL A   1      36.580  30.684  32.748  1.00  0.00    -0.237 OA
ATOM     75  O   UNL A   1      37.371  28.366  32.850  1.00  0.00    -0.744 OA
ENDBRANCH  69  72
ENDBRANCH  51  65
BRANCH  52  76
ATOM     76  C   UNL A   1      44.641  26.008  33.593  1.00  0.00     0.023 A 
ATOM     77  C   UNL A   1      45.964  25.901  34.064  1.00  0.00     0.012 A 
ATOM     78  C   UNL A   1      43.596  26.068  34.542  1.00  0.00     0.148 A 
ATOM     79  C   UNL A   1      46.242  25.889  35.436  1.00  0.00     0.002 A 
ATOM     80  C   UNL A   1      43.877  26.047  35.905  1.00  0.00     0.091 A 
ATOM     81  F   UNL A   1      42.339  26.242  34.109  1.00  0.00    -0.205 F 
ATOM     82  C   UNL A   1      45.200  25.970  36.357  1.00  0.00     0.022 A 
BRANCH  80  83
ATOM     83  S   UNL A   1      42.587  26.167  37.152  1.00  0.00     0.127 S 
ATOM     84  O   UNL A   1      41.885  27.386  36.746  1.00  0.00    -0.237 OA
ATOM     85  O   UNL A   1      41.844  24.930  36.933  1.00  0.00    -0.237 OA
ATOM     86  O   UNL A   1      43.285  26.274  38.427  1.00  0.00    -0.744 OA
ENDBRANCH  80  83
ENDBRANCH  52  76
BRANCH  64  87
ATOM     87  C   UNL A   1      45.254  29.096  28.185  1.00  0.00     0.023 A 
ATOM     88  C   UNL A   1      46.234  30.102  28.327  1.00  0.00     0.012 A 
ATOM     89  C   UNL A   1      45.636  27.850  27.661  1.00  0.00     0.148 A 
ATOM     90  C   UNL A   1      47.557  29.875  27.939  1.00  0.00     0.002 A 
ATOM     91  C   UNL A   1      46.963  27.611  27.324  1.00  0.00     0.091 A 
ATOM     92  F   UNL A   1      44.696  26.902  27.530  1.00  0.00    -0.205 F 
ATOM     93  C   UNL A   1      47.925  28.624  27.451  1.00  0.00     0.022 A 
BRANCH  91  94
ATOM     94  S   UNL A   1      47.516  25.978  26.826  1.00  0.00     0.127 S 
ATOM     95  O   UNL A   1      47.144  25.164  27.981  1.00  0.00    -0.237 OA
ATOM     96  O   UNL A   1      46.724  25.728  25.620  1.00  0.00    -0.237 OA
ATOM     97  O   UNL A   1      48.947  26.104  26.577  1.00  0.00    -0.744 OA
ENDBRANCH  91  94
ENDBRANCH  64  87
ENDBRANCH  38  39
ENDBRANCH  30  33
ENDBRANCH  28  29
ENDBRANCH  27  28
ENDBRANCH   1  27
TORSDOF 18
ENDMDL
MODEL 2
REMARK VINA RESULT:     -12.0      4.200      9.787
REMARK SMILES CCCCc1nc(C[N@H+]2CC[NH2+][C@H](C(=O)NCCCNC(=O)c3ccc(-c4c5nc(c(-c6cccc(S(=O)(=O)[O-])c6F)c6ccc([nH]6)c(-c6cccc(S(=O)(=O)[O-])c6F)c6nc(c(-c7cccc(S(=O)(=O)[O-])c7F)c7ccc4[nH]7)C=C6)C=C5)cc3)C2)c(Cl)[nH]1
REMARK SMILES IDX 17 1 16 2 14 3 15 4 13 6 9 7 10 8 86 9 11 11 12 12 8 15 7 16
REMARK SMILES IDX 5 17 6 18 89 19 87 20 88 22 4 23 3 24 2 25 1 26 18 27 19 28
REMARK SMILES IDX 20 29 21 30 22 32 23 33 24 34 85 35 25 36 84 37 26 38 27 39
REMARK SMILES IDX 28 40 78 41 29 42 83 43 77 44 79 45 30 46 82 47 76 48 75 49
REMARK SMILES IDX 31 51 63 52 43 53 62 54 44 55 47 56 61 57 80 58 45 59 46 60
REMARK SMILES IDX 60 62 81 63 48 64 32 65 33 66 41 67 34 68 36 69 42 70 35 71
REMARK SMILES IDX 37 72 38 73 39 74 40 75 64 76 65 77 73 78 66 79 68 80 74 81
REMARK SMILES IDX 67 82 69 83 70 84 71 85 72 86 49 87 50 88 58 89 51 90 53 91
REMARK SMILES IDX 59 92 52 93 54 94 55 95 56 96 57 97
REMARK H PARENT 16 5 9 10 12 13 12 14 89 21 20 31 79 50 47 61
REMARK Flexibility Score: inf
ROOT
ATOM      1  C   UNL A   1      31.680  30.467  26.165  1.00  0.00     0.118 C 
ENDROOT
BRANCH   1   2
ATOM      2  N   UNL A   1      32.728  29.783  26.901  1.00  0.00    -0.351 N 
ATOM      3  C   UNL A   1      33.567  28.788  26.459  1.00  0.00     0.284 C 
ATOM      4  O   UNL A   1      34.620  28.607  27.070  1.00  0.00    -0.268 OA
ATOM      5  H   UNL A   1      32.855  30.068  27.835  1.00  0.00     0.163 HD
BRANCH   3   6
ATOM      6  C   UNL A   1      33.133  27.898  25.281  1.00  0.00     0.328 C 
ATOM      7  N   UNL A   1      33.052  25.441  24.498  1.00  0.00    -0.320 N 
ATOM      8  C   UNL A   1      33.434  25.949  23.176  1.00  0.00     0.324 C 
ATOM      9  C   UNL A   1      33.364  26.392  25.597  1.00  0.00     0.339 C 
ATOM     10  H   UNL A   1      33.660  24.635  24.644  1.00  0.00     0.348 HD
ATOM     11  C   UNL A   1      33.247  27.461  22.943  1.00  0.00     0.323 C 
ATOM     12  N   UNL A   1      33.840  28.265  24.019  1.00  0.00    -0.327 N 
ATOM     13  H   UNL A   1      33.715  29.258  23.823  1.00  0.00     0.347 HD
ATOM     14  H   UNL A   1      34.841  28.084  24.097  1.00  0.00     0.347 HD
BRANCH   7  15
ATOM     15  C   UNL A   1      31.698  24.864  24.578  1.00  0.00     0.323 C 
BRANCH  15  16
ATOM     16  C   UNL A   1      31.661  23.400  24.858  1.00  0.00     0.132 A 
ATOM     17  C   UNL A   1      32.298  21.340  24.674  1.00  0.00     0.107 A 
ATOM     18  N   UNL A   1      32.412  22.523  24.102  1.00  0.00    -0.231 NA
ATOM     19  N   UNL A   1      31.377  21.388  25.690  1.00  0.00    -0.333 N 
ATOM     20  C   UNL A   1      30.995  22.688  25.822  1.00  0.00     0.135 A 
ATOM     21  H   UNL A   1      31.053  20.625  26.223  1.00  0.00     0.169 HD
ATOM     22  Cl  UNL A   1      29.947  23.111  27.081  1.00  0.00    -0.062 Cl
BRANCH  17  23
ATOM     23  C   UNL A   1      33.138  20.143  24.380  1.00  0.00     0.075 C 
BRANCH  23  24
ATOM     24  C   UNL A   1      32.501  19.148  23.419  1.00  0.00     0.008 C 
BRANCH  24  25
ATOM     25  C   UNL A   1      33.033  17.717  23.510  1.00  0.00    -0.003 C 
ATOM     26  C   UNL A   1      34.446  17.620  24.063  1.00  0.00     0.004 C 
ENDBRANCH  24  25
ENDBRANCH  23  24
ENDBRANCH  17  23
ENDBRANCH  15  16
ENDBRANCH   7  15
ENDBRANCH   3   6
ENDBRANCH   1   2
BRANCH   1  27
ATOM     27  C   UNL A   1      31.418  31.909  26.601  1.00  0.00     0.042 C 
BRANCH  27  28
ATOM     28  C   UNL A   1      32.677  32.562  27.147  1.00  0.00     0.118 C 
BRANCH  28  29
ATOM     29  N   UNL A   1      32.411  33.925  27.638  1.00  0.00    -0.352 N 
ATOM     30  C   UNL A   1      33.057  34.650  28.609  1.00  0.00     0.251 C 
ATOM     31  H   UNL A   1      31.657  34.385  27.204  1.00  0.00     0.163 HD
ATOM     32  O   UNL A   1      32.548  35.679  29.069  1.00  0.00    -0.269 OA
BRANCH  30  33
ATOM     33  C   UNL A   1      34.354  34.181  29.105  1.00  0.00     0.039 A 
ATOM     34  C   UNL A   1      34.446  33.401  30.263  1.00  0.00     0.014 A 
ATOM     35  C   UNL A   1      35.478  34.474  28.342  1.00  0.00     0.014 A 
ATOM     36  C   UNL A   1      35.671  32.832  30.592  1.00  0.00     0.010 A 
ATOM     37  C   UNL A   1      36.633  33.776  28.566  1.00  0.00     0.010 A 
ATOM     38  C   UNL A   1      36.755  33.006  29.722  1.00  0.00    -0.014 A 
BRANCH  38  39
ATOM     39  C   UNL A   1      38.010  32.295  29.926  1.00  0.00     0.031 A 
ATOM     40  C   UNL A   1      38.029  30.902  29.397  1.00  0.00     0.074 A 
ATOM     41  C   UNL A   1      39.134  32.958  30.277  1.00  0.00     0.049 A 
ATOM     42  N   UNL A   1      38.170  29.798  30.055  1.00  0.00    -0.248 NA
ATOM     43  C   UNL A   1      37.694  30.706  27.977  1.00  0.00     0.031 C 
ATOM     44  C   UNL A   1      39.290  34.410  30.459  1.00  0.00     0.029 A 
ATOM     45  N   UNL A   1      40.415  32.509  30.348  1.00  0.00    -0.354 N 
ATOM     46  C   UNL A   1      38.197  28.790  29.088  1.00  0.00     0.074 A 
ATOM     47  C   UNL A   1      37.646  29.375  27.899  1.00  0.00     0.031 C 
ATOM     48  C   UNL A   1      40.591  34.739  30.325  1.00  0.00     0.029 A 
ATOM     49  C   UNL A   1      41.368  33.519  30.239  1.00  0.00     0.049 A 
ATOM     50  H   UNL A   1      40.648  31.559  30.467  1.00  0.00     0.167 HD
ATOM     51  C   UNL A   1      38.946  27.662  29.262  1.00  0.00     0.034 A 
ATOM     52  C   UNL A   1      42.696  33.364  30.028  1.00  0.00     0.034 A 
ATOM     53  C   UNL A   1      39.348  27.527  30.645  1.00  0.00     0.049 A 
ATOM     54  C   UNL A   1      43.030  31.966  30.376  1.00  0.00     0.074 A 
ATOM     55  C   UNL A   1      38.693  27.453  31.858  1.00  0.00     0.029 A 
ATOM     56  N   UNL A   1      40.652  27.845  30.938  1.00  0.00    -0.354 N 
ATOM     57  N   UNL A   1      42.953  31.483  31.584  1.00  0.00    -0.248 NA
ATOM     58  C   UNL A   1      43.051  30.982  29.307  1.00  0.00     0.031 C 
ATOM     59  C   UNL A   1      39.519  28.180  32.766  1.00  0.00     0.029 A 
ATOM     60  C   UNL A   1      40.664  28.594  32.080  1.00  0.00     0.049 A 
ATOM     61  H   UNL A   1      41.443  27.578  30.415  1.00  0.00     0.167 HD
ATOM     62  C   UNL A   1      42.449  30.202  31.409  1.00  0.00     0.074 A 
ATOM     63  C   UNL A   1      42.662  29.904  29.994  1.00  0.00     0.031 C 
ATOM     64  C   UNL A   1      41.637  29.633  32.349  1.00  0.00     0.034 A 
BRANCH  51  65
ATOM     65  C   UNL A   1      39.685  26.906  28.162  1.00  0.00     0.023 A 
ATOM     66  C   UNL A   1      39.513  25.500  28.133  1.00  0.00     0.012 A 
ATOM     67  C   UNL A   1      40.732  27.421  27.361  1.00  0.00     0.148 A 
ATOM     68  C   UNL A   1      40.399  24.654  27.454  1.00  0.00     0.002 A 
ATOM     69  C   UNL A   1      41.570  26.581  26.631  1.00  0.00     0.091 A 
ATOM     70  F   UNL A   1      41.016  28.721  27.365  1.00  0.00    -0.205 F 
ATOM     71  C   UNL A   1      41.434  25.195  26.706  1.00  0.00     0.022 A 
BRANCH  69  72
ATOM     72  S   UNL A   1      42.898  27.237  25.607  1.00  0.00     0.127 S 
ATOM     73  O   UNL A   1      43.765  27.844  26.613  1.00  0.00    -0.237 OA
ATOM     74  O   UNL A   1      43.423  26.020  24.987  1.00  0.00    -0.237 OA
ATOM     75  O   UNL A   1      42.262  28.155  24.673  1.00  0.00    -0.744 OA
ENDBRANCH  69  72
ENDBRANCH  51  65
BRANCH  52  76
ATOM     76  C   UNL A   1      43.660  34.258  29.349  1.00  0.00     0.023 A 
ATOM     77  C   UNL A   1      44.364  35.217  30.102  1.00  0.00     0.012 A 
ATOM     78  C   UNL A   1      44.085  34.002  28.026  1.00  0.00     0.148 A 
ATOM     79  C   UNL A   1      45.478  35.876  29.569  1.00  0.00     0.002 A 
ATOM     80  C   UNL A   1      45.189  34.666  27.498  1.00  0.00     0.091 A 
ATOM     81  F   UNL A   1      43.469  33.042  27.323  1.00  0.00    -0.205 F 
ATOM     82  C   UNL A   1      45.896  35.596  28.271  1.00  0.00     0.022 A 
BRANCH  80  83
ATOM     83  S   UNL A   1      45.797  34.343  25.837  1.00  0.00     0.127 S 
ATOM     84  O   UNL A   1      46.324  32.984  25.966  1.00  0.00    -0.237 OA
ATOM     85  O   UNL A   1      44.577  34.455  25.044  1.00  0.00    -0.237 OA
ATOM     86  O   UNL A   1      46.813  35.359  25.589  1.00  0.00    -0.744 OA
ENDBRANCH  80  83
ENDBRANCH  52  76
BRANCH  64  87
ATOM     87  C   UNL A   1      41.540  30.293  33.702  1.00  0.00     0.023 A 
ATOM     88  C   UNL A   1      42.508  30.103  34.712  1.00  0.00     0.012 A 
ATOM     89  C   UNL A   1      40.548  31.271  33.892  1.00  0.00     0.148 A 
ATOM     90  C   UNL A   1      42.474  30.855  35.889  1.00  0.00     0.002 A 
ATOM     91  C   UNL A   1      40.549  32.052  35.041  1.00  0.00     0.091 A 
ATOM     92  F   UNL A   1      39.634  31.442  32.925  1.00  0.00    -0.205 F 
ATOM     93  C   UNL A   1      41.503  31.842  36.047  1.00  0.00     0.022 A 
BRANCH  91  94
ATOM     94  S   UNL A   1      39.410  33.426  35.231  1.00  0.00     0.127 S 
ATOM     95  O   UNL A   1      38.122  32.744  35.323  1.00  0.00    -0.237 OA
ATOM     96  O   UNL A   1      39.865  34.047  36.476  1.00  0.00    -0.237 OA
ATOM     97  O   UNL A   1      39.598  34.262  34.051  1.00  0.00    -0.744 OA
ENDBRANCH  91  94
ENDBRANCH  64  87
ENDBRANCH  38  39
ENDBRANCH  30  33
ENDBRANCH  28  29
ENDBRANCH  27  28
ENDBRANCH   1  27
TORSDOF 18
ENDMDL
MODEL 3
REMARK VINA RESULT:     -11.8      2.177      3.912
REMARK SMILES CCCCc1nc(C[N@H+]2CC[NH2+][C@H](C(=O)NCCCNC(=O)c3ccc(-c4c5nc(c(-c6cccc(S(=O)(=O)[O-])c6F)c6ccc([nH]6)c(-c6cccc(S(=O)(=O)[O-])c6F)c6nc(c(-c7cccc(S(=O)(=O)[O-])c7F)c7ccc4[nH]7)C=C6)C=C5)cc3)C2)c(Cl)[nH]1
REMARK SMILES IDX 17 1 16 2 14 3 15 4 13 6 9 7 10 8 86 9 11 11 12 12 8 15 7 16
REMARK SMILES IDX 5 17 6 18 89 19 87 20 88 22 4 23 3 24 2 25 1 26 18 27 19 28
REMARK SMILES IDX 20 29 21 30 22 32 23 33 24 34 85 35 25 36 84 37 26 38 27 39
REMARK SMILES IDX 28 40 78 41 29 42 83 43 77 44 79 45 30 46 82 47 76 48 75 49
REMARK SMILES IDX 31 51 63 52 43 53 62 54 44 55 47 56 61 57 80 58 45 59 46 60
REMARK SMILES IDX 60 62 81 63 48 64 32 65 33 66 41 67 34 68 36 69 42 70 35 71
REMARK SMILES IDX 37 72 38 73 39 74 40 75 64 76 65 77 73 78 66 79 68 80 74 81
REMARK SMILES IDX 67 82 69 83 70 84 71 85 72 86 49 87 50 88 58 89 51 90 53 91
REMARK SMILES IDX 59 92 52 93 54 94 55 95 56 96 57 97
REMARK H PARENT 16 5 9 10 12 13 12 14 89 21 20 31 79 50 47 61
REMARK Flexibility Score: inf
ROOT
ATOM      1  C   UNL A   1      36.623  20.724  24.975  1.00  0.00     0.118 C 
ENDROOT
BRANCH   1   2
ATOM      2  N   UNL A   1      36.728  21.578  23.805  1.00  0.00    -0.351 N 
ATOM      3  C   UNL A   1      36.178  22.822  23.608  1.00  0.00     0.284 C 
ATOM      4  O   UNL A   1      36.679  23.545  22.746  1.00  0.00    -0.268 OA
ATOM      5  H   UNL A   1      37.262  21.221  23.059  1.00  0.00     0.163 HD
BRANCH   3   6
ATOM      6  C   UNL A   1      34.928  23.233  24.404  1.00  0.00     0.328 C 
ATOM      7  N   UNL A   1      32.493  24.037  24.114  1.00  0.00    -0.320 N 
ATOM      8  C   UNL A   1      32.757  24.937  25.241  1.00  0.00     0.324 C 
ATOM      9  C   UNL A   1      33.735  23.552  23.456  1.00  0.00     0.339 C 
ATOM     10  H   UNL A   1      32.023  24.624  23.425  1.00  0.00     0.348 HD
ATOM     11  C   UNL A   1      33.991  24.611  26.105  1.00  0.00     0.323 C 
ATOM     12  N   UNL A   1      35.196  24.402  25.292  1.00  0.00    -0.327 N 
ATOM     13  H   UNL A   1      35.995  24.208  25.896  1.00  0.00     0.347 HD
ATOM     14  H   UNL A   1      35.412  25.234  24.742  1.00  0.00     0.347 HD
BRANCH   7  15
ATOM     15  C   UNL A   1      31.509  22.972  24.382  1.00  0.00     0.323 C 
BRANCH  15  16
ATOM     16  C   UNL A   1      32.024  21.586  24.192  1.00  0.00     0.132 A 
ATOM     17  C   UNL A   1      32.682  19.623  24.821  1.00  0.00     0.107 A 
ATOM     18  N   UNL A   1      32.431  20.835  25.276  1.00  0.00    -0.231 NA
ATOM     19  N   UNL A   1      32.596  19.600  23.451  1.00  0.00    -0.333 N 
ATOM     20  C   UNL A   1      32.158  20.827  23.058  1.00  0.00     0.135 A 
ATOM     21  H   UNL A   1      32.811  18.838  22.864  1.00  0.00     0.169 HD
ATOM     22  Cl  UNL A   1      31.826  21.093  21.420  1.00  0.00    -0.062 Cl
BRANCH  17  23
ATOM     23  C   UNL A   1      32.889  18.403  25.653  1.00  0.00     0.075 C 
BRANCH  23  24
ATOM     24  C   UNL A   1      33.881  17.405  25.071  1.00  0.00     0.008 C 
BRANCH  24  25
ATOM     25  C   UNL A   1      33.259  16.169  24.419  1.00  0.00    -0.003 C 
ATOM     26  C   UNL A   1      32.803  15.112  25.413  1.00  0.00     0.004 C 
ENDBRANCH  24  25
ENDBRANCH  23  24
ENDBRANCH  17  23
ENDBRANCH  15  16
ENDBRANCH   7  15
ENDBRANCH   3   6
ENDBRANCH   1   2
BRANCH   1  27
ATOM     27  C   UNL A   1      37.700  19.645  25.088  1.00  0.00     0.042 C 
BRANCH  27  28
ATOM     28  C   UNL A   1      38.982  20.200  25.688  1.00  0.00     0.118 C 
BRANCH  28  29
ATOM     29  N   UNL A   1      40.036  19.173  25.756  1.00  0.00    -0.352 N 
ATOM     30  C   UNL A   1      41.371  19.305  26.050  1.00  0.00     0.251 C 
ATOM     31  H   UNL A   1      39.739  18.256  25.562  1.00  0.00     0.163 HD
ATOM     32  O   UNL A   1      42.160  18.382  25.816  1.00  0.00    -0.269 OA
BRANCH  30  33
ATOM     33  C   UNL A   1      41.854  20.561  26.630  1.00  0.00     0.039 A 
ATOM     34  C   UNL A   1      42.497  21.522  25.843  1.00  0.00     0.014 A 
ATOM     35  C   UNL A   1      41.581  20.795  27.973  1.00  0.00     0.014 A 
ATOM     36  C   UNL A   1      42.774  22.767  26.397  1.00  0.00     0.010 A 
ATOM     37  C   UNL A   1      41.691  22.068  28.461  1.00  0.00     0.010 A 
ATOM     38  C   UNL A   1      42.344  23.038  27.702  1.00  0.00    -0.014 A 
BRANCH  38  39
ATOM     39  C   UNL A   1      42.453  24.375  28.272  1.00  0.00     0.031 A 
ATOM     40  C   UNL A   1      41.274  25.253  28.029  1.00  0.00     0.074 A 
ATOM     41  C   UNL A   1      43.400  24.661  29.192  1.00  0.00     0.049 A 
ATOM     42  N   UNL A   1      41.224  26.360  27.363  1.00  0.00    -0.248 NA
ATOM     43  C   UNL A   1      39.954  24.755  28.449  1.00  0.00     0.031 C 
ATOM     44  C   UNL A   1      44.385  23.735  29.774  1.00  0.00     0.029 A 
ATOM     45  N   UNL A   1      43.555  25.778  29.952  1.00  0.00    -0.354 N 
ATOM     46  C   UNL A   1      39.913  26.821  27.507  1.00  0.00     0.074 A 
ATOM     47  C   UNL A   1      39.147  25.688  27.942  1.00  0.00     0.031 C 
ATOM     48  C   UNL A   1      44.812  24.223  30.956  1.00  0.00     0.029 A 
ATOM     49  C   UNL A   1      44.283  25.561  31.120  1.00  0.00     0.049 A 
ATOM     50  H   UNL A   1      43.190  26.657  29.700  1.00  0.00     0.167 HD
ATOM     51  C   UNL A   1      39.633  28.156  27.548  1.00  0.00     0.034 A 
ATOM     52  C   UNL A   1      44.391  26.399  32.178  1.00  0.00     0.034 A 
ATOM     53  C   UNL A   1      40.759  28.927  27.071  1.00  0.00     0.049 A 
ATOM     54  C   UNL A   1      43.986  27.743  31.709  1.00  0.00     0.074 A 
ATOM     55  C   UNL A   1      41.499  28.972  25.906  1.00  0.00     0.029 A 
ATOM     56  N   UNL A   1      41.518  29.559  28.026  1.00  0.00    -0.354 N 
ATOM     57  N   UNL A   1      44.654  28.433  30.828  1.00  0.00    -0.248 NA
ATOM     58  C   UNL A   1      42.606  28.150  31.910  1.00  0.00     0.031 C 
ATOM     59  C   UNL A   1      42.840  29.209  26.332  1.00  0.00     0.029 A 
ATOM     60  C   UNL A   1      42.836  29.368  27.720  1.00  0.00     0.049 A 
ATOM     61  H   UNL A   1      41.173  30.063  28.798  1.00  0.00     0.167 HD
ATOM     62  C   UNL A   1      43.674  29.027  30.045  1.00  0.00     0.074 A 
ATOM     63  C   UNL A   1      42.450  28.932  30.839  1.00  0.00     0.031 C 
ATOM     64  C   UNL A   1      43.883  29.260  28.715  1.00  0.00     0.034 A 
BRANCH  51  65
ATOM     65  C   UNL A   1      38.547  28.812  28.398  1.00  0.00     0.023 A 
ATOM     66  C   UNL A   1      37.677  29.710  27.731  1.00  0.00     0.012 A 
ATOM     67  C   UNL A   1      38.502  28.835  29.811  1.00  0.00     0.148 A 
ATOM     68  C   UNL A   1      36.908  30.653  28.424  1.00  0.00     0.002 A 
ATOM     69  C   UNL A   1      37.683  29.728  30.498  1.00  0.00     0.091 A 
ATOM     70  F   UNL A   1      39.323  28.074  30.531  1.00  0.00    -0.205 F 
ATOM     71  C   UNL A   1      36.915  30.667  29.811  1.00  0.00     0.022 A 
BRANCH  69  72
ATOM     72  S   UNL A   1      37.621  29.753  32.298  1.00  0.00     0.127 S 
ATOM     73  O   UNL A   1      36.473  30.623  32.535  1.00  0.00    -0.237 OA
ATOM     74  O   UNL A   1      37.402  28.339  32.606  1.00  0.00    -0.237 OA
ATOM     75  O   UNL A   1      38.913  30.264  32.733  1.00  0.00    -0.744 OA
ENDBRANCH  69  72
ENDBRANCH  51  65
BRANCH  52  76
ATOM     76  C   UNL A   1      44.607  26.098  33.610  1.00  0.00     0.023 A 
ATOM     77  C   UNL A   1      45.921  26.037  34.114  1.00  0.00     0.012 A 
ATOM     78  C   UNL A   1      43.538  26.130  34.532  1.00  0.00     0.148 A 
ATOM     79  C   UNL A   1      46.165  26.045  35.493  1.00  0.00     0.002 A 
ATOM     80  C   UNL A   1      43.785  26.128  35.902  1.00  0.00     0.091 A 
ATOM     81  F   UNL A   1      42.287  26.259  34.067  1.00  0.00    -0.205 F 
ATOM     82  C   UNL A   1      45.099  26.098  36.387  1.00  0.00     0.022 A 
BRANCH  80  83
ATOM     83  S   UNL A   1      42.461  26.214  37.116  1.00  0.00     0.127 S 
ATOM     84  O   UNL A   1      41.744  24.962  36.871  1.00  0.00    -0.237 OA
ATOM     85  O   UNL A   1      43.207  26.258  38.370  1.00  0.00    -0.237 OA
ATOM     86  O   UNL A   1      41.703  27.414  36.782  1.00  0.00    -0.744 OA
ENDBRANCH  80  83
ENDBRANCH  52  76
BRANCH  64  87
ATOM     87  C   UNL A   1      45.290  29.137  28.182  1.00  0.00     0.023 A 
ATOM     88  C   UNL A   1      46.247  30.164  28.319  1.00  0.00     0.012 A 
ATOM     89  C   UNL A   1      45.705  27.885  27.696  1.00  0.00     0.148 A 
ATOM     90  C   UNL A   1      47.581  29.953  27.961  1.00  0.00     0.002 A 
ATOM     91  C   UNL A   1      47.042  27.664  27.391  1.00  0.00     0.091 A 
ATOM     92  F   UNL A   1      44.785  26.917  27.571  1.00  0.00    -0.205 F 
ATOM     93  C   UNL A   1      47.983  28.698  27.511  1.00  0.00     0.022 A 
BRANCH  91  94
ATOM     94  S   UNL A   1      47.636  26.031  26.943  1.00  0.00     0.127 S 
ATOM     95  O   UNL A   1      47.199  25.917  25.553  1.00  0.00    -0.237 OA
ATOM     96  O   UNL A   1      49.083  26.158  27.121  1.00  0.00    -0.237 OA
ATOM     97  O   UNL A   1      47.003  25.109  27.880  1.00  0.00    -0.744 OA
ENDBRANCH  91  94
ENDBRANCH  64  87
ENDBRANCH  38  39
ENDBRANCH  30  33
ENDBRANCH  28  29
ENDBRANCH  27  28
ENDBRANCH   1  27
TORSDOF 18
ENDMDL
