MODEL 1
REMARK VINA RESULT:     -12.5      0.000      0.000
REMARK SMILES Cc1cc(C(=O)N2C[C@@H](C(=O)NCCCNC(=O)c3ccc(-c4c5nc(c(-c6cccc(S(=O)(=O)[O-])c6F)c6ccc([nH]6)c(-c6cccc(S(=O)(=O)[O-])c6F)c6nc(c(-c7cccc(S(=O)(=O)[O-])c7F)c7ccc4[nH]7)C=C6)C=C5)cc3)[C@H](C3CC3)C2)sc1C
REMARK SMILES IDX 14 1 13 2 12 3 10 4 11 5 9 7 7 8 8 9 86 10 82 11 5 12 6 13
REMARK SMILES IDX 4 14 1 15 2 16 3 17 88 18 87 19 89 20 83 21 84 22 85 23
REMARK SMILES IDX 15 24 16 25 17 26 18 28 19 29 20 30 81 31 21 32 80 33 22 34
REMARK SMILES IDX 23 35 24 36 74 37 25 38 79 39 73 40 75 41 26 42 78 43 72 44
REMARK SMILES IDX 71 45 27 47 59 48 39 49 58 50 40 51 43 52 57 53 76 54 41 55
REMARK SMILES IDX 42 56 56 58 77 59 44 60 28 61 29 62 37 63 30 64 32 65 38 66
REMARK SMILES IDX 31 67 33 68 34 69 35 70 36 71 60 72 61 73 69 74 62 75 64 76
REMARK SMILES IDX 70 77 63 78 65 79 66 80 67 81 68 82 45 83 46 84 54 85 47 86
REMARK SMILES IDX 49 87 55 88 48 89 50 90 51 91 52 92 53 93
REMARK H PARENT 12 6 16 27 75 46 43 57
REMARK Flexibility Score: inf
ROOT
ATOM      1  C   UNL A   1      35.747  21.723  26.099  1.00  0.00     0.042 C 
ENDROOT
BRANCH   1   2
ATOM      2  C   UNL A   1      35.354  23.127  26.510  1.00  0.00     0.117 C 
BRANCH   2   3
ATOM      3  N   UNL A   1      34.044  23.217  27.129  1.00  0.00    -0.356 N 
ATOM      4  C   UNL A   1      32.835  23.502  26.564  1.00  0.00     0.225 C 
ATOM      5  O   UNL A   1      31.828  23.362  27.261  1.00  0.00    -0.275 OA
ATOM      6  H   UNL A   1      34.024  23.047  28.098  1.00  0.00     0.163 HD
BRANCH   4   7
ATOM      7  C   UNL A   1      32.752  23.978  25.126  1.00  0.00     0.103 C 
ATOM      8  N   UNL A   1      31.536  25.347  23.701  1.00  0.00    -0.337 N 
ATOM      9  C   UNL A   1      31.963  25.288  25.083  1.00  0.00     0.133 C 
ATOM     10  C   UNL A   1      31.191  24.020  23.248  1.00  0.00     0.124 C 
ATOM     11  C   UNL A   1      31.915  23.046  24.211  1.00  0.00     0.026 C 
BRANCH   8  12
ATOM     12  C   UNL A   1      31.451  26.416  22.825  1.00  0.00     0.263 C 
ATOM     13  O   UNL A   1      32.281  26.499  21.914  1.00  0.00    -0.268 OA
BRANCH  12  14
ATOM     14  C   UNL A   1      30.466  27.474  23.030  1.00  0.00     0.093 A 
ATOM     15  C   UNL A   1      26.859  28.498  23.434  1.00  0.00     0.045 C 
ATOM     16  C   UNL A   1      28.340  28.479  23.248  1.00  0.00    -0.037 A 
ATOM     17  C   UNL A   1      29.128  27.281  23.326  1.00  0.00     0.029 A 
ATOM     18  C   UNL A   1      29.136  29.570  22.943  1.00  0.00     0.005 A 
ATOM     19  S   UNL A   1      30.756  29.116  22.656  1.00  0.00    -0.135 S 
ATOM     20  C   UNL A   1      28.736  31.002  22.784  1.00  0.00     0.056 C 
ENDBRANCH  12  14
ENDBRANCH   8  12
BRANCH  11  21
ATOM     21  C   UNL A   1      32.628  21.983  23.403  1.00  0.00    -0.005 C 
ATOM     22  C   UNL A   1      32.575  20.502  23.688  1.00  0.00     0.004 C 
ATOM     23  C   UNL A   1      31.894  21.064  22.467  1.00  0.00     0.004 C 
ENDBRANCH  11  21
ENDBRANCH   4   7
ENDBRANCH   2   3
ENDBRANCH   1   2
BRANCH   1  24
ATOM     24  C   UNL A   1      36.907  21.668  25.119  1.00  0.00     0.118 C 
BRANCH  24  25
ATOM     25  N   UNL A   1      37.927  20.686  25.478  1.00  0.00    -0.352 N 
ATOM     26  C   UNL A   1      39.177  20.844  26.032  1.00  0.00     0.251 C 
ATOM     27  H   UNL A   1      37.676  19.752  25.294  1.00  0.00     0.163 HD
ATOM     28  O   UNL A   1      39.930  19.881  26.106  1.00  0.00    -0.269 OA
BRANCH  26  29
ATOM     29  C   UNL A   1      39.621  22.173  26.509  1.00  0.00     0.039 A 
ATOM     30  C   UNL A   1      40.611  22.251  27.493  1.00  0.00     0.014 A 
ATOM     31  C   UNL A   1      39.069  23.341  25.985  1.00  0.00     0.014 A 
ATOM     32  C   UNL A   1      41.112  23.500  27.875  1.00  0.00     0.010 A 
ATOM     33  C   UNL A   1      39.650  24.568  26.274  1.00  0.00     0.010 A 
ATOM     34  C   UNL A   1      40.671  24.666  27.229  1.00  0.00    -0.014 A 
BRANCH  34  35
ATOM     35  C   UNL A   1      41.249  26.002  27.528  1.00  0.00     0.031 A 
ATOM     36  C   UNL A   1      42.663  26.317  27.111  1.00  0.00     0.074 A 
ATOM     37  C   UNL A   1      40.550  26.885  28.270  1.00  0.00     0.049 A 
ATOM     38  N   UNL A   1      43.393  27.364  27.391  1.00  0.00    -0.248 NA
ATOM     39  C   UNL A   1      43.364  25.300  26.307  1.00  0.00     0.031 C 
ATOM     40  C   UNL A   1      39.206  26.664  28.812  1.00  0.00     0.029 A 
ATOM     41  N   UNL A   1      40.886  28.135  28.727  1.00  0.00    -0.354 N 
ATOM     42  C   UNL A   1      44.643  27.115  26.835  1.00  0.00     0.074 A 
ATOM     43  C   UNL A   1      44.590  25.797  26.246  1.00  0.00     0.031 C 
ATOM     44  C   UNL A   1      38.831  27.743  29.519  1.00  0.00     0.029 A 
ATOM     45  C   UNL A   1      39.917  28.718  29.511  1.00  0.00     0.049 A 
ATOM     46  H   UNL A   1      41.742  28.573  28.514  1.00  0.00     0.167 HD
ATOM     47  C   UNL A   1      45.725  27.927  26.779  1.00  0.00     0.034 A 
ATOM     48  C   UNL A   1      39.907  29.901  30.156  1.00  0.00     0.034 A 
ATOM     49  C   UNL A   1      45.753  29.262  27.308  1.00  0.00     0.049 A 
ATOM     50  C   UNL A   1      41.103  30.807  30.027  1.00  0.00     0.074 A 
ATOM     51  C   UNL A   1      46.774  30.194  27.242  1.00  0.00     0.029 A 
ATOM     52  N   UNL A   1      44.707  29.861  27.992  1.00  0.00    -0.354 N 
ATOM     53  N   UNL A   1      42.223  30.608  29.376  1.00  0.00    -0.248 NA
ATOM     54  C   UNL A   1      41.018  32.117  30.690  1.00  0.00     0.031 C 
ATOM     55  C   UNL A   1      46.345  31.357  27.889  1.00  0.00     0.029 A 
ATOM     56  C   UNL A   1      45.051  31.154  28.345  1.00  0.00     0.049 A 
ATOM     57  H   UNL A   1      43.846  29.430  28.196  1.00  0.00     0.167 HD
ATOM     58  C   UNL A   1      42.959  31.779  29.516  1.00  0.00     0.074 A 
ATOM     59  C   UNL A   1      42.146  32.691  30.295  1.00  0.00     0.031 C 
ATOM     60  C   UNL A   1      44.201  32.069  29.060  1.00  0.00     0.034 A 
BRANCH  47  61
ATOM     61  C   UNL A   1      46.938  27.422  26.043  1.00  0.00     0.023 A 
ATOM     62  C   UNL A   1      47.841  26.567  26.711  1.00  0.00     0.012 A 
ATOM     63  C   UNL A   1      47.164  27.741  24.689  1.00  0.00     0.148 A 
ATOM     64  C   UNL A   1      48.965  26.067  26.057  1.00  0.00     0.002 A 
ATOM     65  C   UNL A   1      48.264  27.201  24.031  1.00  0.00     0.091 A 
ATOM     66  F   UNL A   1      46.308  28.570  24.076  1.00  0.00    -0.205 F 
ATOM     67  C   UNL A   1      49.171  26.375  24.715  1.00  0.00     0.022 A 
BRANCH  65  68
ATOM     68  S   UNL A   1      48.580  27.473  22.283  1.00  0.00     0.127 S 
ATOM     69  O   UNL A   1      48.771  26.105  21.801  1.00  0.00    -0.237 OA
ATOM     70  O   UNL A   1      47.338  28.107  21.841  1.00  0.00    -0.237 OA
ATOM     71  O   UNL A   1      49.757  28.328  22.216  1.00  0.00    -0.744 OA
ENDBRANCH  65  68
ENDBRANCH  47  61
BRANCH  48  72
ATOM     72  C   UNL A   1      38.700  30.333  30.917  1.00  0.00     0.023 A 
ATOM     73  C   UNL A   1      38.602  30.021  32.288  1.00  0.00     0.012 A 
ATOM     74  C   UNL A   1      37.659  31.057  30.305  1.00  0.00     0.148 A 
ATOM     75  C   UNL A   1      37.473  30.383  33.023  1.00  0.00     0.002 A 
ATOM     76  C   UNL A   1      36.562  31.464  31.057  1.00  0.00     0.091 A 
ATOM     77  F   UNL A   1      37.760  31.336  28.998  1.00  0.00    -0.205 F 
ATOM     78  C   UNL A   1      36.457  31.111  32.411  1.00  0.00     0.022 A 
BRANCH  76  79
ATOM     79  S   UNL A   1      35.277  32.519  30.375  1.00  0.00     0.127 S 
ATOM     80  O   UNL A   1      34.815  31.732  29.235  1.00  0.00    -0.237 OA
ATOM     81  O   UNL A   1      34.329  32.609  31.487  1.00  0.00    -0.237 OA
ATOM     82  O   UNL A   1      35.940  33.778  30.058  1.00  0.00    -0.744 OA
ENDBRANCH  76  79
ENDBRANCH  48  72
BRANCH  60  83
ATOM     83  C   UNL A   1      44.748  33.441  29.349  1.00  0.00     0.023 A 
ATOM     84  C   UNL A   1      45.401  33.690  30.571  1.00  0.00     0.012 A 
ATOM     85  C   UNL A   1      44.683  34.457  28.376  1.00  0.00     0.148 A 
ATOM     86  C   UNL A   1      45.955  34.941  30.835  1.00  0.00     0.002 A 
ATOM     87  C   UNL A   1      45.278  35.688  28.628  1.00  0.00     0.091 A 
ATOM     88  F   UNL A   1      44.040  34.205  27.226  1.00  0.00    -0.205 F 
ATOM     89  C   UNL A   1      45.904  35.935  29.860  1.00  0.00     0.022 A 
BRANCH  87  90
ATOM     90  S   UNL A   1      45.345  36.993  27.395  1.00  0.00     0.127 S 
ATOM     91  O   UNL A   1      43.927  37.294  27.204  1.00  0.00    -0.237 OA
ATOM     92  O   UNL A   1      46.103  38.036  28.085  1.00  0.00    -0.237 OA
ATOM     93  O   UNL A   1      46.025  36.418  26.241  1.00  0.00    -0.744 OA
ENDBRANCH  87  90
ENDBRANCH  60  83
ENDBRANCH  34  35
ENDBRANCH  26  29
ENDBRANCH  24  25
ENDBRANCH   1  24
TORSDOF 16
ENDMDL
MODEL 2
REMARK VINA RESULT:     -12.3      5.186     10.334
REMARK SMILES Cc1cc(C(=O)N2C[C@@H](C(=O)NCCCNC(=O)c3ccc(-c4c5nc(c(-c6cccc(S(=O)(=O)[O-])c6F)c6ccc([nH]6)c(-c6cccc(S(=O)(=O)[O-])c6F)c6nc(c(-c7cccc(S(=O)(=O)[O-])c7F)c7ccc4[nH]7)C=C6)C=C5)cc3)[C@H](C3CC3)C2)sc1C
REMARK SMILES IDX 14 1 13 2 12 3 10 4 11 5 9 7 7 8 8 9 86 10 82 11 5 12 6 13
REMARK SMILES IDX 4 14 1 15 2 16 3 17 88 18 87 19 89 20 83 21 84 22 85 23
REMARK SMILES IDX 15 24 16 25 17 26 18 28 19 29 20 30 81 31 21 32 80 33 22 34
REMARK SMILES IDX 23 35 24 36 74 37 25 38 79 39 73 40 75 41 26 42 78 43 72 44
REMARK SMILES IDX 71 45 27 47 59 48 39 49 58 50 40 51 43 52 57 53 76 54 41 55
REMARK SMILES IDX 42 56 56 58 77 59 44 60 28 61 29 62 37 63 30 64 32 65 38 66
REMARK SMILES IDX 31 67 33 68 34 69 35 70 36 71 60 72 61 73 69 74 62 75 64 76
REMARK SMILES IDX 70 77 63 78 65 79 66 80 67 81 68 82 45 83 46 84 54 85 47 86
REMARK SMILES IDX 49 87 55 88 48 89 50 90 51 91 52 92 53 93
REMARK H PARENT 12 6 16 27 75 46 43 57
REMARK Flexibility Score: inf
ROOT
ATOM      1  C   UNL A   1      32.849  29.288  24.234  1.00  0.00     0.042 C 
ENDROOT
BRANCH   1   2
ATOM      2  C   UNL A   1      34.134  28.620  23.790  1.00  0.00     0.117 C 
BRANCH   2   3
ATOM      3  N   UNL A   1      34.008  27.858  22.560  1.00  0.00    -0.356 N 
ATOM      4  C   UNL A   1      33.346  26.688  22.328  1.00  0.00     0.225 C 
ATOM      5  O   UNL A   1      33.243  26.308  21.160  1.00  0.00    -0.275 OA
ATOM      6  H   UNL A   1      34.469  28.241  21.779  1.00  0.00     0.163 HD
BRANCH   4   7
ATOM      7  C   UNL A   1      32.767  25.891  23.481  1.00  0.00     0.103 C 
ATOM      8  N   UNL A   1      32.392  23.725  24.226  1.00  0.00    -0.337 N 
ATOM      9  C   UNL A   1      33.356  24.479  23.454  1.00  0.00     0.133 C 
ATOM     10  C   UNL A   1      31.062  24.201  23.928  1.00  0.00     0.124 C 
ATOM     11  C   UNL A   1      31.245  25.626  23.350  1.00  0.00     0.026 C 
BRANCH   8  12
ATOM     12  C   UNL A   1      32.569  22.714  25.155  1.00  0.00     0.263 C 
ATOM     13  O   UNL A   1      32.615  23.015  26.352  1.00  0.00    -0.268 OA
BRANCH  12  14
ATOM     14  C   UNL A   1      32.794  21.336  24.727  1.00  0.00     0.093 A 
ATOM     15  C   UNL A   1      32.153  18.580  22.235  1.00  0.00     0.045 C 
ATOM     16  C   UNL A   1      32.567  19.379  23.426  1.00  0.00    -0.037 A 
ATOM     17  C   UNL A   1      32.439  20.807  23.499  1.00  0.00     0.029 A 
ATOM     18  C   UNL A   1      33.076  18.872  24.609  1.00  0.00     0.005 A 
ATOM     19  S   UNL A   1      33.280  20.088  25.788  1.00  0.00    -0.135 S 
ATOM     20  C   UNL A   1      33.384  17.451  24.959  1.00  0.00     0.056 C 
ENDBRANCH  12  14
ENDBRANCH   8  12
BRANCH  11  21
ATOM     21  C   UNL A   1      30.278  26.570  24.034  1.00  0.00    -0.005 C 
ATOM     22  C   UNL A   1      29.498  27.658  23.340  1.00  0.00     0.004 C 
ATOM     23  C   UNL A   1      28.788  26.441  23.875  1.00  0.00     0.004 C 
ENDBRANCH  11  21
ENDBRANCH   4   7
ENDBRANCH   2   3
ENDBRANCH   1   2
BRANCH   1  24
ATOM     24  C   UNL A   1      32.711  29.420  25.742  1.00  0.00     0.118 C 
BRANCH  24  25
ATOM     25  N   UNL A   1      32.505  30.796  26.189  1.00  0.00    -0.352 N 
ATOM     26  C   UNL A   1      33.209  31.570  27.083  1.00  0.00     0.251 C 
ATOM     27  H   UNL A   1      31.731  31.246  25.779  1.00  0.00     0.163 HD
ATOM     28  O   UNL A   1      32.761  32.656  27.424  1.00  0.00    -0.269 OA
BRANCH  26  29
ATOM     29  C   UNL A   1      34.486  31.081  27.651  1.00  0.00     0.039 A 
ATOM     30  C   UNL A   1      35.525  31.987  27.877  1.00  0.00     0.014 A 
ATOM     31  C   UNL A   1      34.658  29.734  27.968  1.00  0.00     0.014 A 
ATOM     32  C   UNL A   1      36.695  31.556  28.511  1.00  0.00     0.010 A 
ATOM     33  C   UNL A   1      35.764  29.334  28.704  1.00  0.00     0.010 A 
ATOM     34  C   UNL A   1      36.802  30.235  28.977  1.00  0.00    -0.014 A 
BRANCH  34  35
ATOM     35  C   UNL A   1      37.982  29.761  29.745  1.00  0.00     0.031 A 
ATOM     36  C   UNL A   1      38.242  30.303  31.128  1.00  0.00     0.074 A 
ATOM     37  C   UNL A   1      38.876  28.938  29.162  1.00  0.00     0.049 A 
ATOM     38  N   UNL A   1      39.277  30.121  31.905  1.00  0.00    -0.248 NA
ATOM     39  C   UNL A   1      37.221  31.202  31.696  1.00  0.00     0.031 C 
ATOM     40  C   UNL A   1      38.785  28.414  27.796  1.00  0.00     0.029 A 
ATOM     41  N   UNL A   1      40.058  28.421  29.633  1.00  0.00    -0.354 N 
ATOM     42  C   UNL A   1      39.052  30.910  33.029  1.00  0.00     0.074 A 
ATOM     43  C   UNL A   1      37.807  31.611  32.811  1.00  0.00     0.031 C 
ATOM     44  C   UNL A   1      39.859  27.647  27.543  1.00  0.00     0.029 A 
ATOM     45  C   UNL A   1      40.731  27.650  28.713  1.00  0.00     0.049 A 
ATOM     46  H   UNL A   1      40.392  28.587  30.544  1.00  0.00     0.167 HD
ATOM     47  C   UNL A   1      39.789  31.008  34.159  1.00  0.00     0.034 A 
ATOM     48  C   UNL A   1      41.919  27.021  28.801  1.00  0.00     0.034 A 
ATOM     49  C   UNL A   1      40.991  30.261  34.399  1.00  0.00     0.049 A 
ATOM     50  C   UNL A   1      42.690  27.102  30.093  1.00  0.00     0.074 A 
ATOM     51  C   UNL A   1      41.776  30.233  35.539  1.00  0.00     0.029 A 
ATOM     52  N   UNL A   1      41.577  29.397  33.488  1.00  0.00    -0.354 N 
ATOM     53  N   UNL A   1      42.386  27.743  31.196  1.00  0.00    -0.248 NA
ATOM     54  C   UNL A   1      43.947  26.343  30.165  1.00  0.00     0.031 C 
ATOM     55  C   UNL A   1      42.839  29.353  35.315  1.00  0.00     0.029 A 
ATOM     56  C   UNL A   1      42.708  28.822  34.040  1.00  0.00     0.049 A 
ATOM     57  H   UNL A   1      41.239  29.219  32.581  1.00  0.00     0.167 HD
ATOM     58  C   UNL A   1      43.391  27.433  32.105  1.00  0.00     0.074 A 
ATOM     59  C   UNL A   1      44.300  26.529  31.430  1.00  0.00     0.031 C 
ATOM     60  C   UNL A   1      43.560  27.870  33.376  1.00  0.00     0.034 A 
BRANCH  47  61
ATOM     61  C   UNL A   1      39.264  31.896  35.258  1.00  0.00     0.023 A 
ATOM     62  C   UNL A   1      38.267  31.400  36.125  1.00  0.00     0.012 A 
ATOM     63  C   UNL A   1      39.783  33.188  35.471  1.00  0.00     0.148 A 
ATOM     64  C   UNL A   1      37.770  32.186  37.162  1.00  0.00     0.002 A 
ATOM     65  C   UNL A   1      39.315  33.949  36.536  1.00  0.00     0.091 A 
ATOM     66  F   UNL A   1      40.716  33.650  34.627  1.00  0.00    -0.205 F 
ATOM     67  C   UNL A   1      38.301  33.455  37.375  1.00  0.00     0.022 A 
BRANCH  65  68
ATOM     68  S   UNL A   1      39.983  35.566  36.944  1.00  0.00     0.127 S 
ATOM     69  O   UNL A   1      39.286  35.867  38.195  1.00  0.00    -0.237 OA
ATOM     70  O   UNL A   1      41.409  35.280  37.096  1.00  0.00    -0.237 OA
ATOM     71  O   UNL A   1      39.653  36.433  35.822  1.00  0.00    -0.744 OA
ENDBRANCH  65  68
ENDBRANCH  47  61
BRANCH  48  72
ATOM     72  C   UNL A   1      42.421  26.198  27.664  1.00  0.00     0.023 A 
ATOM     73  C   UNL A   1      43.332  26.766  26.750  1.00  0.00     0.012 A 
ATOM     74  C   UNL A   1      42.018  24.861  27.484  1.00  0.00     0.148 A 
ATOM     75  C   UNL A   1      43.797  26.035  25.657  1.00  0.00     0.002 A 
ATOM     76  C   UNL A   1      42.530  24.119  26.424  1.00  0.00     0.091 A 
ATOM     77  F   UNL A   1      41.143  24.337  28.353  1.00  0.00    -0.205 F 
ATOM     78  C   UNL A   1      43.404  24.709  25.499  1.00  0.00     0.022 A 
BRANCH  76  79
ATOM     79  S   UNL A   1      42.176  22.368  26.228  1.00  0.00     0.127 S 
ATOM     80  O   UNL A   1      42.924  22.044  25.018  1.00  0.00    -0.237 OA
ATOM     81  O   UNL A   1      42.724  21.802  27.462  1.00  0.00    -0.237 OA
ATOM     82  O   UNL A   1      40.725  22.277  26.128  1.00  0.00    -0.744 OA
ENDBRANCH  76  79
ENDBRANCH  48  72
BRANCH  60  83
ATOM     83  C   UNL A   1      44.744  27.348  34.142  1.00  0.00     0.023 A 
ATOM     84  C   UNL A   1      45.956  28.065  34.131  1.00  0.00     0.012 A 
ATOM     85  C   UNL A   1      44.631  26.190  34.936  1.00  0.00     0.148 A 
ATOM     86  C   UNL A   1      47.049  27.620  34.873  1.00  0.00     0.002 A 
ATOM     87  C   UNL A   1      45.709  25.778  35.709  1.00  0.00     0.091 A 
ATOM     88  F   UNL A   1      43.474  25.511  34.917  1.00  0.00    -0.205 F 
ATOM     89  C   UNL A   1      46.922  26.485  35.671  1.00  0.00     0.022 A 
BRANCH  87  90
ATOM     90  S   UNL A   1      45.605  24.385  36.838  1.00  0.00     0.127 S 
ATOM     91  O   UNL A   1      44.547  24.818  37.749  1.00  0.00    -0.237 OA
ATOM     92  O   UNL A   1      45.231  23.287  35.946  1.00  0.00    -0.237 OA
ATOM     93  O   UNL A   1      46.929  24.252  37.434  1.00  0.00    -0.744 OA
ENDBRANCH  87  90
ENDBRANCH  60  83
ENDBRANCH  34  35
ENDBRANCH  26  29
ENDBRANCH  24  25
ENDBRANCH   1  24
TORSDOF 16
ENDMDL
MODEL 3
REMARK VINA RESULT:     -12.3      4.529      8.647
REMARK SMILES Cc1cc(C(=O)N2C[C@@H](C(=O)NCCCNC(=O)c3ccc(-c4c5nc(c(-c6cccc(S(=O)(=O)[O-])c6F)c6ccc([nH]6)c(-c6cccc(S(=O)(=O)[O-])c6F)c6nc(c(-c7cccc(S(=O)(=O)[O-])c7F)c7ccc4[nH]7)C=C6)C=C5)cc3)[C@H](C3CC3)C2)sc1C
REMARK SMILES IDX 14 1 13 2 12 3 10 4 11 5 9 7 7 8 8 9 86 10 82 11 5 12 6 13
REMARK SMILES IDX 4 14 1 15 2 16 3 17 88 18 87 19 89 20 83 21 84 22 85 23
REMARK SMILES IDX 15 24 16 25 17 26 18 28 19 29 20 30 81 31 21 32 80 33 22 34
REMARK SMILES IDX 23 35 24 36 74 37 25 38 79 39 73 40 75 41 26 42 78 43 72 44
REMARK SMILES IDX 71 45 27 47 59 48 39 49 58 50 40 51 43 52 57 53 76 54 41 55
REMARK SMILES IDX 42 56 56 58 77 59 44 60 28 61 29 62 37 63 30 64 32 65 38 66
REMARK SMILES IDX 31 67 33 68 34 69 35 70 36 71 60 72 61 73 69 74 62 75 64 76
REMARK SMILES IDX 70 77 63 78 65 79 66 80 67 81 68 82 45 83 46 84 54 85 47 86
REMARK SMILES IDX 49 87 55 88 48 89 50 90 51 91 52 92 53 93
REMARK H PARENT 12 6 16 27 75 46 43 57
REMARK Flexibility Score: inf
ROOT
ATOM      1  C   UNL A   1      42.319  20.740  27.242  1.00  0.00     0.042 C 
ENDROOT
BRANCH   1   2
ATOM      2  C   UNL A   1      42.808  21.093  25.853  1.00  0.00     0.117 C 
BRANCH   2   3
ATOM      3  N   UNL A   1      44.157  20.636  25.568  1.00  0.00    -0.356 N 
ATOM      4  C   UNL A   1      45.328  21.335  25.569  1.00  0.00     0.225 C 
ATOM      5  O   UNL A   1      46.378  20.698  25.454  1.00  0.00    -0.275 OA
ATOM      6  H   UNL A   1      44.238  19.682  25.341  1.00  0.00     0.163 HD
BRANCH   4   7
ATOM      7  C   UNL A   1      45.322  22.846  25.704  1.00  0.00     0.103 C 
ATOM      8  N   UNL A   1      46.654  24.729  25.450  1.00  0.00    -0.337 N 
ATOM      9  C   UNL A   1      46.456  23.424  24.855  1.00  0.00     0.133 C 
ATOM     10  C   UNL A   1      46.498  24.632  26.882  1.00  0.00     0.124 C 
ATOM     11  C   UNL A   1      45.676  23.344  27.129  1.00  0.00     0.026 C 
BRANCH   8  12
ATOM     12  C   UNL A   1      46.920  25.957  24.868  1.00  0.00     0.263 C 
ATOM     13  O   UNL A   1      45.977  26.724  24.652  1.00  0.00    -0.268 OA
BRANCH  12  14
ATOM     14  C   UNL A   1      48.271  26.300  24.430  1.00  0.00     0.093 A 
ATOM     15  C   UNL A   1      51.946  26.601  25.219  1.00  0.00     0.045 C 
ATOM     16  C   UNL A   1      50.597  26.672  24.583  1.00  0.00    -0.037 A 
ATOM     17  C   UNL A   1      49.436  26.028  25.126  1.00  0.00     0.029 A 
ATOM     18  C   UNL A   1      50.274  27.382  23.439  1.00  0.00     0.005 A 
ATOM     19  S   UNL A   1      48.598  27.344  23.119  1.00  0.00    -0.135 S 
ATOM     20  C   UNL A   1      51.173  28.182  22.551  1.00  0.00     0.056 C 
ENDBRANCH  12  14
ENDBRANCH   8  12
BRANCH  11  21
ATOM     21  C   UNL A   1      44.551  23.647  28.097  1.00  0.00    -0.005 C 
ATOM     22  C   UNL A   1      44.352  22.968  29.429  1.00  0.00     0.004 C 
ATOM     23  C   UNL A   1      44.778  24.412  29.371  1.00  0.00     0.004 C 
ENDBRANCH  11  21
ENDBRANCH   4   7
ENDBRANCH   2   3
ENDBRANCH   1   2
BRANCH   1  24
ATOM     24  C   UNL A   1      41.148  21.585  27.718  1.00  0.00     0.118 C 
BRANCH  24  25
ATOM     25  N   UNL A   1      40.001  21.551  26.814  1.00  0.00    -0.352 N 
ATOM     26  C   UNL A   1      39.133  22.543  26.418  1.00  0.00     0.251 C 
ATOM     27  H   UNL A   1      39.818  20.667  26.420  1.00  0.00     0.163 HD
ATOM     28  O   UNL A   1      38.139  22.251  25.765  1.00  0.00    -0.269 OA
BRANCH  26  29
ATOM     29  C   UNL A   1      39.383  23.951  26.801  1.00  0.00     0.039 A 
ATOM     30  C   UNL A   1      38.984  24.397  28.065  1.00  0.00     0.014 A 
ATOM     31  C   UNL A   1      40.014  24.829  25.923  1.00  0.00     0.014 A 
ATOM     32  C   UNL A   1      39.309  25.693  28.477  1.00  0.00     0.010 A 
ATOM     33  C   UNL A   1      40.442  26.070  26.375  1.00  0.00     0.010 A 
ATOM     34  C   UNL A   1      40.088  26.522  27.653  1.00  0.00    -0.014 A 
BRANCH  34  35
ATOM     35  C   UNL A   1      40.544  27.867  28.091  1.00  0.00     0.031 A 
ATOM     36  C   UNL A   1      42.018  28.186  28.117  1.00  0.00     0.074 A 
ATOM     37  C   UNL A   1      39.651  28.755  28.572  1.00  0.00     0.049 A 
ATOM     38  N   UNL A   1      42.625  29.243  28.587  1.00  0.00    -0.248 NA
ATOM     39  C   UNL A   1      42.932  27.163  27.579  1.00  0.00     0.031 C 
ATOM     40  C   UNL A   1      38.207  28.533  28.686  1.00  0.00     0.029 A 
ATOM     41  N   UNL A   1      39.830  30.015  29.089  1.00  0.00    -0.354 N 
ATOM     42  C   UNL A   1      43.987  28.996  28.439  1.00  0.00     0.074 A 
ATOM     43  C   UNL A   1      44.118  27.668  27.884  1.00  0.00     0.031 C 
ATOM     44  C   UNL A   1      37.632  29.619  29.228  1.00  0.00     0.029 A 
ATOM     45  C   UNL A   1      38.667  30.602  29.532  1.00  0.00     0.049 A 
ATOM     46  H   UNL A   1      40.709  30.456  29.137  1.00  0.00     0.167 HD
ATOM     47  C   UNL A   1      45.032  29.815  28.699  1.00  0.00     0.034 A 
ATOM     48  C   UNL A   1      38.460  31.794  30.124  1.00  0.00     0.034 A 
ATOM     49  C   UNL A   1      44.895  31.157  29.190  1.00  0.00     0.049 A 
ATOM     50  C   UNL A   1      39.636  32.708  30.348  1.00  0.00     0.074 A 
ATOM     51  C   UNL A   1      45.885  32.096  29.420  1.00  0.00     0.029 A 
ATOM     52  N   UNL A   1      43.690  31.759  29.515  1.00  0.00    -0.354 N 
ATOM     53  N   UNL A   1      40.901  32.508  30.070  1.00  0.00    -0.248 NA
ATOM     54  C   UNL A   1      39.351  34.027  30.932  1.00  0.00     0.031 C 
ATOM     55  C   UNL A   1      45.278  33.266  29.887  1.00  0.00     0.029 A 
ATOM     56  C   UNL A   1      43.907  33.060  29.934  1.00  0.00     0.049 A 
ATOM     57  H   UNL A   1      42.808  31.325  29.457  1.00  0.00     0.167 HD
ATOM     58  C   UNL A   1      41.557  33.686  30.406  1.00  0.00     0.074 A 
ATOM     59  C   UNL A   1      40.544  34.604  30.888  1.00  0.00     0.031 C 
ATOM     60  C   UNL A   1      42.878  33.979  30.343  1.00  0.00     0.034 A 
BRANCH  47  61
ATOM     61  C   UNL A   1      46.413  29.308  28.373  1.00  0.00     0.023 A 
ATOM     62  C   UNL A   1      46.972  29.599  27.111  1.00  0.00     0.012 A 
ATOM     63  C   UNL A   1      47.176  28.594  29.318  1.00  0.00     0.148 A 
ATOM     64  C   UNL A   1      48.253  29.160  26.781  1.00  0.00     0.002 A 
ATOM     65  C   UNL A   1      48.471  28.200  28.997  1.00  0.00     0.091 A 
ATOM     66  F   UNL A   1      46.623  28.309  30.505  1.00  0.00    -0.205 F 
ATOM     67  C   UNL A   1      49.005  28.471  27.726  1.00  0.00     0.022 A 
BRANCH  65  68
ATOM     68  S   UNL A   1      49.553  27.372  30.168  1.00  0.00     0.127 S 
ATOM     69  O   UNL A   1      50.670  26.977  29.310  1.00  0.00    -0.237 OA
ATOM     70  O   UNL A   1      49.861  28.445  31.113  1.00  0.00    -0.237 OA
ATOM     71  O   UNL A   1      48.777  26.274  30.728  1.00  0.00    -0.744 OA
ENDBRANCH  65  68
ENDBRANCH  47  61
BRANCH  48  72
ATOM     72  C   UNL A   1      37.078  32.229  30.477  1.00  0.00     0.023 A 
ATOM     73  C   UNL A   1      36.608  32.031  31.791  1.00  0.00     0.012 A 
ATOM     74  C   UNL A   1      36.232  32.844  29.535  1.00  0.00     0.148 A 
ATOM     75  C   UNL A   1      35.310  32.397  32.148  1.00  0.00     0.002 A 
ATOM     76  C   UNL A   1      34.958  33.258  29.912  1.00  0.00     0.091 A 
ATOM     77  F   UNL A   1      36.687  33.015  28.286  1.00  0.00    -0.205 F 
ATOM     78  C   UNL A   1      34.488  33.018  31.212  1.00  0.00     0.022 A 
BRANCH  76  79
ATOM     79  S   UNL A   1      33.890  34.184  28.803  1.00  0.00     0.127 S 
ATOM     80  O   UNL A   1      33.452  33.149  27.872  1.00  0.00    -0.237 OA
ATOM     81  O   UNL A   1      32.853  34.675  29.712  1.00  0.00    -0.237 OA
ATOM     82  O   UNL A   1      34.732  35.233  28.243  1.00  0.00    -0.744 OA
ENDBRANCH  76  79
ENDBRANCH  48  72
BRANCH  60  83
ATOM     83  C   UNL A   1      43.308  35.359  30.760  1.00  0.00     0.023 A 
ATOM     84  C   UNL A   1      43.715  35.593  32.088  1.00  0.00     0.012 A 
ATOM     85  C   UNL A   1      43.383  36.402  29.817  1.00  0.00     0.148 A 
ATOM     86  C   UNL A   1      44.161  36.854  32.479  1.00  0.00     0.002 A 
ATOM     87  C   UNL A   1      43.873  37.644  30.204  1.00  0.00     0.091 A 
ATOM     88  F   UNL A   1      42.972  36.164  28.563  1.00  0.00    -0.205 F 
ATOM     89  C   UNL A   1      44.251  37.875  31.537  1.00  0.00     0.022 A 
BRANCH  87  90
ATOM     90  S   UNL A   1      44.114  38.988  29.036  1.00  0.00     0.127 S 
ATOM     91  O   UNL A   1      44.695  40.022  29.889  1.00  0.00    -0.237 OA
ATOM     92  O   UNL A   1      45.042  38.399  28.071  1.00  0.00    -0.237 OA
ATOM     93  O   UNL A   1      42.794  39.290  28.496  1.00  0.00    -0.744 OA
ENDBRANCH  87  90
ENDBRANCH  60  83
ENDBRANCH  34  35
ENDBRANCH  26  29
ENDBRANCH  24  25
ENDBRANCH   1  24
TORSDOF 16
ENDMDL
