MODEL 1
REMARK VINA RESULT:     -10.8      0.000      0.000
REMARK SMILES C[N@@H+]1CC[N@@H+](C)[C@H](C[NH2+]Cc2ccc(C(=O)NCCCNC(=O)c3ccc(-c4c5nc(c(-c6cccc(S(=O)(=O)[O-])c6F)c6ccc([nH]6)c(-c6cccc(S(=O)(=O)[O-])c6F)c6nc(c(-c7cccc(S(=O)(=O)[O-])c7F)c7ccc4[nH]7)C=C6)C=C5)cc3)cn2)C1
REMARK SMILES IDX 18 1 17 2 15 3 16 4 14 6 11 7 12 8 88 9 13 10 87 11 10 12
REMARK SMILES IDX 9 13 8 16 7 17 1 18 2 19 3 20 89 21 4 23 5 24 6 25 19 27
REMARK SMILES IDX 20 28 21 29 22 30 23 32 24 33 25 34 86 35 26 36 85 37 27 38
REMARK SMILES IDX 28 39 29 40 79 41 30 42 84 43 78 44 80 45 31 46 83 47 77 48
REMARK SMILES IDX 76 49 32 51 64 52 44 53 63 54 45 55 48 56 62 57 81 58 46 59
REMARK SMILES IDX 47 60 61 62 82 63 49 64 33 65 34 66 42 67 35 68 37 69 43 70
REMARK SMILES IDX 36 71 38 72 39 73 40 74 41 75 65 76 66 77 74 78 67 79 69 80
REMARK SMILES IDX 75 81 68 82 70 83 71 84 72 85 73 86 50 87 51 88 59 89 52 90
REMARK SMILES IDX 54 91 60 92 53 93 55 94 56 95 57 96 58 97
REMARK H PARENT 17 5 9 14 9 15 2 22 5 26 21 31 80 50 48 61
REMARK Flexibility Score: inf
ROOT
ATOM      1  C   UNL A   1      36.885  20.135  24.761  1.00  0.00     0.118 C 
ENDROOT
BRANCH   1   2
ATOM      2  N   UNL A   1      37.214  21.535  24.951  1.00  0.00    -0.352 N 
ATOM      3  C   UNL A   1      36.473  22.610  25.370  1.00  0.00     0.252 C 
ATOM      4  O   UNL A   1      37.049  23.695  25.450  1.00  0.00    -0.269 OA
ATOM      5  H   UNL A   1      38.150  21.755  24.739  1.00  0.00     0.163 HD
BRANCH   3   6
ATOM      6  C   UNL A   1      35.059  22.512  25.801  1.00  0.00     0.058 A 
ATOM      7  C   UNL A   1      32.350  22.657  26.286  1.00  0.00     0.094 A 
ATOM      8  C   UNL A   1      33.228  22.635  27.362  1.00  0.00     0.030 A 
ATOM      9  N   UNL A   1      32.763  22.479  25.006  1.00  0.00    -0.255 NA
ATOM     10  C   UNL A   1      34.591  22.537  27.112  1.00  0.00     0.017 A 
ATOM     11  C   UNL A   1      34.101  22.423  24.796  1.00  0.00     0.125 A 
BRANCH   7  12
ATOM     12  C   UNL A   1      30.908  23.039  26.521  1.00  0.00     0.318 C 
BRANCH  12  13
ATOM     13  N   UNL A   1      30.797  24.458  26.876  1.00  0.00    -0.336 N 
ATOM     14  H   UNL A   1      30.188  24.551  27.690  1.00  0.00     0.346 HD
ATOM     15  H   UNL A   1      31.730  24.814  27.083  1.00  0.00     0.346 HD
BRANCH  13  16
ATOM     16  C   UNL A   1      30.234  25.244  25.762  1.00  0.00     0.332 C 
BRANCH  16  17
ATOM     17  C   UNL A   1      31.194  26.399  25.335  1.00  0.00     0.295 C 
ATOM     18  C   UNL A   1      32.156  29.557  27.249  1.00  0.00     0.333 C 
ATOM     19  N   UNL A   1      32.101  28.604  26.147  1.00  0.00    -0.328 N 
ATOM     20  C   UNL A   1      31.566  29.228  24.927  1.00  0.00     0.324 C 
ATOM     21  C   UNL A   1      31.238  27.453  26.484  1.00  0.00     0.334 C 
ATOM     22  H   UNL A   1      33.057  28.290  25.984  1.00  0.00     0.348 HD
ATOM     23  C   UNL A   1      31.566  28.229  23.751  1.00  0.00     0.324 C 
ATOM     24  N   UNL A   1      30.806  26.989  24.010  1.00  0.00    -0.321 N 
ATOM     25  C   UNL A   1      31.028  26.050  22.902  1.00  0.00     0.333 C 
ATOM     26  H   UNL A   1      29.809  27.197  24.059  1.00  0.00     0.348 HD
ENDBRANCH  16  17
ENDBRANCH  13  16
ENDBRANCH  12  13
ENDBRANCH   7  12
ENDBRANCH   3   6
ENDBRANCH   1   2
BRANCH   1  27
ATOM     27  C   UNL A   1      38.106  19.246  24.996  1.00  0.00     0.042 C 
BRANCH  27  28
ATOM     28  C   UNL A   1      39.199  19.931  25.805  1.00  0.00     0.118 C 
BRANCH  28  29
ATOM     29  N   UNL A   1      40.347  19.061  26.003  1.00  0.00    -0.352 N 
ATOM     30  C   UNL A   1      41.674  19.381  26.143  1.00  0.00     0.251 C 
ATOM     31  H   UNL A   1      40.143  18.099  26.043  1.00  0.00     0.163 HD
ATOM     32  O   UNL A   1      42.519  18.496  26.041  1.00  0.00    -0.269 OA
BRANCH  30  33
ATOM     33  C   UNL A   1      42.086  20.775  26.415  1.00  0.00     0.039 A 
ATOM     34  C   UNL A   1      42.396  21.144  27.728  1.00  0.00     0.014 A 
ATOM     35  C   UNL A   1      42.116  21.732  25.395  1.00  0.00     0.014 A 
ATOM     36  C   UNL A   1      42.769  22.459  28.010  1.00  0.00     0.010 A 
ATOM     37  C   UNL A   1      42.562  23.022  25.664  1.00  0.00     0.010 A 
ATOM     38  C   UNL A   1      42.874  23.404  26.977  1.00  0.00    -0.014 A 
BRANCH  38  39
ATOM     39  C   UNL A   1      43.299  24.799  27.249  1.00  0.00     0.031 A 
ATOM     40  C   UNL A   1      42.333  25.778  27.863  1.00  0.00     0.074 A 
ATOM     41  C   UNL A   1      44.524  25.206  26.865  1.00  0.00     0.049 A 
ATOM     42  N   UNL A   1      42.500  27.049  28.120  1.00  0.00    -0.248 NA
ATOM     43  C   UNL A   1      40.993  25.270  28.204  1.00  0.00     0.031 C 
ATOM     44  C   UNL A   1      45.517  24.370  26.187  1.00  0.00     0.029 A 
ATOM     45  N   UNL A   1      45.133  26.431  26.963  1.00  0.00    -0.354 N 
ATOM     46  C   UNL A   1      41.281  27.501  28.615  1.00  0.00     0.074 A 
ATOM     47  C   UNL A   1      40.374  26.376  28.591  1.00  0.00     0.031 C 
ATOM     48  C   UNL A   1      46.611  25.105  25.933  1.00  0.00     0.029 A 
ATOM     49  C   UNL A   1      46.389  26.469  26.404  1.00  0.00     0.049 A 
ATOM     50  H   UNL A   1      44.712  27.210  27.393  1.00  0.00     0.167 HD
ATOM     51  C   UNL A   1      40.957  28.732  29.077  1.00  0.00     0.034 A 
ATOM     52  C   UNL A   1      47.261  27.488  26.280  1.00  0.00     0.034 A 
ATOM     53  C   UNL A   1      41.881  29.832  29.145  1.00  0.00     0.049 A 
ATOM     54  C   UNL A   1      46.896  28.831  26.853  1.00  0.00     0.074 A 
ATOM     55  C   UNL A   1      41.681  31.092  29.680  1.00  0.00     0.029 A 
ATOM     56  N   UNL A   1      43.178  29.805  28.660  1.00  0.00    -0.354 N 
ATOM     57  N   UNL A   1      45.795  29.194  27.466  1.00  0.00    -0.248 NA
ATOM     58  C   UNL A   1      47.907  29.893  26.753  1.00  0.00     0.031 C 
ATOM     59  C   UNL A   1      42.855  31.832  29.502  1.00  0.00     0.029 A 
ATOM     60  C   UNL A   1      43.792  31.026  28.876  1.00  0.00     0.049 A 
ATOM     61  H   UNL A   1      43.603  29.029  28.224  1.00  0.00     0.167 HD
ATOM     62  C   UNL A   1      45.993  30.513  27.856  1.00  0.00     0.074 A 
ATOM     63  C   UNL A   1      47.329  30.877  27.430  1.00  0.00     0.031 C 
ATOM     64  C   UNL A   1      45.142  31.353  28.495  1.00  0.00     0.034 A 
BRANCH  51  65
ATOM     65  C   UNL A   1      39.559  28.938  29.601  1.00  0.00     0.023 A 
ATOM     66  C   UNL A   1      39.257  28.584  30.933  1.00  0.00     0.012 A 
ATOM     67  C   UNL A   1      38.560  29.530  28.802  1.00  0.00     0.148 A 
ATOM     68  C   UNL A   1      37.977  28.781  31.450  1.00  0.00     0.002 A 
ATOM     69  C   UNL A   1      37.299  29.764  29.339  1.00  0.00     0.091 A 
ATOM     70  F   UNL A   1      38.858  29.840  27.532  1.00  0.00    -0.205 F 
ATOM     71  C   UNL A   1      37.003  29.380  30.657  1.00  0.00     0.022 A 
BRANCH  69  72
ATOM     72  S   UNL A   1      35.997  30.600  28.425  1.00  0.00     0.127 S 
ATOM     73  O   UNL A   1      34.981  30.783  29.460  1.00  0.00    -0.237 OA
ATOM     74  O   UNL A   1      36.662  31.832  28.000  1.00  0.00    -0.237 OA
ATOM     75  O   UNL A   1      35.630  29.704  27.338  1.00  0.00    -0.744 OA
ENDBRANCH  69  72
ENDBRANCH  51  65
BRANCH  52  76
ATOM     76  C   UNL A   1      48.594  27.254  25.656  1.00  0.00     0.023 A 
ATOM     77  C   UNL A   1      49.654  26.780  26.453  1.00  0.00     0.012 A 
ATOM     78  C   UNL A   1      48.808  27.458  24.280  1.00  0.00     0.148 A 
ATOM     79  C   UNL A   1      50.912  26.543  25.897  1.00  0.00     0.002 A 
ATOM     80  C   UNL A   1      50.048  27.169  23.722  1.00  0.00     0.091 A 
ATOM     81  F   UNL A   1      47.790  27.919  23.539  1.00  0.00    -0.205 F 
ATOM     82  C   UNL A   1      51.107  26.728  24.532  1.00  0.00     0.022 A 
BRANCH  80  83
ATOM     83  S   UNL A   1      50.348  27.245  21.952  1.00  0.00     0.127 S 
ATOM     84  O   UNL A   1      51.719  26.751  21.858  1.00  0.00    -0.237 OA
ATOM     85  O   UNL A   1      49.327  26.336  21.431  1.00  0.00    -0.237 OA
ATOM     86  O   UNL A   1      50.149  28.641  21.582  1.00  0.00    -0.744 OA
ENDBRANCH  80  83
ENDBRANCH  52  76
BRANCH  64  87
ATOM     87  C   UNL A   1      45.635  32.741  28.806  1.00  0.00     0.023 A 
ATOM     88  C   UNL A   1      46.353  32.977  29.996  1.00  0.00     0.012 A 
ATOM     89  C   UNL A   1      45.451  33.793  27.888  1.00  0.00     0.148 A 
ATOM     90  C   UNL A   1      46.852  34.248  30.280  1.00  0.00     0.002 A 
ATOM     91  C   UNL A   1      45.994  35.043  28.156  1.00  0.00     0.091 A 
ATOM     92  F   UNL A   1      44.749  33.553  26.771  1.00  0.00    -0.205 F 
ATOM     93  C   UNL A   1      46.684  35.276  29.357  1.00  0.00     0.022 A 
BRANCH  91  94
ATOM     94  S   UNL A   1      45.909  36.399  26.980  1.00  0.00     0.127 S 
ATOM     95  O   UNL A   1      44.468  36.640  26.906  1.00  0.00    -0.237 OA
ATOM     96  O   UNL A   1      46.669  37.449  27.658  1.00  0.00    -0.237 OA
ATOM     97  O   UNL A   1      46.524  35.904  25.755  1.00  0.00    -0.744 OA
ENDBRANCH  91  94
ENDBRANCH  64  87
ENDBRANCH  38  39
ENDBRANCH  30  33
ENDBRANCH  28  29
ENDBRANCH  27  28
ENDBRANCH   1  27
TORSDOF 17
ENDMDL
MODEL 2
REMARK VINA RESULT:     -10.7      1.643      7.743
REMARK SMILES C[N@@H+]1CC[N@@H+](C)[C@H](C[NH2+]Cc2ccc(C(=O)NCCCNC(=O)c3ccc(-c4c5nc(c(-c6cccc(S(=O)(=O)[O-])c6F)c6ccc([nH]6)c(-c6cccc(S(=O)(=O)[O-])c6F)c6nc(c(-c7cccc(S(=O)(=O)[O-])c7F)c7ccc4[nH]7)C=C6)C=C5)cc3)cn2)C1
REMARK SMILES IDX 18 1 17 2 15 3 16 4 14 6 11 7 12 8 88 9 13 10 87 11 10 12
REMARK SMILES IDX 9 13 8 16 7 17 1 18 2 19 3 20 89 21 4 23 5 24 6 25 19 27
REMARK SMILES IDX 20 28 21 29 22 30 23 32 24 33 25 34 86 35 26 36 85 37 27 38
REMARK SMILES IDX 28 39 29 40 79 41 30 42 84 43 78 44 80 45 31 46 83 47 77 48
REMARK SMILES IDX 76 49 32 51 64 52 44 53 63 54 45 55 48 56 62 57 81 58 46 59
REMARK SMILES IDX 47 60 61 62 82 63 49 64 33 65 34 66 42 67 35 68 37 69 43 70
REMARK SMILES IDX 36 71 38 72 39 73 40 74 41 75 65 76 66 77 74 78 67 79 69 80
REMARK SMILES IDX 75 81 68 82 70 83 71 84 72 85 73 86 50 87 51 88 59 89 52 90
REMARK SMILES IDX 54 91 60 92 53 93 55 94 56 95 57 96 58 97
REMARK H PARENT 17 5 9 14 9 15 2 22 5 26 21 31 80 50 48 61
REMARK Flexibility Score: inf
ROOT
ATOM      1  C   UNL A   1      36.330  20.354  24.988  1.00  0.00     0.118 C 
ENDROOT
BRANCH   1   2
ATOM      2  N   UNL A   1      35.363  19.275  24.915  1.00  0.00    -0.352 N 
ATOM      3  C   UNL A   1      34.001  19.263  24.754  1.00  0.00     0.252 C 
ATOM      4  O   UNL A   1      33.447  18.164  24.712  1.00  0.00    -0.269 OA
ATOM      5  H   UNL A   1      35.761  18.378  24.997  1.00  0.00     0.163 HD
BRANCH   3   6
ATOM      6  C   UNL A   1      33.190  20.487  24.550  1.00  0.00     0.058 A 
ATOM      7  C   UNL A   1      31.909  22.799  23.771  1.00  0.00     0.094 A 
ATOM      8  C   UNL A   1      32.383  22.696  25.073  1.00  0.00     0.030 A 
ATOM      9  N   UNL A   1      31.935  21.757  22.902  1.00  0.00    -0.255 NA
ATOM     10  C   UNL A   1      33.007  21.518  25.466  1.00  0.00     0.017 A 
ATOM     11  C   UNL A   1      32.582  20.637  23.308  1.00  0.00     0.125 A 
BRANCH   7  12
ATOM     12  C   UNL A   1      31.486  24.150  23.248  1.00  0.00     0.318 C 
BRANCH  12  13
ATOM     13  N   UNL A   1      32.430  24.636  22.235  1.00  0.00    -0.336 N 
ATOM     14  H   UNL A   1      33.112  23.902  22.038  1.00  0.00     0.346 HD
ATOM     15  H   UNL A   1      31.907  24.876  21.394  1.00  0.00     0.346 HD
BRANCH  13  16
ATOM     16  C   UNL A   1      33.141  25.840  22.703  1.00  0.00     0.332 C 
BRANCH  16  17
ATOM     17  C   UNL A   1      32.253  26.693  23.663  1.00  0.00     0.295 C 
ATOM     18  C   UNL A   1      29.888  29.569  22.827  1.00  0.00     0.333 C 
ATOM     19  N   UNL A   1      30.632  28.620  23.647  1.00  0.00    -0.328 N 
ATOM     20  C   UNL A   1      31.509  29.314  24.603  1.00  0.00     0.324 C 
ATOM     21  C   UNL A   1      31.475  27.743  22.810  1.00  0.00     0.334 C 
ATOM     22  H   UNL A   1      29.941  28.066  24.152  1.00  0.00     0.348 HD
ATOM     23  C   UNL A   1      32.249  28.305  25.506  1.00  0.00     0.324 C 
ATOM     24  N   UNL A   1      33.057  27.312  24.770  1.00  0.00    -0.321 N 
ATOM     25  C   UNL A   1      33.560  26.307  25.714  1.00  0.00     0.333 C 
ATOM     26  H   UNL A   1      33.857  27.771  24.333  1.00  0.00     0.348 HD
ENDBRANCH  16  17
ENDBRANCH  13  16
ENDBRANCH  12  13
ENDBRANCH   7  12
ENDBRANCH   3   6
ENDBRANCH   1   2
BRANCH   1  27
ATOM     27  C   UNL A   1      37.756  19.825  24.839  1.00  0.00     0.042 C 
BRANCH  27  28
ATOM     28  C   UNL A   1      38.763  20.565  25.709  1.00  0.00     0.118 C 
BRANCH  28  29
ATOM     29  N   UNL A   1      39.876  19.709  26.090  1.00  0.00    -0.352 N 
ATOM     30  C   UNL A   1      41.162  20.044  26.427  1.00  0.00     0.251 C 
ATOM     31  H   UNL A   1      39.677  18.745  26.108  1.00  0.00     0.163 HD
ATOM     32  O   UNL A   1      42.021  19.168  26.465  1.00  0.00    -0.269 OA
BRANCH  30  33
ATOM     33  C   UNL A   1      41.515  21.446  26.745  1.00  0.00     0.039 A 
ATOM     34  C   UNL A   1      41.630  21.825  28.086  1.00  0.00     0.014 A 
ATOM     35  C   UNL A   1      41.678  22.397  25.733  1.00  0.00     0.014 A 
ATOM     36  C   UNL A   1      41.943  23.146  28.408  1.00  0.00     0.010 A 
ATOM     37  C   UNL A   1      42.065  23.694  26.053  1.00  0.00     0.010 A 
ATOM     38  C   UNL A   1      42.183  24.087  27.394  1.00  0.00    -0.014 A 
BRANCH  38  39
ATOM     39  C   UNL A   1      42.547  25.489  27.714  1.00  0.00     0.031 A 
ATOM     40  C   UNL A   1      43.976  25.947  27.587  1.00  0.00     0.074 A 
ATOM     41  C   UNL A   1      41.609  26.324  28.200  1.00  0.00     0.049 A 
ATOM     42  N   UNL A   1      44.498  27.111  27.875  1.00  0.00    -0.248 NA
ATOM     43  C   UNL A   1      44.954  24.958  27.101  1.00  0.00     0.031 C 
ATOM     44  C   UNL A   1      40.208  25.970  28.444  1.00  0.00     0.029 A 
ATOM     45  N   UNL A   1      41.695  27.633  28.601  1.00  0.00    -0.354 N 
ATOM     46  C   UNL A   1      45.863  26.985  27.644  1.00  0.00     0.074 A 
ATOM     47  C   UNL A   1      46.095  25.621  27.224  1.00  0.00     0.031 C 
ATOM     48  C   UNL A   1      39.568  27.035  28.951  1.00  0.00     0.029 A 
ATOM     49  C   UNL A   1      40.513  28.137  29.093  1.00  0.00     0.049 A 
ATOM     50  H   UNL A   1      42.524  28.161  28.545  1.00  0.00     0.167 HD
ATOM     51  C   UNL A   1      46.831  27.927  27.743  1.00  0.00     0.034 A 
ATOM     52  C   UNL A   1      40.226  29.350  29.605  1.00  0.00     0.034 A 
ATOM     53  C   UNL A   1      46.584  29.294  28.113  1.00  0.00     0.049 A 
ATOM     54  C   UNL A   1      41.308  30.395  29.650  1.00  0.00     0.074 A 
ATOM     55  C   UNL A   1      47.478  30.350  28.154  1.00  0.00     0.029 A 
ATOM     56  N   UNL A   1      45.354  29.796  28.509  1.00  0.00    -0.354 N 
ATOM     57  N   UNL A   1      42.561  30.302  29.273  1.00  0.00    -0.248 NA
ATOM     58  C   UNL A   1      40.930  31.722  30.155  1.00  0.00     0.031 C 
ATOM     59  C   UNL A   1      46.790  31.487  28.592  1.00  0.00     0.029 A 
ATOM     60  C   UNL A   1      45.463  31.144  28.802  1.00  0.00     0.049 A 
ATOM     61  H   UNL A   1      44.524  29.270  28.573  1.00  0.00     0.167 HD
ATOM     62  C   UNL A   1      43.110  31.565  29.460  1.00  0.00     0.074 A 
ATOM     63  C   UNL A   1      42.047  32.411  29.963  1.00  0.00     0.031 C 
ATOM     64  C   UNL A   1      44.382  31.984  29.249  1.00  0.00     0.034 A 
BRANCH  51  65
ATOM     65  C   UNL A   1      48.239  27.524  27.389  1.00  0.00     0.023 A 
ATOM     66  C   UNL A   1      49.067  26.949  28.376  1.00  0.00     0.012 A 
ATOM     67  C   UNL A   1      48.728  27.660  26.074  1.00  0.00     0.148 A 
ATOM     68  C   UNL A   1      50.367  26.550  28.072  1.00  0.00     0.002 A 
ATOM     69  C   UNL A   1      50.011  27.218  25.768  1.00  0.00     0.091 A 
ATOM     70  F   UNL A   1      47.937  28.228  25.153  1.00  0.00    -0.205 F 
ATOM     71  C   UNL A   1      50.835  26.675  26.767  1.00  0.00     0.022 A 
BRANCH  69  72
ATOM     72  S   UNL A   1      50.679  27.263  24.101  1.00  0.00     0.127 S 
ATOM     73  O   UNL A   1      50.907  28.695  23.913  1.00  0.00    -0.237 OA
ATOM     74  O   UNL A   1      51.897  26.464  24.236  1.00  0.00    -0.237 OA
ATOM     75  O   UNL A   1      49.660  26.673  23.244  1.00  0.00    -0.744 OA
ENDBRANCH  69  72
ENDBRANCH  51  65
BRANCH  52  76
ATOM     76  C   UNL A   1      38.836  29.663  30.041  1.00  0.00     0.023 A 
ATOM     77  C   UNL A   1      38.458  29.406  31.374  1.00  0.00     0.012 A 
ATOM     78  C   UNL A   1      37.903  30.246  29.163  1.00  0.00     0.148 A 
ATOM     79  C   UNL A   1      37.166  29.694  31.815  1.00  0.00     0.002 A 
ATOM     80  C   UNL A   1      36.635  30.581  29.624  1.00  0.00     0.091 A 
ATOM     81  F   UNL A   1      38.279  30.474  27.896  1.00  0.00    -0.205 F 
ATOM     82  C   UNL A   1      36.258  30.290  30.944  1.00  0.00     0.022 A 
BRANCH  80  83
ATOM     83  S   UNL A   1      35.449  31.476  28.613  1.00  0.00     0.127 S 
ATOM     84  O   UNL A   1      34.501  31.954  29.614  1.00  0.00    -0.237 OA
ATOM     85  O   UNL A   1      36.286  32.513  28.009  1.00  0.00    -0.237 OA
ATOM     86  O   UNL A   1      34.932  30.499  27.661  1.00  0.00    -0.744 OA
ENDBRANCH  80  83
ENDBRANCH  52  76
BRANCH  64  87
ATOM     87  C   UNL A   1      44.695  33.430  29.528  1.00  0.00     0.023 A 
ATOM     88  C   UNL A   1      45.097  33.822  30.820  1.00  0.00     0.012 A 
ATOM     89  C   UNL A   1      44.659  34.385  28.493  1.00  0.00     0.148 A 
ATOM     90  C   UNL A   1      45.429  35.150  31.084  1.00  0.00     0.002 A 
ATOM     91  C   UNL A   1      45.039  35.696  28.754  1.00  0.00     0.091 A 
ATOM     92  F   UNL A   1      44.254  33.996  27.275  1.00  0.00    -0.205 F 
ATOM     93  C   UNL A   1      45.412  36.083  30.051  1.00  0.00     0.022 A 
BRANCH  91  94
ATOM     94  S   UNL A   1      45.138  36.941  27.463  1.00  0.00     0.127 S 
ATOM     95  O   UNL A   1      43.740  37.059  27.052  1.00  0.00    -0.237 OA
ATOM     96  O   UNL A   1      45.661  38.100  28.186  1.00  0.00    -0.237 OA
ATOM     97  O   UNL A   1      46.043  36.401  26.456  1.00  0.00    -0.744 OA
ENDBRANCH  91  94
ENDBRANCH  64  87
ENDBRANCH  38  39
ENDBRANCH  30  33
ENDBRANCH  28  29
ENDBRANCH  27  28
ENDBRANCH   1  27
TORSDOF 17
ENDMDL
MODEL 3
REMARK VINA RESULT:     -10.7      1.695      2.071
REMARK SMILES C[N@@H+]1CC[N@@H+](C)[C@H](C[NH2+]Cc2ccc(C(=O)NCCCNC(=O)c3ccc(-c4c5nc(c(-c6cccc(S(=O)(=O)[O-])c6F)c6ccc([nH]6)c(-c6cccc(S(=O)(=O)[O-])c6F)c6nc(c(-c7cccc(S(=O)(=O)[O-])c7F)c7ccc4[nH]7)C=C6)C=C5)cc3)cn2)C1
REMARK SMILES IDX 18 1 17 2 15 3 16 4 14 6 11 7 12 8 88 9 13 10 87 11 10 12
REMARK SMILES IDX 9 13 8 16 7 17 1 18 2 19 3 20 89 21 4 23 5 24 6 25 19 27
REMARK SMILES IDX 20 28 21 29 22 30 23 32 24 33 25 34 86 35 26 36 85 37 27 38
REMARK SMILES IDX 28 39 29 40 79 41 30 42 84 43 78 44 80 45 31 46 83 47 77 48
REMARK SMILES IDX 76 49 32 51 64 52 44 53 63 54 45 55 48 56 62 57 81 58 46 59
REMARK SMILES IDX 47 60 61 62 82 63 49 64 33 65 34 66 42 67 35 68 37 69 43 70
REMARK SMILES IDX 36 71 38 72 39 73 40 74 41 75 65 76 66 77 74 78 67 79 69 80
REMARK SMILES IDX 75 81 68 82 70 83 71 84 72 85 73 86 50 87 51 88 59 89 52 90
REMARK SMILES IDX 54 91 60 92 53 93 55 94 56 95 57 96 58 97
REMARK H PARENT 17 5 9 14 9 15 2 22 5 26 21 31 80 50 48 61
REMARK Flexibility Score: inf
ROOT
ATOM      1  C   UNL A   1      37.301  20.735  25.135  1.00  0.00     0.118 C 
ENDROOT
BRANCH   1   2
ATOM      2  N   UNL A   1      37.716  21.972  25.768  1.00  0.00    -0.352 N 
ATOM      3  C   UNL A   1      37.207  23.245  25.732  1.00  0.00     0.252 C 
ATOM      4  O   UNL A   1      37.781  24.102  26.405  1.00  0.00    -0.269 OA
ATOM      5  H   UNL A   1      38.517  21.880  26.333  1.00  0.00     0.163 HD
BRANCH   3   6
ATOM      6  C   UNL A   1      35.973  23.614  24.999  1.00  0.00     0.058 A 
ATOM      7  C   UNL A   1      33.457  24.090  23.982  1.00  0.00     0.094 A 
ATOM      8  C   UNL A   1      34.450  23.621  23.132  1.00  0.00     0.030 A 
ATOM      9  N   UNL A   1      33.707  24.448  25.267  1.00  0.00    -0.255 NA
ATOM     10  C   UNL A   1      35.724  23.406  23.646  1.00  0.00     0.017 A 
ATOM     11  C   UNL A   1      34.950  24.192  25.743  1.00  0.00     0.125 A 
BRANCH   7  12
ATOM     12  C   UNL A   1      32.020  24.065  23.518  1.00  0.00     0.318 C 
BRANCH  12  13
ATOM     13  N   UNL A   1      31.430  25.407  23.576  1.00  0.00    -0.336 N 
ATOM     14  H   UNL A   1      30.449  25.351  23.302  1.00  0.00     0.346 HD
ATOM     15  H   UNL A   1      31.518  25.758  24.530  1.00  0.00     0.346 HD
BRANCH  13  16
ATOM     16  C   UNL A   1      32.130  26.337  22.671  1.00  0.00     0.332 C 
BRANCH  16  17
ATOM     17  C   UNL A   1      32.161  27.786  23.252  1.00  0.00     0.295 C 
ATOM     18  C   UNL A   1      34.128  29.140  26.229  1.00  0.00     0.333 C 
ATOM     19  N   UNL A   1      33.191  29.137  25.112  1.00  0.00    -0.328 N 
ATOM     20  C   UNL A   1      31.833  29.493  25.553  1.00  0.00     0.324 C 
ATOM     21  C   UNL A   1      33.129  27.805  24.476  1.00  0.00     0.334 C 
ATOM     22  H   UNL A   1      33.530  29.829  24.444  1.00  0.00     0.348 HD
ATOM     23  C   UNL A   1      30.861  29.544  24.356  1.00  0.00     0.324 C 
ATOM     24  N   UNL A   1      30.785  28.287  23.582  1.00  0.00    -0.321 N 
ATOM     25  C   UNL A   1      29.977  28.514  22.377  1.00  0.00     0.333 C 
ATOM     26  H   UNL A   1      30.332  27.563  24.141  1.00  0.00     0.348 HD
ENDBRANCH  16  17
ENDBRANCH  13  16
ENDBRANCH  12  13
ENDBRANCH   7  12
ENDBRANCH   3   6
ENDBRANCH   1   2
BRANCH   1  27
ATOM     27  C   UNL A   1      38.391  19.669  25.243  1.00  0.00     0.042 C 
BRANCH  27  28
ATOM     28  C   UNL A   1      39.532  20.071  26.168  1.00  0.00     0.118 C 
BRANCH  28  29
ATOM     29  N   UNL A   1      40.680  19.190  26.020  1.00  0.00    -0.352 N 
ATOM     30  C   UNL A   1      42.008  19.501  25.876  1.00  0.00     0.251 C 
ATOM     31  H   UNL A   1      40.474  18.228  26.023  1.00  0.00     0.163 HD
ATOM     32  O   UNL A   1      42.792  18.630  25.505  1.00  0.00    -0.269 OA
BRANCH  30  33
ATOM     33  C   UNL A   1      42.496  20.868  26.163  1.00  0.00     0.039 A 
ATOM     34  C   UNL A   1      42.759  21.225  27.490  1.00  0.00     0.014 A 
ATOM     35  C   UNL A   1      42.644  21.812  25.143  1.00  0.00     0.014 A 
ATOM     36  C   UNL A   1      43.201  22.515  27.785  1.00  0.00     0.010 A 
ATOM     37  C   UNL A   1      43.158  23.072  25.430  1.00  0.00     0.010 A 
ATOM     38  C   UNL A   1      43.424  23.443  26.756  1.00  0.00    -0.014 A 
BRANCH  38  39
ATOM     39  C   UNL A   1      43.924  24.810  27.044  1.00  0.00     0.031 A 
ATOM     40  C   UNL A   1      42.996  25.851  27.611  1.00  0.00     0.074 A 
ATOM     41  C   UNL A   1      45.189  25.136  26.715  1.00  0.00     0.049 A 
ATOM     42  N   UNL A   1      43.232  27.111  27.874  1.00  0.00    -0.248 NA
ATOM     43  C   UNL A   1      41.613  25.431  27.892  1.00  0.00     0.031 C 
ATOM     44  C   UNL A   1      46.157  24.235  26.085  1.00  0.00     0.029 A 
ATOM     45  N   UNL A   1      45.871  26.320  26.840  1.00  0.00    -0.354 N 
ATOM     46  C   UNL A   1      42.024  27.641  28.311  1.00  0.00     0.074 A 
ATOM     47  C   UNL A   1      41.048  26.577  28.248  1.00  0.00     0.031 C 
ATOM     48  C   UNL A   1      47.306  24.897  25.880  1.00  0.00     0.029 A 
ATOM     49  C   UNL A   1      47.150  26.275  26.338  1.00  0.00     0.049 A 
ATOM     50  H   UNL A   1      45.481  27.127  27.248  1.00  0.00     0.167 HD
ATOM     51  C   UNL A   1      41.758  28.893  28.755  1.00  0.00     0.034 A 
ATOM     52  C   UNL A   1      48.091  27.236  26.252  1.00  0.00     0.034 A 
ATOM     53  C   UNL A   1      42.746  29.932  28.863  1.00  0.00     0.049 A 
ATOM     54  C   UNL A   1      47.786  28.602  26.805  1.00  0.00     0.074 A 
ATOM     55  C   UNL A   1      42.603  31.205  29.386  1.00  0.00     0.029 A 
ATOM     56  N   UNL A   1      44.060  29.820  28.438  1.00  0.00    -0.354 N 
ATOM     57  N   UNL A   1      46.684  29.037  27.366  1.00  0.00    -0.248 NA
ATOM     58  C   UNL A   1      48.866  29.597  26.750  1.00  0.00     0.031 C 
ATOM     59  C   UNL A   1      43.829  31.868  29.261  1.00  0.00     0.029 A 
ATOM     60  C   UNL A   1      44.740  31.000  28.680  1.00  0.00     0.049 A 
ATOM     61  H   UNL A   1      44.453  29.017  28.024  1.00  0.00     0.167 HD
ATOM     62  C   UNL A   1      46.948  30.343  27.762  1.00  0.00     0.074 A 
ATOM     63  C   UNL A   1      48.322  30.619  27.397  1.00  0.00     0.031 C 
ATOM     64  C   UNL A   1      46.124  31.239  28.360  1.00  0.00     0.034 A 
BRANCH  51  65
ATOM     65  C   UNL A   1      40.354  29.190  29.214  1.00  0.00     0.023 A 
ATOM     66  C   UNL A   1      39.390  29.611  28.274  1.00  0.00     0.012 A 
ATOM     67  C   UNL A   1      39.970  29.002  30.557  1.00  0.00     0.148 A 
ATOM     68  C   UNL A   1      38.079  29.874  28.667  1.00  0.00     0.002 A 
ATOM     69  C   UNL A   1      38.649  29.224  30.933  1.00  0.00     0.091 A 
ATOM     70  F   UNL A   1      40.903  28.623  31.442  1.00  0.00    -0.205 F 
ATOM     71  C   UNL A   1      37.706  29.671  29.992  1.00  0.00     0.022 A 
BRANCH  69  72
ATOM     72  S   UNL A   1      38.051  28.917  32.598  1.00  0.00     0.127 S 
ATOM     73  O   UNL A   1      36.653  29.332  32.492  1.00  0.00    -0.237 OA
ATOM     74  O   UNL A   1      38.249  27.473  32.735  1.00  0.00    -0.237 OA
ATOM     75  O   UNL A   1      38.880  29.728  33.479  1.00  0.00    -0.744 OA
ENDBRANCH  69  72
ENDBRANCH  51  65
BRANCH  52  76
ATOM     76  C   UNL A   1      49.433  26.914  25.690  1.00  0.00     0.023 A 
ATOM     77  C   UNL A   1      50.363  26.216  26.485  1.00  0.00     0.012 A 
ATOM     78  C   UNL A   1      49.778  27.257  24.369  1.00  0.00     0.148 A 
ATOM     79  C   UNL A   1      51.625  25.893  25.985  1.00  0.00     0.002 A 
ATOM     80  C   UNL A   1      51.017  26.884  23.859  1.00  0.00     0.091 A 
ATOM     81  F   UNL A   1      48.884  27.929  23.632  1.00  0.00    -0.205 F 
ATOM     82  C   UNL A   1      51.949  26.218  24.671  1.00  0.00     0.022 A 
BRANCH  80  83
ATOM     83  S   UNL A   1      51.465  27.138  22.138  1.00  0.00     0.127 S 
ATOM     84  O   UNL A   1      52.688  26.349  22.027  1.00  0.00    -0.237 OA
ATOM     85  O   UNL A   1      50.306  26.584  21.438  1.00  0.00    -0.237 OA
ATOM     86  O   UNL A   1      51.621  28.579  21.984  1.00  0.00    -0.744 OA
ENDBRANCH  80  83
ENDBRANCH  52  76
BRANCH  64  87
ATOM     87  C   UNL A   1      46.691  32.594  28.691  1.00  0.00     0.023 A 
ATOM     88  C   UNL A   1      47.375  32.787  29.908  1.00  0.00     0.012 A 
ATOM     89  C   UNL A   1      46.608  33.653  27.766  1.00  0.00     0.148 A 
ATOM     90  C   UNL A   1      47.940  34.025  30.212  1.00  0.00     0.002 A 
ATOM     91  C   UNL A   1      47.217  34.868  28.056  1.00  0.00     0.091 A 
ATOM     92  F   UNL A   1      45.936  33.455  26.623  1.00  0.00    -0.205 F 
ATOM     93  C   UNL A   1      47.873  35.060  29.283  1.00  0.00     0.022 A 
BRANCH  91  94
ATOM     94  S   UNL A   1      47.262  36.224  26.878  1.00  0.00     0.127 S 
ATOM     95  O   UNL A   1      48.038  37.227  27.606  1.00  0.00    -0.237 OA
ATOM     96  O   UNL A   1      47.956  35.624  25.738  1.00  0.00    -0.237 OA
ATOM     97  O   UNL A   1      45.871  36.575  26.620  1.00  0.00    -0.744 OA
ENDBRANCH  91  94
ENDBRANCH  64  87
ENDBRANCH  38  39
ENDBRANCH  30  33
ENDBRANCH  28  29
ENDBRANCH  27  28
ENDBRANCH   1  27
TORSDOF 17
ENDMDL
