MODEL 1
REMARK VINA RESULT:     -11.9      0.000      0.000
REMARK SMILES Cc1cc(C(=O)N2CCC[C@@H]2C)sc1/C=C/C(=O)NCCCNC(=O)c1ccc(-c2c3nc(c(-c4cccc(S(=O)(=O)[O-])c4F)c4ccc([nH]4)c(-c4cccc(S(=O)(=O)[O-])c4F)c4nc(c(-c5cccc(S(=O)(=O)[O-])c5F)c5ccc2[nH]5)C=C4)C=C3)cc1
REMARK SMILES IDX 21 1 20 2 19 3 17 4 18 5 16 7 15 8 14 9 1 10 2 11 3 12 4 13
REMARK SMILES IDX 13 14 5 15 6 16 7 17 8 18 11 19 9 20 10 21 12 22 22 23 23 24
REMARK SMILES IDX 24 25 25 27 26 28 27 29 88 30 28 31 87 32 29 33 30 34 31 35
REMARK SMILES IDX 81 36 32 37 86 38 80 39 82 40 33 41 85 42 79 43 78 44 34 46
REMARK SMILES IDX 66 47 46 48 65 49 47 50 50 51 64 52 83 53 48 54 49 55 63 57
REMARK SMILES IDX 84 58 51 59 35 60 36 61 44 62 37 63 39 64 45 65 38 66 40 67
REMARK SMILES IDX 41 68 42 69 43 70 67 71 68 72 76 73 69 74 71 75 77 76 70 77
REMARK SMILES IDX 72 78 73 79 74 80 75 81 52 82 53 83 61 84 54 85 56 86 62 87
REMARK SMILES IDX 55 88 57 89 58 90 59 91 60 92
REMARK H PARENT 19 6 23 26 82 45 50 56
REMARK Flexibility Score: inf
ROOT
ATOM      1  C   UNL A   1      31.308  31.907  26.689  1.00  0.00     0.042 C 
ENDROOT
BRANCH   1   2
ATOM      2  C   UNL A   1      31.527  30.683  25.804  1.00  0.00     0.118 C 
BRANCH   2   3
ATOM      3  N   UNL A   1      30.663  30.709  24.636  1.00  0.00    -0.352 N 
ATOM      4  C   UNL A   1      30.249  29.697  23.827  1.00  0.00     0.244 C 
ATOM      5  O   UNL A   1      29.404  29.912  22.963  1.00  0.00    -0.270 OA
ATOM      6  H   UNL A   1      30.323  31.599  24.392  1.00  0.00     0.163 HD
BRANCH   4   7
ATOM      7  C   UNL A   1      30.725  28.317  24.050  1.00  0.00     0.072 C 
ATOM      8  C   UNL A   1      30.138  27.226  23.536  1.00  0.00     0.025 C 
BRANCH   8   9
ATOM      9  C   UNL A   1      30.629  25.904  23.764  1.00  0.00     0.031 A 
ATOM     10  C   UNL A   1      32.118  25.580  21.687  1.00  0.00     0.046 C 
ATOM     11  C   UNL A   1      31.456  25.134  22.955  1.00  0.00    -0.032 A 
ATOM     12  C   UNL A   1      31.649  23.819  23.504  1.00  0.00     0.029 A 
ATOM     13  C   UNL A   1      31.023  23.626  24.722  1.00  0.00     0.093 A 
ATOM     14  S   UNL A   1      30.217  25.048  25.192  1.00  0.00    -0.130 S 
BRANCH  13  15
ATOM     15  C   UNL A   1      31.202  22.483  25.612  1.00  0.00     0.264 C 
ATOM     16  O   UNL A   1      30.248  22.035  26.254  1.00  0.00    -0.268 OA
BRANCH  15  17
ATOM     17  N   UNL A   1      32.420  21.815  25.678  1.00  0.00    -0.335 N 
ATOM     18  C   UNL A   1      32.514  20.465  25.170  1.00  0.00     0.120 C 
ATOM     19  C   UNL A   1      33.707  22.242  26.240  1.00  0.00     0.082 C 
ATOM     20  C   UNL A   1      33.949  20.395  24.686  1.00  0.00     0.024 C 
ATOM     21  C   UNL A   1      34.708  21.176  25.755  1.00  0.00     0.026 C 
ATOM     22  C   UNL A   1      33.658  22.294  27.764  1.00  0.00     0.031 C 
ENDBRANCH  15  17
ENDBRANCH  13  15
ENDBRANCH   8   9
ENDBRANCH   4   7
ENDBRANCH   2   3
ENDBRANCH   1   2
BRANCH   1  23
ATOM     23  C   UNL A   1      32.595  32.452  27.300  1.00  0.00     0.118 C 
BRANCH  23  24
ATOM     24  N   UNL A   1      32.485  33.866  27.632  1.00  0.00    -0.352 N 
ATOM     25  C   UNL A   1      33.128  34.600  28.596  1.00  0.00     0.251 C 
ATOM     26  H   UNL A   1      31.849  34.374  27.078  1.00  0.00     0.163 HD
ATOM     27  O   UNL A   1      32.719  35.728  28.861  1.00  0.00    -0.269 OA
BRANCH  25  28
ATOM     28  C   UNL A   1      34.296  34.049  29.317  1.00  0.00     0.039 A 
ATOM     29  C   UNL A   1      34.077  33.184  30.394  1.00  0.00     0.014 A 
ATOM     30  C   UNL A   1      35.600  34.418  28.974  1.00  0.00     0.014 A 
ATOM     31  C   UNL A   1      35.164  32.656  31.094  1.00  0.00     0.010 A 
ATOM     32  C   UNL A   1      36.684  33.832  29.625  1.00  0.00     0.010 A 
ATOM     33  C   UNL A   1      36.478  32.955  30.700  1.00  0.00    -0.014 A 
BRANCH  33  34
ATOM     34  C   UNL A   1      37.647  32.356  31.394  1.00  0.00     0.031 A 
ATOM     35  C   UNL A   1      38.406  31.219  30.764  1.00  0.00     0.074 A 
ATOM     36  C   UNL A   1      37.972  32.781  32.630  1.00  0.00     0.049 A 
ATOM     37  N   UNL A   1      39.411  30.533  31.244  1.00  0.00    -0.248 NA
ATOM     38  C   UNL A   1      37.960  30.774  29.433  1.00  0.00     0.031 C 
ATOM     39  C   UNL A   1      37.264  33.820  33.380  1.00  0.00     0.029 A 
ATOM     40  N   UNL A   1      38.963  32.372  33.487  1.00  0.00    -0.354 N 
ATOM     41  C   UNL A   1      39.694  29.557  30.296  1.00  0.00     0.074 A 
ATOM     42  C   UNL A   1      38.733  29.718  29.226  1.00  0.00     0.031 C 
ATOM     43  C   UNL A   1      37.841  33.968  34.582  1.00  0.00     0.029 A 
ATOM     44  C   UNL A   1      38.942  33.017  34.702  1.00  0.00     0.049 A 
ATOM     45  H   UNL A   1      39.626  31.682  33.254  1.00  0.00     0.167 HD
ATOM     46  C   UNL A   1      40.682  28.630  30.298  1.00  0.00     0.034 A 
ATOM     47  C   UNL A   1      39.717  32.856  35.792  1.00  0.00     0.034 A 
ATOM     48  C   UNL A   1      41.663  28.504  31.343  1.00  0.00     0.049 A 
ATOM     49  C   UNL A   1      40.838  31.855  35.750  1.00  0.00     0.074 A 
ATOM     50  C   UNL A   1      42.756  27.657  31.399  1.00  0.00     0.029 A 
ATOM     51  N   UNL A   1      41.669  29.241  32.517  1.00  0.00    -0.354 N 
ATOM     52  N   UNL A   1      41.188  31.049  34.777  1.00  0.00    -0.248 NA
ATOM     53  C   UNL A   1      41.697  31.768  36.940  1.00  0.00     0.031 C 
ATOM     54  C   UNL A   1      43.411  27.869  32.616  1.00  0.00     0.029 A 
ATOM     55  C   UNL A   1      42.741  28.866  33.307  1.00  0.00     0.049 A 
ATOM     56  H   UNL A   1      41.007  29.930  32.753  1.00  0.00     0.167 HD
ATOM     57  C   UNL A   1      42.325  30.384  35.221  1.00  0.00     0.074 A 
ATOM     58  C   UNL A   1      42.619  30.899  36.544  1.00  0.00     0.031 C 
ATOM     59  C   UNL A   1      43.052  29.424  34.599  1.00  0.00     0.034 A 
BRANCH  46  60
ATOM     60  C   UNL A   1      40.788  27.715  29.105  1.00  0.00     0.023 A 
ATOM     61  C   UNL A   1      39.954  26.581  29.025  1.00  0.00     0.012 A 
ATOM     62  C   UNL A   1      41.664  28.004  28.041  1.00  0.00     0.148 A 
ATOM     63  C   UNL A   1      40.016  25.728  27.924  1.00  0.00     0.002 A 
ATOM     64  C   UNL A   1      41.687  27.174  26.925  1.00  0.00     0.091 A 
ATOM     65  F   UNL A   1      42.463  29.075  28.141  1.00  0.00    -0.205 F 
ATOM     66  C   UNL A   1      40.873  26.030  26.870  1.00  0.00     0.022 A 
BRANCH  64  67
ATOM     67  S   UNL A   1      42.699  27.518  25.481  1.00  0.00     0.127 S 
ATOM     68  O   UNL A   1      42.071  28.732  24.962  1.00  0.00    -0.237 OA
ATOM     69  O   UNL A   1      44.022  27.722  26.073  1.00  0.00    -0.237 OA
ATOM     70  O   UNL A   1      42.592  26.343  24.626  1.00  0.00    -0.744 OA
ENDBRANCH  64  67
ENDBRANCH  46  60
BRANCH  47  71
ATOM     71  C   UNL A   1      39.498  33.717  36.989  1.00  0.00     0.023 A 
ATOM     72  C   UNL A   1      39.902  35.066  36.952  1.00  0.00     0.012 A 
ATOM     73  C   UNL A   1      38.860  33.222  38.143  1.00  0.00     0.148 A 
ATOM     74  C   UNL A   1      39.702  35.899  38.054  1.00  0.00     0.002 A 
ATOM     75  C   UNL A   1      38.613  34.071  39.215  1.00  0.00     0.091 A 
ATOM     76  F   UNL A   1      38.494  31.932  38.161  1.00  0.00    -0.205 F 
ATOM     77  C   UNL A   1      39.049  35.405  39.181  1.00  0.00     0.022 A 
BRANCH  75  78
ATOM     78  S   UNL A   1      37.658  33.559  40.648  1.00  0.00     0.127 S 
ATOM     79  O   UNL A   1      36.412  33.112  40.033  1.00  0.00    -0.237 OA
ATOM     80  O   UNL A   1      38.493  32.492  41.201  1.00  0.00    -0.237 OA
ATOM     81  O   UNL A   1      37.560  34.741  41.496  1.00  0.00    -0.744 OA
ENDBRANCH  75  78
ENDBRANCH  47  71
BRANCH  59  82
ATOM     82  C   UNL A   1      44.259  28.884  35.320  1.00  0.00     0.023 A 
ATOM     83  C   UNL A   1      45.517  29.489  35.132  1.00  0.00     0.012 A 
ATOM     84  C   UNL A   1      44.131  27.824  36.241  1.00  0.00     0.148 A 
ATOM     85  C   UNL A   1      46.637  29.026  35.823  1.00  0.00     0.002 A 
ATOM     86  C   UNL A   1      45.241  27.401  36.962  1.00  0.00     0.091 A 
ATOM     87  F   UNL A   1      42.929  27.249  36.392  1.00  0.00    -0.205 F 
ATOM     88  C   UNL A   1      46.496  27.992  36.745  1.00  0.00     0.022 A 
BRANCH  86  89
ATOM     89  S   UNL A   1      45.134  26.142  38.238  1.00  0.00     0.127 S 
ATOM     90  O   UNL A   1      44.165  26.733  39.160  1.00  0.00    -0.237 OA
ATOM     91  O   UNL A   1      44.637  24.984  37.491  1.00  0.00    -0.237 OA
ATOM     92  O   UNL A   1      46.483  25.987  38.762  1.00  0.00    -0.744 OA
ENDBRANCH  86  89
ENDBRANCH  59  82
ENDBRANCH  33  34
ENDBRANCH  25  28
ENDBRANCH  23  24
ENDBRANCH   1  23
TORSDOF 16
ENDMDL
MODEL 2
REMARK VINA RESULT:     -11.9      5.857     12.144
REMARK SMILES Cc1cc(C(=O)N2CCC[C@@H]2C)sc1/C=C/C(=O)NCCCNC(=O)c1ccc(-c2c3nc(c(-c4cccc(S(=O)(=O)[O-])c4F)c4ccc([nH]4)c(-c4cccc(S(=O)(=O)[O-])c4F)c4nc(c(-c5cccc(S(=O)(=O)[O-])c5F)c5ccc2[nH]5)C=C4)C=C3)cc1
REMARK SMILES IDX 21 1 20 2 19 3 17 4 18 5 16 7 15 8 14 9 1 10 2 11 3 12 4 13
REMARK SMILES IDX 13 14 5 15 6 16 7 17 8 18 11 19 9 20 10 21 12 22 22 23 23 24
REMARK SMILES IDX 24 25 25 27 26 28 27 29 88 30 28 31 87 32 29 33 30 34 31 35
REMARK SMILES IDX 81 36 32 37 86 38 80 39 82 40 33 41 85 42 79 43 78 44 34 46
REMARK SMILES IDX 66 47 46 48 65 49 47 50 50 51 64 52 83 53 48 54 49 55 63 57
REMARK SMILES IDX 84 58 51 59 35 60 36 61 44 62 37 63 39 64 45 65 38 66 40 67
REMARK SMILES IDX 41 68 42 69 43 70 67 71 68 72 76 73 69 74 71 75 77 76 70 77
REMARK SMILES IDX 72 78 73 79 74 80 75 81 52 82 53 83 61 84 54 85 56 86 62 87
REMARK SMILES IDX 55 88 57 89 58 90 59 91 60 92
REMARK H PARENT 19 6 23 26 82 45 50 56
REMARK Flexibility Score: inf
ROOT
ATOM      1  C   UNL A   1      38.288  19.424  25.064  1.00  0.00     0.042 C 
ENDROOT
BRANCH   1   2
ATOM      2  C   UNL A   1      37.072  20.346  25.028  1.00  0.00     0.118 C 
BRANCH   2   3
ATOM      3  N   UNL A   1      35.831  19.592  24.985  1.00  0.00    -0.352 N 
ATOM      4  C   UNL A   1      34.544  20.021  24.916  1.00  0.00     0.244 C 
ATOM      5  O   UNL A   1      33.636  19.210  24.753  1.00  0.00    -0.270 OA
ATOM      6  H   UNL A   1      35.940  18.614  25.008  1.00  0.00     0.163 HD
BRANCH   4   7
ATOM      7  C   UNL A   1      34.234  21.466  24.924  1.00  0.00     0.072 C 
ATOM      8  C   UNL A   1      33.650  22.104  25.949  1.00  0.00     0.025 C 
BRANCH   8   9
ATOM      9  C   UNL A   1      33.372  23.505  25.929  1.00  0.00     0.031 A 
ATOM     10  C   UNL A   1      35.664  24.439  25.213  1.00  0.00     0.046 C 
ATOM     11  C   UNL A   1      34.239  24.558  25.660  1.00  0.00    -0.032 A 
ATOM     12  C   UNL A   1      33.587  25.829  25.828  1.00  0.00     0.029 A 
ATOM     13  C   UNL A   1      32.249  25.729  26.163  1.00  0.00     0.093 A 
ATOM     14  S   UNL A   1      31.795  24.092  26.260  1.00  0.00    -0.130 S 
BRANCH  13  15
ATOM     15  C   UNL A   1      31.284  26.824  26.197  1.00  0.00     0.264 C 
ATOM     16  O   UNL A   1      30.797  27.195  27.270  1.00  0.00    -0.268 OA
BRANCH  15  17
ATOM     17  N   UNL A   1      30.972  27.536  25.044  1.00  0.00    -0.335 N 
ATOM     18  C   UNL A   1      30.309  26.858  23.954  1.00  0.00     0.120 C 
ATOM     19  C   UNL A   1      31.242  28.934  24.690  1.00  0.00     0.082 C 
ATOM     20  C   UNL A   1      29.481  27.966  23.333  1.00  0.00     0.024 C 
ATOM     21  C   UNL A   1      30.408  29.174  23.417  1.00  0.00     0.026 C 
ATOM     22  C   UNL A   1      32.727  29.164  24.424  1.00  0.00     0.031 C 
ENDBRANCH  15  17
ENDBRANCH  13  15
ENDBRANCH   8   9
ENDBRANCH   4   7
ENDBRANCH   2   3
ENDBRANCH   1   2
BRANCH   1  23
ATOM     23  C   UNL A   1      39.474  20.013  25.821  1.00  0.00     0.118 C 
BRANCH  23  24
ATOM     24  N   UNL A   1      40.564  19.057  25.956  1.00  0.00    -0.352 N 
ATOM     25  C   UNL A   1      41.914  19.268  26.084  1.00  0.00     0.251 C 
ATOM     26  H   UNL A   1      40.290  18.112  25.953  1.00  0.00     0.163 HD
ATOM     27  O   UNL A   1      42.683  18.319  25.950  1.00  0.00    -0.269 OA
BRANCH  25  28
ATOM     28  C   UNL A   1      42.447  20.616  26.377  1.00  0.00     0.039 A 
ATOM     29  C   UNL A   1      42.839  21.431  25.310  1.00  0.00     0.014 A 
ATOM     30  C   UNL A   1      42.611  21.062  27.691  1.00  0.00     0.014 A 
ATOM     31  C   UNL A   1      43.351  22.706  25.561  1.00  0.00     0.010 A 
ATOM     32  C   UNL A   1      43.053  22.361  27.937  1.00  0.00     0.010 A 
ATOM     33  C   UNL A   1      43.439  23.192  26.875  1.00  0.00    -0.014 A 
BRANCH  33  34
ATOM     34  C   UNL A   1      43.925  24.567  27.159  1.00  0.00     0.031 A 
ATOM     35  C   UNL A   1      42.983  25.613  27.693  1.00  0.00     0.074 A 
ATOM     36  C   UNL A   1      45.195  24.896  26.855  1.00  0.00     0.049 A 
ATOM     37  N   UNL A   1      43.211  26.876  27.943  1.00  0.00    -0.248 NA
ATOM     38  C   UNL A   1      41.596  25.192  27.953  1.00  0.00     0.031 C 
ATOM     39  C   UNL A   1      46.182  23.994  26.258  1.00  0.00     0.029 A 
ATOM     40  N   UNL A   1      45.868  26.086  26.978  1.00  0.00    -0.354 N 
ATOM     41  C   UNL A   1      41.995  27.409  28.354  1.00  0.00     0.074 A 
ATOM     42  C   UNL A   1      41.023  26.339  28.288  1.00  0.00     0.031 C 
ATOM     43  C   UNL A   1      47.331  24.661  26.066  1.00  0.00     0.029 A 
ATOM     44  C   UNL A   1      47.157  26.043  26.501  1.00  0.00     0.049 A 
ATOM     45  H   UNL A   1      45.464  26.895  27.370  1.00  0.00     0.167 HD
ATOM     46  C   UNL A   1      41.716  28.666  28.778  1.00  0.00     0.034 A 
ATOM     47  C   UNL A   1      48.092  27.009  26.415  1.00  0.00     0.034 A 
ATOM     48  C   UNL A   1      42.696  29.713  28.884  1.00  0.00     0.049 A 
ATOM     49  C   UNL A   1      47.773  28.383  26.938  1.00  0.00     0.074 A 
ATOM     50  C   UNL A   1      42.535  30.994  29.384  1.00  0.00     0.029 A 
ATOM     51  N   UNL A   1      44.017  29.605  28.482  1.00  0.00    -0.354 N 
ATOM     52  N   UNL A   1      46.659  28.824  27.471  1.00  0.00    -0.248 NA
ATOM     53  C   UNL A   1      48.850  29.382  26.886  1.00  0.00     0.031 C 
ATOM     54  C   UNL A   1      43.755  31.666  29.266  1.00  0.00     0.029 A 
ATOM     55  C   UNL A   1      44.683  30.796  28.716  1.00  0.00     0.049 A 
ATOM     56  H   UNL A   1      44.423  28.799  28.089  1.00  0.00     0.167 HD
ATOM     57  C   UNL A   1      46.910  30.138  27.849  1.00  0.00     0.074 A 
ATOM     58  C   UNL A   1      48.290  30.415  27.503  1.00  0.00     0.031 C 
ATOM     59  C   UNL A   1      46.071  31.040  28.415  1.00  0.00     0.034 A 
BRANCH  46  60
ATOM     60  C   UNL A   1      40.304  28.961  29.213  1.00  0.00     0.023 A 
ATOM     61  C   UNL A   1      39.342  29.324  28.248  1.00  0.00     0.012 A 
ATOM     62  C   UNL A   1      39.913  28.826  30.560  1.00  0.00     0.148 A 
ATOM     63  C   UNL A   1      38.023  29.584  28.619  1.00  0.00     0.002 A 
ATOM     64  C   UNL A   1      38.586  29.042  30.916  1.00  0.00     0.091 A 
ATOM     65  F   UNL A   1      40.844  28.499  31.468  1.00  0.00    -0.205 F 
ATOM     66  C   UNL A   1      37.643  29.432  29.950  1.00  0.00     0.022 A 
BRANCH  64  67
ATOM     67  S   UNL A   1      37.978  28.797  32.589  1.00  0.00     0.127 S 
ATOM     68  O   UNL A   1      36.615  29.316  32.487  1.00  0.00    -0.237 OA
ATOM     69  O   UNL A   1      38.067  27.344  32.740  1.00  0.00    -0.237 OA
ATOM     70  O   UNL A   1      38.873  29.553  33.455  1.00  0.00    -0.744 OA
ENDBRANCH  64  67
ENDBRANCH  46  60
BRANCH  47  71
ATOM     71  C   UNL A   1      49.442  26.687  25.874  1.00  0.00     0.023 A 
ATOM     72  C   UNL A   1      50.324  25.902  26.642  1.00  0.00     0.012 A 
ATOM     73  C   UNL A   1      49.842  27.117  24.594  1.00  0.00     0.148 A 
ATOM     74  C   UNL A   1      51.591  25.575  26.157  1.00  0.00     0.002 A 
ATOM     75  C   UNL A   1      51.083  26.741  24.094  1.00  0.00     0.091 A 
ATOM     76  F   UNL A   1      48.992  27.873  23.884  1.00  0.00    -0.205 F 
ATOM     77  C   UNL A   1      51.967  25.986  24.880  1.00  0.00     0.022 A 
BRANCH  75  78
ATOM     78  S   UNL A   1      51.594  27.108  22.411  1.00  0.00     0.127 S 
ATOM     79  O   UNL A   1      51.837  28.546  22.478  1.00  0.00    -0.237 OA
ATOM     80  O   UNL A   1      52.795  26.283  22.274  1.00  0.00    -0.237 OA
ATOM     81  O   UNL A   1      50.483  26.690  21.565  1.00  0.00    -0.744 OA
ENDBRANCH  75  78
ENDBRANCH  47  71
BRANCH  59  82
ATOM     82  C   UNL A   1      46.624  32.405  28.732  1.00  0.00     0.023 A 
ATOM     83  C   UNL A   1      47.171  32.662  30.005  1.00  0.00     0.012 A 
ATOM     84  C   UNL A   1      46.668  33.410  27.744  1.00  0.00     0.148 A 
ATOM     85  C   UNL A   1      47.723  33.908  30.301  1.00  0.00     0.002 A 
ATOM     86  C   UNL A   1      47.263  34.632  28.031  1.00  0.00     0.091 A 
ATOM     87  F   UNL A   1      46.124  33.152  26.546  1.00  0.00    -0.205 F 
ATOM     88  C   UNL A   1      47.780  34.887  29.312  1.00  0.00     0.022 A 
BRANCH  86  89
ATOM     89  S   UNL A   1      47.466  35.915  26.791  1.00  0.00     0.127 S 
ATOM     90  O   UNL A   1      48.241  36.917  27.523  1.00  0.00    -0.237 OA
ATOM     91  O   UNL A   1      48.209  35.218  25.741  1.00  0.00    -0.237 OA
ATOM     92  O   UNL A   1      46.120  36.320  26.410  1.00  0.00    -0.744 OA
ENDBRANCH  86  89
ENDBRANCH  59  82
ENDBRANCH  33  34
ENDBRANCH  25  28
ENDBRANCH  23  24
ENDBRANCH   1  23
TORSDOF 16
ENDMDL
MODEL 3
REMARK VINA RESULT:     -11.9      6.332     11.771
REMARK SMILES Cc1cc(C(=O)N2CCC[C@@H]2C)sc1/C=C/C(=O)NCCCNC(=O)c1ccc(-c2c3nc(c(-c4cccc(S(=O)(=O)[O-])c4F)c4ccc([nH]4)c(-c4cccc(S(=O)(=O)[O-])c4F)c4nc(c(-c5cccc(S(=O)(=O)[O-])c5F)c5ccc2[nH]5)C=C4)C=C3)cc1
REMARK SMILES IDX 21 1 20 2 19 3 17 4 18 5 16 7 15 8 14 9 1 10 2 11 3 12 4 13
REMARK SMILES IDX 13 14 5 15 6 16 7 17 8 18 11 19 9 20 10 21 12 22 22 23 23 24
REMARK SMILES IDX 24 25 25 27 26 28 27 29 88 30 28 31 87 32 29 33 30 34 31 35
REMARK SMILES IDX 81 36 32 37 86 38 80 39 82 40 33 41 85 42 79 43 78 44 34 46
REMARK SMILES IDX 66 47 46 48 65 49 47 50 50 51 64 52 83 53 48 54 49 55 63 57
REMARK SMILES IDX 84 58 51 59 35 60 36 61 44 62 37 63 39 64 45 65 38 66 40 67
REMARK SMILES IDX 41 68 42 69 43 70 67 71 68 72 76 73 69 74 71 75 77 76 70 77
REMARK SMILES IDX 72 78 73 79 74 80 75 81 52 82 53 83 61 84 54 85 56 86 62 87
REMARK SMILES IDX 55 88 57 89 58 90 59 91 60 92
REMARK H PARENT 19 6 23 26 82 45 50 56
REMARK Flexibility Score: inf
ROOT
ATOM      1  C   UNL A   1      37.752  19.501  24.913  1.00  0.00     0.042 C 
ENDROOT
BRANCH   1   2
ATOM      2  C   UNL A   1      36.414  20.229  25.023  1.00  0.00     0.118 C 
BRANCH   2   3
ATOM      3  N   UNL A   1      35.300  19.297  25.032  1.00  0.00    -0.352 N 
ATOM      4  C   UNL A   1      33.992  19.488  24.715  1.00  0.00     0.244 C 
ATOM      5  O   UNL A   1      33.229  18.527  24.660  1.00  0.00    -0.270 OA
ATOM      6  H   UNL A   1      35.528  18.381  25.311  1.00  0.00     0.163 HD
BRANCH   4   7
ATOM      7  C   UNL A   1      33.502  20.827  24.328  1.00  0.00     0.072 C 
ATOM      8  C   UNL A   1      32.484  21.459  24.930  1.00  0.00     0.025 C 
BRANCH   8   9
ATOM      9  C   UNL A   1      32.041  22.759  24.537  1.00  0.00     0.031 A 
ATOM     10  C   UNL A   1      30.529  23.375  26.530  1.00  0.00     0.046 C 
ATOM     11  C   UNL A   1      31.149  23.605  25.185  1.00  0.00    -0.032 A 
ATOM     12  C   UNL A   1      30.900  24.793  24.415  1.00  0.00     0.029 A 
ATOM     13  C   UNL A   1      31.629  24.859  23.241  1.00  0.00     0.093 A 
ATOM     14  S   UNL A   1      32.617  23.483  23.093  1.00  0.00    -0.130 S 
BRANCH  13  15
ATOM     15  C   UNL A   1      31.746  26.020  22.363  1.00  0.00     0.264 C 
ATOM     16  O   UNL A   1      32.017  25.874  21.168  1.00  0.00    -0.268 OA
BRANCH  15  17
ATOM     17  N   UNL A   1      31.457  27.298  22.829  1.00  0.00    -0.335 N 
ATOM     18  C   UNL A   1      30.227  27.938  22.418  1.00  0.00     0.120 C 
ATOM     19  C   UNL A   1      32.238  28.194  23.689  1.00  0.00     0.082 C 
ATOM     20  C   UNL A   1      29.892  28.805  23.615  1.00  0.00     0.024 C 
ATOM     21  C   UNL A   1      31.257  29.325  24.053  1.00  0.00     0.026 C 
ATOM     22  C   UNL A   1      33.460  28.742  22.957  1.00  0.00     0.031 C 
ENDBRANCH  15  17
ENDBRANCH  13  15
ENDBRANCH   8   9
ENDBRANCH   4   7
ENDBRANCH   2   3
ENDBRANCH   1   2
BRANCH   1  23
ATOM     23  C   UNL A   1      38.875  20.178  25.693  1.00  0.00     0.118 C 
BRANCH  23  24
ATOM     24  N   UNL A   1      39.966  19.258  25.985  1.00  0.00    -0.352 N 
ATOM     25  C   UNL A   1      41.290  19.510  26.245  1.00  0.00     0.251 C 
ATOM     26  H   UNL A   1      39.715  18.307  25.997  1.00  0.00     0.163 HD
ATOM     27  O   UNL A   1      42.089  18.579  26.236  1.00  0.00    -0.269 OA
BRANCH  25  28
ATOM     28  C   UNL A   1      41.759  20.885  26.528  1.00  0.00     0.039 A 
ATOM     29  C   UNL A   1      41.672  21.848  25.518  1.00  0.00     0.014 A 
ATOM     30  C   UNL A   1      42.330  21.217  27.760  1.00  0.00     0.014 A 
ATOM     31  C   UNL A   1      42.114  23.151  25.760  1.00  0.00     0.010 A 
ATOM     32  C   UNL A   1      42.702  22.533  28.024  1.00  0.00     0.010 A 
ATOM     33  C   UNL A   1      42.610  23.511  27.023  1.00  0.00    -0.014 A 
BRANCH  33  34
ATOM     34  C   UNL A   1      43.029  24.906  27.318  1.00  0.00     0.031 A 
ATOM     35  C   UNL A   1      42.065  25.873  27.952  1.00  0.00     0.074 A 
ATOM     36  C   UNL A   1      44.251  25.324  26.937  1.00  0.00     0.049 A 
ATOM     37  N   UNL A   1      42.233  27.141  28.228  1.00  0.00    -0.248 NA
ATOM     38  C   UNL A   1      40.730  25.357  28.294  1.00  0.00     0.031 C 
ATOM     39  C   UNL A   1      45.246  24.504  26.241  1.00  0.00     0.029 A 
ATOM     40  N   UNL A   1      44.856  26.551  27.052  1.00  0.00    -0.354 N 
ATOM     41  C   UNL A   1      41.019  27.582  28.741  1.00  0.00     0.074 A 
ATOM     42  C   UNL A   1      40.113  26.455  28.708  1.00  0.00     0.031 C 
ATOM     43  C   UNL A   1      46.335  25.249  25.992  1.00  0.00     0.029 A 
ATOM     44  C   UNL A   1      46.108  26.604  26.484  1.00  0.00     0.049 A 
ATOM     45  H   UNL A   1      44.433  27.320  27.499  1.00  0.00     0.167 HD
ATOM     46  C   UNL A   1      40.694  28.805  29.226  1.00  0.00     0.034 A 
ATOM     47  C   UNL A   1      46.972  27.630  26.366  1.00  0.00     0.034 A 
ATOM     48  C   UNL A   1      41.613  29.910  29.299  1.00  0.00     0.049 A 
ATOM     49  C   UNL A   1      46.608  28.965  26.956  1.00  0.00     0.074 A 
ATOM     50  C   UNL A   1      41.410  31.162  29.851  1.00  0.00     0.029 A 
ATOM     51  N   UNL A   1      42.906  29.898  28.801  1.00  0.00    -0.354 N 
ATOM     52  N   UNL A   1      45.511  29.317  27.581  1.00  0.00    -0.248 NA
ATOM     53  C   UNL A   1      47.615  30.031  26.862  1.00  0.00     0.031 C 
ATOM     54  C   UNL A   1      42.575  31.914  29.670  1.00  0.00     0.029 A 
ATOM     55  C   UNL A   1      43.513  31.122  29.028  1.00  0.00     0.049 A 
ATOM     56  H   UNL A   1      43.332  29.132  28.353  1.00  0.00     0.167 HD
ATOM     57  C   UNL A   1      45.707  30.633  27.984  1.00  0.00     0.074 A 
ATOM     58  C   UNL A   1      47.039  31.008  27.552  1.00  0.00     0.031 C 
ATOM     59  C   UNL A   1      44.858  31.463  28.639  1.00  0.00     0.034 A 
BRANCH  46  60
ATOM     60  C   UNL A   1      39.302  28.997  29.770  1.00  0.00     0.023 A 
ATOM     61  C   UNL A   1      38.999  28.551  31.073  1.00  0.00     0.012 A 
ATOM     62  C   UNL A   1      38.313  29.666  29.022  1.00  0.00     0.148 A 
ATOM     63  C   UNL A   1      37.725  28.733  31.610  1.00  0.00     0.002 A 
ATOM     64  C   UNL A   1      37.059  29.884  29.582  1.00  0.00     0.091 A 
ATOM     65  F   UNL A   1      38.611  30.066  27.778  1.00  0.00    -0.205 F 
ATOM     66  C   UNL A   1      36.760  29.408  30.870  1.00  0.00     0.022 A 
BRANCH  64  67
ATOM     67  S   UNL A   1      35.770  30.812  28.741  1.00  0.00     0.127 S 
ATOM     68  O   UNL A   1      35.047  29.749  28.045  1.00  0.00    -0.237 OA
ATOM     69  O   UNL A   1      35.042  31.412  29.861  1.00  0.00    -0.237 OA
ATOM     70  O   UNL A   1      36.457  31.768  27.884  1.00  0.00    -0.744 OA
ENDBRANCH  64  67
ENDBRANCH  46  60
BRANCH  47  71
ATOM     71  C   UNL A   1      48.298  27.411  25.720  1.00  0.00     0.023 A 
ATOM     72  C   UNL A   1      49.393  27.013  26.511  1.00  0.00     0.012 A 
ATOM     73  C   UNL A   1      48.470  27.554  24.330  1.00  0.00     0.148 A 
ATOM     74  C   UNL A   1      50.644  26.790  25.934  1.00  0.00     0.002 A 
ATOM     75  C   UNL A   1      49.704  27.276  23.754  1.00  0.00     0.091 A 
ATOM     76  F   UNL A   1      47.417  27.944  23.597  1.00  0.00    -0.205 F 
ATOM     77  C   UNL A   1      50.797  26.912  24.554  1.00  0.00     0.022 A 
BRANCH  75  78
ATOM     78  S   UNL A   1      49.955  27.272  21.975  1.00  0.00     0.127 S 
ATOM     79  O   UNL A   1      49.754  28.679  21.640  1.00  0.00    -0.237 OA
ATOM     80  O   UNL A   1      51.337  26.802  21.866  1.00  0.00    -0.237 OA
ATOM     81  O   UNL A   1      48.966  26.344  21.441  1.00  0.00    -0.744 OA
ENDBRANCH  75  78
ENDBRANCH  47  71
BRANCH  59  82
ATOM     82  C   UNL A   1      45.347  32.851  28.961  1.00  0.00     0.023 A 
ATOM     83  C   UNL A   1      46.010  33.094  30.180  1.00  0.00     0.012 A 
ATOM     84  C   UNL A   1      45.214  33.895  28.025  1.00  0.00     0.148 A 
ATOM     85  C   UNL A   1      46.504  34.364  30.477  1.00  0.00     0.002 A 
ATOM     86  C   UNL A   1      45.752  35.145  28.307  1.00  0.00     0.091 A 
ATOM     87  F   UNL A   1      44.563  33.648  26.879  1.00  0.00    -0.205 F 
ATOM     88  C   UNL A   1      46.386  35.384  29.537  1.00  0.00     0.022 A 
BRANCH  86  89
ATOM     89  S   UNL A   1      45.730  36.490  27.117  1.00  0.00     0.127 S 
ATOM     90  O   UNL A   1      44.295  36.709  26.939  1.00  0.00    -0.237 OA
ATOM     91  O   UNL A   1      46.424  37.557  27.841  1.00  0.00    -0.237 OA
ATOM     92  O   UNL A   1      46.440  35.998  25.944  1.00  0.00    -0.744 OA
ENDBRANCH  86  89
ENDBRANCH  59  82
ENDBRANCH  33  34
ENDBRANCH  25  28
ENDBRANCH  23  24
ENDBRANCH   1  23
TORSDOF 16
ENDMDL
