MODEL 1
REMARK VINA RESULT:     -11.3      0.000      0.000
REMARK SMILES CCn1c(=O)n(CC)c2cc(C(=O)NCCCNC(=O)c3ccc(-c4c5nc(c(-c6cccc(S(=O)(=O)[O-])c6F)c6ccc([nH]6)c(-c6cccc(S(=O)(=O)[O-])c6F)c6nc(c(-c7cccc(S(=O)(=O)[O-])c7F)c7ccc4[nH]7)C=C6)C=C5)cc3)ccc21
REMARK SMILES IDX 17 1 16 2 15 3 14 4 12 5 13 6 11 8 3 9 4 10 86 11 5 12 6 13
REMARK SMILES IDX 9 14 85 15 10 16 84 17 2 18 1 19 7 20 8 21 18 22 19 23 20 25
REMARK SMILES IDX 21 26 22 27 83 28 23 29 82 30 24 31 25 32 26 33 76 34 27 35
REMARK SMILES IDX 81 36 75 37 77 38 28 39 80 40 74 41 73 42 29 44 61 45 41 46
REMARK SMILES IDX 60 47 42 48 45 49 59 50 78 51 43 52 44 53 58 55 79 56 46 57
REMARK SMILES IDX 30 58 31 59 39 60 32 61 34 62 40 63 33 64 35 65 36 66 37 67
REMARK SMILES IDX 38 68 62 69 63 70 71 71 64 72 66 73 72 74 65 75 67 76 68 77
REMARK SMILES IDX 69 78 70 79 47 80 48 81 56 82 49 83 51 84 57 85 50 86 52 87
REMARK SMILES IDX 53 88 54 89 55 90
REMARK H PARENT 14 7 18 24 77 43 45 54
REMARK Flexibility Score: inf
ROOT
ATOM      1  C   UNL A   1      34.229  32.402  27.920  1.00  0.00     0.118 C 
ENDROOT
BRANCH   1   2
ATOM      2  C   UNL A   1      33.395  31.156  27.605  1.00  0.00     0.042 C 
BRANCH   2   3
ATOM      3  C   UNL A   1      34.208  30.041  26.941  1.00  0.00     0.118 C 
BRANCH   3   4
ATOM      4  N   UNL A   1      33.806  29.846  25.558  1.00  0.00    -0.352 N 
ATOM      5  C   UNL A   1      33.327  28.785  24.836  1.00  0.00     0.251 C 
ATOM      6  O   UNL A   1      33.067  29.008  23.650  1.00  0.00    -0.269 OA
ATOM      7  H   UNL A   1      33.900  30.662  25.017  1.00  0.00     0.163 HD
BRANCH   5   8
ATOM      8  C   UNL A   1      33.053  27.422  25.382  1.00  0.00     0.042 A 
ATOM      9  N   UNL A   1      32.692  23.402  26.419  1.00  0.00    -0.292 N 
ATOM     10  C   UNL A   1      33.923  22.898  25.938  1.00  0.00     0.329 A 
ATOM     11  C   UNL A   1      32.647  24.785  26.195  1.00  0.00     0.069 A 
ATOM     12  O   UNL A   1      34.307  21.741  25.967  1.00  0.00    -0.248 OA
ATOM     13  N   UNL A   1      34.625  24.010  25.417  1.00  0.00    -0.292 N 
ATOM     14  C   UNL A   1      33.824  25.154  25.545  1.00  0.00     0.070 A 
ATOM     15  C   UNL A   1      31.686  25.719  26.513  1.00  0.00     0.029 A 
ATOM     16  C   UNL A   1      34.046  26.450  25.129  1.00  0.00     0.042 A 
ATOM     17  C   UNL A   1      31.912  27.051  26.124  1.00  0.00     0.016 A 
BRANCH   9  18
ATOM     18  C   UNL A   1      31.642  22.595  26.987  1.00  0.00     0.124 C 
ATOM     19  C   UNL A   1      30.473  22.407  26.035  1.00  0.00     0.028 C 
ENDBRANCH   9  18
BRANCH  13  20
ATOM     20  C   UNL A   1      35.967  23.964  24.894  1.00  0.00     0.124 C 
ATOM     21  C   UNL A   1      37.026  23.862  25.978  1.00  0.00     0.028 C 
ENDBRANCH  13  20
ENDBRANCH   5   8
ENDBRANCH   3   4
ENDBRANCH   2   3
ENDBRANCH   1   2
BRANCH   1  22
ATOM     22  N   UNL A   1      34.341  32.688  29.339  1.00  0.00    -0.352 N 
ATOM     23  C   UNL A   1      35.216  32.358  30.337  1.00  0.00     0.251 C 
ATOM     24  H   UNL A   1      33.607  33.259  29.663  1.00  0.00     0.163 HD
ATOM     25  O   UNL A   1      34.970  32.851  31.441  1.00  0.00    -0.269 OA
BRANCH  23  26
ATOM     26  C   UNL A   1      36.377  31.433  30.204  1.00  0.00     0.039 A 
ATOM     27  C   UNL A   1      36.316  30.041  30.238  1.00  0.00     0.014 A 
ATOM     28  C   UNL A   1      37.640  32.044  30.059  1.00  0.00     0.014 A 
ATOM     29  C   UNL A   1      37.486  29.286  30.217  1.00  0.00     0.010 A 
ATOM     30  C   UNL A   1      38.812  31.292  30.017  1.00  0.00     0.010 A 
ATOM     31  C   UNL A   1      38.736  29.911  30.136  1.00  0.00    -0.014 A 
BRANCH  31  32
ATOM     32  C   UNL A   1      39.921  29.058  30.068  1.00  0.00     0.031 A 
ATOM     33  C   UNL A   1      40.593  28.834  31.378  1.00  0.00     0.074 A 
ATOM     34  C   UNL A   1      40.379  28.457  28.950  1.00  0.00     0.049 A 
ATOM     35  N   UNL A   1      41.710  29.343  31.785  1.00  0.00    -0.248 NA
ATOM     36  C   UNL A   1      39.872  28.065  32.401  1.00  0.00     0.031 C 
ATOM     37  C   UNL A   1      39.706  28.335  27.653  1.00  0.00     0.029 A 
ATOM     38  N   UNL A   1      41.528  27.741  28.768  1.00  0.00    -0.354 N 
ATOM     39  C   UNL A   1      41.946  28.770  33.035  1.00  0.00     0.074 A 
ATOM     40  C   UNL A   1      40.719  28.129  33.431  1.00  0.00     0.031 C 
ATOM     41  C   UNL A   1      40.348  27.408  26.901  1.00  0.00     0.029 A 
ATOM     42  C   UNL A   1      41.561  27.003  27.589  1.00  0.00     0.049 A 
ATOM     43  H   UNL A   1      42.269  27.746  29.417  1.00  0.00     0.167 HD
ATOM     44  C   UNL A   1      43.205  28.649  33.537  1.00  0.00     0.034 A 
ATOM     45  C   UNL A   1      42.514  26.110  27.227  1.00  0.00     0.034 A 
ATOM     46  C   UNL A   1      44.164  29.398  32.776  1.00  0.00     0.049 A 
ATOM     47  C   UNL A   1      43.748  26.474  27.955  1.00  0.00     0.074 A 
ATOM     48  C   UNL A   1      44.549  30.711  32.639  1.00  0.00     0.029 A 
ATOM     49  N   UNL A   1      44.672  28.703  31.712  1.00  0.00    -0.354 N 
ATOM     50  N   UNL A   1      44.420  27.567  27.727  1.00  0.00    -0.248 NA
ATOM     51  C   UNL A   1      44.145  25.721  29.138  1.00  0.00     0.031 C 
ATOM     52  C   UNL A   1      45.125  30.817  31.337  1.00  0.00     0.029 A 
ATOM     53  C   UNL A   1      45.087  29.562  30.733  1.00  0.00     0.049 A 
ATOM     54  H   UNL A   1      44.732  27.721  31.659  1.00  0.00     0.167 HD
ATOM     55  C   UNL A   1      45.006  27.853  28.943  1.00  0.00     0.074 A 
ATOM     56  C   UNL A   1      44.971  26.608  29.696  1.00  0.00     0.031 C 
ATOM     57  C   UNL A   1      45.158  29.140  29.353  1.00  0.00     0.034 A 
BRANCH  44  58
ATOM     58  C   UNL A   1      43.671  27.524  34.431  1.00  0.00     0.023 A 
ATOM     59  C   UNL A   1      44.287  27.859  35.657  1.00  0.00     0.012 A 
ATOM     60  C   UNL A   1      43.801  26.189  33.988  1.00  0.00     0.148 A 
ATOM     61  C   UNL A   1      44.997  26.910  36.403  1.00  0.00     0.002 A 
ATOM     62  C   UNL A   1      44.445  25.234  34.767  1.00  0.00     0.091 A 
ATOM     63  F   UNL A   1      43.429  25.867  32.745  1.00  0.00    -0.205 F 
ATOM     64  C   UNL A   1      45.064  25.592  35.966  1.00  0.00     0.022 A 
BRANCH  62  65
ATOM     65  S   UNL A   1      44.529  23.513  34.260  1.00  0.00     0.127 S 
ATOM     66  O   UNL A   1      45.208  23.621  32.972  1.00  0.00    -0.237 OA
ATOM     67  O   UNL A   1      45.327  22.923  35.335  1.00  0.00    -0.237 OA
ATOM     68  O   UNL A   1      43.146  23.056  34.224  1.00  0.00    -0.744 OA
ENDBRANCH  62  65
ENDBRANCH  44  58
BRANCH  45  69
ATOM     69  C   UNL A   1      42.483  24.879  26.402  1.00  0.00     0.023 A 
ATOM     70  C   UNL A   1      43.594  24.593  25.577  1.00  0.00     0.012 A 
ATOM     71  C   UNL A   1      41.577  23.837  26.684  1.00  0.00     0.148 A 
ATOM     72  C   UNL A   1      43.854  23.292  25.135  1.00  0.00     0.002 A 
ATOM     73  C   UNL A   1      41.838  22.543  26.235  1.00  0.00     0.091 A 
ATOM     74  F   UNL A   1      40.527  24.091  27.477  1.00  0.00    -0.205 F 
ATOM     75  C   UNL A   1      42.987  22.263  25.483  1.00  0.00     0.022 A 
BRANCH  73  76
ATOM     76  S   UNL A   1      40.773  21.157  26.656  1.00  0.00     0.127 S 
ATOM     77  O   UNL A   1      41.490  20.026  26.063  1.00  0.00    -0.237 OA
ATOM     78  O   UNL A   1      40.792  21.194  28.115  1.00  0.00    -0.237 OA
ATOM     79  O   UNL A   1      39.492  21.447  26.024  1.00  0.00    -0.744 OA
ENDBRANCH  73  76
ENDBRANCH  45  69
BRANCH  57  80
ATOM     80  C   UNL A   1      45.183  30.202  28.300  1.00  0.00     0.023 A 
ATOM     81  C   UNL A   1      44.016  30.688  27.678  1.00  0.00     0.012 A 
ATOM     82  C   UNL A   1      46.421  30.797  28.011  1.00  0.00     0.148 A 
ATOM     83  C   UNL A   1      44.090  31.751  26.775  1.00  0.00     0.002 A 
ATOM     84  C   UNL A   1      46.483  31.878  27.145  1.00  0.00     0.091 A 
ATOM     85  F   UNL A   1      47.513  30.306  28.615  1.00  0.00    -0.205 F 
ATOM     86  C   UNL A   1      45.322  32.355  26.518  1.00  0.00     0.022 A 
BRANCH  84  87
ATOM     87  S   UNL A   1      48.016  32.763  26.856  1.00  0.00     0.127 S 
ATOM     88  O   UNL A   1      48.297  33.328  28.174  1.00  0.00    -0.237 OA
ATOM     89  O   UNL A   1      48.918  31.685  26.445  1.00  0.00    -0.237 OA
ATOM     90  O   UNL A   1      47.731  33.735  25.808  1.00  0.00    -0.744 OA
ENDBRANCH  84  87
ENDBRANCH  57  80
ENDBRANCH  31  32
ENDBRANCH  23  26
ENDBRANCH   1  22
TORSDOF 15
ENDMDL
MODEL 2
REMARK VINA RESULT:     -11.1      1.494      2.306
REMARK SMILES CCn1c(=O)n(CC)c2cc(C(=O)NCCCNC(=O)c3ccc(-c4c5nc(c(-c6cccc(S(=O)(=O)[O-])c6F)c6ccc([nH]6)c(-c6cccc(S(=O)(=O)[O-])c6F)c6nc(c(-c7cccc(S(=O)(=O)[O-])c7F)c7ccc4[nH]7)C=C6)C=C5)cc3)ccc21
REMARK SMILES IDX 17 1 16 2 15 3 14 4 12 5 13 6 11 8 3 9 4 10 86 11 5 12 6 13
REMARK SMILES IDX 9 14 85 15 10 16 84 17 2 18 1 19 7 20 8 21 18 22 19 23 20 25
REMARK SMILES IDX 21 26 22 27 83 28 23 29 82 30 24 31 25 32 26 33 76 34 27 35
REMARK SMILES IDX 81 36 75 37 77 38 28 39 80 40 74 41 73 42 29 44 61 45 41 46
REMARK SMILES IDX 60 47 42 48 45 49 59 50 78 51 43 52 44 53 58 55 79 56 46 57
REMARK SMILES IDX 30 58 31 59 39 60 32 61 34 62 40 63 33 64 35 65 36 66 37 67
REMARK SMILES IDX 38 68 62 69 63 70 71 71 64 72 66 73 72 74 65 75 67 76 68 77
REMARK SMILES IDX 69 78 70 79 47 80 48 81 56 82 49 83 51 84 57 85 50 86 52 87
REMARK SMILES IDX 53 88 54 89 55 90
REMARK H PARENT 14 7 18 24 77 43 45 54
REMARK Flexibility Score: inf
ROOT
ATOM      1  C   UNL A   1      34.504  32.760  28.007  1.00  0.00     0.118 C 
ENDROOT
BRANCH   1   2
ATOM      2  C   UNL A   1      33.409  31.921  27.342  1.00  0.00     0.042 C 
BRANCH   2   3
ATOM      3  C   UNL A   1      33.788  30.444  27.199  1.00  0.00     0.118 C 
BRANCH   3   4
ATOM      4  N   UNL A   1      32.790  29.581  27.809  1.00  0.00    -0.352 N 
ATOM      5  C   UNL A   1      32.206  28.391  27.463  1.00  0.00     0.251 C 
ATOM      6  O   UNL A   1      31.389  27.932  28.267  1.00  0.00    -0.269 OA
ATOM      7  H   UNL A   1      32.458  29.931  28.667  1.00  0.00     0.163 HD
BRANCH   5   8
ATOM      8  C   UNL A   1      32.520  27.600  26.234  1.00  0.00     0.042 A 
ATOM      9  N   UNL A   1      32.771  25.543  22.619  1.00  0.00    -0.292 N 
ATOM     10  C   UNL A   1      31.833  26.264  21.845  1.00  0.00     0.329 A 
ATOM     11  C   UNL A   1      32.862  26.131  23.889  1.00  0.00     0.069 A 
ATOM     12  O   UNL A   1      31.501  26.039  20.693  1.00  0.00    -0.248 OA
ATOM     13  N   UNL A   1      31.355  27.305  22.676  1.00  0.00    -0.292 N 
ATOM     14  C   UNL A   1      31.962  27.196  23.935  1.00  0.00     0.070 A 
ATOM     15  C   UNL A   1      33.652  25.819  24.973  1.00  0.00     0.029 A 
ATOM     16  C   UNL A   1      31.772  27.933  25.085  1.00  0.00     0.042 A 
ATOM     17  C   UNL A   1      33.493  26.583  26.143  1.00  0.00     0.016 A 
BRANCH   9  18
ATOM     18  C   UNL A   1      33.465  24.361  22.175  1.00  0.00     0.124 C 
ATOM     19  C   UNL A   1      32.735  23.083  22.550  1.00  0.00     0.028 C 
ENDBRANCH   9  18
BRANCH  13  20
ATOM     20  C   UNL A   1      30.436  28.333  22.259  1.00  0.00     0.124 C 
ATOM     21  C   UNL A   1      29.081  28.231  22.936  1.00  0.00     0.028 C 
ENDBRANCH  13  20
ENDBRANCH   5   8
ENDBRANCH   3   4
ENDBRANCH   2   3
ENDBRANCH   1   2
BRANCH   1  22
ATOM     22  N   UNL A   1      34.420  32.790  29.456  1.00  0.00    -0.352 N 
ATOM     23  C   UNL A   1      35.161  32.284  30.488  1.00  0.00     0.251 C 
ATOM     24  H   UNL A   1      33.638  33.297  29.774  1.00  0.00     0.163 HD
ATOM     25  O   UNL A   1      34.760  32.575  31.619  1.00  0.00    -0.269 OA
BRANCH  23  26
ATOM     26  C   UNL A   1      36.348  31.393  30.353  1.00  0.00     0.039 A 
ATOM     27  C   UNL A   1      36.421  30.067  30.774  1.00  0.00     0.014 A 
ATOM     28  C   UNL A   1      37.493  31.973  29.767  1.00  0.00     0.014 A 
ATOM     29  C   UNL A   1      37.625  29.370  30.695  1.00  0.00     0.010 A 
ATOM     30  C   UNL A   1      38.693  31.274  29.666  1.00  0.00     0.010 A 
ATOM     31  C   UNL A   1      38.769  29.982  30.168  1.00  0.00    -0.014 A 
BRANCH  31  32
ATOM     32  C   UNL A   1      39.986  29.178  30.069  1.00  0.00     0.031 A 
ATOM     33  C   UNL A   1      40.662  28.923  31.370  1.00  0.00     0.074 A 
ATOM     34  C   UNL A   1      40.469  28.646  28.927  1.00  0.00     0.049 A 
ATOM     35  N   UNL A   1      41.758  29.456  31.804  1.00  0.00    -0.248 NA
ATOM     36  C   UNL A   1      39.969  28.083  32.355  1.00  0.00     0.031 C 
ATOM     37  C   UNL A   1      39.805  28.554  27.623  1.00  0.00     0.029 A 
ATOM     38  N   UNL A   1      41.645  27.983  28.719  1.00  0.00    -0.354 N 
ATOM     39  C   UNL A   1      42.013  28.838  33.028  1.00  0.00     0.074 A 
ATOM     40  C   UNL A   1      40.810  28.134  33.391  1.00  0.00     0.031 C 
ATOM     41  C   UNL A   1      40.484  27.687  26.834  1.00  0.00     0.029 A 
ATOM     42  C   UNL A   1      41.710  27.299  27.509  1.00  0.00     0.049 A 
ATOM     43  H   UNL A   1      42.384  27.987  29.371  1.00  0.00     0.167 HD
ATOM     44  C   UNL A   1      43.274  28.744  33.531  1.00  0.00     0.034 A 
ATOM     45  C   UNL A   1      42.697  26.460  27.112  1.00  0.00     0.034 A 
ATOM     46  C   UNL A   1      44.205  29.561  32.807  1.00  0.00     0.049 A 
ATOM     47  C   UNL A   1      43.914  26.839  27.860  1.00  0.00     0.074 A 
ATOM     48  C   UNL A   1      44.539  30.893  32.729  1.00  0.00     0.029 A 
ATOM     49  N   UNL A   1      44.743  28.934  31.716  1.00  0.00    -0.354 N 
ATOM     50  N   UNL A   1      44.545  27.965  27.684  1.00  0.00    -0.248 NA
ATOM     51  C   UNL A   1      44.338  26.050  29.011  1.00  0.00     0.031 C 
ATOM     52  C   UNL A   1      45.114  31.078  31.436  1.00  0.00     0.029 A 
ATOM     53  C   UNL A   1      45.126  29.851  30.778  1.00  0.00     0.049 A 
ATOM     54  H   UNL A   1      44.840  27.958  31.621  1.00  0.00     0.167 HD
ATOM     55  C   UNL A   1      45.116  28.220  28.913  1.00  0.00     0.074 A 
ATOM     56  C   UNL A   1      45.127  26.943  29.611  1.00  0.00     0.031 C 
ATOM     57  C   UNL A   1      45.217  29.492  29.381  1.00  0.00     0.034 A 
BRANCH  44  58
ATOM     58  C   UNL A   1      43.780  27.599  34.376  1.00  0.00     0.023 A 
ATOM     59  C   UNL A   1      44.437  27.906  35.588  1.00  0.00     0.012 A 
ATOM     60  C   UNL A   1      43.906  26.278  33.893  1.00  0.00     0.148 A 
ATOM     61  C   UNL A   1      45.181  26.944  36.283  1.00  0.00     0.002 A 
ATOM     62  C   UNL A   1      44.584  25.308  34.622  1.00  0.00     0.091 A 
ATOM     63  F   UNL A   1      43.492  25.987  32.654  1.00  0.00    -0.205 F 
ATOM     64  C   UNL A   1      45.243  25.639  35.808  1.00  0.00     0.022 A 
BRANCH  62  65
ATOM     65  S   UNL A   1      44.665  23.602  34.065  1.00  0.00     0.127 S 
ATOM     66  O   UNL A   1      43.255  23.226  34.069  1.00  0.00    -0.237 OA
ATOM     67  O   UNL A   1      45.266  23.749  32.739  1.00  0.00    -0.237 OA
ATOM     68  O   UNL A   1      45.517  22.923  35.033  1.00  0.00    -0.744 OA
ENDBRANCH  62  65
ENDBRANCH  44  58
BRANCH  45  69
ATOM     69  C   UNL A   1      42.716  25.266  26.234  1.00  0.00     0.023 A 
ATOM     70  C   UNL A   1      43.713  25.180  25.236  1.00  0.00     0.012 A 
ATOM     71  C   UNL A   1      42.027  24.090  26.591  1.00  0.00     0.148 A 
ATOM     72  C   UNL A   1      44.087  23.949  24.688  1.00  0.00     0.002 A 
ATOM     73  C   UNL A   1      42.399  22.866  26.036  1.00  0.00     0.091 A 
ATOM     74  F   UNL A   1      41.090  24.155  27.546  1.00  0.00    -0.205 F 
ATOM     75  C   UNL A   1      43.444  22.789  25.105  1.00  0.00     0.022 A 
BRANCH  73  76
ATOM     76  S   UNL A   1      41.627  21.321  26.534  1.00  0.00     0.127 S 
ATOM     77  O   UNL A   1      40.203  21.620  26.370  1.00  0.00    -0.237 OA
ATOM     78  O   UNL A   1      42.171  20.383  25.557  1.00  0.00    -0.237 OA
ATOM     79  O   UNL A   1      42.035  21.113  27.918  1.00  0.00    -0.744 OA
ENDBRANCH  73  76
ENDBRANCH  45  69
BRANCH  57  80
ATOM     80  C   UNL A   1      45.204  30.600  28.375  1.00  0.00     0.023 A 
ATOM     81  C   UNL A   1      44.014  31.160  27.871  1.00  0.00     0.012 A 
ATOM     82  C   UNL A   1      46.440  31.159  28.013  1.00  0.00     0.148 A 
ATOM     83  C   UNL A   1      44.061  32.259  27.011  1.00  0.00     0.002 A 
ATOM     84  C   UNL A   1      46.479  32.275  27.191  1.00  0.00     0.091 A 
ATOM     85  F   UNL A   1      47.555  30.598  28.505  1.00  0.00    -0.205 F 
ATOM     86  C   UNL A   1      45.293  32.825  26.682  1.00  0.00     0.022 A 
BRANCH  84  87
ATOM     87  S   UNL A   1      48.021  33.112  26.818  1.00  0.00     0.127 S 
ATOM     88  O   UNL A   1      48.366  33.708  28.106  1.00  0.00    -0.237 OA
ATOM     89  O   UNL A   1      48.880  32.000  26.405  1.00  0.00    -0.237 OA
ATOM     90  O   UNL A   1      47.719  34.060  25.753  1.00  0.00    -0.744 OA
ENDBRANCH  84  87
ENDBRANCH  57  80
ENDBRANCH  31  32
ENDBRANCH  23  26
ENDBRANCH   1  22
TORSDOF 15
ENDMDL
MODEL 3
REMARK VINA RESULT:     -11.0      4.285     10.838
REMARK SMILES CCn1c(=O)n(CC)c2cc(C(=O)NCCCNC(=O)c3ccc(-c4c5nc(c(-c6cccc(S(=O)(=O)[O-])c6F)c6ccc([nH]6)c(-c6cccc(S(=O)(=O)[O-])c6F)c6nc(c(-c7cccc(S(=O)(=O)[O-])c7F)c7ccc4[nH]7)C=C6)C=C5)cc3)ccc21
REMARK SMILES IDX 17 1 16 2 15 3 14 4 12 5 13 6 11 8 3 9 4 10 86 11 5 12 6 13
REMARK SMILES IDX 9 14 85 15 10 16 84 17 2 18 1 19 7 20 8 21 18 22 19 23 20 25
REMARK SMILES IDX 21 26 22 27 83 28 23 29 82 30 24 31 25 32 26 33 76 34 27 35
REMARK SMILES IDX 81 36 75 37 77 38 28 39 80 40 74 41 73 42 29 44 61 45 41 46
REMARK SMILES IDX 60 47 42 48 45 49 59 50 78 51 43 52 44 53 58 55 79 56 46 57
REMARK SMILES IDX 30 58 31 59 39 60 32 61 34 62 40 63 33 64 35 65 36 66 37 67
REMARK SMILES IDX 38 68 62 69 63 70 71 71 64 72 66 73 72 74 65 75 67 76 68 77
REMARK SMILES IDX 69 78 70 79 47 80 48 81 56 82 49 83 51 84 57 85 50 86 52 87
REMARK SMILES IDX 53 88 54 89 55 90
REMARK H PARENT 14 7 18 24 77 43 45 54
REMARK Flexibility Score: inf
ROOT
ATOM      1  C   UNL A   1      44.374  22.668  26.970  1.00  0.00     0.118 C 
ENDROOT
BRANCH   1   2
ATOM      2  C   UNL A   1      44.759  22.327  25.527  1.00  0.00     0.042 C 
BRANCH   2   3
ATOM      3  C   UNL A   1      44.858  23.559  24.624  1.00  0.00     0.118 C 
BRANCH   3   4
ATOM      4  N   UNL A   1      43.732  24.456  24.827  1.00  0.00    -0.352 N 
ATOM      5  C   UNL A   1      43.592  25.729  25.311  1.00  0.00     0.251 C 
ATOM      6  O   UNL A   1      42.446  26.187  25.312  1.00  0.00    -0.269 OA
ATOM      7  H   UNL A   1      42.875  24.057  24.554  1.00  0.00     0.163 HD
BRANCH   5   8
ATOM      8  C   UNL A   1      44.710  26.604  25.778  1.00  0.00     0.042 A 
ATOM      9  N   UNL A   1      47.510  29.044  27.667  1.00  0.00    -0.292 N 
ATOM     10  C   UNL A   1      47.352  28.628  29.009  1.00  0.00     0.329 A 
ATOM     11  C   UNL A   1      46.660  28.284  26.852  1.00  0.00     0.069 A 
ATOM     12  O   UNL A   1      47.932  29.067  29.989  1.00  0.00    -0.248 OA
ATOM     13  N   UNL A   1      46.385  27.596  28.990  1.00  0.00    -0.292 N 
ATOM     14  C   UNL A   1      45.941  27.415  27.672  1.00  0.00     0.070 A 
ATOM     15  C   UNL A   1      46.478  28.288  25.486  1.00  0.00     0.029 A 
ATOM     16  C   UNL A   1      44.968  26.579  27.165  1.00  0.00     0.042 A 
ATOM     17  C   UNL A   1      45.512  27.418  24.950  1.00  0.00     0.016 A 
BRANCH   9  18
ATOM     18  C   UNL A   1      48.368  30.120  27.237  1.00  0.00     0.124 C 
ATOM     19  C   UNL A   1      47.677  31.471  27.294  1.00  0.00     0.028 C 
ENDBRANCH   9  18
BRANCH  13  20
ATOM     20  C   UNL A   1      45.977  26.830  30.139  1.00  0.00     0.124 C 
ATOM     21  C   UNL A   1      45.029  27.586  31.053  1.00  0.00     0.028 C 
ENDBRANCH  13  20
ENDBRANCH   5   8
ENDBRANCH   3   4
ENDBRANCH   2   3
ENDBRANCH   1   2
BRANCH   1  22
ATOM     22  N   UNL A   1      43.137  22.049  27.408  1.00  0.00    -0.352 N 
ATOM     23  C   UNL A   1      41.941  22.494  27.900  1.00  0.00     0.251 C 
ATOM     24  H   UNL A   1      43.165  21.067  27.333  1.00  0.00     0.163 HD
ATOM     25  O   UNL A   1      41.101  21.617  28.124  1.00  0.00    -0.269 OA
BRANCH  23  26
ATOM     26  C   UNL A   1      41.607  23.910  28.224  1.00  0.00     0.039 A 
ATOM     27  C   UNL A   1      40.484  24.603  27.775  1.00  0.00     0.014 A 
ATOM     28  C   UNL A   1      42.535  24.593  29.037  1.00  0.00     0.014 A 
ATOM     29  C   UNL A   1      40.339  25.960  28.054  1.00  0.00     0.010 A 
ATOM     30  C   UNL A   1      42.383  25.945  29.337  1.00  0.00     0.010 A 
ATOM     31  C   UNL A   1      41.302  26.639  28.810  1.00  0.00    -0.014 A 
BRANCH  31  32
ATOM     32  C   UNL A   1      41.064  28.051  29.108  1.00  0.00     0.031 A 
ATOM     33  C   UNL A   1      42.043  28.983  28.488  1.00  0.00     0.074 A 
ATOM     34  C   UNL A   1      40.029  28.523  29.834  1.00  0.00     0.049 A 
ATOM     35  N   UNL A   1      42.995  29.631  29.078  1.00  0.00    -0.248 NA
ATOM     36  C   UNL A   1      42.050  29.105  27.024  1.00  0.00     0.031 C 
ATOM     37  C   UNL A   1      38.835  27.798  30.280  1.00  0.00     0.029 A 
ATOM     38  N   UNL A   1      39.788  29.800  30.255  1.00  0.00    -0.354 N 
ATOM     39  C   UNL A   1      43.576  30.423  28.088  1.00  0.00     0.074 A 
ATOM     40  C   UNL A   1      43.071  29.942  26.828  1.00  0.00     0.031 C 
ATOM     41  C   UNL A   1      37.904  28.686  30.704  1.00  0.00     0.029 A 
ATOM     42  C   UNL A   1      38.494  30.013  30.720  1.00  0.00     0.049 A 
ATOM     43  H   UNL A   1      40.471  30.509  30.231  1.00  0.00     0.167 HD
ATOM     44  C   UNL A   1      44.232  31.576  28.392  1.00  0.00     0.034 A 
ATOM     45  C   UNL A   1      37.952  31.205  31.070  1.00  0.00     0.034 A 
ATOM     46  C   UNL A   1      44.468  31.708  29.800  1.00  0.00     0.049 A 
ATOM     47  C   UNL A   1      39.071  32.098  31.438  1.00  0.00     0.074 A 
ATOM     48  C   UNL A   1      45.333  31.192  30.737  1.00  0.00     0.029 A 
ATOM     49  N   UNL A   1      43.427  32.288  30.472  1.00  0.00    -0.354 N 
ATOM     50  N   UNL A   1      39.817  31.917  32.491  1.00  0.00    -0.248 NA
ATOM     51  C   UNL A   1      39.538  33.108  30.497  1.00  0.00     0.031 C 
ATOM     52  C   UNL A   1      44.661  31.295  31.991  1.00  0.00     0.029 A 
ATOM     53  C   UNL A   1      43.417  31.885  31.779  1.00  0.00     0.049 A 
ATOM     54  H   UNL A   1      42.776  32.908  30.071  1.00  0.00     0.167 HD
ATOM     55  C   UNL A   1      41.034  32.460  32.130  1.00  0.00     0.074 A 
ATOM     56  C   UNL A   1      40.752  33.337  31.004  1.00  0.00     0.031 C 
ATOM     57  C   UNL A   1      42.197  31.897  32.552  1.00  0.00     0.034 A 
BRANCH  44  58
ATOM     58  C   UNL A   1      44.276  32.799  27.506  1.00  0.00     0.023 A 
ATOM     59  C   UNL A   1      43.860  32.665  26.163  1.00  0.00     0.012 A 
ATOM     60  C   UNL A   1      44.981  33.974  27.846  1.00  0.00     0.148 A 
ATOM     61  C   UNL A   1      44.133  33.652  25.209  1.00  0.00     0.002 A 
ATOM     62  C   UNL A   1      45.187  34.985  26.913  1.00  0.00     0.091 A 
ATOM     63  F   UNL A   1      45.584  34.061  29.037  1.00  0.00    -0.205 F 
ATOM     64  C   UNL A   1      44.784  34.821  25.586  1.00  0.00     0.022 A 
BRANCH  62  65
ATOM     65  S   UNL A   1      45.995  36.525  27.361  1.00  0.00     0.127 S 
ATOM     66  O   UNL A   1      45.097  37.037  28.391  1.00  0.00    -0.237 OA
ATOM     67  O   UNL A   1      47.292  36.052  27.845  1.00  0.00    -0.237 OA
ATOM     68  O   UNL A   1      46.064  37.294  26.125  1.00  0.00    -0.744 OA
ENDBRANCH  62  65
ENDBRANCH  44  58
BRANCH  45  69
ATOM     69  C   UNL A   1      36.571  31.740  31.022  1.00  0.00     0.023 A 
ATOM     70  C   UNL A   1      36.047  32.355  32.182  1.00  0.00     0.012 A 
ATOM     71  C   UNL A   1      35.923  31.975  29.793  1.00  0.00     0.148 A 
ATOM     72  C   UNL A   1      34.981  33.257  32.106  1.00  0.00     0.002 A 
ATOM     73  C   UNL A   1      34.857  32.870  29.724  1.00  0.00     0.091 A 
ATOM     74  F   UNL A   1      36.418  31.410  28.683  1.00  0.00    -0.205 F 
ATOM     75  C   UNL A   1      34.400  33.532  30.873  1.00  0.00     0.022 A 
BRANCH  73  76
ATOM     76  S   UNL A   1      34.064  33.289  28.166  1.00  0.00     0.127 S 
ATOM     77  O   UNL A   1      33.010  34.210  28.593  1.00  0.00    -0.237 OA
ATOM     78  O   UNL A   1      35.159  33.914  27.429  1.00  0.00    -0.237 OA
ATOM     79  O   UNL A   1      33.571  32.026  27.631  1.00  0.00    -0.744 OA
ENDBRANCH  73  76
ENDBRANCH  45  69
BRANCH  57  80
ATOM     80  C   UNL A   1      42.147  31.056  33.789  1.00  0.00     0.023 A 
ATOM     81  C   UNL A   1      42.119  31.605  35.085  1.00  0.00     0.012 A 
ATOM     82  C   UNL A   1      42.020  29.668  33.622  1.00  0.00     0.148 A 
ATOM     83  C   UNL A   1      41.970  30.775  36.199  1.00  0.00     0.002 A 
ATOM     84  C   UNL A   1      41.833  28.853  34.728  1.00  0.00     0.091 A 
ATOM     85  F   UNL A   1      42.058  29.176  32.374  1.00  0.00    -0.205 F 
ATOM     86  C   UNL A   1      41.814  29.401  36.020  1.00  0.00     0.022 A 
BRANCH  84  87
ATOM     87  S   UNL A   1      41.520  27.095  34.558  1.00  0.00     0.127 S 
ATOM     88  O   UNL A   1      41.253  26.696  35.938  1.00  0.00    -0.237 OA
ATOM     89  O   UNL A   1      40.350  27.078  33.677  1.00  0.00    -0.237 OA
ATOM     90  O   UNL A   1      42.722  26.525  33.964  1.00  0.00    -0.744 OA
ENDBRANCH  84  87
ENDBRANCH  57  80
ENDBRANCH  31  32
ENDBRANCH  23  26
ENDBRANCH   1  22
TORSDOF 15
ENDMDL
