MODEL 1
REMARK VINA RESULT:     -11.9      0.000      0.000
REMARK SMILES O=C(NCCCNC(=O)c1cc(F)c(F)c(O)c1F)c1ccc(-c2c3nc(c(-c4cccc(S(=O)(=O)[O-])c4F)c4ccc([nH]4)c(-c4cccc(S(=O)(=O)[O-])c4F)c4nc(c(-c5cccc(S(=O)(=O)[O-])c5F)c5ccc2[nH]5)C=C4)C=C3)cc1
REMARK SMILES IDX 4 1 3 2 1 3 2 4 20 6 21 7 82 8 22 9 81 10 23 11 24 12 25 13
REMARK SMILES IDX 75 14 26 15 80 16 74 17 76 18 27 19 79 20 73 21 72 22 28 24
REMARK SMILES IDX 60 25 40 26 59 27 41 28 44 29 58 30 77 31 42 32 43 33 57 35
REMARK SMILES IDX 78 36 45 37 29 38 30 39 38 40 31 41 33 42 39 43 32 44 34 45
REMARK SMILES IDX 35 46 36 47 37 48 61 49 62 50 70 51 63 52 65 53 71 54 64 55
REMARK SMILES IDX 66 56 67 57 68 58 69 59 46 60 47 61 55 62 48 63 50 64 56 65
REMARK SMILES IDX 49 66 51 67 52 68 53 69 54 70 5 71 6 72 7 73 8 74 9 76 10 77
REMARK SMILES IDX 11 78 18 79 12 80 16 81 19 82 13 83 14 84 15 85 17 86
REMARK H PARENT 3 5 76 23 44 34 7 75 17 87
REMARK Flexibility Score: inf
ROOT
ATOM      1  C   UNL A   1      32.793  29.287  25.532  1.00  0.00     0.118 C 
ENDROOT
BRANCH   1   2
ATOM      2  N   UNL A   1      32.409  30.641  25.901  1.00  0.00    -0.352 N 
ATOM      3  O   UNL A   1      32.298  32.491  27.170  1.00  0.00    -0.269 OA
ATOM      4  C   UNL A   1      32.911  31.467  26.876  1.00  0.00     0.251 C 
ATOM      5  H   UNL A   1      31.674  31.025  25.369  1.00  0.00     0.163 HD
BRANCH   4   6
ATOM      6  C   UNL A   1      34.166  31.123  27.579  1.00  0.00     0.039 A 
ATOM      7  C   UNL A   1      34.398  29.824  28.038  1.00  0.00     0.014 A 
ATOM      8  C   UNL A   1      35.148  32.106  27.739  1.00  0.00     0.014 A 
ATOM      9  C   UNL A   1      35.550  29.540  28.766  1.00  0.00     0.010 A 
ATOM     10  C   UNL A   1      36.333  31.804  28.417  1.00  0.00     0.010 A 
ATOM     11  C   UNL A   1      36.528  30.528  28.963  1.00  0.00    -0.014 A 
BRANCH  11  12
ATOM     12  C   UNL A   1      37.774  30.178  29.685  1.00  0.00     0.031 A 
ATOM     13  C   UNL A   1      38.030  30.666  31.081  1.00  0.00     0.074 A 
ATOM     14  C   UNL A   1      38.680  29.394  29.071  1.00  0.00     0.049 A 
ATOM     15  N   UNL A   1      39.008  30.349  31.890  1.00  0.00    -0.248 NA
ATOM     16  C   UNL A   1      37.074  31.632  31.645  1.00  0.00     0.031 C 
ATOM     17  C   UNL A   1      38.571  28.907  27.694  1.00  0.00     0.029 A 
ATOM     18  N   UNL A   1      39.863  28.867  29.520  1.00  0.00    -0.354 N 
ATOM     19  C   UNL A   1      38.804  31.091  33.045  1.00  0.00     0.074 A 
ATOM     20  C   UNL A   1      37.611  31.884  32.833  1.00  0.00     0.031 C 
ATOM     21  C   UNL A   1      39.634  28.139  27.416  1.00  0.00     0.029 A 
ATOM     22  C   UNL A   1      40.508  28.092  28.585  1.00  0.00     0.049 A 
ATOM     23  H   UNL A   1      40.219  29.030  30.423  1.00  0.00     0.167 HD
ATOM     24  C   UNL A   1      39.533  31.094  34.185  1.00  0.00     0.034 A 
ATOM     25  C   UNL A   1      41.667  27.411  28.658  1.00  0.00     0.034 A 
ATOM     26  C   UNL A   1      40.694  30.276  34.407  1.00  0.00     0.049 A 
ATOM     27  C   UNL A   1      42.440  27.403  29.944  1.00  0.00     0.074 A 
ATOM     28  C   UNL A   1      41.429  30.131  35.571  1.00  0.00     0.029 A 
ATOM     29  N   UNL A   1      41.300  29.483  33.448  1.00  0.00    -0.354 N 
ATOM     30  N   UNL A   1      42.137  27.975  31.084  1.00  0.00    -0.248 NA
ATOM     31  C   UNL A   1      43.695  26.639  29.968  1.00  0.00     0.031 C 
ATOM     32  C   UNL A   1      42.493  29.265  35.309  1.00  0.00     0.029 A 
ATOM     33  C   UNL A   1      42.414  28.862  33.985  1.00  0.00     0.049 A 
ATOM     34  H   UNL A   1      40.985  29.376  32.521  1.00  0.00     0.167 HD
ATOM     35  C   UNL A   1      43.153  27.631  31.965  1.00  0.00     0.074 A 
ATOM     36  C   UNL A   1      44.077  26.789  31.232  1.00  0.00     0.031 C 
ATOM     37  C   UNL A   1      43.308  27.996  33.261  1.00  0.00     0.034 A 
BRANCH  24  38
ATOM     38  C   UNL A   1      39.072  31.969  35.317  1.00  0.00     0.023 A 
ATOM     39  C   UNL A   1      38.154  31.454  36.253  1.00  0.00     0.012 A 
ATOM     40  C   UNL A   1      39.621  33.250  35.511  1.00  0.00     0.148 A 
ATOM     41  C   UNL A   1      37.781  32.207  37.365  1.00  0.00     0.002 A 
ATOM     42  C   UNL A   1      39.264  33.985  36.636  1.00  0.00     0.091 A 
ATOM     43  F   UNL A   1      40.480  33.723  34.597  1.00  0.00    -0.205 F 
ATOM     44  C   UNL A   1      38.342  33.465  37.561  1.00  0.00     0.022 A 
BRANCH  42  45
ATOM     45  S   UNL A   1      39.968  35.595  37.010  1.00  0.00     0.127 S 
ATOM     46  O   UNL A   1      39.281  35.932  38.257  1.00  0.00    -0.237 OA
ATOM     47  O   UNL A   1      41.388  35.281  37.162  1.00  0.00    -0.237 OA
ATOM     48  O   UNL A   1      39.650  36.447  35.874  1.00  0.00    -0.744 OA
ENDBRANCH  42  45
ENDBRANCH  24  38
BRANCH  25  49
ATOM     49  C   UNL A   1      42.103  26.623  27.476  1.00  0.00     0.023 A 
ATOM     50  C   UNL A   1      42.913  27.236  26.503  1.00  0.00     0.012 A 
ATOM     51  C   UNL A   1      41.826  25.246  27.384  1.00  0.00     0.148 A 
ATOM     52  C   UNL A   1      43.446  26.485  25.454  1.00  0.00     0.002 A 
ATOM     53  C   UNL A   1      42.393  24.498  26.360  1.00  0.00     0.091 A 
ATOM     54  F   UNL A   1      41.058  24.691  28.331  1.00  0.00    -0.205 F 
ATOM     55  C   UNL A   1      43.197  25.117  25.389  1.00  0.00     0.022 A 
BRANCH  53  56
ATOM     56  S   UNL A   1      42.225  22.712  26.254  1.00  0.00     0.127 S 
ATOM     57  O   UNL A   1      42.915  22.421  24.999  1.00  0.00    -0.237 OA
ATOM     58  O   UNL A   1      42.932  22.279  27.460  1.00  0.00    -0.237 OA
ATOM     59  O   UNL A   1      40.795  22.444  26.254  1.00  0.00    -0.744 OA
ENDBRANCH  53  56
ENDBRANCH  25  49
BRANCH  37  60
ATOM     60  C   UNL A   1      44.522  27.504  33.999  1.00  0.00     0.023 A 
ATOM     61  C   UNL A   1      45.665  28.324  34.059  1.00  0.00     0.012 A 
ATOM     62  C   UNL A   1      44.475  26.314  34.752  1.00  0.00     0.148 A 
ATOM     63  C   UNL A   1      46.747  27.967  34.862  1.00  0.00     0.002 A 
ATOM     64  C   UNL A   1      45.545  25.982  35.575  1.00  0.00     0.091 A 
ATOM     65  F   UNL A   1      43.376  25.553  34.671  1.00  0.00    -0.205 F 
ATOM     66  C   UNL A   1      46.682  26.805  35.628  1.00  0.00     0.022 A 
BRANCH  64  67
ATOM     67  S   UNL A   1      45.525  24.552  36.661  1.00  0.00     0.127 S 
ATOM     68  O   UNL A   1      46.812  24.677  37.342  1.00  0.00    -0.237 OA
ATOM     69  O   UNL A   1      44.360  24.820  37.503  1.00  0.00    -0.237 OA
ATOM     70  O   UNL A   1      45.398  23.387  35.795  1.00  0.00    -0.744 OA
ENDBRANCH  64  67
ENDBRANCH  37  60
ENDBRANCH  11  12
ENDBRANCH   4   6
ENDBRANCH   1   2
BRANCH   1  71
ATOM     71  C   UNL A   1      32.064  28.229  26.352  1.00  0.00     0.042 C 
BRANCH  71  72
ATOM     72  C   UNL A   1      31.016  27.439  25.577  1.00  0.00     0.118 C 
BRANCH  72  73
ATOM     73  N   UNL A   1      31.479  27.032  24.257  1.00  0.00    -0.352 N 
ATOM     74  C   UNL A   1      31.010  27.369  23.017  1.00  0.00     0.254 C 
ATOM     75  H   UNL A   1      32.249  26.419  24.259  1.00  0.00     0.163 HD
ATOM     76  O   UNL A   1      31.479  26.837  22.012  1.00  0.00    -0.269 OA
BRANCH  74  77
ATOM     77  C   UNL A   1      29.916  28.336  22.854  1.00  0.00     0.082 A 
ATOM     78  C   UNL A   1      30.238  29.650  22.497  1.00  0.00     0.059 A 
ATOM     79  C   UNL A   1      28.590  27.991  23.112  1.00  0.00     0.180 A 
ATOM     80  C   UNL A   1      29.217  30.585  22.354  1.00  0.00     0.163 A 
ATOM     81  C   UNL A   1      27.574  28.928  22.948  1.00  0.00     0.191 A 
ATOM     82  F   UNL A   1      28.258  26.755  23.517  1.00  0.00    -0.202 F 
ATOM     83  F   UNL A   1      29.526  31.841  22.006  1.00  0.00    -0.204 F 
ATOM     84  C   UNL A   1      27.888  30.228  22.568  1.00  0.00     0.203 A 
ATOM     85  F   UNL A   1      26.919  31.142  22.412  1.00  0.00    -0.200 F 
BRANCH  81  86
ATOM     86  O   UNL A   1      26.268  28.573  23.160  1.00  0.00    -0.503 OA
ATOM     87  H   UNL A   1      25.984  28.326  24.017  1.00  0.00     0.293 HD
ENDBRANCH  81  86
ENDBRANCH  74  77
ENDBRANCH  72  73
ENDBRANCH  71  72
ENDBRANCH   1  71
TORSDOF 14
ENDMDL
MODEL 2
REMARK VINA RESULT:     -11.8      3.766      5.868
REMARK SMILES O=C(NCCCNC(=O)c1cc(F)c(F)c(O)c1F)c1ccc(-c2c3nc(c(-c4cccc(S(=O)(=O)[O-])c4F)c4ccc([nH]4)c(-c4cccc(S(=O)(=O)[O-])c4F)c4nc(c(-c5cccc(S(=O)(=O)[O-])c5F)c5ccc2[nH]5)C=C4)C=C3)cc1
REMARK SMILES IDX 4 1 3 2 1 3 2 4 20 6 21 7 82 8 22 9 81 10 23 11 24 12 25 13
REMARK SMILES IDX 75 14 26 15 80 16 74 17 76 18 27 19 79 20 73 21 72 22 28 24
REMARK SMILES IDX 60 25 40 26 59 27 41 28 44 29 58 30 77 31 42 32 43 33 57 35
REMARK SMILES IDX 78 36 45 37 29 38 30 39 38 40 31 41 33 42 39 43 32 44 34 45
REMARK SMILES IDX 35 46 36 47 37 48 61 49 62 50 70 51 63 52 65 53 71 54 64 55
REMARK SMILES IDX 66 56 67 57 68 58 69 59 46 60 47 61 55 62 48 63 50 64 56 65
REMARK SMILES IDX 49 66 51 67 52 68 53 69 54 70 5 71 6 72 7 73 8 74 9 76 10 77
REMARK SMILES IDX 11 78 18 79 12 80 16 81 19 82 13 83 14 84 15 85 17 86
REMARK H PARENT 3 5 76 23 44 34 7 75 17 87
REMARK Flexibility Score: inf
ROOT
ATOM      1  C   UNL A   1      34.134  34.318  28.260  1.00  0.00     0.118 C 
ENDROOT
BRANCH   1   2
ATOM      2  N   UNL A   1      33.409  33.179  27.719  1.00  0.00    -0.352 N 
ATOM      3  O   UNL A   1      33.120  31.124  26.860  1.00  0.00    -0.269 OA
ATOM      4  C   UNL A   1      33.814  31.880  27.537  1.00  0.00     0.251 C 
ATOM      5  H   UNL A   1      32.483  33.369  27.440  1.00  0.00     0.163 HD
BRANCH   4   6
ATOM      6  C   UNL A   1      35.077  31.396  28.134  1.00  0.00     0.039 A 
ATOM      7  C   UNL A   1      35.164  30.117  28.688  1.00  0.00     0.014 A 
ATOM      8  C   UNL A   1      36.207  32.220  28.097  1.00  0.00     0.014 A 
ATOM      9  C   UNL A   1      36.339  29.711  29.316  1.00  0.00     0.010 A 
ATOM     10  C   UNL A   1      37.405  31.787  28.673  1.00  0.00     0.010 A 
ATOM     11  C   UNL A   1      37.470  30.542  29.315  1.00  0.00    -0.014 A 
BRANCH  11  12
ATOM     12  C   UNL A   1      38.726  30.056  29.934  1.00  0.00     0.031 A 
ATOM     13  C   UNL A   1      39.166  30.535  31.287  1.00  0.00     0.074 A 
ATOM     14  C   UNL A   1      39.470  29.156  29.265  1.00  0.00     0.049 A 
ATOM     15  N   UNL A   1      40.168  30.116  32.014  1.00  0.00    -0.248 NA
ATOM     16  C   UNL A   1      38.388  31.621  31.905  1.00  0.00     0.031 C 
ATOM     17  C   UNL A   1      39.178  28.661  27.919  1.00  0.00     0.029 A 
ATOM     18  N   UNL A   1      40.618  28.496  29.623  1.00  0.00    -0.354 N 
ATOM     19  C   UNL A   1      40.162  30.899  33.161  1.00  0.00     0.074 A 
ATOM     20  C   UNL A   1      39.059  31.827  33.032  1.00  0.00     0.031 C 
ATOM     21  C   UNL A   1      40.111  27.763  27.570  1.00  0.00     0.029 A 
ATOM     22  C   UNL A   1      41.076  27.632  28.658  1.00  0.00     0.049 A 
ATOM     23  H   UNL A   1      41.072  28.631  30.486  1.00  0.00     0.167 HD
ATOM     24  C   UNL A   1      40.988  30.834  34.230  1.00  0.00     0.034 A 
ATOM     25  C   UNL A   1      42.148  26.815  28.648  1.00  0.00     0.034 A 
ATOM     26  C   UNL A   1      42.057  29.884  34.373  1.00  0.00     0.049 A 
ATOM     27  C   UNL A   1      43.029  26.736  29.860  1.00  0.00     0.074 A 
ATOM     28  C   UNL A   1      42.873  29.672  35.470  1.00  0.00     0.029 A 
ATOM     29  N   UNL A   1      42.473  29.005  33.388  1.00  0.00    -0.354 N 
ATOM     30  N   UNL A   1      42.902  27.362  31.004  1.00  0.00    -0.248 NA
ATOM     31  C   UNL A   1      44.179  25.825  29.795  1.00  0.00     0.031 C 
ATOM     32  C   UNL A   1      43.797  28.677  35.141  1.00  0.00     0.029 A 
ATOM     33  C   UNL A   1      43.549  28.263  33.842  1.00  0.00     0.049 A 
ATOM     34  H   UNL A   1      42.064  28.920  32.496  1.00  0.00     0.167 HD
ATOM     35  C   UNL A   1      43.946  26.913  31.801  1.00  0.00     0.074 A 
ATOM     36  C   UNL A   1      44.691  25.950  31.015  1.00  0.00     0.031 C 
ATOM     37  C   UNL A   1      44.262  27.280  33.067  1.00  0.00     0.034 A 
BRANCH  24  38
ATOM     38  C   UNL A   1      40.741  31.779  35.373  1.00  0.00     0.023 A 
ATOM     39  C   UNL A   1      41.614  32.868  35.564  1.00  0.00     0.012 A 
ATOM     40  C   UNL A   1      39.598  31.651  36.184  1.00  0.00     0.148 A 
ATOM     41  C   UNL A   1      41.358  33.814  36.556  1.00  0.00     0.002 A 
ATOM     42  C   UNL A   1      39.335  32.613  37.154  1.00  0.00     0.091 A 
ATOM     43  F   UNL A   1      38.792  30.598  35.991  1.00  0.00    -0.205 F 
ATOM     44  C   UNL A   1      40.216  33.691  37.342  1.00  0.00     0.022 A 
BRANCH  42  45
ATOM     45  S   UNL A   1      37.864  32.577  38.184  1.00  0.00     0.127 S 
ATOM     46  O   UNL A   1      38.191  33.581  39.196  1.00  0.00    -0.237 OA
ATOM     47  O   UNL A   1      36.819  32.978  37.242  1.00  0.00    -0.237 OA
ATOM     48  O   UNL A   1      37.750  31.211  38.675  1.00  0.00    -0.744 OA
ENDBRANCH  42  45
ENDBRANCH  24  38
BRANCH  25  49
ATOM     49  C   UNL A   1      42.375  25.958  27.455  1.00  0.00     0.023 A 
ATOM     50  C   UNL A   1      43.155  26.450  26.394  1.00  0.00     0.012 A 
ATOM     51  C   UNL A   1      41.932  24.621  27.431  1.00  0.00     0.148 A 
ATOM     52  C   UNL A   1      43.496  25.622  25.324  1.00  0.00     0.002 A 
ATOM     53  C   UNL A   1      42.309  23.791  26.383  1.00  0.00     0.091 A 
ATOM     54  F   UNL A   1      41.197  24.180  28.461  1.00  0.00    -0.205 F 
ATOM     55  C   UNL A   1      43.084  24.292  25.325  1.00  0.00     0.022 A 
BRANCH  53  56
ATOM     56  S   UNL A   1      41.925  22.037  26.348  1.00  0.00     0.127 S 
ATOM     57  O   UNL A   1      40.484  22.051  26.105  1.00  0.00    -0.237 OA
ATOM     58  O   UNL A   1      42.736  21.581  25.218  1.00  0.00    -0.237 OA
ATOM     59  O   UNL A   1      42.331  21.512  27.644  1.00  0.00    -0.744 OA
ENDBRANCH  53  56
ENDBRANCH  25  49
BRANCH  37  60
ATOM     60  C   UNL A   1      45.470  26.657  33.708  1.00  0.00     0.023 A 
ATOM     61  C   UNL A   1      46.681  27.375  33.728  1.00  0.00     0.012 A 
ATOM     62  C   UNL A   1      45.366  25.444  34.418  1.00  0.00     0.148 A 
ATOM     63  C   UNL A   1      47.775  26.895  34.448  1.00  0.00     0.002 A 
ATOM     64  C   UNL A   1      46.450  24.989  35.159  1.00  0.00     0.091 A 
ATOM     65  F   UNL A   1      44.202  24.781  34.377  1.00  0.00    -0.205 F 
ATOM     66  C   UNL A   1      47.655  25.711  35.172  1.00  0.00     0.022 A 
BRANCH  64  67
ATOM     67  S   UNL A   1      46.372  23.519  36.190  1.00  0.00     0.127 S 
ATOM     68  O   UNL A   1      46.098  22.477  35.202  1.00  0.00    -0.237 OA
ATOM     69  O   UNL A   1      47.714  23.476  36.767  1.00  0.00    -0.237 OA
ATOM     70  O   UNL A   1      45.302  23.754  37.150  1.00  0.00    -0.744 OA
ENDBRANCH  64  67
ENDBRANCH  37  60
ENDBRANCH  11  12
ENDBRANCH   4   6
ENDBRANCH   1   2
BRANCH   1  71
ATOM     71  C   UNL A   1      33.226  35.509  28.540  1.00  0.00     0.042 C 
BRANCH  71  72
ATOM     72  C   UNL A   1      33.743  36.462  29.611  1.00  0.00     0.118 C 
BRANCH  72  73
ATOM     73  N   UNL A   1      32.747  36.759  30.631  1.00  0.00    -0.352 N 
ATOM     74  C   UNL A   1      32.588  36.235  31.884  1.00  0.00     0.254 C 
ATOM     75  H   UNL A   1      32.087  37.444  30.378  1.00  0.00     0.163 HD
ATOM     76  O   UNL A   1      31.613  36.548  32.567  1.00  0.00    -0.269 OA
BRANCH  74  77
ATOM     77  C   UNL A   1      33.543  35.262  32.429  1.00  0.00     0.082 A 
ATOM     78  C   UNL A   1      33.715  34.048  31.754  1.00  0.00     0.059 A 
ATOM     79  C   UNL A   1      34.220  35.492  33.627  1.00  0.00     0.180 A 
ATOM     80  C   UNL A   1      34.604  33.106  32.264  1.00  0.00     0.163 A 
ATOM     81  C   UNL A   1      35.121  34.552  34.119  1.00  0.00     0.191 A 
ATOM     82  F   UNL A   1      34.028  36.620  34.329  1.00  0.00    -0.202 F 
ATOM     83  F   UNL A   1      34.772  31.948  31.613  1.00  0.00    -0.204 F 
ATOM     84  C   UNL A   1      35.313  33.356  33.436  1.00  0.00     0.203 A 
ATOM     85  F   UNL A   1      36.174  32.440  33.902  1.00  0.00    -0.200 F 
BRANCH  81  86
ATOM     86  O   UNL A   1      35.816  34.802  35.272  1.00  0.00    -0.503 OA
ATOM     87  H   UNL A   1      36.654  35.219  35.232  1.00  0.00     0.293 HD
ENDBRANCH  81  86
ENDBRANCH  74  77
ENDBRANCH  72  73
ENDBRANCH  71  72
ENDBRANCH   1  71
TORSDOF 14
ENDMDL
MODEL 3
REMARK VINA RESULT:     -11.8      1.334      1.688
REMARK SMILES O=C(NCCCNC(=O)c1cc(F)c(F)c(O)c1F)c1ccc(-c2c3nc(c(-c4cccc(S(=O)(=O)[O-])c4F)c4ccc([nH]4)c(-c4cccc(S(=O)(=O)[O-])c4F)c4nc(c(-c5cccc(S(=O)(=O)[O-])c5F)c5ccc2[nH]5)C=C4)C=C3)cc1
REMARK SMILES IDX 4 1 3 2 1 3 2 4 20 6 21 7 82 8 22 9 81 10 23 11 24 12 25 13
REMARK SMILES IDX 75 14 26 15 80 16 74 17 76 18 27 19 79 20 73 21 72 22 28 24
REMARK SMILES IDX 60 25 40 26 59 27 41 28 44 29 58 30 77 31 42 32 43 33 57 35
REMARK SMILES IDX 78 36 45 37 29 38 30 39 38 40 31 41 33 42 39 43 32 44 34 45
REMARK SMILES IDX 35 46 36 47 37 48 61 49 62 50 70 51 63 52 65 53 71 54 64 55
REMARK SMILES IDX 66 56 67 57 68 58 69 59 46 60 47 61 55 62 48 63 50 64 56 65
REMARK SMILES IDX 49 66 51 67 52 68 53 69 54 70 5 71 6 72 7 73 8 74 9 76 10 77
REMARK SMILES IDX 11 78 18 79 12 80 16 81 19 82 13 83 14 84 15 85 17 86
REMARK H PARENT 3 5 76 23 44 34 7 75 17 87
REMARK Flexibility Score: inf
ROOT
ATOM      1  C   UNL A   1      32.626  30.072  26.821  1.00  0.00     0.118 C 
ENDROOT
BRANCH   1   2
ATOM      2  N   UNL A   1      32.647  31.525  26.875  1.00  0.00    -0.352 N 
ATOM      3  O   UNL A   1      33.209  33.562  27.637  1.00  0.00    -0.269 OA
ATOM      4  C   UNL A   1      33.497  32.371  27.544  1.00  0.00     0.251 C 
ATOM      5  H   UNL A   1      31.942  31.972  26.352  1.00  0.00     0.163 HD
BRANCH   4   6
ATOM      6  C   UNL A   1      34.740  31.855  28.159  1.00  0.00     0.039 A 
ATOM      7  C   UNL A   1      34.783  30.578  28.722  1.00  0.00     0.014 A 
ATOM      8  C   UNL A   1      35.893  32.647  28.130  1.00  0.00     0.014 A 
ATOM      9  C   UNL A   1      35.938  30.143  29.367  1.00  0.00     0.010 A 
ATOM     10  C   UNL A   1      37.071  32.183  28.724  1.00  0.00     0.010 A 
ATOM     11  C   UNL A   1      37.093  30.941  29.374  1.00  0.00    -0.014 A 
BRANCH  11  12
ATOM     12  C   UNL A   1      38.326  30.423  30.012  1.00  0.00     0.031 A 
ATOM     13  C   UNL A   1      38.718  30.832  31.402  1.00  0.00     0.074 A 
ATOM     14  C   UNL A   1      39.094  29.557  29.324  1.00  0.00     0.049 A 
ATOM     15  N   UNL A   1      39.695  30.375  32.142  1.00  0.00    -0.248 NA
ATOM     16  C   UNL A   1      37.918  31.886  32.046  1.00  0.00     0.031 C 
ATOM     17  C   UNL A   1      38.850  29.131  27.945  1.00  0.00     0.029 A 
ATOM     18  N   UNL A   1      40.230  28.879  29.688  1.00  0.00    -0.354 N 
ATOM     19  C   UNL A   1      39.647  31.099  33.325  1.00  0.00     0.074 A 
ATOM     20  C   UNL A   1      38.549  32.034  33.206  1.00  0.00     0.031 C 
ATOM     21  C   UNL A   1      39.796  28.252  27.584  1.00  0.00     0.029 A 
ATOM     22  C   UNL A   1      40.722  28.064  28.697  1.00  0.00     0.049 A 
ATOM     23  H   UNL A   1      40.653  28.970  30.572  1.00  0.00     0.167 HD
ATOM     24  C   UNL A   1      40.435  30.979  34.418  1.00  0.00     0.034 A 
ATOM     25  C   UNL A   1      41.794  27.248  28.683  1.00  0.00     0.034 A 
ATOM     26  C   UNL A   1      41.500  30.022  34.550  1.00  0.00     0.049 A 
ATOM     27  C   UNL A   1      42.632  27.107  29.919  1.00  0.00     0.074 A 
ATOM     28  C   UNL A   1      42.277  29.754  35.663  1.00  0.00     0.029 A 
ATOM     29  N   UNL A   1      41.951  29.194  33.537  1.00  0.00    -0.354 N 
ATOM     30  N   UNL A   1      42.465  27.674  31.089  1.00  0.00    -0.248 NA
ATOM     31  C   UNL A   1      43.785  26.199  29.848  1.00  0.00     0.031 C 
ATOM     32  C   UNL A   1      43.212  28.776  35.316  1.00  0.00     0.029 A 
ATOM     33  C   UNL A   1      43.011  28.429  33.990  1.00  0.00     0.049 A 
ATOM     34  H   UNL A   1      41.573  29.155  32.628  1.00  0.00     0.167 HD
ATOM     35  C   UNL A   1      43.481  27.184  31.898  1.00  0.00     0.074 A 
ATOM     36  C   UNL A   1      44.253  26.262  31.090  1.00  0.00     0.031 C 
ATOM     37  C   UNL A   1      43.752  27.486  33.192  1.00  0.00     0.034 A 
BRANCH  24  38
ATOM     38  C   UNL A   1      40.148  31.865  35.598  1.00  0.00     0.023 A 
ATOM     39  C   UNL A   1      40.933  33.017  35.799  1.00  0.00     0.012 A 
ATOM     40  C   UNL A   1      39.046  31.616  36.438  1.00  0.00     0.148 A 
ATOM     41  C   UNL A   1      40.631  33.908  36.829  1.00  0.00     0.002 A 
ATOM     42  C   UNL A   1      38.736  32.523  37.447  1.00  0.00     0.091 A 
ATOM     43  F   UNL A   1      38.325  30.505  36.236  1.00  0.00    -0.205 F 
ATOM     44  C   UNL A   1      39.529  33.666  37.644  1.00  0.00     0.022 A 
BRANCH  42  45
ATOM     45  S   UNL A   1      37.307  32.332  38.518  1.00  0.00     0.127 S 
ATOM     46  O   UNL A   1      37.775  32.972  39.747  1.00  0.00    -0.237 OA
ATOM     47  O   UNL A   1      36.278  33.078  37.795  1.00  0.00    -0.237 OA
ATOM     48  O   UNL A   1      37.065  30.899  38.616  1.00  0.00    -0.744 OA
ENDBRANCH  42  45
ENDBRANCH  24  38
BRANCH  25  49
ATOM     49  C   UNL A   1      42.064  26.453  27.457  1.00  0.00     0.023 A 
ATOM     50  C   UNL A   1      42.767  27.047  26.394  1.00  0.00     0.012 A 
ATOM     51  C   UNL A   1      41.741  25.083  27.399  1.00  0.00     0.148 A 
ATOM     52  C   UNL A   1      43.151  26.286  25.288  1.00  0.00     0.002 A 
ATOM     53  C   UNL A   1      42.162  24.324  26.314  1.00  0.00     0.091 A 
ATOM     54  F   UNL A   1      41.078  24.546  28.432  1.00  0.00    -0.205 F 
ATOM     55  C   UNL A   1      42.859  24.925  25.254  1.00  0.00     0.022 A 
BRANCH  53  56
ATOM     56  S   UNL A   1      41.935  22.544  26.230  1.00  0.00     0.127 S 
ATOM     57  O   UNL A   1      40.481  22.431  26.138  1.00  0.00    -0.237 OA
ATOM     58  O   UNL A   1      42.658  22.213  25.001  1.00  0.00    -0.237 OA
ATOM     59  O   UNL A   1      42.523  22.007  27.449  1.00  0.00    -0.744 OA
ENDBRANCH  53  56
ENDBRANCH  25  49
BRANCH  37  60
ATOM     60  C   UNL A   1      44.937  26.830  33.842  1.00  0.00     0.023 A 
ATOM     61  C   UNL A   1      46.154  27.535  33.917  1.00  0.00     0.012 A 
ATOM     62  C   UNL A   1      44.804  25.596  34.508  1.00  0.00     0.148 A 
ATOM     63  C   UNL A   1      47.224  27.020  34.647  1.00  0.00     0.002 A 
ATOM     64  C   UNL A   1      45.864  25.105  35.261  1.00  0.00     0.091 A 
ATOM     65  F   UNL A   1      43.635  24.946  34.415  1.00  0.00    -0.205 F 
ATOM     66  C   UNL A   1      47.075  25.814  35.329  1.00  0.00     0.022 A 
BRANCH  64  67
ATOM     67  S   UNL A   1      45.746  23.603  36.240  1.00  0.00     0.127 S 
ATOM     68  O   UNL A   1      44.692  23.950  37.191  1.00  0.00    -0.237 OA
ATOM     69  O   UNL A   1      45.361  22.611  35.236  1.00  0.00    -0.237 OA
ATOM     70  O   UNL A   1      47.063  23.398  36.827  1.00  0.00    -0.744 OA
ENDBRANCH  64  67
ENDBRANCH  37  60
ENDBRANCH  11  12
ENDBRANCH   4   6
ENDBRANCH   1   2
BRANCH   1  71
ATOM     71  C   UNL A   1      32.344  29.544  25.418  1.00  0.00     0.042 C 
BRANCH  71  72
ATOM     72  C   UNL A   1      31.569  28.233  25.379  1.00  0.00     0.118 C 
BRANCH  72  73
ATOM     73  N   UNL A   1      31.798  27.479  24.155  1.00  0.00    -0.352 N 
ATOM     74  C   UNL A   1      31.110  27.490  22.972  1.00  0.00     0.254 C 
ATOM     75  H   UNL A   1      32.568  26.866  24.182  1.00  0.00     0.163 HD
ATOM     76  O   UNL A   1      31.403  26.699  22.077  1.00  0.00    -0.269 OA
BRANCH  74  77
ATOM     77  C   UNL A   1      29.986  28.411  22.755  1.00  0.00     0.082 A 
ATOM     78  C   UNL A   1      30.263  29.698  22.282  1.00  0.00     0.059 A 
ATOM     79  C   UNL A   1      28.676  28.054  23.072  1.00  0.00     0.180 A 
ATOM     80  C   UNL A   1      29.214  30.591  22.085  1.00  0.00     0.163 A 
ATOM     81  C   UNL A   1      27.630  28.948  22.855  1.00  0.00     0.191 A 
ATOM     82  F   UNL A   1      28.387  26.849  23.587  1.00  0.00    -0.202 F 
ATOM     83  F   UNL A   1      29.480  31.821  21.626  1.00  0.00    -0.204 F 
ATOM     84  C   UNL A   1      27.900  30.219  22.360  1.00  0.00     0.203 A 
ATOM     85  F   UNL A   1      26.903  31.091  22.150  1.00  0.00    -0.200 F 
BRANCH  81  86
ATOM     86  O   UNL A   1      26.341  28.578  23.126  1.00  0.00    -0.503 OA
ATOM     87  H   UNL A   1      26.056  27.704  22.944  1.00  0.00     0.293 HD
ENDBRANCH  81  86
ENDBRANCH  74  77
ENDBRANCH  72  73
ENDBRANCH  71  72
ENDBRANCH   1  71
TORSDOF 14
ENDMDL
