MODEL 1
REMARK VINA RESULT:     -12.1      0.000      0.000
REMARK SMILES C/C(=N/Nc1ccc(C(=O)NCCCNC(=O)c2ccc(-c3c4nc(c(-c5cccc(S(=O)(=O)[O-])c5F)c5ccc([nH]5)c(-c5cccc(S(=O)(=O)[O-])c5F)c5nc(c(-c6cccc(S(=O)(=O)[O-])c6F)c6ccc3[nH]6)C=C5)C=C4)cc2)cc1)c1ccc(-n2cncn2)cc1
REMARK SMILES IDX 12 1 11 2 9 3 10 4 8 6 5 7 6 8 82 9 7 10 81 11 4 12 3 14
REMARK SMILES IDX 1 15 2 16 83 17 84 18 93 19 85 20 92 21 86 22 87 23 88 24
REMARK SMILES IDX 91 25 89 26 90 27 13 28 14 29 15 30 16 31 17 33 18 34 19 35
REMARK SMILES IDX 80 36 20 37 79 38 21 39 22 40 23 41 73 42 24 43 78 44 72 45
REMARK SMILES IDX 74 46 25 47 77 48 71 49 70 50 26 52 58 53 38 54 57 55 39 56
REMARK SMILES IDX 42 57 56 58 75 59 40 60 41 61 55 63 76 64 43 65 27 66 28 67
REMARK SMILES IDX 36 68 29 69 31 70 37 71 30 72 32 73 33 74 34 75 35 76 59 77
REMARK SMILES IDX 60 78 68 79 61 80 63 81 69 82 62 83 64 84 65 85 66 86 67 87
REMARK SMILES IDX 44 88 45 89 53 90 46 91 48 92 54 93 47 94 49 95 50 96 51 97
REMARK SMILES IDX 52 98
REMARK H PARENT 11 5 4 13 15 32 74 51 42 62
REMARK Flexibility Score: inf
ROOT
ATOM      1  C   UNL A   1      31.725  30.731  26.591  1.00  0.00     0.118 C 
ENDROOT
BRANCH   1   2
ATOM      2  N   UNL A   1      33.054  30.428  27.094  1.00  0.00    -0.352 N 
ATOM      3  C   UNL A   1      33.770  29.269  27.225  1.00  0.00     0.251 C 
ATOM      4  O   UNL A   1      34.941  29.355  27.595  1.00  0.00    -0.269 OA
ATOM      5  H   UNL A   1      33.543  31.223  27.406  1.00  0.00     0.163 HD
BRANCH   3   6
ATOM      6  C   UNL A   1      33.229  27.948  26.833  1.00  0.00     0.039 A 
ATOM      7  C   UNL A   1      32.256  25.618  25.623  1.00  0.00     0.056 A 
ATOM      8  C   UNL A   1      33.619  25.935  25.551  1.00  0.00     0.028 A 
ATOM      9  C   UNL A   1      31.429  26.381  26.449  1.00  0.00     0.028 A 
ATOM     10  C   UNL A   1      34.096  27.110  26.123  1.00  0.00     0.016 A 
ATOM     11  C   UNL A   1      31.928  27.518  27.094  1.00  0.00     0.016 A 
BRANCH   7  12
ATOM     12  N   UNL A   1      31.773  24.635  24.746  1.00  0.00    -0.278 N 
ATOM     13  H   UNL A   1      31.160  23.964  25.123  1.00  0.00     0.190 HD
BRANCH  12  14
ATOM     14  N   UNL A   1      32.069  24.523  23.431  1.00  0.00    -0.180 NA
ATOM     15  C   UNL A   1      32.286  25.171  21.139  1.00  0.00     0.069 C 
ATOM     16  C   UNL A   1      31.812  25.453  22.553  1.00  0.00     0.065 C 
BRANCH  16  17
ATOM     17  C   UNL A   1      31.138  26.773  22.738  1.00  0.00    -0.002 A 
ATOM     18  C   UNL A   1      29.794  26.868  23.099  1.00  0.00     0.012 A 
ATOM     19  C   UNL A   1      31.877  27.947  22.528  1.00  0.00     0.012 A 
ATOM     20  C   UNL A   1      29.164  28.119  23.142  1.00  0.00     0.029 A 
ATOM     21  C   UNL A   1      31.265  29.203  22.619  1.00  0.00     0.029 A 
ATOM     22  C   UNL A   1      29.893  29.291  22.889  1.00  0.00     0.066 A 
BRANCH  22  23
ATOM     23  N   UNL A   1      29.218  30.538  22.818  1.00  0.00    -0.221 N 
ATOM     24  C   UNL A   1      28.430  31.039  21.806  1.00  0.00     0.225 A 
ATOM     25  N   UNL A   1      29.162  31.384  23.876  1.00  0.00    -0.155 NA
ATOM     26  N   UNL A   1      27.745  32.076  22.231  1.00  0.00    -0.223 NA
ATOM     27  C   UNL A   1      28.224  32.252  23.493  1.00  0.00     0.246 A 
ENDBRANCH  22  23
ENDBRANCH  16  17
ENDBRANCH  12  14
ENDBRANCH   7  12
ENDBRANCH   3   6
ENDBRANCH   1   2
BRANCH   1  28
ATOM     28  C   UNL A   1      31.407  32.209  26.721  1.00  0.00     0.042 C 
BRANCH  28  29
ATOM     29  C   UNL A   1      32.662  33.067  26.843  1.00  0.00     0.118 C 
BRANCH  29  30
ATOM     30  N   UNL A   1      32.463  34.265  27.656  1.00  0.00    -0.352 N 
ATOM     31  C   UNL A   1      33.084  34.647  28.827  1.00  0.00     0.251 C 
ATOM     32  H   UNL A   1      31.783  34.893  27.318  1.00  0.00     0.163 HD
ATOM     33  O   UNL A   1      32.629  35.563  29.498  1.00  0.00    -0.269 OA
BRANCH  31  34
ATOM     34  C   UNL A   1      34.293  33.921  29.281  1.00  0.00     0.039 A 
ATOM     35  C   UNL A   1      35.558  34.453  29.017  1.00  0.00     0.014 A 
ATOM     36  C   UNL A   1      34.176  32.725  29.991  1.00  0.00     0.014 A 
ATOM     37  C   UNL A   1      36.692  33.840  29.559  1.00  0.00     0.010 A 
ATOM     38  C   UNL A   1      35.287  32.192  30.630  1.00  0.00     0.010 A 
ATOM     39  C   UNL A   1      36.560  32.738  30.420  1.00  0.00    -0.014 A 
BRANCH  39  40
ATOM     40  C   UNL A   1      37.725  32.144  31.131  1.00  0.00     0.031 A 
ATOM     41  C   UNL A   1      38.502  31.018  30.497  1.00  0.00     0.074 A 
ATOM     42  C   UNL A   1      38.000  32.522  32.396  1.00  0.00     0.049 A 
ATOM     43  N   UNL A   1      39.458  30.286  31.007  1.00  0.00    -0.248 NA
ATOM     44  C   UNL A   1      38.124  30.634  29.126  1.00  0.00     0.031 C 
ATOM     45  C   UNL A   1      37.257  33.527  33.163  1.00  0.00     0.029 A 
ATOM     46  N   UNL A   1      38.958  32.082  33.275  1.00  0.00    -0.354 N 
ATOM     47  C   UNL A   1      39.752  29.323  30.047  1.00  0.00     0.074 A 
ATOM     48  C   UNL A   1      38.848  29.540  28.940  1.00  0.00     0.031 C 
ATOM     49  C   UNL A   1      37.792  33.631  34.390  1.00  0.00     0.029 A 
ATOM     50  C   UNL A   1      38.893  32.681  34.512  1.00  0.00     0.049 A 
ATOM     51  H   UNL A   1      39.630  31.401  33.042  1.00  0.00     0.167 HD
ATOM     52  C   UNL A   1      40.711  28.367  30.067  1.00  0.00     0.034 A 
ATOM     53  C   UNL A   1      39.630  32.485  35.624  1.00  0.00     0.034 A 
ATOM     54  C   UNL A   1      41.658  28.207  31.134  1.00  0.00     0.049 A 
ATOM     55  C   UNL A   1      40.750  31.482  35.585  1.00  0.00     0.074 A 
ATOM     56  C   UNL A   1      42.740  27.347  31.203  1.00  0.00     0.029 A 
ATOM     57  N   UNL A   1      41.642  28.925  32.320  1.00  0.00    -0.354 N 
ATOM     58  N   UNL A   1      41.118  30.694  34.603  1.00  0.00    -0.248 NA
ATOM     59  C   UNL A   1      41.583  31.365  36.791  1.00  0.00     0.031 C 
ATOM     60  C   UNL A   1      43.371  27.538  32.437  1.00  0.00     0.029 A 
ATOM     61  C   UNL A   1      42.695  28.531  33.126  1.00  0.00     0.049 A 
ATOM     62  H   UNL A   1      40.980  29.615  32.553  1.00  0.00     0.167 HD
ATOM     63  C   UNL A   1      42.244  30.018  35.057  1.00  0.00     0.074 A 
ATOM     64  C   UNL A   1      42.511  30.504  36.396  1.00  0.00     0.031 C 
ATOM     65  C   UNL A   1      42.983  29.069  34.431  1.00  0.00     0.034 A 
BRANCH  52  66
ATOM     66  C   UNL A   1      40.827  27.467  28.864  1.00  0.00     0.023 A 
ATOM     67  C   UNL A   1      39.939  26.380  28.721  1.00  0.00     0.012 A 
ATOM     68  C   UNL A   1      41.773  27.721  27.852  1.00  0.00     0.148 A 
ATOM     69  C   UNL A   1      40.017  25.537  27.615  1.00  0.00     0.002 A 
ATOM     70  C   UNL A   1      41.815  26.903  26.728  1.00  0.00     0.091 A 
ATOM     71  F   UNL A   1      42.623  28.745  28.012  1.00  0.00    -0.205 F 
ATOM     72  C   UNL A   1      40.947  25.804  26.614  1.00  0.00     0.022 A 
BRANCH  70  73
ATOM     73  S   UNL A   1      42.919  27.211  25.344  1.00  0.00     0.127 S 
ATOM     74  O   UNL A   1      42.854  25.940  24.627  1.00  0.00    -0.237 OA
ATOM     75  O   UNL A   1      42.258  28.328  24.667  1.00  0.00    -0.237 OA
ATOM     76  O   UNL A   1      44.213  27.536  25.929  1.00  0.00    -0.744 OA
ENDBRANCH  70  73
ENDBRANCH  52  66
BRANCH  53  77
ATOM     77  C   UNL A   1      39.387  33.318  36.836  1.00  0.00     0.023 A 
ATOM     78  C   UNL A   1      39.779  34.670  36.832  1.00  0.00     0.012 A 
ATOM     79  C   UNL A   1      38.739  32.796  37.973  1.00  0.00     0.148 A 
ATOM     80  C   UNL A   1      39.564  35.480  37.946  1.00  0.00     0.002 A 
ATOM     81  C   UNL A   1      38.476  33.623  39.060  1.00  0.00     0.091 A 
ATOM     82  F   UNL A   1      38.379  31.505  37.964  1.00  0.00    -0.205 F 
ATOM     83  C   UNL A   1      38.903  34.961  39.056  1.00  0.00     0.022 A 
BRANCH  81  84
ATOM     84  S   UNL A   1      37.509  33.078  40.473  1.00  0.00     0.127 S 
ATOM     85  O   UNL A   1      37.781  34.131  41.446  1.00  0.00    -0.237 OA
ATOM     86  O   UNL A   1      36.151  33.076  39.927  1.00  0.00    -0.237 OA
ATOM     87  O   UNL A   1      38.019  31.755  40.807  1.00  0.00    -0.744 OA
ENDBRANCH  81  84
ENDBRANCH  53  77
BRANCH  65  88
ATOM     88  C   UNL A   1      44.177  28.517  35.160  1.00  0.00     0.023 A 
ATOM     89  C   UNL A   1      45.444  29.105  34.979  1.00  0.00     0.012 A 
ATOM     90  C   UNL A   1      44.026  27.467  36.089  1.00  0.00     0.148 A 
ATOM     91  C   UNL A   1      46.549  28.639  35.690  1.00  0.00     0.002 A 
ATOM     92  C   UNL A   1      45.122  27.040  36.828  1.00  0.00     0.091 A 
ATOM     93  F   UNL A   1      42.816  26.907  36.231  1.00  0.00    -0.205 F 
ATOM     94  C   UNL A   1      46.386  27.617  36.623  1.00  0.00     0.022 A 
BRANCH  92  95
ATOM     95  S   UNL A   1      44.982  25.798  38.118  1.00  0.00     0.127 S 
ATOM     96  O   UNL A   1      46.350  25.745  38.630  1.00  0.00    -0.237 OA
ATOM     97  O   UNL A   1      44.012  26.404  39.031  1.00  0.00    -0.237 OA
ATOM     98  O   UNL A   1      44.512  24.587  37.458  1.00  0.00    -0.744 OA
ENDBRANCH  92  95
ENDBRANCH  65  88
ENDBRANCH  39  40
ENDBRANCH  31  34
ENDBRANCH  29  30
ENDBRANCH  28  29
ENDBRANCH   1  28
TORSDOF 17
ENDMDL
MODEL 2
REMARK VINA RESULT:     -12.0      2.615      4.603
REMARK SMILES C/C(=N/Nc1ccc(C(=O)NCCCNC(=O)c2ccc(-c3c4nc(c(-c5cccc(S(=O)(=O)[O-])c5F)c5ccc([nH]5)c(-c5cccc(S(=O)(=O)[O-])c5F)c5nc(c(-c6cccc(S(=O)(=O)[O-])c6F)c6ccc3[nH]6)C=C5)C=C4)cc2)cc1)c1ccc(-n2cncn2)cc1
REMARK SMILES IDX 12 1 11 2 9 3 10 4 8 6 5 7 6 8 82 9 7 10 81 11 4 12 3 14
REMARK SMILES IDX 1 15 2 16 83 17 84 18 93 19 85 20 92 21 86 22 87 23 88 24
REMARK SMILES IDX 91 25 89 26 90 27 13 28 14 29 15 30 16 31 17 33 18 34 19 35
REMARK SMILES IDX 80 36 20 37 79 38 21 39 22 40 23 41 73 42 24 43 78 44 72 45
REMARK SMILES IDX 74 46 25 47 77 48 71 49 70 50 26 52 58 53 38 54 57 55 39 56
REMARK SMILES IDX 42 57 56 58 75 59 40 60 41 61 55 63 76 64 43 65 27 66 28 67
REMARK SMILES IDX 36 68 29 69 31 70 37 71 30 72 32 73 33 74 34 75 35 76 59 77
REMARK SMILES IDX 60 78 68 79 61 80 63 81 69 82 62 83 64 84 65 85 66 86 67 87
REMARK SMILES IDX 44 88 45 89 53 90 46 91 48 92 54 93 47 94 49 95 50 96 51 97
REMARK SMILES IDX 52 98
REMARK H PARENT 11 5 4 13 15 32 74 51 42 62
REMARK Flexibility Score: inf
ROOT
ATOM      1  C   UNL A   1      32.048  30.344  25.768  1.00  0.00     0.118 C 
ENDROOT
BRANCH   1   2
ATOM      2  N   UNL A   1      30.956  30.387  24.811  1.00  0.00    -0.352 N 
ATOM      3  C   UNL A   1      30.486  29.504  23.878  1.00  0.00     0.251 C 
ATOM      4  O   UNL A   1      29.450  29.796  23.280  1.00  0.00    -0.269 OA
ATOM      5  H   UNL A   1      30.448  31.229  24.839  1.00  0.00     0.163 HD
BRANCH   3   6
ATOM      6  C   UNL A   1      31.105  28.179  23.651  1.00  0.00     0.039 A 
ATOM      7  C   UNL A   1      32.426  25.709  23.696  1.00  0.00     0.056 A 
ATOM      8  C   UNL A   1      31.218  25.877  24.386  1.00  0.00     0.028 A 
ATOM      9  C   UNL A   1      32.864  26.728  22.848  1.00  0.00     0.028 A 
ATOM     10  C   UNL A   1      30.580  27.114  24.392  1.00  0.00     0.016 A 
ATOM     11  C   UNL A   1      32.177  27.944  22.788  1.00  0.00     0.016 A 
BRANCH   7  12
ATOM     12  N   UNL A   1      33.197  24.580  24.008  1.00  0.00    -0.278 N 
ATOM     13  H   UNL A   1      32.826  23.703  23.756  1.00  0.00     0.190 HD
BRANCH  12  14
ATOM     14  N   UNL A   1      34.402  24.580  24.621  1.00  0.00    -0.180 NA
ATOM     15  C   UNL A   1      36.419  23.699  25.556  1.00  0.00     0.069 C 
ATOM     16  C   UNL A   1      35.048  23.492  24.941  1.00  0.00     0.065 C 
BRANCH  16  17
ATOM     17  C   UNL A   1      34.646  22.064  24.767  1.00  0.00    -0.002 A 
ATOM     18  C   UNL A   1      33.333  21.703  24.459  1.00  0.00     0.012 A 
ATOM     19  C   UNL A   1      35.613  21.062  24.934  1.00  0.00     0.012 A 
ATOM     20  C   UNL A   1      32.966  20.350  24.428  1.00  0.00     0.029 A 
ATOM     21  C   UNL A   1      35.262  19.710  24.854  1.00  0.00     0.029 A 
ATOM     22  C   UNL A   1      33.926  19.348  24.638  1.00  0.00     0.066 A 
BRANCH  22  23
ATOM     23  N   UNL A   1      33.518  17.991  24.722  1.00  0.00    -0.221 N 
ATOM     24  C   UNL A   1      34.138  16.868  24.225  1.00  0.00     0.225 A 
ATOM     25  N   UNL A   1      32.455  17.607  25.473  1.00  0.00    -0.155 NA
ATOM     26  N   UNL A   1      33.622  15.785  24.759  1.00  0.00    -0.223 NA
ATOM     27  C   UNL A   1      32.600  16.282  25.509  1.00  0.00     0.246 A 
ENDBRANCH  22  23
ENDBRANCH  16  17
ENDBRANCH  12  14
ENDBRANCH   7  12
ENDBRANCH   3   6
ENDBRANCH   1   2
BRANCH   1  28
ATOM     28  C   UNL A   1      31.791  31.267  26.945  1.00  0.00     0.042 C 
BRANCH  28  29
ATOM     29  C   UNL A   1      33.009  32.111  27.302  1.00  0.00     0.118 C 
BRANCH  29  30
ATOM     30  N   UNL A   1      32.695  33.527  27.482  1.00  0.00    -0.352 N 
ATOM     31  C   UNL A   1      33.155  34.416  28.432  1.00  0.00     0.251 C 
ATOM     32  H   UNL A   1      32.061  33.902  26.828  1.00  0.00     0.163 HD
ATOM     33  O   UNL A   1      32.607  35.501  28.578  1.00  0.00    -0.269 OA
BRANCH  31  34
ATOM     34  C   UNL A   1      34.299  34.037  29.293  1.00  0.00     0.039 A 
ATOM     35  C   UNL A   1      34.071  33.297  30.457  1.00  0.00     0.014 A 
ATOM     36  C   UNL A   1      35.600  34.391  28.938  1.00  0.00     0.014 A 
ATOM     37  C   UNL A   1      35.158  32.825  31.199  1.00  0.00     0.010 A 
ATOM     38  C   UNL A   1      36.677  33.818  29.603  1.00  0.00     0.010 A 
ATOM     39  C   UNL A   1      36.471  33.032  30.744  1.00  0.00    -0.014 A 
BRANCH  39  40
ATOM     40  C   UNL A   1      37.650  32.428  31.423  1.00  0.00     0.031 A 
ATOM     41  C   UNL A   1      38.388  31.283  30.778  1.00  0.00     0.074 A 
ATOM     42  C   UNL A   1      37.974  32.818  32.674  1.00  0.00     0.049 A 
ATOM     43  N   UNL A   1      39.348  30.541  31.266  1.00  0.00    -0.248 NA
ATOM     44  C   UNL A   1      37.957  30.888  29.426  1.00  0.00     0.031 C 
ATOM     45  C   UNL A   1      37.273  33.844  33.452  1.00  0.00     0.029 A 
ATOM     46  N   UNL A   1      38.954  32.373  33.525  1.00  0.00    -0.354 N 
ATOM     47  C   UNL A   1      39.595  29.562  30.309  1.00  0.00     0.074 A 
ATOM     48  C   UNL A   1      38.657  29.780  29.230  1.00  0.00     0.031 C 
ATOM     49  C   UNL A   1      37.851  33.955  34.659  1.00  0.00     0.029 A 
ATOM     50  C   UNL A   1      38.940  32.989  34.756  1.00  0.00     0.049 A 
ATOM     51  H   UNL A   1      39.607  31.679  33.279  1.00  0.00     0.167 HD
ATOM     52  C   UNL A   1      40.538  28.591  30.309  1.00  0.00     0.034 A 
ATOM     53  C   UNL A   1      39.711  32.794  35.845  1.00  0.00     0.034 A 
ATOM     54  C   UNL A   1      41.518  28.428  31.346  1.00  0.00     0.049 A 
ATOM     55  C   UNL A   1      40.813  31.773  35.782  1.00  0.00     0.074 A 
ATOM     56  C   UNL A   1      42.588  27.552  31.390  1.00  0.00     0.029 A 
ATOM     57  N   UNL A   1      41.553  29.162  32.522  1.00  0.00    -0.354 N 
ATOM     58  N   UNL A   1      41.135  30.967  34.799  1.00  0.00    -0.248 NA
ATOM     59  C   UNL A   1      41.684  31.658  36.961  1.00  0.00     0.031 C 
ATOM     60  C   UNL A   1      43.264  27.748  32.599  1.00  0.00     0.029 A 
ATOM     61  C   UNL A   1      42.626  28.761  33.298  1.00  0.00     0.049 A 
ATOM     62  H   UNL A   1      40.910  29.865  32.768  1.00  0.00     0.167 HD
ATOM     63  C   UNL A   1      42.265  30.279  35.224  1.00  0.00     0.074 A 
ATOM     64  C   UNL A   1      42.584  30.776  36.546  1.00  0.00     0.031 C 
ATOM     65  C   UNL A   1      42.967  29.310  34.585  1.00  0.00     0.034 A 
BRANCH  52  66
ATOM     66  C   UNL A   1      40.599  27.673  29.115  1.00  0.00     0.023 A 
ATOM     67  C   UNL A   1      39.686  26.603  29.013  1.00  0.00     0.012 A 
ATOM     68  C   UNL A   1      41.519  27.896  28.071  1.00  0.00     0.148 A 
ATOM     69  C   UNL A   1      39.714  25.745  27.916  1.00  0.00     0.002 A 
ATOM     70  C   UNL A   1      41.510  27.064  26.957  1.00  0.00     0.091 A 
ATOM     71  F   UNL A   1      42.393  28.905  28.193  1.00  0.00    -0.205 F 
ATOM     72  C   UNL A   1      40.618  25.981  26.883  1.00  0.00     0.022 A 
BRANCH  70  73
ATOM     73  S   UNL A   1      42.576  27.334  25.536  1.00  0.00     0.127 S 
ATOM     74  O   UNL A   1      43.884  27.477  26.172  1.00  0.00    -0.237 OA
ATOM     75  O   UNL A   1      42.399  26.095  24.779  1.00  0.00    -0.237 OA
ATOM     76  O   UNL A   1      42.067  28.527  24.874  1.00  0.00    -0.744 OA
ENDBRANCH  70  73
ENDBRANCH  52  66
BRANCH  53  77
ATOM     77  C   UNL A   1      39.521  33.646  37.054  1.00  0.00     0.023 A 
ATOM     78  C   UNL A   1      39.983  34.977  37.037  1.00  0.00     0.012 A 
ATOM     79  C   UNL A   1      38.858  33.165  38.200  1.00  0.00     0.148 A 
ATOM     80  C   UNL A   1      39.819  35.803  38.148  1.00  0.00     0.002 A 
ATOM     81  C   UNL A   1      38.648  34.012  39.284  1.00  0.00     0.091 A 
ATOM     82  F   UNL A   1      38.433  31.895  38.203  1.00  0.00    -0.205 F 
ATOM     83  C   UNL A   1      39.143  35.325  39.267  1.00  0.00     0.022 A 
BRANCH  81  84
ATOM     84  S   UNL A   1      37.668  33.526  40.709  1.00  0.00     0.127 S 
ATOM     85  O   UNL A   1      38.503  32.489  41.308  1.00  0.00    -0.237 OA
ATOM     86  O   UNL A   1      37.595  34.776  41.467  1.00  0.00    -0.237 OA
ATOM     87  O   UNL A   1      36.389  33.080  40.170  1.00  0.00    -0.744 OA
ENDBRANCH  81  84
ENDBRANCH  53  77
BRANCH  65  88
ATOM     88  C   UNL A   1      44.176  28.747  35.281  1.00  0.00     0.023 A 
ATOM     89  C   UNL A   1      45.450  29.290  35.023  1.00  0.00     0.012 A 
ATOM     90  C   UNL A   1      44.036  27.737  36.253  1.00  0.00     0.148 A 
ATOM     91  C   UNL A   1      46.572  28.816  35.701  1.00  0.00     0.002 A 
ATOM     92  C   UNL A   1      45.152  27.303  36.959  1.00  0.00     0.091 A 
ATOM     93  F   UNL A   1      42.818  27.219  36.470  1.00  0.00    -0.205 F 
ATOM     94  C   UNL A   1      46.421  27.833  36.677  1.00  0.00     0.022 A 
BRANCH  92  95
ATOM     95  S   UNL A   1      45.034  26.112  38.299  1.00  0.00     0.127 S 
ATOM     96  O   UNL A   1      44.439  24.961  37.624  1.00  0.00    -0.237 OA
ATOM     97  O   UNL A   1      46.435  25.937  38.684  1.00  0.00    -0.237 OA
ATOM     98  O   UNL A   1      44.204  26.740  39.319  1.00  0.00    -0.744 OA
ENDBRANCH  92  95
ENDBRANCH  65  88
ENDBRANCH  39  40
ENDBRANCH  31  34
ENDBRANCH  29  30
ENDBRANCH  28  29
ENDBRANCH   1  28
TORSDOF 17
ENDMDL
MODEL 3
REMARK VINA RESULT:     -12.0      2.125      4.124
REMARK SMILES C/C(=N/Nc1ccc(C(=O)NCCCNC(=O)c2ccc(-c3c4nc(c(-c5cccc(S(=O)(=O)[O-])c5F)c5ccc([nH]5)c(-c5cccc(S(=O)(=O)[O-])c5F)c5nc(c(-c6cccc(S(=O)(=O)[O-])c6F)c6ccc3[nH]6)C=C5)C=C4)cc2)cc1)c1ccc(-n2cncn2)cc1
REMARK SMILES IDX 12 1 11 2 9 3 10 4 8 6 5 7 6 8 82 9 7 10 81 11 4 12 3 14
REMARK SMILES IDX 1 15 2 16 83 17 84 18 93 19 85 20 92 21 86 22 87 23 88 24
REMARK SMILES IDX 91 25 89 26 90 27 13 28 14 29 15 30 16 31 17 33 18 34 19 35
REMARK SMILES IDX 80 36 20 37 79 38 21 39 22 40 23 41 73 42 24 43 78 44 72 45
REMARK SMILES IDX 74 46 25 47 77 48 71 49 70 50 26 52 58 53 38 54 57 55 39 56
REMARK SMILES IDX 42 57 56 58 75 59 40 60 41 61 55 63 76 64 43 65 27 66 28 67
REMARK SMILES IDX 36 68 29 69 31 70 37 71 30 72 32 73 33 74 34 75 35 76 59 77
REMARK SMILES IDX 60 78 68 79 61 80 63 81 69 82 62 83 64 84 65 85 66 86 67 87
REMARK SMILES IDX 44 88 45 89 53 90 46 91 48 92 54 93 47 94 49 95 50 96 51 97
REMARK SMILES IDX 52 98
REMARK H PARENT 11 5 4 13 15 32 74 51 42 62
REMARK Flexibility Score: inf
ROOT
ATOM      1  C   UNL A   1      32.195  30.388  25.906  1.00  0.00     0.118 C 
ENDROOT
BRANCH   1   2
ATOM      2  N   UNL A   1      31.254  30.329  24.801  1.00  0.00    -0.352 N 
ATOM      3  C   UNL A   1      30.696  29.300  24.094  1.00  0.00     0.251 C 
ATOM      4  O   UNL A   1      29.827  29.575  23.265  1.00  0.00    -0.269 OA
ATOM      5  H   UNL A   1      30.955  31.216  24.497  1.00  0.00     0.163 HD
BRANCH   3   6
ATOM      6  C   UNL A   1      31.011  27.880  24.368  1.00  0.00     0.039 A 
ATOM      7  C   UNL A   1      31.182  25.098  24.642  1.00  0.00     0.056 A 
ATOM      8  C   UNL A   1      31.400  25.700  23.396  1.00  0.00     0.028 A 
ATOM      9  C   UNL A   1      31.056  25.911  25.769  1.00  0.00     0.028 A 
ATOM     10  C   UNL A   1      31.281  27.079  23.252  1.00  0.00     0.016 A 
ATOM     11  C   UNL A   1      31.020  27.303  25.638  1.00  0.00     0.016 A 
BRANCH   7  12
ATOM     12  N   UNL A   1      30.962  23.712  24.661  1.00  0.00    -0.278 N 
ATOM     13  H   UNL A   1      30.695  23.316  25.523  1.00  0.00     0.190 HD
BRANCH  12  14
ATOM     14  N   UNL A   1      31.080  22.870  23.611  1.00  0.00    -0.180 NA
ATOM     15  C   UNL A   1      32.087  21.260  22.156  1.00  0.00     0.069 C 
ATOM     16  C   UNL A   1      32.174  22.214  23.334  1.00  0.00     0.065 C 
BRANCH  16  17
ATOM     17  C   UNL A   1      33.500  22.244  24.022  1.00  0.00    -0.002 A 
ATOM     18  C   UNL A   1      34.424  23.264  23.792  1.00  0.00     0.012 A 
ATOM     19  C   UNL A   1      33.825  21.209  24.910  1.00  0.00     0.012 A 
ATOM     20  C   UNL A   1      35.704  23.193  24.358  1.00  0.00     0.029 A 
ATOM     21  C   UNL A   1      35.085  21.160  25.519  1.00  0.00     0.029 A 
ATOM     22  C   UNL A   1      36.045  22.134  25.214  1.00  0.00     0.066 A 
BRANCH  22  23
ATOM     23  N   UNL A   1      37.379  22.012  25.683  1.00  0.00    -0.221 N 
ATOM     24  C   UNL A   1      38.246  20.951  25.559  1.00  0.00     0.225 A 
ATOM     25  N   UNL A   1      38.044  23.058  26.234  1.00  0.00    -0.155 NA
ATOM     26  N   UNL A   1      39.471  21.325  25.850  1.00  0.00    -0.223 NA
ATOM     27  C   UNL A   1      39.300  22.612  26.258  1.00  0.00     0.246 A 
ENDBRANCH  22  23
ENDBRANCH  16  17
ENDBRANCH  12  14
ENDBRANCH   7  12
ENDBRANCH   3   6
ENDBRANCH   1   2
BRANCH   1  28
ATOM     28  C   UNL A   1      31.808  31.462  26.907  1.00  0.00     0.042 C 
BRANCH  28  29
ATOM     29  C   UNL A   1      33.001  32.299  27.356  1.00  0.00     0.118 C 
BRANCH  29  30
ATOM     30  N   UNL A   1      32.674  33.710  27.548  1.00  0.00    -0.352 N 
ATOM     31  C   UNL A   1      33.133  34.597  28.500  1.00  0.00     0.251 C 
ATOM     32  H   UNL A   1      32.032  34.083  26.902  1.00  0.00     0.163 HD
ATOM     33  O   UNL A   1      32.576  35.675  28.657  1.00  0.00    -0.269 OA
BRANCH  31  34
ATOM     34  C   UNL A   1      34.287  34.224  29.349  1.00  0.00     0.039 A 
ATOM     35  C   UNL A   1      34.066  33.581  30.570  1.00  0.00     0.014 A 
ATOM     36  C   UNL A   1      35.590  34.488  28.929  1.00  0.00     0.014 A 
ATOM     37  C   UNL A   1      35.156  33.109  31.310  1.00  0.00     0.010 A 
ATOM     38  C   UNL A   1      36.661  33.911  29.599  1.00  0.00     0.010 A 
ATOM     39  C   UNL A   1      36.460  33.219  30.800  1.00  0.00    -0.014 A 
BRANCH  39  40
ATOM     40  C   UNL A   1      37.632  32.607  31.483  1.00  0.00     0.031 A 
ATOM     41  C   UNL A   1      38.376  31.469  30.832  1.00  0.00     0.074 A 
ATOM     42  C   UNL A   1      37.944  32.982  32.741  1.00  0.00     0.049 A 
ATOM     43  N   UNL A   1      39.332  30.722  31.320  1.00  0.00    -0.248 NA
ATOM     44  C   UNL A   1      37.958  31.089  29.471  1.00  0.00     0.031 C 
ATOM     45  C   UNL A   1      37.235  33.999  33.524  1.00  0.00     0.029 A 
ATOM     46  N   UNL A   1      38.916  32.527  33.597  1.00  0.00    -0.354 N 
ATOM     47  C   UNL A   1      39.588  29.754  30.354  1.00  0.00     0.074 A 
ATOM     48  C   UNL A   1      38.660  29.984  29.269  1.00  0.00     0.031 C 
ATOM     49  C   UNL A   1      37.802  34.096  34.738  1.00  0.00     0.029 A 
ATOM     50  C   UNL A   1      38.890  33.129  34.834  1.00  0.00     0.049 A 
ATOM     51  H   UNL A   1      39.571  31.836  33.349  1.00  0.00     0.167 HD
ATOM     52  C   UNL A   1      40.531  28.783  30.352  1.00  0.00     0.034 A 
ATOM     53  C   UNL A   1      39.651  32.922  35.928  1.00  0.00     0.034 A 
ATOM     54  C   UNL A   1      41.501  28.608  31.396  1.00  0.00     0.049 A 
ATOM     55  C   UNL A   1      40.753  31.901  35.864  1.00  0.00     0.074 A 
ATOM     56  C   UNL A   1      42.571  27.731  31.440  1.00  0.00     0.029 A 
ATOM     57  N   UNL A   1      41.525  29.328  32.581  1.00  0.00    -0.354 N 
ATOM     58  N   UNL A   1      41.085  31.107  34.874  1.00  0.00    -0.248 NA
ATOM     59  C   UNL A   1      41.613  31.772  37.050  1.00  0.00     0.031 C 
ATOM     60  C   UNL A   1      43.235  27.914  32.658  1.00  0.00     0.029 A 
ATOM     61  C   UNL A   1      42.591  28.918  33.362  1.00  0.00     0.049 A 
ATOM     62  H   UNL A   1      40.880  30.028  32.829  1.00  0.00     0.167 HD
ATOM     63  C   UNL A   1      42.211  30.414  35.302  1.00  0.00     0.074 A 
ATOM     64  C   UNL A   1      42.517  30.896  36.633  1.00  0.00     0.031 C 
ATOM     65  C   UNL A   1      42.919  29.453  34.659  1.00  0.00     0.034 A 
BRANCH  52  66
ATOM     66  C   UNL A   1      40.604  27.879  29.148  1.00  0.00     0.023 A 
ATOM     67  C   UNL A   1      39.711  26.792  29.039  1.00  0.00     0.012 A 
ATOM     68  C   UNL A   1      41.513  28.131  28.102  1.00  0.00     0.148 A 
ATOM     69  C   UNL A   1      39.750  25.946  27.933  1.00  0.00     0.002 A 
ATOM     70  C   UNL A   1      41.514  27.311  26.979  1.00  0.00     0.091 A 
ATOM     71  F   UNL A   1      42.368  29.155  28.229  1.00  0.00    -0.205 F 
ATOM     72  C   UNL A   1      40.643  26.211  26.899  1.00  0.00     0.022 A 
BRANCH  70  73
ATOM     73  S   UNL A   1      42.568  27.615  25.556  1.00  0.00     0.127 S 
ATOM     74  O   UNL A   1      42.287  26.446  24.726  1.00  0.00    -0.237 OA
ATOM     75  O   UNL A   1      42.029  28.874  25.039  1.00  0.00    -0.237 OA
ATOM     76  O   UNL A   1      43.926  27.704  26.074  1.00  0.00    -0.744 OA
ENDBRANCH  70  73
ENDBRANCH  52  66
BRANCH  53  77
ATOM     77  C   UNL A   1      39.449  33.759  37.145  1.00  0.00     0.023 A 
ATOM     78  C   UNL A   1      39.894  35.096  37.141  1.00  0.00     0.012 A 
ATOM     79  C   UNL A   1      38.792  33.259  38.286  1.00  0.00     0.148 A 
ATOM     80  C   UNL A   1      39.719  35.910  38.260  1.00  0.00     0.002 A 
ATOM     81  C   UNL A   1      38.571  34.093  39.378  1.00  0.00     0.091 A 
ATOM     82  F   UNL A   1      38.383  31.983  38.276  1.00  0.00    -0.205 F 
ATOM     83  C   UNL A   1      39.048  35.413  39.374  1.00  0.00     0.022 A 
BRANCH  81  84
ATOM     84  S   UNL A   1      37.597  33.580  40.798  1.00  0.00     0.127 S 
ATOM     85  O   UNL A   1      37.431  34.839  41.518  1.00  0.00    -0.237 OA
ATOM     86  O   UNL A   1      36.382  33.067  40.162  1.00  0.00    -0.237 OA
ATOM     87  O   UNL A   1      38.393  32.562  41.471  1.00  0.00    -0.744 OA
ENDBRANCH  81  84
ENDBRANCH  53  77
BRANCH  65  88
ATOM     88  C   UNL A   1      44.122  28.882  35.360  1.00  0.00     0.023 A 
ATOM     89  C   UNL A   1      45.385  29.480  35.185  1.00  0.00     0.012 A 
ATOM     90  C   UNL A   1      43.982  27.804  36.258  1.00  0.00     0.148 A 
ATOM     91  C   UNL A   1      46.498  28.995  35.870  1.00  0.00     0.002 A 
ATOM     92  C   UNL A   1      45.086  27.359  36.973  1.00  0.00     0.091 A 
ATOM     93  F   UNL A   1      42.775  27.237  36.395  1.00  0.00    -0.205 F 
ATOM     94  C   UNL A   1      46.346  27.945  36.773  1.00  0.00     0.022 A 
BRANCH  92  95
ATOM     95  S   UNL A   1      44.962  26.078  38.227  1.00  0.00     0.127 S 
ATOM     96  O   UNL A   1      43.953  26.635  39.124  1.00  0.00    -0.237 OA
ATOM     97  O   UNL A   1      44.516  24.922  37.449  1.00  0.00    -0.237 OA
ATOM     98  O   UNL A   1      46.299  25.942  38.793  1.00  0.00    -0.744 OA
ENDBRANCH  92  95
ENDBRANCH  65  88
ENDBRANCH  39  40
ENDBRANCH  31  34
ENDBRANCH  29  30
ENDBRANCH  28  29
ENDBRANCH   1  28
TORSDOF 17
ENDMDL
