MODEL 1
REMARK VINA RESULT:     -11.9      0.000      0.000
REMARK SMILES Cc1cc(-n2nc(C)c(C(=O)NCCCNC(=O)c3ccc(-c4c5nc(c(-c6cccc(S(=O)(=O)[O-])c6F)c6ccc([nH]6)c(-c6cccc(S(=O)(=O)[O-])c6F)c6nc(c(-c7cccc(S(=O)(=O)[O-])c7F)c7ccc4[nH]7)C=C6)C=C5)cc3)c2Cl)nc(C)n1
REMARK SMILES IDX 15 1 14 2 13 3 12 4 10 5 11 6 9 8 5 9 6 10 82 11 7 12 83 13
REMARK SMILES IDX 8 14 4 15 1 16 2 17 3 18 87 19 85 20 84 21 86 22 16 23 17 24
REMARK SMILES IDX 18 26 19 27 20 28 81 29 21 30 80 31 22 32 23 33 24 34 74 35
REMARK SMILES IDX 25 36 79 37 73 38 75 39 26 40 78 41 72 42 71 43 27 45 59 46
REMARK SMILES IDX 39 47 58 48 40 49 43 50 57 51 76 52 41 53 42 54 56 56 77 57
REMARK SMILES IDX 44 58 28 59 29 60 37 61 30 62 32 63 38 64 31 65 33 66 34 67
REMARK SMILES IDX 35 68 36 69 60 70 61 71 69 72 62 73 64 74 70 75 63 76 65 77
REMARK SMILES IDX 66 78 67 79 68 80 45 81 46 82 54 83 47 84 49 85 55 86 48 87
REMARK SMILES IDX 50 88 51 89 52 90 53 91
REMARK H PARENT 12 7 16 25 75 44 43 55
REMARK Flexibility Score: inf
ROOT
ATOM      1  C   UNL A   1      39.333  19.866  26.085  1.00  0.00     0.118 C 
ENDROOT
BRANCH   1   2
ATOM      2  C   UNL A   1      38.322  19.605  25.001  1.00  0.00     0.042 C 
BRANCH   2   3
ATOM      3  C   UNL A   1      37.202  20.652  24.916  1.00  0.00     0.118 C 
BRANCH   3   4
ATOM      4  N   UNL A   1      35.889  20.043  24.978  1.00  0.00    -0.352 N 
ATOM      5  C   UNL A   1      34.620  20.540  25.124  1.00  0.00     0.256 C 
ATOM      6  O   UNL A   1      33.729  19.692  25.062  1.00  0.00    -0.269 OA
ATOM      7  H   UNL A   1      35.914  19.062  24.899  1.00  0.00     0.163 HD
BRANCH   5   8
ATOM      8  C   UNL A   1      34.287  21.954  25.284  1.00  0.00     0.100 A 
ATOM      9  N   UNL A   1      33.870  24.144  25.095  1.00  0.00    -0.203 N 
ATOM     10  N   UNL A   1      33.611  23.897  26.394  1.00  0.00    -0.170 NA
ATOM     11  C   UNL A   1      34.466  23.063  24.488  1.00  0.00     0.147 A 
ATOM     12  C   UNL A   1      33.778  22.563  26.498  1.00  0.00     0.074 A 
ATOM     13  Cl  UNL A   1      35.412  23.436  23.115  1.00  0.00    -0.061 Cl
ATOM     14  C   UNL A   1      33.489  21.937  27.821  1.00  0.00     0.070 C 
BRANCH   9  15
ATOM     15  C   UNL A   1      33.764  25.433  24.501  1.00  0.00     0.159 A 
ATOM     16  C   UNL A   1      31.164  27.032  22.378  1.00  0.00     0.067 C 
ATOM     17  C   UNL A   1      32.333  26.822  23.292  1.00  0.00     0.043 A 
ATOM     18  C   UNL A   1      32.863  25.557  23.462  1.00  0.00     0.072 A 
ATOM     19  N   UNL A   1      32.706  27.882  24.048  1.00  0.00    -0.238 NA
ATOM     20  C   UNL A   1      33.625  27.668  25.004  1.00  0.00     0.128 A 
ATOM     21  N   UNL A   1      34.173  26.476  25.267  1.00  0.00    -0.214 NA
ATOM     22  C   UNL A   1      33.934  28.779  25.959  1.00  0.00     0.090 C 
ENDBRANCH   9  15
ENDBRANCH   5   8
ENDBRANCH   3   4
ENDBRANCH   2   3
ENDBRANCH   1   2
BRANCH   1  23
ATOM     23  N   UNL A   1      40.600  19.218  25.755  1.00  0.00    -0.352 N 
ATOM     24  C   UNL A   1      41.866  19.753  25.715  1.00  0.00     0.251 C 
ATOM     25  H   UNL A   1      40.539  18.262  25.528  1.00  0.00     0.163 HD
ATOM     26  O   UNL A   1      42.752  19.191  25.094  1.00  0.00    -0.269 OA
BRANCH  24  27
ATOM     27  C   UNL A   1      42.115  21.016  26.428  1.00  0.00     0.039 A 
ATOM     28  C   UNL A   1      42.356  22.189  25.713  1.00  0.00     0.014 A 
ATOM     29  C   UNL A   1      42.086  21.013  27.821  1.00  0.00     0.014 A 
ATOM     30  C   UNL A   1      42.507  23.372  26.422  1.00  0.00     0.010 A 
ATOM     31  C   UNL A   1      42.048  22.196  28.505  1.00  0.00     0.010 A 
ATOM     32  C   UNL A   1      42.331  23.362  27.814  1.00  0.00    -0.014 A 
BRANCH  32  33
ATOM     33  C   UNL A   1      42.350  24.595  28.570  1.00  0.00     0.031 A 
ATOM     34  C   UNL A   1      41.146  25.429  28.369  1.00  0.00     0.074 A 
ATOM     35  C   UNL A   1      43.297  24.883  29.482  1.00  0.00     0.049 A 
ATOM     36  N   UNL A   1      41.034  26.425  27.556  1.00  0.00    -0.248 NA
ATOM     37  C   UNL A   1      39.877  24.999  28.972  1.00  0.00     0.031 C 
ATOM     38  C   UNL A   1      44.359  24.020  30.011  1.00  0.00     0.029 A 
ATOM     39  N   UNL A   1      43.441  26.019  30.209  1.00  0.00    -0.354 N 
ATOM     40  C   UNL A   1      39.756  26.923  27.767  1.00  0.00     0.074 A 
ATOM     41  C   UNL A   1      39.025  25.882  28.442  1.00  0.00     0.031 C 
ATOM     42  C   UNL A   1      44.897  24.591  31.113  1.00  0.00     0.029 A 
ATOM     43  C   UNL A   1      44.347  25.924  31.260  1.00  0.00     0.049 A 
ATOM     44  H   UNL A   1      42.945  26.845  30.009  1.00  0.00     0.167 HD
ATOM     45  C   UNL A   1      39.501  28.253  27.637  1.00  0.00     0.034 A 
ATOM     46  C   UNL A   1      44.590  26.887  32.181  1.00  0.00     0.034 A 
ATOM     47  C   UNL A   1      40.604  28.939  27.008  1.00  0.00     0.049 A 
ATOM     48  C   UNL A   1      44.199  28.166  31.538  1.00  0.00     0.074 A 
ATOM     49  C   UNL A   1      41.258  28.842  25.797  1.00  0.00     0.029 A 
ATOM     50  N   UNL A   1      41.458  29.601  27.858  1.00  0.00    -0.354 N 
ATOM     51  N   UNL A   1      44.806  28.666  30.498  1.00  0.00    -0.248 NA
ATOM     52  C   UNL A   1      42.874  28.697  31.808  1.00  0.00     0.031 C 
ATOM     53  C   UNL A   1      42.635  29.058  26.102  1.00  0.00     0.029 A 
ATOM     54  C   UNL A   1      42.743  29.339  27.467  1.00  0.00     0.049 A 
ATOM     55  H   UNL A   1      41.191  30.169  28.617  1.00  0.00     0.167 HD
ATOM     56  C   UNL A   1      43.783  29.219  29.739  1.00  0.00     0.074 A 
ATOM     57  C   UNL A   1      42.649  29.325  30.651  1.00  0.00     0.031 C 
ATOM     58  C   UNL A   1      43.868  29.266  28.377  1.00  0.00     0.034 A 
BRANCH  45  59
ATOM     59  C   UNL A   1      38.460  29.008  28.423  1.00  0.00     0.023 A 
ATOM     60  C   UNL A   1      37.616  29.885  27.706  1.00  0.00     0.012 A 
ATOM     61  C   UNL A   1      38.438  29.105  29.832  1.00  0.00     0.148 A 
ATOM     62  C   UNL A   1      36.809  30.822  28.358  1.00  0.00     0.002 A 
ATOM     63  C   UNL A   1      37.573  29.979  30.479  1.00  0.00     0.091 A 
ATOM     64  F   UNL A   1      39.352  28.459  30.561  1.00  0.00    -0.205 F 
ATOM     65  C   UNL A   1      36.776  30.859  29.747  1.00  0.00     0.022 A 
BRANCH  63  66
ATOM     66  S   UNL A   1      37.466  30.036  32.272  1.00  0.00     0.127 S 
ATOM     67  O   UNL A   1      36.358  30.966  32.469  1.00  0.00    -0.237 OA
ATOM     68  O   UNL A   1      37.173  28.640  32.597  1.00  0.00    -0.237 OA
ATOM     69  O   UNL A   1      38.775  30.491  32.725  1.00  0.00    -0.744 OA
ENDBRANCH  63  66
ENDBRANCH  45  59
BRANCH  46  70
ATOM     70  C   UNL A   1      44.894  26.805  33.630  1.00  0.00     0.023 A 
ATOM     71  C   UNL A   1      46.059  27.445  34.109  1.00  0.00     0.012 A 
ATOM     72  C   UNL A   1      43.922  26.410  34.574  1.00  0.00     0.148 A 
ATOM     73  C   UNL A   1      46.209  27.765  35.462  1.00  0.00     0.002 A 
ATOM     74  C   UNL A   1      44.081  26.723  35.922  1.00  0.00     0.091 A 
ATOM     75  F   UNL A   1      42.799  25.823  34.142  1.00  0.00    -0.205 F 
ATOM     76  C   UNL A   1      45.212  27.421  36.367  1.00  0.00     0.022 A 
BRANCH  74  77
ATOM     77  S   UNL A   1      42.831  26.319  37.151  1.00  0.00     0.127 S 
ATOM     78  O   UNL A   1      41.777  27.286  36.847  1.00  0.00    -0.237 OA
ATOM     79  O   UNL A   1      42.510  24.936  36.813  1.00  0.00    -0.237 OA
ATOM     80  O   UNL A   1      43.474  26.525  38.444  1.00  0.00    -0.744 OA
ENDBRANCH  74  77
ENDBRANCH  46  70
BRANCH  58  81
ATOM     81  C   UNL A   1      45.207  28.985  27.741  1.00  0.00     0.023 A 
ATOM     82  C   UNL A   1      46.234  29.951  27.680  1.00  0.00     0.012 A 
ATOM     83  C   UNL A   1      45.498  27.657  27.393  1.00  0.00     0.148 A 
ATOM     84  C   UNL A   1      47.528  29.592  27.287  1.00  0.00     0.002 A 
ATOM     85  C   UNL A   1      46.792  27.296  27.042  1.00  0.00     0.091 A 
ATOM     86  F   UNL A   1      44.506  26.757  27.465  1.00  0.00    -0.205 F 
ATOM     87  C   UNL A   1      47.810  28.261  26.984  1.00  0.00     0.022 A 
BRANCH  85  88
ATOM     88  S   UNL A   1      47.251  25.586  26.755  1.00  0.00     0.127 S 
ATOM     89  O   UNL A   1      48.512  25.726  26.028  1.00  0.00    -0.237 OA
ATOM     90  O   UNL A   1      47.384  25.068  28.117  1.00  0.00    -0.237 OA
ATOM     91  O   UNL A   1      46.161  24.993  25.991  1.00  0.00    -0.744 OA
ENDBRANCH  85  88
ENDBRANCH  58  81
ENDBRANCH  32  33
ENDBRANCH  24  27
ENDBRANCH   1  23
TORSDOF 14
ENDMDL
MODEL 2
REMARK VINA RESULT:     -11.8      2.254      2.990
REMARK SMILES Cc1cc(-n2nc(C)c(C(=O)NCCCNC(=O)c3ccc(-c4c5nc(c(-c6cccc(S(=O)(=O)[O-])c6F)c6ccc([nH]6)c(-c6cccc(S(=O)(=O)[O-])c6F)c6nc(c(-c7cccc(S(=O)(=O)[O-])c7F)c7ccc4[nH]7)C=C6)C=C5)cc3)c2Cl)nc(C)n1
REMARK SMILES IDX 15 1 14 2 13 3 12 4 10 5 11 6 9 8 5 9 6 10 82 11 7 12 83 13
REMARK SMILES IDX 8 14 4 15 1 16 2 17 3 18 87 19 85 20 84 21 86 22 16 23 17 24
REMARK SMILES IDX 18 26 19 27 20 28 81 29 21 30 80 31 22 32 23 33 24 34 74 35
REMARK SMILES IDX 25 36 79 37 73 38 75 39 26 40 78 41 72 42 71 43 27 45 59 46
REMARK SMILES IDX 39 47 58 48 40 49 43 50 57 51 76 52 41 53 42 54 56 56 77 57
REMARK SMILES IDX 44 58 28 59 29 60 37 61 30 62 32 63 38 64 31 65 33 66 34 67
REMARK SMILES IDX 35 68 36 69 60 70 61 71 69 72 62 73 64 74 70 75 63 76 65 77
REMARK SMILES IDX 66 78 67 79 68 80 45 81 46 82 54 83 47 84 49 85 55 86 48 87
REMARK SMILES IDX 50 88 51 89 52 90 53 91
REMARK H PARENT 12 7 16 25 75 44 43 55
REMARK Flexibility Score: inf
ROOT
ATOM      1  C   UNL A   1      36.851  22.667  23.874  1.00  0.00     0.118 C 
ENDROOT
BRANCH   1   2
ATOM      2  C   UNL A   1      35.470  23.121  24.262  1.00  0.00     0.042 C 
BRANCH   2   3
ATOM      3  C   UNL A   1      34.566  22.004  24.803  1.00  0.00     0.118 C 
BRANCH   3   4
ATOM      4  N   UNL A   1      33.556  21.615  23.840  1.00  0.00    -0.352 N 
ATOM      5  C   UNL A   1      32.431  22.222  23.349  1.00  0.00     0.256 C 
ATOM      6  O   UNL A   1      31.849  21.588  22.468  1.00  0.00    -0.269 OA
ATOM      7  H   UNL A   1      33.714  20.722  23.455  1.00  0.00     0.163 HD
BRANCH   5   8
ATOM      8  C   UNL A   1      31.943  23.539  23.757  1.00  0.00     0.100 A 
ATOM      9  N   UNL A   1      31.355  25.685  23.985  1.00  0.00    -0.203 N 
ATOM     10  N   UNL A   1      30.919  25.127  25.132  1.00  0.00    -0.170 NA
ATOM     11  C   UNL A   1      32.138  24.811  23.269  1.00  0.00     0.147 A 
ATOM     12  C   UNL A   1      31.194  23.818  24.967  1.00  0.00     0.074 A 
ATOM     13  Cl  UNL A   1      33.249  25.548  22.199  1.00  0.00    -0.061 Cl
ATOM     14  C   UNL A   1      30.761  22.885  26.048  1.00  0.00     0.070 C 
BRANCH   9  15
ATOM     15  C   UNL A   1      31.221  27.069  23.681  1.00  0.00     0.159 A 
ATOM     16  C   UNL A   1      28.371  29.127  22.470  1.00  0.00     0.067 C 
ATOM     17  C   UNL A   1      29.679  28.709  23.072  1.00  0.00     0.043 A 
ATOM     18  C   UNL A   1      30.147  27.422  22.888  1.00  0.00     0.072 A 
ATOM     19  N   UNL A   1      30.258  29.586  23.925  1.00  0.00    -0.238 NA
ATOM     20  C   UNL A   1      31.328  29.162  24.617  1.00  0.00     0.128 A 
ATOM     21  N   UNL A   1      31.837  27.927  24.533  1.00  0.00    -0.214 NA
ATOM     22  C   UNL A   1      31.887  30.052  25.683  1.00  0.00     0.090 C 
ENDBRANCH   9  15
ENDBRANCH   5   8
ENDBRANCH   3   4
ENDBRANCH   2   3
ENDBRANCH   1   2
BRANCH   1  23
ATOM     23  N   UNL A   1      37.050  21.275  24.269  1.00  0.00    -0.352 N 
ATOM     24  C   UNL A   1      38.039  20.725  25.050  1.00  0.00     0.251 C 
ATOM     25  H   UNL A   1      36.380  20.639  23.927  1.00  0.00     0.163 HD
ATOM     26  O   UNL A   1      38.268  19.529  25.001  1.00  0.00    -0.269 OA
BRANCH  24  27
ATOM     27  C   UNL A   1      38.812  21.614  25.930  1.00  0.00     0.039 A 
ATOM     28  C   UNL A   1      40.081  21.237  26.370  1.00  0.00     0.014 A 
ATOM     29  C   UNL A   1      38.258  22.841  26.293  1.00  0.00     0.014 A 
ATOM     30  C   UNL A   1      40.808  22.139  27.132  1.00  0.00     0.010 A 
ATOM     31  C   UNL A   1      39.040  23.796  26.881  1.00  0.00     0.010 A 
ATOM     32  C   UNL A   1      40.282  23.420  27.363  1.00  0.00    -0.014 A 
BRANCH  32  33
ATOM     33  C   UNL A   1      41.067  24.430  28.039  1.00  0.00     0.031 A 
ATOM     34  C   UNL A   1      40.382  25.736  28.146  1.00  0.00     0.074 A 
ATOM     35  C   UNL A   1      42.239  24.166  28.644  1.00  0.00     0.049 A 
ATOM     36  N   UNL A   1      40.538  26.747  27.360  1.00  0.00    -0.248 NA
ATOM     37  C   UNL A   1      39.265  25.874  29.090  1.00  0.00     0.031 C 
ATOM     38  C   UNL A   1      42.876  22.867  28.892  1.00  0.00     0.029 A 
ATOM     39  N   UNL A   1      43.078  25.035  29.262  1.00  0.00    -0.354 N 
ATOM     40  C   UNL A   1      39.741  27.749  27.895  1.00  0.00     0.074 A 
ATOM     41  C   UNL A   1      38.815  27.095  28.783  1.00  0.00     0.031 C 
ATOM     42  C   UNL A   1      43.883  23.021  29.782  1.00  0.00     0.029 A 
ATOM     43  C   UNL A   1      44.074  24.437  30.026  1.00  0.00     0.049 A 
ATOM     44  H   UNL A   1      42.988  26.011  29.176  1.00  0.00     0.167 HD
ATOM     45  C   UNL A   1      40.109  29.055  27.792  1.00  0.00     0.034 A 
ATOM     46  C   UNL A   1      44.966  25.090  30.809  1.00  0.00     0.034 A 
ATOM     47  C   UNL A   1      41.198  29.221  26.860  1.00  0.00     0.049 A 
ATOM     48  C   UNL A   1      45.062  26.462  30.252  1.00  0.00     0.074 A 
ATOM     49  C   UNL A   1      41.392  28.954  25.520  1.00  0.00     0.029 A 
ATOM     50  N   UNL A   1      42.450  29.336  27.417  1.00  0.00    -0.354 N 
ATOM     51  N   UNL A   1      45.536  26.729  29.067  1.00  0.00    -0.248 NA
ATOM     52  C   UNL A   1      44.256  27.509  30.856  1.00  0.00     0.031 C 
ATOM     53  C   UNL A   1      42.738  28.489  25.427  1.00  0.00     0.029 A 
ATOM     54  C   UNL A   1      43.315  28.556  26.698  1.00  0.00     0.049 A 
ATOM     55  H   UNL A   1      42.684  29.886  28.200  1.00  0.00     0.167 HD
ATOM     56  C   UNL A   1      44.730  27.757  28.599  1.00  0.00     0.074 A 
ATOM     57  C   UNL A   1      44.056  28.279  29.784  1.00  0.00     0.031 C 
ATOM     58  C   UNL A   1      44.470  27.892  27.266  1.00  0.00     0.034 A 
BRANCH  45  59
ATOM     59  C   UNL A   1      39.782  30.121  28.806  1.00  0.00     0.023 A 
ATOM     60  C   UNL A   1      40.655  30.258  29.908  1.00  0.00     0.012 A 
ATOM     61  C   UNL A   1      38.547  30.803  28.877  1.00  0.00     0.148 A 
ATOM     62  C   UNL A   1      40.306  31.018  31.028  1.00  0.00     0.002 A 
ATOM     63  C   UNL A   1      38.239  31.624  29.955  1.00  0.00     0.091 A 
ATOM     64  F   UNL A   1      37.593  30.555  27.975  1.00  0.00    -0.205 F 
ATOM     65  C   UNL A   1      39.103  31.714  31.046  1.00  0.00     0.022 A 
BRANCH  63  66
ATOM     66  S   UNL A   1      36.715  32.575  30.005  1.00  0.00     0.127 S 
ATOM     67  O   UNL A   1      35.720  31.522  30.185  1.00  0.00    -0.237 OA
ATOM     68  O   UNL A   1      36.936  33.429  31.172  1.00  0.00    -0.237 OA
ATOM     69  O   UNL A   1      36.666  33.297  28.740  1.00  0.00    -0.744 OA
ENDBRANCH  63  66
ENDBRANCH  45  59
BRANCH  46  70
ATOM     70  C   UNL A   1      45.562  24.738  32.120  1.00  0.00     0.023 A 
ATOM     71  C   UNL A   1      46.818  25.292  32.457  1.00  0.00     0.012 A 
ATOM     72  C   UNL A   1      44.797  24.159  33.154  1.00  0.00     0.148 A 
ATOM     73  C   UNL A   1      47.253  25.351  33.785  1.00  0.00     0.002 A 
ATOM     74  C   UNL A   1      45.241  24.211  34.474  1.00  0.00     0.091 A 
ATOM     75  F   UNL A   1      43.593  23.648  32.864  1.00  0.00    -0.205 F 
ATOM     76  C   UNL A   1      46.457  24.828  34.796  1.00  0.00     0.022 A 
BRANCH  74  77
ATOM     77  S   UNL A   1      44.263  23.565  35.839  1.00  0.00     0.127 S 
ATOM     78  O   UNL A   1      43.013  23.196  35.174  1.00  0.00    -0.237 OA
ATOM     79  O   UNL A   1      45.075  22.436  36.285  1.00  0.00    -0.237 OA
ATOM     80  O   UNL A   1      44.133  24.667  36.783  1.00  0.00    -0.744 OA
ENDBRANCH  74  77
ENDBRANCH  46  70
BRANCH  58  81
ATOM     81  C   UNL A   1      45.308  27.095  26.297  1.00  0.00     0.023 A 
ATOM     82  C   UNL A   1      46.591  27.513  25.884  1.00  0.00     0.012 A 
ATOM     83  C   UNL A   1      44.873  25.801  25.969  1.00  0.00     0.148 A 
ATOM     84  C   UNL A   1      47.425  26.650  25.165  1.00  0.00     0.002 A 
ATOM     85  C   UNL A   1      45.720  24.933  25.292  1.00  0.00     0.091 A 
ATOM     86  F   UNL A   1      43.653  25.426  26.380  1.00  0.00    -0.205 F 
ATOM     87  C   UNL A   1      46.995  25.354  24.884  1.00  0.00     0.022 A 
BRANCH  85  88
ATOM     88  S   UNL A   1      45.278  23.219  25.000  1.00  0.00     0.127 S 
ATOM     89  O   UNL A   1      45.337  23.132  23.542  1.00  0.00    -0.237 OA
ATOM     90  O   UNL A   1      46.344  22.502  25.700  1.00  0.00    -0.237 OA
ATOM     91  O   UNL A   1      43.952  23.035  25.577  1.00  0.00    -0.744 OA
ENDBRANCH  85  88
ENDBRANCH  58  81
ENDBRANCH  32  33
ENDBRANCH  24  27
ENDBRANCH   1  23
TORSDOF 14
ENDMDL
MODEL 3
REMARK VINA RESULT:     -11.8      2.714      7.793
REMARK SMILES Cc1cc(-n2nc(C)c(C(=O)NCCCNC(=O)c3ccc(-c4c5nc(c(-c6cccc(S(=O)(=O)[O-])c6F)c6ccc([nH]6)c(-c6cccc(S(=O)(=O)[O-])c6F)c6nc(c(-c7cccc(S(=O)(=O)[O-])c7F)c7ccc4[nH]7)C=C6)C=C5)cc3)c2Cl)nc(C)n1
REMARK SMILES IDX 15 1 14 2 13 3 12 4 10 5 11 6 9 8 5 9 6 10 82 11 7 12 83 13
REMARK SMILES IDX 8 14 4 15 1 16 2 17 3 18 87 19 85 20 84 21 86 22 16 23 17 24
REMARK SMILES IDX 18 26 19 27 20 28 81 29 21 30 80 31 22 32 23 33 24 34 74 35
REMARK SMILES IDX 25 36 79 37 73 38 75 39 26 40 78 41 72 42 71 43 27 45 59 46
REMARK SMILES IDX 39 47 58 48 40 49 43 50 57 51 76 52 41 53 42 54 56 56 77 57
REMARK SMILES IDX 44 58 28 59 29 60 37 61 30 62 32 63 38 64 31 65 33 66 34 67
REMARK SMILES IDX 35 68 36 69 60 70 61 71 69 72 62 73 64 74 70 75 63 76 65 77
REMARK SMILES IDX 66 78 67 79 68 80 45 81 46 82 54 83 47 84 49 85 55 86 48 87
REMARK SMILES IDX 50 88 51 89 52 90 53 91
REMARK H PARENT 12 7 16 25 75 44 43 55
REMARK Flexibility Score: inf
ROOT
ATOM      1  C   UNL A   1      34.406  28.969  26.939  1.00  0.00     0.118 C 
ENDROOT
BRANCH   1   2
ATOM      2  C   UNL A   1      33.130  28.540  26.267  1.00  0.00     0.042 C 
BRANCH   2   3
ATOM      3  C   UNL A   1      32.147  27.803  27.188  1.00  0.00     0.118 C 
BRANCH   3   4
ATOM      4  N   UNL A   1      31.035  27.240  26.450  1.00  0.00    -0.352 N 
ATOM      5  C   UNL A   1      30.823  26.039  25.825  1.00  0.00     0.256 C 
ATOM      6  O   UNL A   1      29.695  25.901  25.350  1.00  0.00    -0.269 OA
ATOM      7  H   UNL A   1      30.266  27.852  26.383  1.00  0.00     0.163 HD
BRANCH   5   8
ATOM      8  C   UNL A   1      31.797  24.951  25.747  1.00  0.00     0.100 A 
ATOM      9  N   UNL A   1      33.562  23.604  25.476  1.00  0.00    -0.203 N 
ATOM     10  N   UNL A   1      32.617  22.772  25.956  1.00  0.00    -0.170 NA
ATOM     11  C   UNL A   1      33.033  24.831  25.152  1.00  0.00     0.147 A 
ATOM     12  C   UNL A   1      31.576  23.593  26.202  1.00  0.00     0.074 A 
ATOM     13  Cl  UNL A   1      33.907  25.707  23.974  1.00  0.00    -0.061 Cl
ATOM     14  C   UNL A   1      30.361  22.990  26.826  1.00  0.00     0.070 C 
BRANCH   9  15
ATOM     15  C   UNL A   1      34.876  23.184  25.125  1.00  0.00     0.159 A 
ATOM     16  C   UNL A   1      38.242  24.034  26.454  1.00  0.00     0.067 C 
ATOM     17  C   UNL A   1      37.118  23.339  25.747  1.00  0.00     0.043 A 
ATOM     18  C   UNL A   1      35.913  23.988  25.556  1.00  0.00     0.072 A 
ATOM     19  N   UNL A   1      37.294  22.023  25.481  1.00  0.00    -0.238 NA
ATOM     20  C   UNL A   1      36.235  21.338  25.020  1.00  0.00     0.128 A 
ATOM     21  N   UNL A   1      35.021  21.867  24.831  1.00  0.00    -0.214 NA
ATOM     22  C   UNL A   1      36.355  19.853  24.873  1.00  0.00     0.090 C 
ENDBRANCH   9  15
ENDBRANCH   5   8
ENDBRANCH   3   4
ENDBRANCH   2   3
ENDBRANCH   1   2
BRANCH   1  23
ATOM     23  N   UNL A   1      34.315  30.371  27.339  1.00  0.00    -0.352 N 
ATOM     24  C   UNL A   1      35.015  31.045  28.311  1.00  0.00     0.251 C 
ATOM     25  H   UNL A   1      33.659  30.910  26.840  1.00  0.00     0.163 HD
ATOM     26  O   UNL A   1      34.589  32.097  28.757  1.00  0.00    -0.269 OA
BRANCH  24  27
ATOM     27  C   UNL A   1      36.273  30.462  28.801  1.00  0.00     0.039 A 
ATOM     28  C   UNL A   1      36.265  29.582  29.883  1.00  0.00     0.014 A 
ATOM     29  C   UNL A   1      37.460  30.793  28.149  1.00  0.00     0.014 A 
ATOM     30  C   UNL A   1      37.462  28.994  30.261  1.00  0.00     0.010 A 
ATOM     31  C   UNL A   1      38.598  30.077  28.398  1.00  0.00     0.010 A 
ATOM     32  C   UNL A   1      38.615  29.236  29.498  1.00  0.00    -0.014 A 
BRANCH  32  33
ATOM     33  C   UNL A   1      39.849  28.538  29.781  1.00  0.00     0.031 A 
ATOM     34  C   UNL A   1      40.254  28.606  31.202  1.00  0.00     0.074 A 
ATOM     35  C   UNL A   1      40.486  27.774  28.875  1.00  0.00     0.049 A 
ATOM     36  N   UNL A   1      41.100  29.435  31.716  1.00  0.00    -0.248 NA
ATOM     37  C   UNL A   1      39.504  27.822  32.191  1.00  0.00     0.031 C 
ATOM     38  C   UNL A   1      40.037  27.360  27.541  1.00  0.00     0.029 A 
ATOM     39  N   UNL A   1      41.665  27.117  29.012  1.00  0.00    -0.354 N 
ATOM     40  C   UNL A   1      41.195  29.073  33.052  1.00  0.00     0.074 A 
ATOM     41  C   UNL A   1      40.037  28.266  33.334  1.00  0.00     0.031 C 
ATOM     42  C   UNL A   1      40.830  26.363  27.086  1.00  0.00     0.029 A 
ATOM     43  C   UNL A   1      41.936  26.195  28.008  1.00  0.00     0.049 A 
ATOM     44  H   UNL A   1      42.279  27.280  29.764  1.00  0.00     0.167 HD
ATOM     45  C   UNL A   1      42.368  29.219  33.726  1.00  0.00     0.034 A 
ATOM     46  C   UNL A   1      42.997  25.353  27.975  1.00  0.00     0.034 A 
ATOM     47  C   UNL A   1      43.309  30.016  32.977  1.00  0.00     0.049 A 
ATOM     48  C   UNL A   1      44.039  25.986  28.821  1.00  0.00     0.074 A 
ATOM     49  C   UNL A   1      43.322  31.300  32.470  1.00  0.00     0.029 A 
ATOM     50  N   UNL A   1      44.266  29.316  32.282  1.00  0.00    -0.354 N 
ATOM     51  N   UNL A   1      44.617  27.117  28.529  1.00  0.00    -0.248 NA
ATOM     52  C   UNL A   1      44.156  25.561  30.206  1.00  0.00     0.031 C 
ATOM     53  C   UNL A   1      43.974  31.192  31.206  1.00  0.00     0.029 A 
ATOM     54  C   UNL A   1      44.382  29.866  31.035  1.00  0.00     0.049 A 
ATOM     55  H   UNL A   1      44.782  28.550  32.625  1.00  0.00     0.167 HD
ATOM     56  C   UNL A   1      44.767  27.752  29.754  1.00  0.00     0.074 A 
ATOM     57  C   UNL A   1      44.590  26.700  30.750  1.00  0.00     0.031 C 
ATOM     58  C   UNL A   1      44.731  29.114  29.847  1.00  0.00     0.034 A 
BRANCH  45  59
ATOM     59  C   UNL A   1      42.825  28.330  34.854  1.00  0.00     0.023 A 
ATOM     60  C   UNL A   1      43.251  28.959  36.045  1.00  0.00     0.012 A 
ATOM     61  C   UNL A   1      43.107  26.952  34.720  1.00  0.00     0.148 A 
ATOM     62  C   UNL A   1      43.939  28.257  37.039  1.00  0.00     0.002 A 
ATOM     63  C   UNL A   1      43.715  26.239  35.746  1.00  0.00     0.091 A 
ATOM     64  F   UNL A   1      42.922  26.342  33.547  1.00  0.00    -0.205 F 
ATOM     65  C   UNL A   1      44.159  26.892  36.897  1.00  0.00     0.022 A 
BRANCH  63  66
ATOM     66  S   UNL A   1      43.985  24.467  35.626  1.00  0.00     0.127 S 
ATOM     67  O   UNL A   1      44.944  24.391  34.528  1.00  0.00    -0.237 OA
ATOM     68  O   UNL A   1      44.526  24.158  36.949  1.00  0.00    -0.237 OA
ATOM     69  O   UNL A   1      42.670  23.891  35.371  1.00  0.00    -0.744 OA
ENDBRANCH  63  66
ENDBRANCH  45  59
BRANCH  46  70
ATOM     70  C   UNL A   1      43.127  23.956  27.495  1.00  0.00     0.023 A 
ATOM     71  C   UNL A   1      42.061  23.061  27.736  1.00  0.00     0.012 A 
ATOM     72  C   UNL A   1      44.100  23.584  26.542  1.00  0.00     0.148 A 
ATOM     73  C   UNL A   1      41.916  21.886  26.991  1.00  0.00     0.002 A 
ATOM     74  C   UNL A   1      43.956  22.407  25.811  1.00  0.00     0.091 A 
ATOM     75  F   UNL A   1      45.108  24.427  26.280  1.00  0.00    -0.205 F 
ATOM     76  C   UNL A   1      42.853  21.568  26.015  1.00  0.00     0.022 A 
BRANCH  74  77
ATOM     77  S   UNL A   1      45.121  21.932  24.525  1.00  0.00     0.127 S 
ATOM     78  O   UNL A   1      46.378  21.839  25.268  1.00  0.00    -0.237 OA
ATOM     79  O   UNL A   1      44.577  20.652  24.081  1.00  0.00    -0.237 OA
ATOM     80  O   UNL A   1      45.085  23.012  23.547  1.00  0.00    -0.744 OA
ENDBRANCH  74  77
ENDBRANCH  46  70
BRANCH  58  81
ATOM     81  C   UNL A   1      44.826  29.913  28.570  1.00  0.00     0.023 A 
ATOM     82  C   UNL A   1      43.697  30.216  27.780  1.00  0.00     0.012 A 
ATOM     83  C   UNL A   1      46.049  30.541  28.285  1.00  0.00     0.148 A 
ATOM     84  C   UNL A   1      43.788  31.138  26.731  1.00  0.00     0.002 A 
ATOM     85  C   UNL A   1      46.125  31.486  27.270  1.00  0.00     0.091 A 
ATOM     86  F   UNL A   1      47.105  30.241  29.055  1.00  0.00    -0.205 F 
ATOM     87  C   UNL A   1      44.999  31.784  26.488  1.00  0.00     0.022 A 
BRANCH  85  88
ATOM     88  S   UNL A   1      47.617  32.440  26.977  1.00  0.00     0.127 S 
ATOM     89  O   UNL A   1      47.878  33.009  28.298  1.00  0.00    -0.237 OA
ATOM     90  O   UNL A   1      48.565  31.408  26.557  1.00  0.00    -0.237 OA
ATOM     91  O   UNL A   1      47.285  33.409  25.941  1.00  0.00    -0.744 OA
ENDBRANCH  85  88
ENDBRANCH  58  81
ENDBRANCH  32  33
ENDBRANCH  24  27
ENDBRANCH   1  23
TORSDOF 14
ENDMDL
