MODEL 1
REMARK VINA RESULT:     -12.1      0.000      0.000
REMARK SMILES CCc1cccc(CC)c1N1/C(=[NH+]/C(=O)CCCC(=O)NCCCNC(=O)c2ccc(-c3c4nc(c(-c5cccc(S(=O)(=O)[O-])c5F)c5ccc([nH]5)c(-c5cccc(S(=O)(=O)[O-])c5F)c5nc(c(-c6cccc(S(=O)(=O)[O-])c6F)c6ccc3[nH]6)C=C5)C=C4)cc2)S[C@@H]2CS(=O)(=O)C[C@@H]21
REMARK SMILES IDX 22 1 21 2 19 3 20 4 18 6 17 7 16 8 14 9 11 10 12 11 98 12
REMARK SMILES IDX 13 13 91 14 92 15 97 16 93 18 94 19 15 20 95 21 96 22 10 23
REMARK SMILES IDX 3 24 4 25 5 26 7 27 6 28 2 29 1 30 8 31 9 32 23 33 24 34
REMARK SMILES IDX 25 35 26 36 27 38 28 39 29 40 90 41 30 42 89 43 31 44 32 45
REMARK SMILES IDX 33 46 83 47 34 48 88 49 82 50 84 51 35 52 87 53 81 54 80 55
REMARK SMILES IDX 36 57 68 58 48 59 67 60 49 61 52 62 66 63 85 64 50 65 51 66
REMARK SMILES IDX 65 68 86 69 53 70 37 71 38 72 46 73 39 74 41 75 47 76 40 77
REMARK SMILES IDX 42 78 43 79 44 80 45 81 69 82 70 83 78 84 71 85 73 86 79 87
REMARK SMILES IDX 72 88 74 89 75 90 76 91 77 92 54 93 55 94 63 95 56 96 58 97
REMARK SMILES IDX 64 98 57 99 59 100 60 101 61 102 62 103
REMARK H PARENT 21 5 13 17 25 37 84 56 52 67
REMARK Flexibility Score: inf
ROOT
ATOM      1  C   UNL A   1      35.243  21.807  24.601  1.00  0.00     0.117 C 
ENDROOT
BRANCH   1   2
ATOM      2  N   UNL A   1      34.182  20.842  24.803  1.00  0.00    -0.356 N 
ATOM      3  C   UNL A   1      32.839  21.004  24.633  1.00  0.00     0.220 C 
ATOM      4  O   UNL A   1      32.081  20.095  24.969  1.00  0.00    -0.275 OA
ATOM      5  H   UNL A   1      34.469  19.949  25.102  1.00  0.00     0.163 HD
BRANCH   3   6
ATOM      6  C   UNL A   1      32.320  22.250  23.949  1.00  0.00     0.100 C 
BRANCH   6   7
ATOM      7  C   UNL A   1      32.406  22.320  22.425  1.00  0.00     0.022 C 
BRANCH   7   8
ATOM      8  C   UNL A   1      32.977  23.585  21.778  1.00  0.00     0.128 C 
BRANCH   8   9
ATOM      9  C   UNL A   1      33.223  24.796  22.673  1.00  0.00     0.307 C 
ATOM     10  N   UNL A   1      31.359  27.830  23.500  1.00  0.00    -0.216 N 
ATOM     11  C   UNL A   1      32.304  26.912  23.034  1.00  0.00     0.319 C 
ATOM     12  C   UNL A   1      31.925  29.079  24.080  1.00  0.00     0.212 C 
ATOM     13  N   UNL A   1      32.155  25.645  22.849  1.00  0.00    -0.204 N 
ATOM     14  S   UNL A   1      33.833  27.789  22.788  1.00  0.00    -0.029 SA
ATOM     15  C   UNL A   1      33.452  28.898  24.159  1.00  0.00     0.120 C 
ATOM     16  C   UNL A   1      31.406  29.427  25.475  1.00  0.00     0.188 C 
ATOM     17  H   UNL A   1      31.244  25.272  22.832  1.00  0.00     0.316 HD
ATOM     18  C   UNL A   1      33.798  28.245  25.485  1.00  0.00     0.156 C 
ATOM     19  S   UNL A   1      32.713  29.059  26.624  1.00  0.00     0.155 S 
ATOM     20  O   UNL A   1      34.304  24.920  23.246  1.00  0.00    -0.247 OA
ATOM     21  O   UNL A   1      32.242  28.117  27.611  1.00  0.00    -0.229 OA
ATOM     22  O   UNL A   1      33.332  30.317  27.004  1.00  0.00    -0.229 OA
BRANCH  10  23
ATOM     23  C   UNL A   1      29.945  27.736  23.399  1.00  0.00     0.134 A 
ATOM     24  C   UNL A   1      29.205  26.702  24.048  1.00  0.00    -0.001 A 
ATOM     25  C   UNL A   1      27.791  26.764  24.068  1.00  0.00     0.008 A 
ATOM     26  C   UNL A   1      27.093  27.816  23.497  1.00  0.00     0.001 A 
ATOM     27  C   UNL A   1      29.199  28.763  22.722  1.00  0.00    -0.001 A 
ATOM     28  C   UNL A   1      27.792  28.807  22.834  1.00  0.00     0.008 A 
BRANCH  24  29
ATOM     29  C   UNL A   1      29.783  25.471  24.721  1.00  0.00     0.036 C 
ATOM     30  C   UNL A   1      30.319  25.624  26.124  1.00  0.00     0.009 C 
ENDBRANCH  24  29
BRANCH  27  31
ATOM     31  C   UNL A   1      29.827  29.852  21.862  1.00  0.00     0.036 C 
ATOM     32  C   UNL A   1      28.835  30.846  21.255  1.00  0.00     0.009 C 
ENDBRANCH  27  31
ENDBRANCH  10  23
ENDBRANCH   8   9
ENDBRANCH   7   8
ENDBRANCH   6   7
ENDBRANCH   3   6
ENDBRANCH   1   2
BRANCH   1  33
ATOM     33  C   UNL A   1      35.385  22.706  25.819  1.00  0.00     0.042 C 
BRANCH  33  34
ATOM     34  C   UNL A   1      36.702  23.447  25.835  1.00  0.00     0.118 C 
BRANCH  34  35
ATOM     35  N   UNL A   1      37.823  22.543  26.045  1.00  0.00    -0.352 N 
ATOM     36  C   UNL A   1      39.099  22.830  26.466  1.00  0.00     0.251 C 
ATOM     37  H   UNL A   1      37.642  21.594  25.861  1.00  0.00     0.163 HD
ATOM     38  O   UNL A   1      39.969  21.967  26.389  1.00  0.00    -0.269 OA
BRANCH  36  39
ATOM     39  C   UNL A   1      39.419  24.179  26.985  1.00  0.00     0.039 A 
ATOM     40  C   UNL A   1      39.208  24.455  28.337  1.00  0.00     0.014 A 
ATOM     41  C   UNL A   1      39.940  25.164  26.144  1.00  0.00     0.014 A 
ATOM     42  C   UNL A   1      39.569  25.702  28.851  1.00  0.00     0.010 A 
ATOM     43  C   UNL A   1      40.413  26.354  26.680  1.00  0.00     0.010 A 
ATOM     44  C   UNL A   1      40.204  26.651  28.033  1.00  0.00    -0.014 A 
BRANCH  44  45
ATOM     45  C   UNL A   1      40.634  27.970  28.559  1.00  0.00     0.031 A 
ATOM     46  C   UNL A   1      42.101  28.293  28.672  1.00  0.00     0.074 A 
ATOM     47  C   UNL A   1      39.713  28.842  29.011  1.00  0.00     0.049 A 
ATOM     48  N   UNL A   1      42.676  29.369  29.142  1.00  0.00    -0.248 NA
ATOM     49  C   UNL A   1      43.049  27.255  28.232  1.00  0.00     0.031 C 
ATOM     50  C   UNL A   1      38.267  28.612  29.030  1.00  0.00     0.029 A 
ATOM     51  N   UNL A   1      39.858  30.091  29.559  1.00  0.00    -0.354 N 
ATOM     52  C   UNL A   1      44.042  29.119  29.097  1.00  0.00     0.074 A 
ATOM     53  C   UNL A   1      44.210  27.772  28.602  1.00  0.00     0.031 C 
ATOM     54  C   UNL A   1      37.656  29.695  29.537  1.00  0.00     0.029 A 
ATOM     55  C   UNL A   1      38.667  30.678  29.915  1.00  0.00     0.049 A 
ATOM     56  H   UNL A   1      40.732  30.525  29.687  1.00  0.00     0.167 HD
ATOM     57  C   UNL A   1      45.069  29.946  29.409  1.00  0.00     0.034 A 
ATOM     58  C   UNL A   1      38.416  31.875  30.481  1.00  0.00     0.034 A 
ATOM     59  C   UNL A   1      44.894  31.298  29.864  1.00  0.00     0.049 A 
ATOM     60  C   UNL A   1      39.569  32.789  30.792  1.00  0.00     0.074 A 
ATOM     61  C   UNL A   1      45.862  32.254  30.114  1.00  0.00     0.029 A 
ATOM     62  N   UNL A   1      43.670  31.881  30.155  1.00  0.00    -0.354 N 
ATOM     63  N   UNL A   1      40.851  32.597  30.592  1.00  0.00    -0.248 NA
ATOM     64  C   UNL A   1      39.238  34.096  31.375  1.00  0.00     0.031 C 
ATOM     65  C   UNL A   1      45.224  33.402  30.596  1.00  0.00     0.029 A 
ATOM     66  C   UNL A   1      43.856  33.177  30.603  1.00  0.00     0.049 A 
ATOM     67  H   UNL A   1      42.797  31.438  30.057  1.00  0.00     0.167 HD
ATOM     68  C   UNL A   1      41.478  33.773  30.990  1.00  0.00     0.074 A 
ATOM     69  C   UNL A   1      40.431  34.676  31.426  1.00  0.00     0.031 C 
ATOM     70  C   UNL A   1      42.801  34.076  30.999  1.00  0.00     0.034 A 
BRANCH  57  71
ATOM     71  C   UNL A   1      46.468  29.411  29.233  1.00  0.00     0.023 A 
ATOM     72  C   UNL A   1      47.190  28.944  30.353  1.00  0.00     0.012 A 
ATOM     73  C   UNL A   1      47.068  29.360  27.959  1.00  0.00     0.148 A 
ATOM     74  C   UNL A   1      48.502  28.492  30.217  1.00  0.00     0.002 A 
ATOM     75  C   UNL A   1      48.357  28.857  27.825  1.00  0.00     0.091 A 
ATOM     76  F   UNL A   1      46.381  29.827  26.907  1.00  0.00    -0.205 F 
ATOM     77  C   UNL A   1      49.082  28.440  28.955  1.00  0.00     0.022 A 
BRANCH  75  78
ATOM     78  S   UNL A   1      49.159  28.670  26.229  1.00  0.00     0.127 S 
ATOM     79  O   UNL A   1      49.906  29.922  26.126  1.00  0.00    -0.237 OA
ATOM     80  O   UNL A   1      49.987  27.482  26.438  1.00  0.00    -0.237 OA
ATOM     81  O   UNL A   1      48.086  28.496  25.261  1.00  0.00    -0.744 OA
ENDBRANCH  75  78
ENDBRANCH  57  71
BRANCH  58  82
ATOM     82  C   UNL A   1      37.009  32.304  30.709  1.00  0.00     0.023 A 
ATOM     83  C   UNL A   1      36.443  32.151  31.990  1.00  0.00     0.012 A 
ATOM     84  C   UNL A   1      36.249  32.908  29.689  1.00  0.00     0.148 A 
ATOM     85  C   UNL A   1      35.136  32.569  32.245  1.00  0.00     0.002 A 
ATOM     86  C   UNL A   1      34.967  33.371  29.963  1.00  0.00     0.091 A 
ATOM     87  F   UNL A   1      36.807  33.042  28.478  1.00  0.00    -0.205 F 
ATOM     88  C   UNL A   1      34.403  33.187  31.236  1.00  0.00     0.022 A 
BRANCH  86  89
ATOM     89  S   UNL A   1      33.991  34.290  28.768  1.00  0.00     0.127 S 
ATOM     90  O   UNL A   1      34.920  35.346  28.374  1.00  0.00    -0.237 OA
ATOM     91  O   UNL A   1      33.740  33.274  27.746  1.00  0.00    -0.237 OA
ATOM     92  O   UNL A   1      32.803  34.734  29.484  1.00  0.00    -0.744 OA
ENDBRANCH  86  89
ENDBRANCH  58  82
BRANCH  70  93
ATOM     93  C   UNL A   1      43.199  35.455  31.459  1.00  0.00     0.023 A 
ATOM     94  C   UNL A   1      43.387  35.714  32.830  1.00  0.00     0.012 A 
ATOM     95  C   UNL A   1      43.457  36.473  30.520  1.00  0.00     0.148 A 
ATOM     96  C   UNL A   1      43.792  36.977  33.262  1.00  0.00     0.002 A 
ATOM     97  C   UNL A   1      43.914  37.711  30.954  1.00  0.00     0.091 A 
ATOM     98  F   UNL A   1      43.256  36.211  29.220  1.00  0.00    -0.205 F 
ATOM     99  C   UNL A   1      44.068  37.969  32.325  1.00  0.00     0.022 A 
BRANCH  97 100
ATOM    100  S   UNL A   1      44.393  39.014  29.815  1.00  0.00     0.127 S 
ATOM    101  O   UNL A   1      43.157  39.220  29.060  1.00  0.00    -0.237 OA
ATOM    102  O   UNL A   1      44.742  40.107  30.724  1.00  0.00    -0.237 OA
ATOM    103  O   UNL A   1      45.511  38.487  29.045  1.00  0.00    -0.744 OA
ENDBRANCH  97 100
ENDBRANCH  70  93
ENDBRANCH  44  45
ENDBRANCH  36  39
ENDBRANCH  34  35
ENDBRANCH  33  34
ENDBRANCH   1  33
TORSDOF 19
ENDMDL
MODEL 2
REMARK VINA RESULT:     -12.1      1.938      2.626
REMARK SMILES CCc1cccc(CC)c1N1/C(=[NH+]/C(=O)CCCC(=O)NCCCNC(=O)c2ccc(-c3c4nc(c(-c5cccc(S(=O)(=O)[O-])c5F)c5ccc([nH]5)c(-c5cccc(S(=O)(=O)[O-])c5F)c5nc(c(-c6cccc(S(=O)(=O)[O-])c6F)c6ccc3[nH]6)C=C5)C=C4)cc2)S[C@@H]2CS(=O)(=O)C[C@@H]21
REMARK SMILES IDX 22 1 21 2 19 3 20 4 18 6 17 7 16 8 14 9 11 10 12 11 98 12
REMARK SMILES IDX 13 13 91 14 92 15 97 16 93 18 94 19 15 20 95 21 96 22 10 23
REMARK SMILES IDX 3 24 4 25 5 26 7 27 6 28 2 29 1 30 8 31 9 32 23 33 24 34
REMARK SMILES IDX 25 35 26 36 27 38 28 39 29 40 90 41 30 42 89 43 31 44 32 45
REMARK SMILES IDX 33 46 83 47 34 48 88 49 82 50 84 51 35 52 87 53 81 54 80 55
REMARK SMILES IDX 36 57 68 58 48 59 67 60 49 61 52 62 66 63 85 64 50 65 51 66
REMARK SMILES IDX 65 68 86 69 53 70 37 71 38 72 46 73 39 74 41 75 47 76 40 77
REMARK SMILES IDX 42 78 43 79 44 80 45 81 69 82 70 83 78 84 71 85 73 86 79 87
REMARK SMILES IDX 72 88 74 89 75 90 76 91 77 92 54 93 55 94 63 95 56 96 58 97
REMARK SMILES IDX 64 98 57 99 59 100 60 101 61 102 62 103
REMARK H PARENT 21 5 13 17 25 37 84 56 52 67
REMARK Flexibility Score: inf
ROOT
ATOM      1  C   UNL A   1      33.901  22.574  25.982  1.00  0.00     0.117 C 
ENDROOT
BRANCH   1   2
ATOM      2  N   UNL A   1      33.420  21.378  25.321  1.00  0.00    -0.356 N 
ATOM      3  C   UNL A   1      32.566  21.273  24.263  1.00  0.00     0.220 C 
ATOM      4  O   UNL A   1      32.183  20.157  23.915  1.00  0.00    -0.275 OA
ATOM      5  H   UNL A   1      33.754  20.526  25.685  1.00  0.00     0.163 HD
BRANCH   3   6
ATOM      6  C   UNL A   1      32.192  22.514  23.483  1.00  0.00     0.100 C 
BRANCH   6   7
ATOM      7  C   UNL A   1      32.530  22.555  21.994  1.00  0.00     0.022 C 
BRANCH   7   8
ATOM      8  C   UNL A   1      32.985  23.883  21.379  1.00  0.00     0.128 C 
BRANCH   8   9
ATOM      9  C   UNL A   1      33.232  25.057  22.321  1.00  0.00     0.307 C 
ATOM     10  N   UNL A   1      31.323  27.996  23.358  1.00  0.00    -0.216 N 
ATOM     11  C   UNL A   1      32.272  27.128  22.815  1.00  0.00     0.319 C 
ATOM     12  C   UNL A   1      31.877  29.233  23.976  1.00  0.00     0.212 C 
ATOM     13  N   UNL A   1      32.150  25.866  22.576  1.00  0.00    -0.204 N 
ATOM     14  S   UNL A   1      33.767  28.058  22.553  1.00  0.00    -0.029 SA
ATOM     15  C   UNL A   1      33.411  29.091  23.988  1.00  0.00     0.120 C 
ATOM     16  C   UNL A   1      31.404  29.501  25.404  1.00  0.00     0.188 C 
ATOM     17  H   UNL A   1      31.249  25.469  22.575  1.00  0.00     0.316 HD
ATOM     18  C   UNL A   1      33.825  28.388  25.268  1.00  0.00     0.156 C 
ATOM     19  S   UNL A   1      32.763  29.118  26.484  1.00  0.00     0.155 S 
ATOM     20  O   UNL A   1      34.331  25.185  22.858  1.00  0.00    -0.247 OA
ATOM     21  O   UNL A   1      32.356  28.118  27.442  1.00  0.00    -0.229 OA
ATOM     22  O   UNL A   1      33.363  30.374  26.900  1.00  0.00    -0.229 OA
BRANCH  10  23
ATOM     23  C   UNL A   1      29.909  27.867  23.306  1.00  0.00     0.134 A 
ATOM     24  C   UNL A   1      29.218  26.811  23.973  1.00  0.00    -0.001 A 
ATOM     25  C   UNL A   1      27.805  26.837  24.042  1.00  0.00     0.008 A 
ATOM     26  C   UNL A   1      27.061  27.875  23.503  1.00  0.00     0.001 A 
ATOM     27  C   UNL A   1      29.114  28.879  22.663  1.00  0.00    -0.001 A 
ATOM     28  C   UNL A   1      27.711  28.887  22.823  1.00  0.00     0.008 A 
BRANCH  24  29
ATOM     29  C   UNL A   1      29.849  25.591  24.618  1.00  0.00     0.036 C 
ATOM     30  C   UNL A   1      29.977  25.578  26.121  1.00  0.00     0.009 C 
ENDBRANCH  24  29
BRANCH  27  31
ATOM     31  C   UNL A   1      29.684  29.989  21.788  1.00  0.00     0.036 C 
ATOM     32  C   UNL A   1      28.651  30.981  21.252  1.00  0.00     0.009 C 
ENDBRANCH  27  31
ENDBRANCH  10  23
ENDBRANCH   8   9
ENDBRANCH   7   8
ENDBRANCH   6   7
ENDBRANCH   3   6
ENDBRANCH   1   2
BRANCH   1  33
ATOM     33  C   UNL A   1      35.247  22.314  26.639  1.00  0.00     0.042 C 
BRANCH  33  34
ATOM     34  C   UNL A   1      36.398  22.477  25.673  1.00  0.00     0.118 C 
BRANCH  34  35
ATOM     35  N   UNL A   1      37.370  21.403  25.810  1.00  0.00    -0.352 N 
ATOM     36  C   UNL A   1      38.714  21.481  26.081  1.00  0.00     0.251 C 
ATOM     37  H   UNL A   1      37.014  20.493  25.694  1.00  0.00     0.163 HD
ATOM     38  O   UNL A   1      39.415  20.481  25.958  1.00  0.00    -0.269 OA
BRANCH  36  39
ATOM     39  C   UNL A   1      39.309  22.772  26.494  1.00  0.00     0.039 A 
ATOM     40  C   UNL A   1      40.273  22.784  27.505  1.00  0.00     0.014 A 
ATOM     41  C   UNL A   1      38.930  23.966  25.878  1.00  0.00     0.014 A 
ATOM     42  C   UNL A   1      40.889  23.986  27.856  1.00  0.00     0.010 A 
ATOM     43  C   UNL A   1      39.631  25.135  26.140  1.00  0.00     0.010 A 
ATOM     44  C   UNL A   1      40.596  25.166  27.154  1.00  0.00    -0.014 A 
BRANCH  44  45
ATOM     45  C   UNL A   1      41.262  26.453  27.478  1.00  0.00     0.031 A 
ATOM     46  C   UNL A   1      42.682  26.695  27.040  1.00  0.00     0.074 A 
ATOM     47  C   UNL A   1      40.623  27.365  28.235  1.00  0.00     0.049 A 
ATOM     48  N   UNL A   1      43.449  27.732  27.261  1.00  0.00    -0.248 NA
ATOM     49  C   UNL A   1      43.343  25.616  26.286  1.00  0.00     0.031 C 
ATOM     50  C   UNL A   1      39.276  27.211  28.789  1.00  0.00     0.029 A 
ATOM     51  N   UNL A   1      41.029  28.594  28.686  1.00  0.00    -0.354 N 
ATOM     52  C   UNL A   1      44.687  27.410  26.715  1.00  0.00     0.074 A 
ATOM     53  C   UNL A   1      44.585  26.064  26.198  1.00  0.00     0.031 C 
ATOM     54  C   UNL A   1      38.956  28.316  29.481  1.00  0.00     0.029 A 
ATOM     55  C   UNL A   1      40.087  29.238  29.455  1.00  0.00     0.049 A 
ATOM     56  H   UNL A   1      41.911  28.979  28.480  1.00  0.00     0.167 HD
ATOM     57  C   UNL A   1      45.800  28.176  26.621  1.00  0.00     0.034 A 
ATOM     58  C   UNL A   1      40.131  30.436  30.068  1.00  0.00     0.034 A 
ATOM     59  C   UNL A   1      45.881  29.527  27.104  1.00  0.00     0.049 A 
ATOM     60  C   UNL A   1      41.366  31.282  29.927  1.00  0.00     0.074 A 
ATOM     61  C   UNL A   1      46.923  30.427  26.975  1.00  0.00     0.029 A 
ATOM     62  N   UNL A   1      44.885  30.170  27.824  1.00  0.00    -0.354 N 
ATOM     63  N   UNL A   1      42.470  31.027  29.269  1.00  0.00    -0.248 NA
ATOM     64  C   UNL A   1      41.346  32.596  30.586  1.00  0.00     0.031 C 
ATOM     65  C   UNL A   1      46.573  31.599  27.654  1.00  0.00     0.029 A 
ATOM     66  C   UNL A   1      45.294  31.446  28.167  1.00  0.00     0.049 A 
ATOM     67  H   UNL A   1      44.014  29.775  28.058  1.00  0.00     0.167 HD
ATOM     68  C   UNL A   1      43.264  32.161  29.402  1.00  0.00     0.074 A 
ATOM     69  C   UNL A   1      42.504  33.110  30.191  1.00  0.00     0.031 C 
ATOM     70  C   UNL A   1      44.511  32.393  28.920  1.00  0.00     0.034 A 
BRANCH  57  71
ATOM     71  C   UNL A   1      47.003  27.571  25.943  1.00  0.00     0.023 A 
ATOM     72  C   UNL A   1      47.150  27.675  24.543  1.00  0.00     0.012 A 
ATOM     73  C   UNL A   1      47.996  26.906  26.690  1.00  0.00     0.148 A 
ATOM     74  C   UNL A   1      48.230  27.078  23.893  1.00  0.00     0.002 A 
ATOM     75  C   UNL A   1      49.098  26.362  26.041  1.00  0.00     0.091 A 
ATOM     76  F   UNL A   1      47.834  26.795  28.016  1.00  0.00    -0.205 F 
ATOM     77  C   UNL A   1      49.207  26.430  24.641  1.00  0.00     0.022 A 
BRANCH  75  78
ATOM     78  S   UNL A   1      50.452  25.582  26.926  1.00  0.00     0.127 S 
ATOM     79  O   UNL A   1      49.777  24.451  27.560  1.00  0.00    -0.237 OA
ATOM     80  O   UNL A   1      51.360  25.217  25.838  1.00  0.00    -0.237 OA
ATOM     81  O   UNL A   1      50.972  26.594  27.833  1.00  0.00    -0.744 OA
ENDBRANCH  75  78
ENDBRANCH  57  71
BRANCH  58  82
ATOM     82  C   UNL A   1      38.932  30.936  30.798  1.00  0.00     0.023 A 
ATOM     83  C   UNL A   1      38.862  30.770  32.196  1.00  0.00     0.012 A 
ATOM     84  C   UNL A   1      37.895  31.616  30.133  1.00  0.00     0.148 A 
ATOM     85  C   UNL A   1      37.767  31.252  32.914  1.00  0.00     0.002 A 
ATOM     86  C   UNL A   1      36.833  32.140  30.861  1.00  0.00     0.091 A 
ATOM     87  F   UNL A   1      37.983  31.760  28.803  1.00  0.00    -0.205 F 
ATOM     88  C   UNL A   1      36.759  31.945  32.249  1.00  0.00     0.022 A 
BRANCH  86  89
ATOM     89  S   UNL A   1      35.552  33.153  30.114  1.00  0.00     0.127 S 
ATOM     90  O   UNL A   1      34.833  33.638  31.289  1.00  0.00    -0.237 OA
ATOM     91  O   UNL A   1      36.343  34.164  29.413  1.00  0.00    -0.237 OA
ATOM     92  O   UNL A   1      34.800  32.261  29.242  1.00  0.00    -0.744 OA
ENDBRANCH  86  89
ENDBRANCH  58  82
BRANCH  70  93
ATOM     93  C   UNL A   1      45.126  33.741  29.196  1.00  0.00     0.023 A 
ATOM     94  C   UNL A   1      45.870  33.951  30.373  1.00  0.00     0.012 A 
ATOM     95  C   UNL A   1      45.027  34.778  28.246  1.00  0.00     0.148 A 
ATOM     96  C   UNL A   1      46.475  35.184  30.618  1.00  0.00     0.002 A 
ATOM     97  C   UNL A   1      45.679  35.984  28.471  1.00  0.00     0.091 A 
ATOM     98  F   UNL A   1      44.301  34.564  27.139  1.00  0.00    -0.205 F 
ATOM     99  C   UNL A   1      46.391  36.193  29.663  1.00  0.00     0.022 A 
BRANCH  97 100
ATOM    100  S   UNL A   1      45.712  37.302  27.253  1.00  0.00     0.127 S 
ATOM    101  O   UNL A   1      46.491  38.329  27.946  1.00  0.00    -0.237 OA
ATOM    102  O   UNL A   1      46.403  36.668  26.130  1.00  0.00    -0.237 OA
ATOM    103  O   UNL A   1      44.322  37.647  26.992  1.00  0.00    -0.744 OA
ENDBRANCH  97 100
ENDBRANCH  70  93
ENDBRANCH  44  45
ENDBRANCH  36  39
ENDBRANCH  34  35
ENDBRANCH  33  34
ENDBRANCH   1  33
TORSDOF 19
ENDMDL
MODEL 3
REMARK VINA RESULT:     -11.6      2.095      7.584
REMARK SMILES CCc1cccc(CC)c1N1/C(=[NH+]/C(=O)CCCC(=O)NCCCNC(=O)c2ccc(-c3c4nc(c(-c5cccc(S(=O)(=O)[O-])c5F)c5ccc([nH]5)c(-c5cccc(S(=O)(=O)[O-])c5F)c5nc(c(-c6cccc(S(=O)(=O)[O-])c6F)c6ccc3[nH]6)C=C5)C=C4)cc2)S[C@@H]2CS(=O)(=O)C[C@@H]21
REMARK SMILES IDX 22 1 21 2 19 3 20 4 18 6 17 7 16 8 14 9 11 10 12 11 98 12
REMARK SMILES IDX 13 13 91 14 92 15 97 16 93 18 94 19 15 20 95 21 96 22 10 23
REMARK SMILES IDX 3 24 4 25 5 26 7 27 6 28 2 29 1 30 8 31 9 32 23 33 24 34
REMARK SMILES IDX 25 35 26 36 27 38 28 39 29 40 90 41 30 42 89 43 31 44 32 45
REMARK SMILES IDX 33 46 83 47 34 48 88 49 82 50 84 51 35 52 87 53 81 54 80 55
REMARK SMILES IDX 36 57 68 58 48 59 67 60 49 61 52 62 66 63 85 64 50 65 51 66
REMARK SMILES IDX 65 68 86 69 53 70 37 71 38 72 46 73 39 74 41 75 47 76 40 77
REMARK SMILES IDX 42 78 43 79 44 80 45 81 69 82 70 83 78 84 71 85 73 86 79 87
REMARK SMILES IDX 72 88 74 89 75 90 76 91 77 92 54 93 55 94 63 95 56 96 58 97
REMARK SMILES IDX 64 98 57 99 59 100 60 101 61 102 62 103
REMARK H PARENT 21 5 13 17 25 37 84 56 52 67
REMARK Flexibility Score: inf
ROOT
ATOM      1  C   UNL A   1      33.399  22.003  26.630  1.00  0.00     0.117 C 
ENDROOT
BRANCH   1   2
ATOM      2  N   UNL A   1      33.041  20.945  25.707  1.00  0.00    -0.356 N 
ATOM      3  C   UNL A   1      32.488  21.049  24.464  1.00  0.00     0.220 C 
ATOM      4  O   UNL A   1      32.147  20.023  23.876  1.00  0.00    -0.275 OA
ATOM      5  H   UNL A   1      33.221  20.029  26.018  1.00  0.00     0.163 HD
BRANCH   3   6
ATOM      6  C   UNL A   1      32.399  22.405  23.800  1.00  0.00     0.100 C 
BRANCH   6   7
ATOM      7  C   UNL A   1      32.339  22.454  22.275  1.00  0.00     0.022 C 
BRANCH   7   8
ATOM      8  C   UNL A   1      32.912  23.679  21.554  1.00  0.00     0.128 C 
BRANCH   8   9
ATOM      9  C   UNL A   1      33.263  24.902  22.397  1.00  0.00     0.307 C 
ATOM     10  N   UNL A   1      31.438  27.835  23.594  1.00  0.00    -0.216 N 
ATOM     11  C   UNL A   1      32.321  26.967  22.947  1.00  0.00     0.319 C 
ATOM     12  C   UNL A   1      32.039  29.113  24.065  1.00  0.00     0.212 C 
ATOM     13  N   UNL A   1      32.206  25.693  22.783  1.00  0.00    -0.204 N 
ATOM     14  S   UNL A   1      33.726  27.923  22.417  1.00  0.00    -0.029 SA
ATOM     15  C   UNL A   1      33.560  29.013  23.845  1.00  0.00     0.120 C 
ATOM     16  C   UNL A   1      31.782  29.435  25.537  1.00  0.00     0.188 C 
ATOM     17  H   UNL A   1      31.330  25.272  22.938  1.00  0.00     0.316 HD
ATOM     18  C   UNL A   1      34.190  28.381  25.074  1.00  0.00     0.156 C 
ATOM     19  S   UNL A   1      33.304  29.138  26.408  1.00  0.00     0.155 S 
ATOM     20  O   UNL A   1      34.426  25.084  22.751  1.00  0.00    -0.247 OA
ATOM     21  O   UNL A   1      33.082  28.174  27.459  1.00  0.00    -0.229 OA
ATOM     22  O   UNL A   1      33.918  30.427  26.673  1.00  0.00    -0.229 OA
BRANCH  10  23
ATOM     23  C   UNL A   1      30.038  27.666  23.767  1.00  0.00     0.134 A 
ATOM     24  C   UNL A   1      29.084  28.381  22.981  1.00  0.00    -0.001 A 
ATOM     25  C   UNL A   1      27.714  28.037  23.067  1.00  0.00     0.008 A 
ATOM     26  C   UNL A   1      27.263  27.006  23.875  1.00  0.00     0.001 A 
ATOM     27  C   UNL A   1      29.537  26.670  24.677  1.00  0.00    -0.001 A 
ATOM     28  C   UNL A   1      28.168  26.328  24.669  1.00  0.00     0.008 A 
BRANCH  24  29
ATOM     29  C   UNL A   1      29.378  29.539  22.047  1.00  0.00     0.036 C 
ATOM     30  C   UNL A   1      28.209  30.357  21.553  1.00  0.00     0.009 C 
ENDBRANCH  24  29
BRANCH  27  31
ATOM     31  C   UNL A   1      30.398  25.923  25.688  1.00  0.00     0.036 C 
ATOM     32  C   UNL A   1      30.243  24.402  25.667  1.00  0.00     0.009 C 
ENDBRANCH  27  31
ENDBRANCH  10  23
ENDBRANCH   8   9
ENDBRANCH   7   8
ENDBRANCH   6   7
ENDBRANCH   3   6
ENDBRANCH   1   2
BRANCH   1  33
ATOM     33  C   UNL A   1      34.814  21.802  27.147  1.00  0.00     0.042 C 
BRANCH  33  34
ATOM     34  C   UNL A   1      35.857  22.266  26.157  1.00  0.00     0.118 C 
BRANCH  34  35
ATOM     35  N   UNL A   1      36.804  21.207  25.839  1.00  0.00    -0.352 N 
ATOM     36  C   UNL A   1      38.175  21.262  25.773  1.00  0.00     0.251 C 
ATOM     37  H   UNL A   1      36.406  20.328  25.645  1.00  0.00     0.163 HD
ATOM     38  O   UNL A   1      38.795  20.319  25.290  1.00  0.00    -0.269 OA
BRANCH  36  39
ATOM     39  C   UNL A   1      38.889  22.462  26.263  1.00  0.00     0.039 A 
ATOM     40  C   UNL A   1      40.006  22.301  27.085  1.00  0.00     0.014 A 
ATOM     41  C   UNL A   1      38.468  23.743  25.900  1.00  0.00     0.014 A 
ATOM     42  C   UNL A   1      40.727  23.423  27.497  1.00  0.00     0.010 A 
ATOM     43  C   UNL A   1      39.256  24.844  26.205  1.00  0.00     0.010 A 
ATOM     44  C   UNL A   1      40.376  24.702  27.034  1.00  0.00    -0.014 A 
BRANCH  44  45
ATOM     45  C   UNL A   1      41.146  25.910  27.424  1.00  0.00     0.031 A 
ATOM     46  C   UNL A   1      40.492  26.982  28.256  1.00  0.00     0.074 A 
ATOM     47  C   UNL A   1      42.398  26.083  26.962  1.00  0.00     0.049 A 
ATOM     48  N   UNL A   1      40.981  28.125  28.663  1.00  0.00    -0.248 NA
ATOM     49  C   UNL A   1      39.092  26.758  28.655  1.00  0.00     0.031 C 
ATOM     50  C   UNL A   1      43.111  25.155  26.080  1.00  0.00     0.029 A 
ATOM     51  N   UNL A   1      43.288  27.109  27.153  1.00  0.00    -0.354 N 
ATOM     52  C   UNL A   1      39.940  28.770  29.321  1.00  0.00     0.074 A 
ATOM     53  C   UNL A   1      38.780  27.915  29.215  1.00  0.00     0.031 C 
ATOM     54  C   UNL A   1      44.338  25.640  25.831  1.00  0.00     0.029 A 
ATOM     55  C   UNL A   1      44.485  26.930  26.499  1.00  0.00     0.049 A 
ATOM     56  H   UNL A   1      43.089  27.899  27.705  1.00  0.00     0.167 HD
ATOM     57  C   UNL A   1      39.954  29.952  29.982  1.00  0.00     0.034 A 
ATOM     58  C   UNL A   1      45.578  27.715  26.445  1.00  0.00     0.034 A 
ATOM     59  C   UNL A   1      41.123  30.777  30.114  1.00  0.00     0.049 A 
ATOM     60  C   UNL A   1      45.582  29.010  27.210  1.00  0.00     0.074 A 
ATOM     61  C   UNL A   1      41.276  31.943  30.843  1.00  0.00     0.029 A 
ATOM     62  N   UNL A   1      42.337  30.534  29.489  1.00  0.00    -0.354 N 
ATOM     63  N   UNL A   1      44.641  29.528  27.961  1.00  0.00    -0.248 NA
ATOM     64  C   UNL A   1      46.812  29.811  27.147  1.00  0.00     0.031 C 
ATOM     65  C   UNL A   1      42.570  32.426  30.624  1.00  0.00     0.029 A 
ATOM     66  C   UNL A   1      43.239  31.537  29.796  1.00  0.00     0.049 A 
ATOM     67  H   UNL A   1      42.529  29.760  28.911  1.00  0.00     0.167 HD
ATOM     68  C   UNL A   1      45.175  30.697  28.491  1.00  0.00     0.074 A 
ATOM     69  C   UNL A   1      46.530  30.800  27.986  1.00  0.00     0.031 C 
ATOM     70  C   UNL A   1      44.596  31.606  29.315  1.00  0.00     0.034 A 
BRANCH  57  71
ATOM     71  C   UNL A   1      38.670  30.396  30.635  1.00  0.00     0.023 A 
ATOM     72  C   UNL A   1      38.316  29.896  31.907  1.00  0.00     0.012 A 
ATOM     73  C   UNL A   1      37.814  31.316  29.996  1.00  0.00     0.148 A 
ATOM     74  C   UNL A   1      37.109  30.257  32.504  1.00  0.00     0.002 A 
ATOM     75  C   UNL A   1      36.639  31.713  30.623  1.00  0.00     0.091 A 
ATOM     76  F   UNL A   1      38.151  31.767  28.779  1.00  0.00    -0.205 F 
ATOM     77  C   UNL A   1      36.275  31.171  31.868  1.00  0.00     0.022 A 
BRANCH  75  78
ATOM     78  S   UNL A   1      35.542  32.950  29.923  1.00  0.00     0.127 S 
ATOM     79  O   UNL A   1      35.255  32.379  28.608  1.00  0.00    -0.237 OA
ATOM     80  O   UNL A   1      34.415  32.926  30.856  1.00  0.00    -0.237 OA
ATOM     81  O   UNL A   1      36.296  34.196  29.917  1.00  0.00    -0.744 OA
ENDBRANCH  75  78
ENDBRANCH  57  71
BRANCH  58  82
ATOM     82  C   UNL A   1      46.784  27.252  25.705  1.00  0.00     0.023 A 
ATOM     83  C   UNL A   1      47.661  26.339  26.324  1.00  0.00     0.012 A 
ATOM     84  C   UNL A   1      47.040  27.664  24.383  1.00  0.00     0.148 A 
ATOM     85  C   UNL A   1      48.785  25.863  25.648  1.00  0.00     0.002 A 
ATOM     86  C   UNL A   1      48.132  27.145  23.697  1.00  0.00     0.091 A 
ATOM     87  F   UNL A   1      46.194  28.534  23.816  1.00  0.00    -0.205 F 
ATOM     88  C   UNL A   1      49.014  26.257  24.333  1.00  0.00     0.022 A 
BRANCH  86  89
ATOM     89  S   UNL A   1      48.442  27.495  21.963  1.00  0.00     0.127 S 
ATOM     90  O   UNL A   1      47.219  28.193  21.576  1.00  0.00    -0.237 OA
ATOM     91  O   UNL A   1      49.636  28.337  22.039  1.00  0.00    -0.237 OA
ATOM     92  O   UNL A   1      48.653  26.201  21.329  1.00  0.00    -0.744 OA
ENDBRANCH  86  89
ENDBRANCH  58  82
BRANCH  70  93
ATOM     93  C   UNL A   1      45.433  32.778  29.760  1.00  0.00     0.023 A 
ATOM     94  C   UNL A   1      46.222  32.682  30.922  1.00  0.00     0.012 A 
ATOM     95  C   UNL A   1      45.491  33.951  28.980  1.00  0.00     0.148 A 
ATOM     96  C   UNL A   1      47.029  33.748  31.321  1.00  0.00     0.002 A 
ATOM     97  C   UNL A   1      46.338  34.986  29.352  1.00  0.00     0.091 A 
ATOM     98  F   UNL A   1      44.719  34.029  27.886  1.00  0.00    -0.205 F 
ATOM     99  C   UNL A   1      47.097  34.891  30.530  1.00  0.00     0.022 A 
BRANCH  97 100
ATOM    100  S   UNL A   1      46.569  36.452  28.342  1.00  0.00     0.127 S 
ATOM    101  O   UNL A   1      46.933  35.871  27.051  1.00  0.00    -0.237 OA
ATOM    102  O   UNL A   1      45.242  37.067  28.383  1.00  0.00    -0.237 OA
ATOM    103  O   UNL A   1      47.616  37.229  28.992  1.00  0.00    -0.744 OA
ENDBRANCH  97 100
ENDBRANCH  70  93
ENDBRANCH  44  45
ENDBRANCH  36  39
ENDBRANCH  34  35
ENDBRANCH  33  34
ENDBRANCH   1  33
TORSDOF 19
ENDMDL
