MODEL 1
REMARK VINA RESULT:     -10.4      0.000      0.000
REMARK SMILES CC[N@@H+](CCC(C)(C)O)C[C@@H](C)C(=O)NCCCNC(=O)c1ccc(-c2c3nc(c(-c4cccc(S(=O)(=O)[O-])c4F)c4ccc([nH]4)c(-c4cccc(S(=O)(=O)[O-])c4F)c4nc(c(-c5cccc(S(=O)(=O)[O-])c5F)c5ccc2[nH]5)C=C4)C=C3)cc1
REMARK SMILES IDX 13 1 14 2 15 3 11 5 12 6 10 7 3 8 2 10 1 11 4 12 5 13 6 14
REMARK SMILES IDX 7 15 8 16 9 17 16 19 17 20 18 21 19 22 20 23 21 25 22 26
REMARK SMILES IDX 23 27 84 28 24 29 83 30 25 31 26 32 27 33 77 34 28 35 82 36
REMARK SMILES IDX 76 37 78 38 29 39 81 40 75 41 74 42 30 44 62 45 42 46 61 47
REMARK SMILES IDX 43 48 46 49 60 50 79 51 44 52 45 53 59 55 80 56 47 57 31 58
REMARK SMILES IDX 32 59 40 60 33 61 35 62 41 63 34 64 36 65 37 66 38 67 39 68
REMARK SMILES IDX 63 69 64 70 72 71 65 72 67 73 73 74 66 75 68 76 69 77 70 78
REMARK SMILES IDX 71 79 48 80 49 81 57 82 50 83 52 84 58 85 51 86 53 87 54 88
REMARK SMILES IDX 55 89 56 90
REMARK H PARENT 15 4 3 9 9 18 19 24 78 43 46 54
REMARK Flexibility Score: inf
ROOT
ATOM      1  C   UNL A   1      32.968  28.717  24.879  1.00  0.00     0.228 C 
ATOM      2  O   UNL A   1      33.617  28.687  23.828  1.00  0.00    -0.275 OA
ATOM      3  N   UNL A   1      32.779  29.913  25.490  1.00  0.00    -0.356 N 
ATOM      4  H   UNL A   1      33.124  30.690  24.996  1.00  0.00     0.163 HD
ENDROOT
BRANCH   1   5
ATOM      5  C   UNL A   1      32.360  27.450  25.449  1.00  0.00     0.130 C 
ATOM      6  C   UNL A   1      33.398  26.683  26.262  1.00  0.00     0.024 C 
BRANCH   5   7
ATOM      7  C   UNL A   1      31.521  26.727  24.368  1.00  0.00     0.275 C 
BRANCH   7   8
ATOM      8  N   UNL A   1      30.731  27.511  23.422  1.00  0.00    -0.334 N 
ATOM      9  H   UNL A   1      31.141  28.431  23.583  1.00  0.00     0.348 HD
BRANCH   8  10
ATOM     10  C   UNL A   1      31.024  27.373  22.001  1.00  0.00     0.258 C 
ATOM     11  C   UNL A   1      31.776  26.089  21.639  1.00  0.00     0.071 C 
ENDBRANCH   8  10
BRANCH   8  12
ATOM     12  C   UNL A   1      29.319  27.720  23.776  1.00  0.00     0.265 C 
BRANCH  12  13
ATOM     13  C   UNL A   1      28.488  28.722  22.953  1.00  0.00     0.096 C 
BRANCH  13  14
ATOM     14  C   UNL A   1      28.918  30.220  23.004  1.00  0.00     0.064 C 
ATOM     15  C   UNL A   1      29.349  30.724  21.625  1.00  0.00     0.042 C 
ATOM     16  C   UNL A   1      27.748  31.070  23.521  1.00  0.00     0.042 C 
BRANCH  14  17
ATOM     17  O   UNL A   1      30.059  30.422  23.831  1.00  0.00    -0.390 OA
ATOM     18  H   UNL A   1      30.492  29.571  23.999  1.00  0.00     0.211 HD
ENDBRANCH  14  17
ENDBRANCH  13  14
ENDBRANCH  12  13
ENDBRANCH   8  12
ENDBRANCH   7   8
ENDBRANCH   5   7
ENDBRANCH   1   5
BRANCH   3  19
ATOM     19  C   UNL A   1      32.145  30.224  26.760  1.00  0.00     0.117 C 
BRANCH  19  20
ATOM     20  C   UNL A   1      31.863  31.712  26.891  1.00  0.00     0.042 C 
BRANCH  20  21
ATOM     21  C   UNL A   1      33.053  32.477  27.447  1.00  0.00     0.118 C 
BRANCH  21  22
ATOM     22  N   UNL A   1      32.746  33.898  27.619  1.00  0.00    -0.352 N 
ATOM     23  C   UNL A   1      33.125  34.742  28.634  1.00  0.00     0.251 C 
ATOM     24  H   UNL A   1      32.193  34.302  26.912  1.00  0.00     0.163 HD
ATOM     25  O   UNL A   1      32.540  35.798  28.825  1.00  0.00    -0.269 OA
BRANCH  23  26
ATOM     26  C   UNL A   1      34.258  34.333  29.480  1.00  0.00     0.039 A 
ATOM     27  C   UNL A   1      34.028  33.659  30.679  1.00  0.00     0.014 A 
ATOM     28  C   UNL A   1      35.555  34.569  29.021  1.00  0.00     0.014 A 
ATOM     29  C   UNL A   1      35.118  33.150  31.386  1.00  0.00     0.010 A 
ATOM     30  C   UNL A   1      36.620  33.962  29.662  1.00  0.00     0.010 A 
ATOM     31  C   UNL A   1      36.415  33.262  30.859  1.00  0.00    -0.014 A 
BRANCH  31  32
ATOM     32  C   UNL A   1      37.597  32.679  31.533  1.00  0.00     0.031 A 
ATOM     33  C   UNL A   1      38.326  31.538  30.876  1.00  0.00     0.074 A 
ATOM     34  C   UNL A   1      37.925  33.079  32.776  1.00  0.00     0.049 A 
ATOM     35  N   UNL A   1      39.279  30.784  31.354  1.00  0.00    -0.248 NA
ATOM     36  C   UNL A   1      37.893  31.166  29.516  1.00  0.00     0.031 C 
ATOM     37  C   UNL A   1      37.238  34.122  33.543  1.00  0.00     0.029 A 
ATOM     38  N   UNL A   1      38.899  32.629  33.632  1.00  0.00    -0.354 N 
ATOM     39  C   UNL A   1      39.522  29.823  30.380  1.00  0.00     0.074 A 
ATOM     40  C   UNL A   1      38.589  30.060  29.303  1.00  0.00     0.031 C 
ATOM     41  C   UNL A   1      37.812  34.233  34.751  1.00  0.00     0.029 A 
ATOM     42  C   UNL A   1      38.876  33.242  34.863  1.00  0.00     0.049 A 
ATOM     43  H   UNL A   1      39.550  31.933  33.387  1.00  0.00     0.167 HD
ATOM     44  C   UNL A   1      40.458  28.848  30.370  1.00  0.00     0.034 A 
ATOM     45  C   UNL A   1      39.619  33.014  35.964  1.00  0.00     0.034 A 
ATOM     46  C   UNL A   1      41.412  28.654  31.426  1.00  0.00     0.049 A 
ATOM     47  C   UNL A   1      40.680  31.947  35.914  1.00  0.00     0.074 A 
ATOM     48  C   UNL A   1      42.465  27.759  31.478  1.00  0.00     0.029 A 
ATOM     49  N   UNL A   1      41.423  29.361  32.617  1.00  0.00    -0.354 N 
ATOM     50  N   UNL A   1      40.993  31.143  34.928  1.00  0.00    -0.248 NA
ATOM     51  C   UNL A   1      41.513  31.778  37.114  1.00  0.00     0.031 C 
ATOM     52  C   UNL A   1      43.092  27.902  32.718  1.00  0.00     0.029 A 
ATOM     53  C   UNL A   1      42.459  28.918  33.418  1.00  0.00     0.049 A 
ATOM     54  H   UNL A   1      40.787  30.074  32.859  1.00  0.00     0.167 HD
ATOM     55  C   UNL A   1      42.087  30.407  35.368  1.00  0.00     0.074 A 
ATOM     56  C   UNL A   1      42.386  30.866  36.709  1.00  0.00     0.031 C 
ATOM     57  C   UNL A   1      42.777  29.434  34.724  1.00  0.00     0.034 A 
BRANCH  44  58
ATOM     58  C   UNL A   1      40.525  27.949  29.164  1.00  0.00     0.023 A 
ATOM     59  C   UNL A   1      39.625  26.869  29.044  1.00  0.00     0.012 A 
ATOM     60  C   UNL A   1      41.443  28.200  28.126  1.00  0.00     0.148 A 
ATOM     61  C   UNL A   1      39.664  26.031  27.932  1.00  0.00     0.002 A 
ATOM     62  C   UNL A   1      41.441  27.392  26.996  1.00  0.00     0.091 A 
ATOM     63  F   UNL A   1      42.305  29.218  28.267  1.00  0.00    -0.205 F 
ATOM     64  C   UNL A   1      40.564  26.300  26.903  1.00  0.00     0.022 A 
BRANCH  62  65
ATOM     65  S   UNL A   1      42.499  27.705  25.580  1.00  0.00     0.127 S 
ATOM     66  O   UNL A   1      43.821  27.749  26.202  1.00  0.00    -0.237 OA
ATOM     67  O   UNL A   1      42.254  26.524  24.750  1.00  0.00    -0.237 OA
ATOM     68  O   UNL A   1      42.040  28.960  25.002  1.00  0.00    -0.744 OA
ENDBRANCH  62  65
ENDBRANCH  44  58
BRANCH  45  69
ATOM     69  C   UNL A   1      39.425  33.848  37.183  1.00  0.00     0.023 A 
ATOM     70  C   UNL A   1      39.882  35.181  37.190  1.00  0.00     0.012 A 
ATOM     71  C   UNL A   1      38.773  33.342  38.324  1.00  0.00     0.148 A 
ATOM     72  C   UNL A   1      39.726  35.982  38.322  1.00  0.00     0.002 A 
ATOM     73  C   UNL A   1      38.571  34.162  39.428  1.00  0.00     0.091 A 
ATOM     74  F   UNL A   1      38.350  32.070  38.300  1.00  0.00    -0.205 F 
ATOM     75  C   UNL A   1      39.064  35.476  39.437  1.00  0.00     0.022 A 
BRANCH  73  76
ATOM     76  S   UNL A   1      37.618  33.640  40.858  1.00  0.00     0.127 S 
ATOM     77  O   UNL A   1      37.415  34.905  41.561  1.00  0.00    -0.237 OA
ATOM     78  O   UNL A   1      36.418  33.084  40.231  1.00  0.00    -0.237 OA
ATOM     79  O   UNL A   1      38.446  32.661  41.548  1.00  0.00    -0.744 OA
ENDBRANCH  73  76
ENDBRANCH  45  69
BRANCH  57  80
ATOM     80  C   UNL A   1      43.971  28.838  35.420  1.00  0.00     0.023 A 
ATOM     81  C   UNL A   1      45.235  29.446  35.304  1.00  0.00     0.012 A 
ATOM     82  C   UNL A   1      43.805  27.737  36.284  1.00  0.00     0.148 A 
ATOM     83  C   UNL A   1      46.324  28.951  36.022  1.00  0.00     0.002 A 
ATOM     84  C   UNL A   1      44.881  27.283  37.035  1.00  0.00     0.091 A 
ATOM     85  F   UNL A   1      42.594  27.165  36.364  1.00  0.00    -0.205 F 
ATOM     86  C   UNL A   1      46.143  27.882  36.897  1.00  0.00     0.022 A 
BRANCH  84  87
ATOM     87  S   UNL A   1      44.718  25.984  38.265  1.00  0.00     0.127 S 
ATOM     88  O   UNL A   1      46.107  25.565  38.439  1.00  0.00    -0.237 OA
ATOM     89  O   UNL A   1      44.151  26.708  39.403  1.00  0.00    -0.237 OA
ATOM     90  O   UNL A   1      43.836  24.983  37.681  1.00  0.00    -0.744 OA
ENDBRANCH  84  87
ENDBRANCH  57  80
ENDBRANCH  31  32
ENDBRANCH  23  26
ENDBRANCH  21  22
ENDBRANCH  20  21
ENDBRANCH  19  20
ENDBRANCH   3  19
TORSDOF 20
ENDMDL
MODEL 2
REMARK VINA RESULT:      -9.8      6.566     12.418
REMARK SMILES CC[N@@H+](CCC(C)(C)O)C[C@@H](C)C(=O)NCCCNC(=O)c1ccc(-c2c3nc(c(-c4cccc(S(=O)(=O)[O-])c4F)c4ccc([nH]4)c(-c4cccc(S(=O)(=O)[O-])c4F)c4nc(c(-c5cccc(S(=O)(=O)[O-])c5F)c5ccc2[nH]5)C=C4)C=C3)cc1
REMARK SMILES IDX 13 1 14 2 15 3 11 5 12 6 10 7 3 8 2 10 1 11 4 12 5 13 6 14
REMARK SMILES IDX 7 15 8 16 9 17 16 19 17 20 18 21 19 22 20 23 21 25 22 26
REMARK SMILES IDX 23 27 84 28 24 29 83 30 25 31 26 32 27 33 77 34 28 35 82 36
REMARK SMILES IDX 76 37 78 38 29 39 81 40 75 41 74 42 30 44 62 45 42 46 61 47
REMARK SMILES IDX 43 48 46 49 60 50 79 51 44 52 45 53 59 55 80 56 47 57 31 58
REMARK SMILES IDX 32 59 40 60 33 61 35 62 41 63 34 64 36 65 37 66 38 67 39 68
REMARK SMILES IDX 63 69 64 70 72 71 65 72 67 73 73 74 66 75 68 76 69 77 70 78
REMARK SMILES IDX 71 79 48 80 49 81 57 82 50 83 52 84 58 85 51 86 53 87 54 88
REMARK SMILES IDX 55 89 56 90
REMARK H PARENT 15 4 3 9 9 18 19 24 78 43 46 54
REMARK Flexibility Score: inf
ROOT
ATOM      1  C   UNL A   1      35.649  23.290  25.368  1.00  0.00     0.228 C 
ATOM      2  O   UNL A   1      35.785  24.456  25.751  1.00  0.00    -0.275 OA
ATOM      3  N   UNL A   1      36.395  22.323  25.958  1.00  0.00    -0.356 N 
ATOM      4  H   UNL A   1      36.947  22.628  26.712  1.00  0.00     0.163 HD
ENDROOT
BRANCH   1   5
ATOM      5  C   UNL A   1      34.639  22.942  24.291  1.00  0.00     0.130 C 
ATOM      6  C   UNL A   1      34.765  23.906  23.116  1.00  0.00     0.024 C 
BRANCH   5   7
ATOM      7  C   UNL A   1      33.258  22.658  24.927  1.00  0.00     0.275 C 
BRANCH   7   8
ATOM      8  N   UNL A   1      32.184  22.103  24.106  1.00  0.00    -0.334 N 
ATOM      9  H   UNL A   1      31.474  21.969  24.826  1.00  0.00     0.348 HD
BRANCH   8  10
ATOM     10  C   UNL A   1      31.452  23.007  23.228  1.00  0.00     0.258 C 
ATOM     11  C   UNL A   1      30.654  24.086  23.965  1.00  0.00     0.071 C 
ENDBRANCH   8  10
BRANCH   8  12
ATOM     12  C   UNL A   1      32.395  20.738  23.602  1.00  0.00     0.265 C 
BRANCH  12  13
ATOM     13  C   UNL A   1      32.779  19.630  24.602  1.00  0.00     0.096 C 
BRANCH  13  14
ATOM     14  C   UNL A   1      32.816  18.166  24.067  1.00  0.00     0.064 C 
ATOM     15  C   UNL A   1      32.525  18.113  22.566  1.00  0.00     0.042 C 
ATOM     16  C   UNL A   1      34.197  17.554  24.347  1.00  0.00     0.042 C 
BRANCH  14  17
ATOM     17  O   UNL A   1      31.805  17.354  24.655  1.00  0.00    -0.390 OA
ATOM     18  H   UNL A   1      31.190  17.914  25.153  1.00  0.00     0.211 HD
ENDBRANCH  14  17
ENDBRANCH  13  14
ENDBRANCH  12  13
ENDBRANCH   8  12
ENDBRANCH   7   8
ENDBRANCH   5   7
ENDBRANCH   1   5
BRANCH   3  19
ATOM     19  C   UNL A   1      36.503  20.907  25.650  1.00  0.00     0.117 C 
BRANCH  19  20
ATOM     20  C   UNL A   1      37.831  20.582  24.985  1.00  0.00     0.042 C 
BRANCH  20  21
ATOM     21  C   UNL A   1      39.017  20.908  25.879  1.00  0.00     0.118 C 
BRANCH  21  22
ATOM     22  N   UNL A   1      39.873  19.739  26.082  1.00  0.00    -0.352 N 
ATOM     23  C   UNL A   1      41.245  19.675  26.125  1.00  0.00     0.251 C 
ATOM     24  H   UNL A   1      39.403  18.882  26.205  1.00  0.00     0.163 HD
ATOM     25  O   UNL A   1      41.829  18.613  25.974  1.00  0.00    -0.269 OA
BRANCH  23  26
ATOM     26  C   UNL A   1      41.983  20.926  26.360  1.00  0.00     0.039 A 
ATOM     27  C   UNL A   1      42.268  21.780  25.294  1.00  0.00     0.014 A 
ATOM     28  C   UNL A   1      42.322  21.268  27.669  1.00  0.00     0.014 A 
ATOM     29  C   UNL A   1      42.833  23.028  25.562  1.00  0.00     0.010 A 
ATOM     30  C   UNL A   1      42.770  22.548  27.940  1.00  0.00     0.010 A 
ATOM     31  C   UNL A   1      43.047  23.434  26.890  1.00  0.00    -0.014 A 
BRANCH  31  32
ATOM     32  C   UNL A   1      43.579  24.773  27.233  1.00  0.00     0.031 A 
ATOM     33  C   UNL A   1      42.638  25.818  27.768  1.00  0.00     0.074 A 
ATOM     34  C   UNL A   1      44.856  25.082  26.939  1.00  0.00     0.049 A 
ATOM     35  N   UNL A   1      42.853  27.087  27.985  1.00  0.00    -0.248 NA
ATOM     36  C   UNL A   1      41.257  25.388  28.055  1.00  0.00     0.031 C 
ATOM     37  C   UNL A   1      45.836  24.171  26.342  1.00  0.00     0.029 A 
ATOM     38  N   UNL A   1      45.540  26.265  27.066  1.00  0.00    -0.354 N 
ATOM     39  C   UNL A   1      41.630  27.614  28.382  1.00  0.00     0.074 A 
ATOM     40  C   UNL A   1      40.666  26.539  28.334  1.00  0.00     0.031 C 
ATOM     41  C   UNL A   1      46.993  24.826  26.159  1.00  0.00     0.029 A 
ATOM     42  C   UNL A   1      46.826  26.212  26.581  1.00  0.00     0.049 A 
ATOM     43  H   UNL A   1      45.147  27.074  27.467  1.00  0.00     0.167 HD
ATOM     44  C   UNL A   1      41.341  28.873  28.779  1.00  0.00     0.034 A 
ATOM     45  C   UNL A   1      47.758  27.180  26.473  1.00  0.00     0.034 A 
ATOM     46  C   UNL A   1      42.319  29.921  28.868  1.00  0.00     0.049 A 
ATOM     47  C   UNL A   1      47.422  28.565  26.957  1.00  0.00     0.074 A 
ATOM     48  C   UNL A   1      42.158  31.208  29.347  1.00  0.00     0.029 A 
ATOM     49  N   UNL A   1      43.639  29.803  28.462  1.00  0.00    -0.354 N 
ATOM     50  N   UNL A   1      46.299  29.010  27.467  1.00  0.00    -0.248 NA
ATOM     51  C   UNL A   1      48.489  29.574  26.883  1.00  0.00     0.031 C 
ATOM     52  C   UNL A   1      43.374  31.880  29.198  1.00  0.00     0.029 A 
ATOM     53  C   UNL A   1      44.304  30.997  28.670  1.00  0.00     0.049 A 
ATOM     54  H   UNL A   1      44.044  28.990  28.081  1.00  0.00     0.167 HD
ATOM     55  C   UNL A   1      46.538  30.334  27.818  1.00  0.00     0.074 A 
ATOM     56  C   UNL A   1      47.915  30.616  27.468  1.00  0.00     0.031 C 
ATOM     57  C   UNL A   1      45.692  31.236  28.373  1.00  0.00     0.034 A 
BRANCH  44  58
ATOM     58  C   UNL A   1      39.924  29.174  29.188  1.00  0.00     0.023 A 
ATOM     59  C   UNL A   1      38.938  29.383  28.200  1.00  0.00     0.012 A 
ATOM     60  C   UNL A   1      39.554  29.201  30.546  1.00  0.00     0.148 A 
ATOM     61  C   UNL A   1      37.619  29.654  28.557  1.00  0.00     0.002 A 
ATOM     62  C   UNL A   1      38.227  29.420  30.894  1.00  0.00     0.091 A 
ATOM     63  F   UNL A   1      40.508  29.023  31.472  1.00  0.00    -0.205 F 
ATOM     64  C   UNL A   1      37.262  29.660  29.903  1.00  0.00     0.022 A 
BRANCH  62  65
ATOM     65  S   UNL A   1      37.649  29.363  32.592  1.00  0.00     0.127 S 
ATOM     66  O   UNL A   1      36.307  29.930  32.467  1.00  0.00    -0.237 OA
ATOM     67  O   UNL A   1      37.680  27.927  32.877  1.00  0.00    -0.237 OA
ATOM     68  O   UNL A   1      38.591  30.158  33.367  1.00  0.00    -0.744 OA
ENDBRANCH  62  65
ENDBRANCH  44  58
BRANCH  45  69
ATOM     69  C   UNL A   1      49.110  26.860  25.937  1.00  0.00     0.023 A 
ATOM     70  C   UNL A   1      49.994  26.081  26.710  1.00  0.00     0.012 A 
ATOM     71  C   UNL A   1      49.519  27.298  24.663  1.00  0.00     0.148 A 
ATOM     72  C   UNL A   1      51.273  25.776  26.241  1.00  0.00     0.002 A 
ATOM     73  C   UNL A   1      50.772  26.944  24.177  1.00  0.00     0.091 A 
ATOM     74  F   UNL A   1      48.665  28.042  23.945  1.00  0.00    -0.205 F 
ATOM     75  C   UNL A   1      51.658  26.200  24.972  1.00  0.00     0.022 A 
BRANCH  73  76
ATOM     76  S   UNL A   1      51.307  27.334  22.508  1.00  0.00     0.127 S 
ATOM     77  O   UNL A   1      51.256  28.795  22.511  1.00  0.00    -0.237 OA
ATOM     78  O   UNL A   1      52.655  26.765  22.485  1.00  0.00    -0.237 OA
ATOM     79  O   UNL A   1      50.358  26.671  21.624  1.00  0.00    -0.744 OA
ENDBRANCH  73  76
ENDBRANCH  45  69
BRANCH  57  80
ATOM     80  C   UNL A   1      46.237  32.598  28.709  1.00  0.00     0.023 A 
ATOM     81  C   UNL A   1      46.840  32.832  29.958  1.00  0.00     0.012 A 
ATOM     82  C   UNL A   1      46.247  33.613  27.730  1.00  0.00     0.148 A 
ATOM     83  C   UNL A   1      47.429  34.066  30.237  1.00  0.00     0.002 A 
ATOM     84  C   UNL A   1      46.881  34.819  27.995  1.00  0.00     0.091 A 
ATOM     85  F   UNL A   1      45.650  33.371  26.553  1.00  0.00    -0.205 F 
ATOM     86  C   UNL A   1      47.462  35.051  29.252  1.00  0.00     0.022 A 
BRANCH  84  87
ATOM     87  S   UNL A   1      47.067  36.104  26.754  1.00  0.00     0.127 S 
ATOM     88  O   UNL A   1      47.722  35.375  25.669  1.00  0.00    -0.237 OA
ATOM     89  O   UNL A   1      45.678  36.476  26.488  1.00  0.00    -0.237 OA
ATOM     90  O   UNL A   1      47.869  37.151  27.372  1.00  0.00    -0.744 OA
ENDBRANCH  84  87
ENDBRANCH  57  80
ENDBRANCH  31  32
ENDBRANCH  23  26
ENDBRANCH  21  22
ENDBRANCH  20  21
ENDBRANCH  19  20
ENDBRANCH   3  19
TORSDOF 20
ENDMDL
MODEL 3
REMARK VINA RESULT:      -9.7      1.478      2.501
REMARK SMILES CC[N@@H+](CCC(C)(C)O)C[C@@H](C)C(=O)NCCCNC(=O)c1ccc(-c2c3nc(c(-c4cccc(S(=O)(=O)[O-])c4F)c4ccc([nH]4)c(-c4cccc(S(=O)(=O)[O-])c4F)c4nc(c(-c5cccc(S(=O)(=O)[O-])c5F)c5ccc2[nH]5)C=C4)C=C3)cc1
REMARK SMILES IDX 13 1 14 2 15 3 11 5 12 6 10 7 3 8 2 10 1 11 4 12 5 13 6 14
REMARK SMILES IDX 7 15 8 16 9 17 16 19 17 20 18 21 19 22 20 23 21 25 22 26
REMARK SMILES IDX 23 27 84 28 24 29 83 30 25 31 26 32 27 33 77 34 28 35 82 36
REMARK SMILES IDX 76 37 78 38 29 39 81 40 75 41 74 42 30 44 62 45 42 46 61 47
REMARK SMILES IDX 43 48 46 49 60 50 79 51 44 52 45 53 59 55 80 56 47 57 31 58
REMARK SMILES IDX 32 59 40 60 33 61 35 62 41 63 34 64 36 65 37 66 38 67 39 68
REMARK SMILES IDX 63 69 64 70 72 71 65 72 67 73 73 74 66 75 68 76 69 77 70 78
REMARK SMILES IDX 71 79 48 80 49 81 57 82 50 83 52 84 58 85 51 86 53 87 54 88
REMARK SMILES IDX 55 89 56 90
REMARK H PARENT 15 4 3 9 9 18 19 24 78 43 46 54
REMARK Flexibility Score: inf
ROOT
ATOM      1  C   UNL A   1      33.746  28.641  26.360  1.00  0.00     0.228 C 
ATOM      2  O   UNL A   1      34.840  28.337  26.845  1.00  0.00    -0.275 OA
ATOM      3  N   UNL A   1      33.318  29.923  26.478  1.00  0.00    -0.356 N 
ATOM      4  H   UNL A   1      33.964  30.539  26.891  1.00  0.00     0.163 HD
ENDROOT
BRANCH   1   5
ATOM      5  C   UNL A   1      32.919  27.614  25.611  1.00  0.00     0.130 C 
ATOM      6  C   UNL A   1      31.915  26.955  26.551  1.00  0.00     0.024 C 
BRANCH   5   7
ATOM      7  C   UNL A   1      33.831  26.750  24.709  1.00  0.00     0.275 C 
BRANCH   7   8
ATOM      8  N   UNL A   1      33.282  25.572  24.040  1.00  0.00    -0.334 N 
ATOM      9  H   UNL A   1      32.634  25.257  24.762  1.00  0.00     0.348 HD
BRANCH   8  10
ATOM     10  C   UNL A   1      32.333  25.778  22.954  1.00  0.00     0.258 C 
ATOM     11  C   UNL A   1      32.959  26.347  21.677  1.00  0.00     0.071 C 
ENDBRANCH   8  10
BRANCH   8  12
ATOM     12  C   UNL A   1      34.192  24.426  23.899  1.00  0.00     0.265 C 
BRANCH  12  13
ATOM     13  C   UNL A   1      33.645  23.009  24.156  1.00  0.00     0.096 C 
BRANCH  13  14
ATOM     14  C   UNL A   1      32.911  22.760  25.509  1.00  0.00     0.064 C 
ATOM     15  C   UNL A   1      31.399  22.940  25.365  1.00  0.00     0.042 C 
ATOM     16  C   UNL A   1      33.216  21.337  26.001  1.00  0.00     0.042 C 
BRANCH  14  17
ATOM     17  O   UNL A   1      33.289  23.703  26.506  1.00  0.00    -0.390 OA
ATOM     18  H   UNL A   1      34.057  23.367  26.993  1.00  0.00     0.211 HD
ENDBRANCH  14  17
ENDBRANCH  13  14
ENDBRANCH  12  13
ENDBRANCH   8  12
ENDBRANCH   7   8
ENDBRANCH   5   7
ENDBRANCH   1   5
BRANCH   3  19
ATOM     19  C   UNL A   1      32.055  30.527  26.089  1.00  0.00     0.117 C 
BRANCH  19  20
ATOM     20  C   UNL A   1      31.711  31.715  26.973  1.00  0.00     0.042 C 
BRANCH  20  21
ATOM     21  C   UNL A   1      32.950  32.450  27.457  1.00  0.00     0.118 C 
BRANCH  21  22
ATOM     22  N   UNL A   1      32.710  33.890  27.572  1.00  0.00    -0.352 N 
ATOM     23  C   UNL A   1      33.142  34.759  28.545  1.00  0.00     0.251 C 
ATOM     24  H   UNL A   1      32.165  34.289  26.855  1.00  0.00     0.163 HD
ATOM     25  O   UNL A   1      32.608  35.847  28.697  1.00  0.00    -0.269 OA
BRANCH  23  26
ATOM     26  C   UNL A   1      34.268  34.334  29.392  1.00  0.00     0.039 A 
ATOM     27  C   UNL A   1      34.028  33.633  30.574  1.00  0.00     0.014 A 
ATOM     28  C   UNL A   1      35.569  34.584  28.952  1.00  0.00     0.014 A 
ATOM     29  C   UNL A   1      35.113  33.111  31.281  1.00  0.00     0.010 A 
ATOM     30  C   UNL A   1      36.628  33.966  29.590  1.00  0.00     0.010 A 
ATOM     31  C   UNL A   1      36.414  33.239  30.769  1.00  0.00    -0.014 A 
BRANCH  31  32
ATOM     32  C   UNL A   1      37.592  32.645  31.442  1.00  0.00     0.031 A 
ATOM     33  C   UNL A   1      38.313  31.502  30.781  1.00  0.00     0.074 A 
ATOM     34  C   UNL A   1      37.921  33.038  32.687  1.00  0.00     0.049 A 
ATOM     35  N   UNL A   1      39.260  30.739  31.257  1.00  0.00    -0.248 NA
ATOM     36  C   UNL A   1      37.879  31.139  29.419  1.00  0.00     0.031 C 
ATOM     37  C   UNL A   1      37.240  34.083  33.457  1.00  0.00     0.029 A 
ATOM     38  N   UNL A   1      38.890  32.578  33.542  1.00  0.00    -0.354 N 
ATOM     39  C   UNL A   1      39.497  29.780  30.279  1.00  0.00     0.074 A 
ATOM     40  C   UNL A   1      38.567  30.028  29.202  1.00  0.00     0.031 C 
ATOM     41  C   UNL A   1      37.814  34.184  34.667  1.00  0.00     0.029 A 
ATOM     42  C   UNL A   1      38.871  33.185  34.776  1.00  0.00     0.049 A 
ATOM     43  H   UNL A   1      39.537  31.877  33.295  1.00  0.00     0.167 HD
ATOM     44  C   UNL A   1      40.427  28.799  30.266  1.00  0.00     0.034 A 
ATOM     45  C   UNL A   1      39.611  32.948  35.877  1.00  0.00     0.034 A 
ATOM     46  C   UNL A   1      41.378  28.593  31.322  1.00  0.00     0.049 A 
ATOM     47  C   UNL A   1      40.665  31.874  35.823  1.00  0.00     0.074 A 
ATOM     48  C   UNL A   1      42.424  27.691  31.371  1.00  0.00     0.029 A 
ATOM     49  N   UNL A   1      41.392  29.296  32.517  1.00  0.00    -0.354 N 
ATOM     50  N   UNL A   1      40.973  31.071  34.834  1.00  0.00    -0.248 NA
ATOM     51  C   UNL A   1      41.494  31.694  37.023  1.00  0.00     0.031 C 
ATOM     52  C   UNL A   1      43.051  27.825  32.613  1.00  0.00     0.029 A 
ATOM     53  C   UNL A   1      42.424  28.842  33.317  1.00  0.00     0.049 A 
ATOM     54  H   UNL A   1      40.761  30.012  32.760  1.00  0.00     0.167 HD
ATOM     55  C   UNL A   1      42.061  30.326  35.272  1.00  0.00     0.074 A 
ATOM     56  C   UNL A   1      42.362  30.777  36.615  1.00  0.00     0.031 C 
ATOM     57  C   UNL A   1      42.744  29.350  34.625  1.00  0.00     0.034 A 
BRANCH  44  58
ATOM     58  C   UNL A   1      40.488  27.905  29.056  1.00  0.00     0.023 A 
ATOM     59  C   UNL A   1      39.559  26.852  28.915  1.00  0.00     0.012 A 
ATOM     60  C   UNL A   1      41.431  28.134  28.036  1.00  0.00     0.148 A 
ATOM     61  C   UNL A   1      39.594  26.018  27.799  1.00  0.00     0.002 A 
ATOM     62  C   UNL A   1      41.425  27.332  26.902  1.00  0.00     0.091 A 
ATOM     63  F   UNL A   1      42.320  29.125  28.198  1.00  0.00    -0.205 F 
ATOM     64  C   UNL A   1      40.518  26.266  26.788  1.00  0.00     0.022 A 
BRANCH  62  65
ATOM     65  S   UNL A   1      42.517  27.620  25.506  1.00  0.00     0.127 S 
ATOM     66  O   UNL A   1      42.281  26.427  24.694  1.00  0.00    -0.237 OA
ATOM     67  O   UNL A   1      41.973  28.858  24.944  1.00  0.00    -0.237 OA
ATOM     68  O   UNL A   1      43.858  27.741  26.060  1.00  0.00    -0.744 OA
ENDBRANCH  62  65
ENDBRANCH  44  58
BRANCH  45  69
ATOM     69  C   UNL A   1      39.422  33.778  37.099  1.00  0.00     0.023 A 
ATOM     70  C   UNL A   1      39.922  35.095  37.126  1.00  0.00     0.012 A 
ATOM     71  C   UNL A   1      38.731  33.284  38.223  1.00  0.00     0.148 A 
ATOM     72  C   UNL A   1      39.771  35.892  38.261  1.00  0.00     0.002 A 
ATOM     73  C   UNL A   1      38.535  34.102  39.330  1.00  0.00     0.091 A 
ATOM     74  F   UNL A   1      38.267  32.027  38.180  1.00  0.00    -0.205 F 
ATOM     75  C   UNL A   1      39.072  35.399  39.359  1.00  0.00     0.022 A 
BRANCH  73  76
ATOM     76  S   UNL A   1      37.539  33.601  40.737  1.00  0.00     0.127 S 
ATOM     77  O   UNL A   1      37.421  34.853  41.482  1.00  0.00    -0.237 OA
ATOM     78  O   UNL A   1      36.307  33.152  40.087  1.00  0.00    -0.237 OA
ATOM     79  O   UNL A   1      38.293  32.543  41.397  1.00  0.00    -0.744 OA
ENDBRANCH  73  76
ENDBRANCH  45  69
BRANCH  57  80
ATOM     80  C   UNL A   1      43.934  28.743  35.320  1.00  0.00     0.023 A 
ATOM     81  C   UNL A   1      45.213  29.305  35.156  1.00  0.00     0.012 A 
ATOM     82  C   UNL A   1      43.751  27.680  36.228  1.00  0.00     0.148 A 
ATOM     83  C   UNL A   1      46.300  28.803  35.871  1.00  0.00     0.002 A 
ATOM     84  C   UNL A   1      44.827  27.221  36.975  1.00  0.00     0.091 A 
ATOM     85  F   UNL A   1      42.525  27.151  36.353  1.00  0.00    -0.205 F 
ATOM     86  C   UNL A   1      46.104  27.774  36.789  1.00  0.00     0.022 A 
BRANCH  84  87
ATOM     87  S   UNL A   1      44.649  25.975  38.256  1.00  0.00     0.127 S 
ATOM     88  O   UNL A   1      43.805  26.667  39.228  1.00  0.00    -0.237 OA
ATOM     89  O   UNL A   1      43.987  24.888  37.536  1.00  0.00    -0.237 OA
ATOM     90  O   UNL A   1      45.998  25.668  38.713  1.00  0.00    -0.744 OA
ENDBRANCH  84  87
ENDBRANCH  57  80
ENDBRANCH  31  32
ENDBRANCH  23  26
ENDBRANCH  21  22
ENDBRANCH  20  21
ENDBRANCH  19  20
ENDBRANCH   3  19
TORSDOF 20
ENDMDL
