MODEL 1
REMARK VINA RESULT:     -10.7      0.000      0.000
REMARK SMILES [NH3+][C@H](CCC(=O)NCCCNC(=O)c1ccc(-c2c3nc(c(-c4cccc(S(=O)(=O)[O-])c4F)c4ccc([nH]4)c(-c4cccc(S(=O)(=O)[O-])c4F)c4nc(c(-c5cccc(S(=O)(=O)[O-])c5F)c5ccc2[nH]5)C=C4)C=C3)cc1)c1nccc2[nH]ccc12
REMARK SMILES IDX 9 1 8 2 7 3 5 4 6 5 4 7 3 8 2 9 1 10 77 14 78 15 85 16 79 17
REMARK SMILES IDX 81 18 84 19 80 20 82 21 83 22 10 24 11 25 12 26 13 28 14 29
REMARK SMILES IDX 15 30 76 31 16 32 75 33 17 34 18 35 19 36 69 37 20 38 74 39
REMARK SMILES IDX 68 40 70 41 21 42 73 43 67 44 66 45 22 47 54 48 34 49 53 50
REMARK SMILES IDX 35 51 38 52 52 53 71 54 36 55 37 56 51 58 72 59 39 60 23 61
REMARK SMILES IDX 24 62 32 63 25 64 27 65 33 66 26 67 28 68 29 69 30 70 31 71
REMARK SMILES IDX 55 72 56 73 64 74 57 75 59 76 65 77 58 78 60 79 61 80 62 81
REMARK SMILES IDX 63 82 40 83 41 84 49 85 42 86 44 87 50 88 43 89 45 90 46 91
REMARK SMILES IDX 47 92 48 93
REMARK H PARENT 7 6 1 11 1 12 1 13 82 23 11 27 70 46 38 57
REMARK Flexibility Score: inf
ROOT
ATOM      1  C   UNL A   1      34.501  34.334  28.940  1.00  0.00     0.042 C 
ENDROOT
BRANCH   1   2
ATOM      2  C   UNL A   1      33.106  34.902  28.793  1.00  0.00     0.117 C 
BRANCH   2   3
ATOM      3  N   UNL A   1      32.898  36.191  29.388  1.00  0.00    -0.356 N 
ATOM      4  C   UNL A   1      32.950  36.525  30.705  1.00  0.00     0.220 C 
ATOM      5  O   UNL A   1      32.962  37.736  30.960  1.00  0.00    -0.275 OA
ATOM      6  H   UNL A   1      32.692  36.925  28.765  1.00  0.00     0.163 HD
BRANCH   4   7
ATOM      7  C   UNL A   1      33.083  35.514  31.851  1.00  0.00     0.106 C 
BRANCH   7   8
ATOM      8  C   UNL A   1      34.366  35.421  32.690  1.00  0.00     0.082 C 
BRANCH   8   9
ATOM      9  C   UNL A   1      34.733  34.118  33.469  1.00  0.00     0.232 C 
BRANCH   9  10
ATOM     10  N   UNL A   1      33.524  33.257  33.566  1.00  0.00    -0.350 N 
ATOM     11  H   UNL A   1      33.091  33.381  34.481  1.00  0.00     0.345 HD
ATOM     12  H   UNL A   1      33.793  32.279  33.447  1.00  0.00     0.345 HD
ATOM     13  H   UNL A   1      32.860  33.518  32.838  1.00  0.00     0.345 HD
ENDBRANCH   9  10
BRANCH   9  14
ATOM     14  C   UNL A   1      36.004  33.330  33.055  1.00  0.00     0.107 A 
ATOM     15  N   UNL A   1      36.326  32.220  33.792  1.00  0.00    -0.254 NA
ATOM     16  C   UNL A   1      37.140  33.946  32.469  1.00  0.00     0.027 A 
ATOM     17  C   UNL A   1      37.525  32.192  34.425  1.00  0.00     0.114 A 
ATOM     18  C   UNL A   1      38.318  33.946  33.225  1.00  0.00     0.049 A 
ATOM     19  C   UNL A   1      37.641  33.991  31.125  1.00  0.00     0.030 A 
ATOM     20  C   UNL A   1      38.477  33.187  34.371  1.00  0.00     0.047 A 
ATOM     21  N   UNL A   1      39.245  34.655  32.500  1.00  0.00    -0.361 N 
ATOM     22  C   UNL A   1      38.962  34.393  31.179  1.00  0.00     0.083 A 
ATOM     23  H   UNL A   1      39.962  35.230  32.851  1.00  0.00     0.166 HD
ENDBRANCH   9  14
ENDBRANCH   8   9
ENDBRANCH   7   8
ENDBRANCH   4   7
ENDBRANCH   2   3
ENDBRANCH   1   2
BRANCH   1  24
ATOM     24  C   UNL A   1      34.495  32.909  29.445  1.00  0.00     0.118 C 
BRANCH  24  25
ATOM     25  N   UNL A   1      33.923  31.970  28.479  1.00  0.00    -0.352 N 
ATOM     26  C   UNL A   1      34.492  30.876  27.875  1.00  0.00     0.251 C 
ATOM     27  H   UNL A   1      32.990  32.149  28.224  1.00  0.00     0.163 HD
ATOM     28  O   UNL A   1      33.900  30.328  26.937  1.00  0.00    -0.269 OA
BRANCH  26  29
ATOM     29  C   UNL A   1      35.804  30.362  28.329  1.00  0.00     0.039 A 
ATOM     30  C   UNL A   1      35.884  29.579  29.482  1.00  0.00     0.014 A 
ATOM     31  C   UNL A   1      36.966  30.661  27.617  1.00  0.00     0.014 A 
ATOM     32  C   UNL A   1      37.122  29.076  29.890  1.00  0.00     0.010 A 
ATOM     33  C   UNL A   1      38.157  30.025  27.925  1.00  0.00     0.010 A 
ATOM     34  C   UNL A   1      38.267  29.282  29.102  1.00  0.00    -0.014 A 
BRANCH  34  35
ATOM     35  C   UNL A   1      39.608  28.815  29.533  1.00  0.00     0.031 A 
ATOM     36  C   UNL A   1      40.320  29.525  30.661  1.00  0.00     0.074 A 
ATOM     37  C   UNL A   1      40.202  27.794  28.886  1.00  0.00     0.049 A 
ATOM     38  N   UNL A   1      41.490  29.273  31.185  1.00  0.00    -0.248 NA
ATOM     39  C   UNL A   1      39.650  30.700  31.251  1.00  0.00     0.031 C 
ATOM     40  C   UNL A   1      39.657  27.098  27.717  1.00  0.00     0.029 A 
ATOM     41  N   UNL A   1      41.401  27.171  29.112  1.00  0.00    -0.354 N 
ATOM     42  C   UNL A   1      41.708  30.273  32.126  1.00  0.00     0.074 A 
ATOM     43  C   UNL A   1      40.585  31.176  32.058  1.00  0.00     0.031 C 
ATOM     44  C   UNL A   1      40.503  26.121  27.353  1.00  0.00     0.029 A 
ATOM     45  C   UNL A   1      41.661  26.141  28.239  1.00  0.00     0.049 A 
ATOM     46  H   UNL A   1      42.019  27.436  29.832  1.00  0.00     0.167 HD
ATOM     47  C   UNL A   1      42.727  30.408  33.007  1.00  0.00     0.034 A 
ATOM     48  C   UNL A   1      42.713  25.302  28.174  1.00  0.00     0.034 A 
ATOM     49  C   UNL A   1      43.811  29.474  33.107  1.00  0.00     0.049 A 
ATOM     50  C   UNL A   1      43.797  25.425  29.208  1.00  0.00     0.074 A 
ATOM     51  C   UNL A   1      44.855  29.457  34.013  1.00  0.00     0.029 A 
ATOM     52  N   UNL A   1      43.992  28.387  32.265  1.00  0.00    -0.354 N 
ATOM     53  N   UNL A   1      43.910  26.289  30.189  1.00  0.00    -0.248 NA
ATOM     54  C   UNL A   1      44.875  24.427  29.158  1.00  0.00     0.031 C 
ATOM     55  C   UNL A   1      45.685  28.376  33.699  1.00  0.00     0.029 A 
ATOM     56  C   UNL A   1      45.130  27.692  32.628  1.00  0.00     0.049 A 
ATOM     57  H   UNL A   1      43.397  28.146  31.519  1.00  0.00     0.167 HD
ATOM     58  C   UNL A   1      45.042  25.912  30.900  1.00  0.00     0.074 A 
ATOM     59  C   UNL A   1      45.568  24.730  30.247  1.00  0.00     0.031 C 
ATOM     60  C   UNL A   1      45.604  26.491  31.990  1.00  0.00     0.034 A 
BRANCH  47  61
ATOM     61  C   UNL A   1      42.684  31.578  33.957  1.00  0.00     0.023 A 
ATOM     62  C   UNL A   1      43.197  32.830  33.556  1.00  0.00     0.012 A 
ATOM     63  C   UNL A   1      42.104  31.450  35.233  1.00  0.00     0.148 A 
ATOM     64  C   UNL A   1      43.176  33.921  34.423  1.00  0.00     0.002 A 
ATOM     65  C   UNL A   1      42.037  32.557  36.073  1.00  0.00     0.091 A 
ATOM     66  F   UNL A   1      41.643  30.250  35.609  1.00  0.00    -0.205 F 
ATOM     67  C   UNL A   1      42.587  33.787  35.677  1.00  0.00     0.022 A 
BRANCH  65  68
ATOM     68  S   UNL A   1      41.220  32.512  37.672  1.00  0.00     0.127 S 
ATOM     69  O   UNL A   1      41.238  33.924  38.051  1.00  0.00    -0.237 OA
ATOM     70  O   UNL A   1      39.899  31.990  37.325  1.00  0.00    -0.237 OA
ATOM     71  O   UNL A   1      42.022  31.632  38.510  1.00  0.00    -0.744 OA
ENDBRANCH  65  68
ENDBRANCH  47  61
BRANCH  48  72
ATOM     72  C   UNL A   1      42.745  24.223  27.144  1.00  0.00     0.023 A 
ATOM     73  C   UNL A   1      43.457  24.425  25.945  1.00  0.00     0.012 A 
ATOM     74  C   UNL A   1      42.096  22.993  27.358  1.00  0.00     0.148 A 
ATOM     75  C   UNL A   1      43.486  23.437  24.960  1.00  0.00     0.002 A 
ATOM     76  C   UNL A   1      42.178  21.991  26.398  1.00  0.00     0.091 A 
ATOM     77  F   UNL A   1      41.421  22.822  28.504  1.00  0.00    -0.205 F 
ATOM     78  C   UNL A   1      42.855  22.218  25.190  1.00  0.00     0.022 A 
BRANCH  76  79
ATOM     79  S   UNL A   1      41.508  20.346  26.663  1.00  0.00     0.127 S 
ATOM     80  O   UNL A   1      41.895  19.664  25.431  1.00  0.00    -0.237 OA
ATOM     81  O   UNL A   1      42.232  19.917  27.861  1.00  0.00    -0.237 OA
ATOM     82  O   UNL A   1      40.078  20.531  26.862  1.00  0.00    -0.744 OA
ENDBRANCH  76  79
ENDBRANCH  48  72
BRANCH  60  83
ATOM     83  C   UNL A   1      46.813  25.820  32.585  1.00  0.00     0.023 A 
ATOM     84  C   UNL A   1      48.108  26.188  32.171  1.00  0.00     0.012 A 
ATOM     85  C   UNL A   1      46.659  24.854  33.599  1.00  0.00     0.148 A 
ATOM     86  C   UNL A   1      49.229  25.567  32.718  1.00  0.00     0.002 A 
ATOM     87  C   UNL A   1      47.781  24.282  34.182  1.00  0.00     0.091 A 
ATOM     88  F   UNL A   1      45.418  24.505  33.969  1.00  0.00    -0.205 F 
ATOM     89  C   UNL A   1      49.066  24.623  33.730  1.00  0.00     0.022 A 
BRANCH  87  90
ATOM     90  S   UNL A   1      47.664  23.141  35.563  1.00  0.00     0.127 S 
ATOM     91  O   UNL A   1      46.931  23.937  36.546  1.00  0.00    -0.237 OA
ATOM     92  O   UNL A   1      46.902  22.032  34.985  1.00  0.00    -0.237 OA
ATOM     93  O   UNL A   1      49.035  22.806  35.922  1.00  0.00    -0.744 OA
ENDBRANCH  87  90
ENDBRANCH  60  83
ENDBRANCH  34  35
ENDBRANCH  26  29
ENDBRANCH  24  25
ENDBRANCH   1  24
TORSDOF 17
ENDMDL
MODEL 2
REMARK VINA RESULT:     -10.5      4.988     12.259
REMARK SMILES [NH3+][C@H](CCC(=O)NCCCNC(=O)c1ccc(-c2c3nc(c(-c4cccc(S(=O)(=O)[O-])c4F)c4ccc([nH]4)c(-c4cccc(S(=O)(=O)[O-])c4F)c4nc(c(-c5cccc(S(=O)(=O)[O-])c5F)c5ccc2[nH]5)C=C4)C=C3)cc1)c1nccc2[nH]ccc12
REMARK SMILES IDX 9 1 8 2 7 3 5 4 6 5 4 7 3 8 2 9 1 10 77 14 78 15 85 16 79 17
REMARK SMILES IDX 81 18 84 19 80 20 82 21 83 22 10 24 11 25 12 26 13 28 14 29
REMARK SMILES IDX 15 30 76 31 16 32 75 33 17 34 18 35 19 36 69 37 20 38 74 39
REMARK SMILES IDX 68 40 70 41 21 42 73 43 67 44 66 45 22 47 54 48 34 49 53 50
REMARK SMILES IDX 35 51 38 52 52 53 71 54 36 55 37 56 51 58 72 59 39 60 23 61
REMARK SMILES IDX 24 62 32 63 25 64 27 65 33 66 26 67 28 68 29 69 30 70 31 71
REMARK SMILES IDX 55 72 56 73 64 74 57 75 59 76 65 77 58 78 60 79 61 80 62 81
REMARK SMILES IDX 63 82 40 83 41 84 49 85 42 86 44 87 50 88 43 89 45 90 46 91
REMARK SMILES IDX 47 92 48 93
REMARK H PARENT 7 6 1 11 1 12 1 13 82 23 11 27 70 46 38 57
REMARK Flexibility Score: inf
ROOT
ATOM      1  C   UNL A   1      41.745  20.373  27.159  1.00  0.00     0.042 C 
ENDROOT
BRANCH   1   2
ATOM      2  C   UNL A   1      42.670  20.773  26.030  1.00  0.00     0.117 C 
BRANCH   2   3
ATOM      3  N   UNL A   1      43.230  19.688  25.277  1.00  0.00    -0.356 N 
ATOM      4  C   UNL A   1      44.542  19.410  25.054  1.00  0.00     0.220 C 
ATOM      5  O   UNL A   1      44.790  18.300  24.568  1.00  0.00    -0.275 OA
ATOM      6  H   UNL A   1      42.583  19.067  24.870  1.00  0.00     0.163 HD
BRANCH   4   7
ATOM      7  C   UNL A   1      45.702  20.335  25.445  1.00  0.00     0.106 C 
BRANCH   7   8
ATOM      8  C   UNL A   1      46.267  21.369  24.460  1.00  0.00     0.082 C 
BRANCH   8   9
ATOM      9  C   UNL A   1      45.460  22.649  24.074  1.00  0.00     0.232 C 
BRANCH   9  10
ATOM     10  N   UNL A   1      44.379  22.270  23.126  1.00  0.00    -0.350 N 
ATOM     11  H   UNL A   1      44.788  22.024  22.225  1.00  0.00     0.345 HD
ATOM     12  H   UNL A   1      43.740  23.057  23.006  1.00  0.00     0.345 HD
ATOM     13  H   UNL A   1      43.866  21.470  23.495  1.00  0.00     0.345 HD
ENDBRANCH   9  10
BRANCH   9  14
ATOM     14  C   UNL A   1      44.969  23.594  25.202  1.00  0.00     0.107 A 
ATOM     15  N   UNL A   1      43.837  24.329  24.962  1.00  0.00    -0.254 NA
ATOM     16  C   UNL A   1      45.848  24.228  26.118  1.00  0.00     0.027 A 
ATOM     17  C   UNL A   1      43.925  25.681  25.004  1.00  0.00     0.114 A 
ATOM     18  C   UNL A   1      45.943  25.623  26.040  1.00  0.00     0.049 A 
ATOM     19  C   UNL A   1      46.171  23.978  27.493  1.00  0.00     0.030 A 
ATOM     20  C   UNL A   1      45.066  26.397  25.299  1.00  0.00     0.047 A 
ATOM     21  N   UNL A   1      46.896  26.000  26.955  1.00  0.00    -0.361 N 
ATOM     22  C   UNL A   1      46.781  25.110  27.998  1.00  0.00     0.083 A 
ATOM     23  H   UNL A   1      47.529  26.749  26.879  1.00  0.00     0.166 HD
ENDBRANCH   9  14
ENDBRANCH   8   9
ENDBRANCH   7   8
ENDBRANCH   4   7
ENDBRANCH   2   3
ENDBRANCH   1   2
BRANCH   1  24
ATOM     24  C   UNL A   1      40.819  21.494  27.572  1.00  0.00     0.118 C 
BRANCH  24  25
ATOM     25  N   UNL A   1      39.749  21.730  26.600  1.00  0.00    -0.352 N 
ATOM     26  C   UNL A   1      39.053  22.880  26.321  1.00  0.00     0.251 C 
ATOM     27  H   UNL A   1      39.490  20.946  26.065  1.00  0.00     0.163 HD
ATOM     28  O   UNL A   1      38.051  22.819  25.600  1.00  0.00    -0.269 OA
BRANCH  26  29
ATOM     29  C   UNL A   1      39.486  24.178  26.885  1.00  0.00     0.039 A 
ATOM     30  C   UNL A   1      40.138  25.109  26.073  1.00  0.00     0.014 A 
ATOM     31  C   UNL A   1      39.257  24.478  28.229  1.00  0.00     0.014 A 
ATOM     32  C   UNL A   1      40.521  26.342  26.606  1.00  0.00     0.010 A 
ATOM     33  C   UNL A   1      39.483  25.758  28.707  1.00  0.00     0.010 A 
ATOM     34  C   UNL A   1      40.180  26.683  27.926  1.00  0.00    -0.014 A 
BRANCH  34  35
ATOM     35  C   UNL A   1      40.621  27.957  28.544  1.00  0.00     0.031 A 
ATOM     36  C   UNL A   1      42.096  28.232  28.717  1.00  0.00     0.074 A 
ATOM     37  C   UNL A   1      39.705  28.837  28.991  1.00  0.00     0.049 A 
ATOM     38  N   UNL A   1      42.685  29.280  29.231  1.00  0.00    -0.248 NA
ATOM     39  C   UNL A   1      43.036  27.174  28.299  1.00  0.00     0.031 C 
ATOM     40  C   UNL A   1      38.254  28.636  28.971  1.00  0.00     0.029 A 
ATOM     41  N   UNL A   1      39.859  30.075  29.559  1.00  0.00    -0.354 N 
ATOM     42  C   UNL A   1      44.045  28.989  29.233  1.00  0.00     0.074 A 
ATOM     43  C   UNL A   1      44.194  27.643  28.735  1.00  0.00     0.031 C 
ATOM     44  C   UNL A   1      37.651  29.727  29.470  1.00  0.00     0.029 A 
ATOM     45  C   UNL A   1      38.671  30.691  29.872  1.00  0.00     0.049 A 
ATOM     46  H   UNL A   1      40.739  30.485  29.728  1.00  0.00     0.167 HD
ATOM     47  C   UNL A   1      45.086  29.784  29.572  1.00  0.00     0.034 A 
ATOM     48  C   UNL A   1      38.435  31.902  30.412  1.00  0.00     0.034 A 
ATOM     49  C   UNL A   1      44.932  31.141  30.013  1.00  0.00     0.049 A 
ATOM     50  C   UNL A   1      39.605  32.796  30.713  1.00  0.00     0.074 A 
ATOM     51  C   UNL A   1      45.912  32.070  30.304  1.00  0.00     0.029 A 
ATOM     52  N   UNL A   1      43.711  31.762  30.229  1.00  0.00    -0.354 N 
ATOM     53  N   UNL A   1      40.887  32.557  30.565  1.00  0.00    -0.248 NA
ATOM     54  C   UNL A   1      39.298  34.144  31.208  1.00  0.00     0.031 C 
ATOM     55  C   UNL A   1      45.283  33.246  30.727  1.00  0.00     0.029 A 
ATOM     56  C   UNL A   1      43.911  33.063  30.651  1.00  0.00     0.049 A 
ATOM     57  H   UNL A   1      42.832  31.339  30.100  1.00  0.00     0.167 HD
ATOM     58  C   UNL A   1      41.536  33.739  30.903  1.00  0.00     0.074 A 
ATOM     59  C   UNL A   1      40.502  34.696  31.245  1.00  0.00     0.031 C 
ATOM     60  C   UNL A   1      42.864  34.009  30.937  1.00  0.00     0.034 A 
BRANCH  47  61
ATOM     61  C   UNL A   1      46.477  29.218  29.431  1.00  0.00     0.023 A 
ATOM     62  C   UNL A   1      47.049  28.482  30.491  1.00  0.00     0.012 A 
ATOM     63  C   UNL A   1      47.205  29.382  28.238  1.00  0.00     0.148 A 
ATOM     64  C   UNL A   1      48.337  27.960  30.384  1.00  0.00     0.002 A 
ATOM     65  C   UNL A   1      48.467  28.812  28.117  1.00  0.00     0.091 A 
ATOM     66  F   UNL A   1      46.658  30.103  27.249  1.00  0.00    -0.205 F 
ATOM     67  C   UNL A   1      49.041  28.116  29.194  1.00  0.00     0.022 A 
BRANCH  65  68
ATOM     68  S   UNL A   1      49.420  28.880  26.597  1.00  0.00     0.127 S 
ATOM     69  O   UNL A   1      50.531  27.979  26.905  1.00  0.00    -0.237 OA
ATOM     70  O   UNL A   1      48.468  28.360  25.616  1.00  0.00    -0.237 OA
ATOM     71  O   UNL A   1      49.785  30.277  26.411  1.00  0.00    -0.744 OA
ENDBRANCH  65  68
ENDBRANCH  47  61
BRANCH  48  72
ATOM     72  C   UNL A   1      37.033  32.367  30.621  1.00  0.00     0.023 A 
ATOM     73  C   UNL A   1      36.441  32.245  31.893  1.00  0.00     0.012 A 
ATOM     74  C   UNL A   1      36.296  32.951  29.573  1.00  0.00     0.148 A 
ATOM     75  C   UNL A   1      35.124  32.656  32.107  1.00  0.00     0.002 A 
ATOM     76  C   UNL A   1      35.006  33.412  29.808  1.00  0.00     0.091 A 
ATOM     77  F   UNL A   1      36.877  33.055  28.370  1.00  0.00    -0.205 F 
ATOM     78  C   UNL A   1      34.411  33.248  31.068  1.00  0.00     0.022 A 
BRANCH  76  79
ATOM     79  S   UNL A   1      34.062  34.304  28.568  1.00  0.00     0.127 S 
ATOM     80  O   UNL A   1      33.980  33.320  27.491  1.00  0.00    -0.237 OA
ATOM     81  O   UNL A   1      32.804  34.555  29.272  1.00  0.00    -0.237 OA
ATOM     82  O   UNL A   1      34.833  35.502  28.272  1.00  0.00    -0.744 OA
ENDBRANCH  76  79
ENDBRANCH  48  72
BRANCH  60  83
ATOM     83  C   UNL A   1      43.276  35.412  31.295  1.00  0.00     0.023 A 
ATOM     84  C   UNL A   1      43.501  35.768  32.639  1.00  0.00     0.012 A 
ATOM     85  C   UNL A   1      43.489  36.366  30.281  1.00  0.00     0.148 A 
ATOM     86  C   UNL A   1      43.880  37.067  32.972  1.00  0.00     0.002 A 
ATOM     87  C   UNL A   1      43.924  37.642  30.615  1.00  0.00     0.091 A 
ATOM     88  F   UNL A   1      43.254  36.014  29.008  1.00  0.00    -0.205 F 
ATOM     89  C   UNL A   1      44.102  38.000  31.961  1.00  0.00     0.022 A 
BRANCH  87  90
ATOM     90  S   UNL A   1      44.336  38.867  29.370  1.00  0.00     0.127 S 
ATOM     91  O   UNL A   1      44.970  38.045  28.341  1.00  0.00    -0.237 OA
ATOM     92  O   UNL A   1      43.019  39.394  29.005  1.00  0.00    -0.237 OA
ATOM     93  O   UNL A   1      45.206  39.831  30.029  1.00  0.00    -0.744 OA
ENDBRANCH  87  90
ENDBRANCH  60  83
ENDBRANCH  34  35
ENDBRANCH  26  29
ENDBRANCH  24  25
ENDBRANCH   1  24
TORSDOF 17
ENDMDL
MODEL 3
REMARK VINA RESULT:     -10.3      4.575      7.505
REMARK SMILES [NH3+][C@H](CCC(=O)NCCCNC(=O)c1ccc(-c2c3nc(c(-c4cccc(S(=O)(=O)[O-])c4F)c4ccc([nH]4)c(-c4cccc(S(=O)(=O)[O-])c4F)c4nc(c(-c5cccc(S(=O)(=O)[O-])c5F)c5ccc2[nH]5)C=C4)C=C3)cc1)c1nccc2[nH]ccc12
REMARK SMILES IDX 9 1 8 2 7 3 5 4 6 5 4 7 3 8 2 9 1 10 77 14 78 15 85 16 79 17
REMARK SMILES IDX 81 18 84 19 80 20 82 21 83 22 10 24 11 25 12 26 13 28 14 29
REMARK SMILES IDX 15 30 76 31 16 32 75 33 17 34 18 35 19 36 69 37 20 38 74 39
REMARK SMILES IDX 68 40 70 41 21 42 73 43 67 44 66 45 22 47 54 48 34 49 53 50
REMARK SMILES IDX 35 51 38 52 52 53 71 54 36 55 37 56 51 58 72 59 39 60 23 61
REMARK SMILES IDX 24 62 32 63 25 64 27 65 33 66 26 67 28 68 29 69 30 70 31 71
REMARK SMILES IDX 55 72 56 73 64 74 57 75 59 76 65 77 58 78 60 79 61 80 62 81
REMARK SMILES IDX 63 82 40 83 41 84 49 85 42 86 44 87 50 88 43 89 45 90 46 91
REMARK SMILES IDX 47 92 48 93
REMARK H PARENT 7 6 1 11 1 12 1 13 82 23 11 27 70 46 38 57
REMARK Flexibility Score: inf
ROOT
ATOM      1  C   UNL A   1      33.124  28.792  24.046  1.00  0.00     0.042 C 
ENDROOT
BRANCH   1   2
ATOM      2  C   UNL A   1      32.787  27.365  23.670  1.00  0.00     0.117 C 
BRANCH   2   3
ATOM      3  N   UNL A   1      33.650  26.361  24.222  1.00  0.00    -0.356 N 
ATOM      4  C   UNL A   1      33.879  25.104  23.757  1.00  0.00     0.220 C 
ATOM      5  O   UNL A   1      34.832  24.500  24.267  1.00  0.00    -0.275 OA
ATOM      6  H   UNL A   1      34.136  26.613  25.041  1.00  0.00     0.163 HD
BRANCH   4   7
ATOM      7  C   UNL A   1      33.103  24.451  22.607  1.00  0.00     0.106 C 
BRANCH   7   8
ATOM      8  C   UNL A   1      33.217  22.947  22.318  1.00  0.00     0.082 C 
BRANCH   8   9
ATOM      9  C   UNL A   1      32.085  21.953  22.732  1.00  0.00     0.232 C 
BRANCH   9  10
ATOM     10  N   UNL A   1      31.745  21.097  21.564  1.00  0.00    -0.350 N 
ATOM     11  H   UNL A   1      32.252  21.426  20.743  1.00  0.00     0.345 HD
ATOM     12  H   UNL A   1      30.741  21.147  21.387  1.00  0.00     0.345 HD
ATOM     13  H   UNL A   1      32.008  20.132  21.761  1.00  0.00     0.345 HD
ENDBRANCH   9  10
BRANCH   9  14
ATOM     14  C   UNL A   1      32.241  21.144  24.047  1.00  0.00     0.107 A 
ATOM     15  N   UNL A   1      32.237  21.847  25.224  1.00  0.00    -0.254 NA
ATOM     16  C   UNL A   1      32.987  19.940  24.132  1.00  0.00     0.027 A 
ATOM     17  C   UNL A   1      33.328  21.772  26.024  1.00  0.00     0.114 A 
ATOM     18  C   UNL A   1      34.149  19.972  24.914  1.00  0.00     0.049 A 
ATOM     19  C   UNL A   1      32.607  18.559  24.208  1.00  0.00     0.030 A 
ATOM     20  C   UNL A   1      34.453  21.017  25.768  1.00  0.00     0.047 A 
ATOM     21  N   UNL A   1      34.738  18.737  24.785  1.00  0.00    -0.361 N 
ATOM     22  C   UNL A   1      33.699  17.842  24.657  1.00  0.00     0.083 A 
ATOM     23  H   UNL A   1      35.700  18.534  24.784  1.00  0.00     0.166 HD
ENDBRANCH   9  14
ENDBRANCH   8   9
ENDBRANCH   7   8
ENDBRANCH   4   7
ENDBRANCH   2   3
ENDBRANCH   1   2
BRANCH   1  24
ATOM     24  C   UNL A   1      33.141  29.006  25.543  1.00  0.00     0.118 C 
BRANCH  24  25
ATOM     25  N   UNL A   1      32.710  30.351  25.926  1.00  0.00    -0.352 N 
ATOM     26  C   UNL A   1      33.195  31.186  26.903  1.00  0.00     0.251 C 
ATOM     27  H   UNL A   1      31.959  30.715  25.403  1.00  0.00     0.163 HD
ATOM     28  O   UNL A   1      32.560  32.206  27.196  1.00  0.00    -0.269 OA
BRANCH  26  29
ATOM     29  C   UNL A   1      34.454  30.864  27.610  1.00  0.00     0.039 A 
ATOM     30  C   UNL A   1      35.430  31.849  27.779  1.00  0.00     0.014 A 
ATOM     31  C   UNL A   1      34.681  29.579  28.104  1.00  0.00     0.014 A 
ATOM     32  C   UNL A   1      36.605  31.545  28.471  1.00  0.00     0.010 A 
ATOM     33  C   UNL A   1      35.763  29.328  28.931  1.00  0.00     0.010 A 
ATOM     34  C   UNL A   1      36.773  30.284  29.067  1.00  0.00    -0.014 A 
BRANCH  34  35
ATOM     35  C   UNL A   1      38.031  29.906  29.757  1.00  0.00     0.031 A 
ATOM     36  C   UNL A   1      38.299  30.414  31.154  1.00  0.00     0.074 A 
ATOM     37  C   UNL A   1      38.946  29.154  29.117  1.00  0.00     0.049 A 
ATOM     38  N   UNL A   1      39.331  30.199  31.926  1.00  0.00    -0.248 NA
ATOM     39  C   UNL A   1      37.297  31.319  31.750  1.00  0.00     0.031 C 
ATOM     40  C   UNL A   1      38.845  28.690  27.731  1.00  0.00     0.029 A 
ATOM     41  N   UNL A   1      40.149  28.656  29.544  1.00  0.00    -0.354 N 
ATOM     42  C   UNL A   1      39.120  30.967  33.066  1.00  0.00     0.074 A 
ATOM     43  C   UNL A   1      37.898  31.707  32.862  1.00  0.00     0.031 C 
ATOM     44  C   UNL A   1      39.922  27.945  27.435  1.00  0.00     0.029 A 
ATOM     45  C   UNL A   1      40.804  27.905  28.597  1.00  0.00     0.049 A 
ATOM     46  H   UNL A   1      40.511  28.820  30.446  1.00  0.00     0.167 HD
ATOM     47  C   UNL A   1      39.849  31.020  34.205  1.00  0.00     0.034 A 
ATOM     48  C   UNL A   1      41.978  27.249  28.667  1.00  0.00     0.034 A 
ATOM     49  C   UNL A   1      41.032  30.237  34.422  1.00  0.00     0.049 A 
ATOM     50  C   UNL A   1      42.733  27.262  29.966  1.00  0.00     0.074 A 
ATOM     51  C   UNL A   1      41.806  30.142  35.563  1.00  0.00     0.029 A 
ATOM     52  N   UNL A   1      41.614  29.414  33.470  1.00  0.00    -0.354 N 
ATOM     53  N   UNL A   1      42.438  27.876  31.088  1.00  0.00    -0.248 NA
ATOM     54  C   UNL A   1      43.959  26.454  30.028  1.00  0.00     0.031 C 
ATOM     55  C   UNL A   1      42.876  29.283  35.289  1.00  0.00     0.029 A 
ATOM     56  C   UNL A   1      42.739  28.807  33.995  1.00  0.00     0.049 A 
ATOM     57  H   UNL A   1      41.276  29.282  32.555  1.00  0.00     0.167 HD
ATOM     58  C   UNL A   1      43.413  27.491  32.001  1.00  0.00     0.074 A 
ATOM     59  C   UNL A   1      44.295  26.576  31.304  1.00  0.00     0.031 C 
ATOM     60  C   UNL A   1      43.571  27.863  33.295  1.00  0.00     0.034 A 
BRANCH  47  61
ATOM     61  C   UNL A   1      39.356  31.916  35.314  1.00  0.00     0.023 A 
ATOM     62  C   UNL A   1      38.427  31.424  36.256  1.00  0.00     0.012 A 
ATOM     63  C   UNL A   1      39.836  33.232  35.445  1.00  0.00     0.148 A 
ATOM     64  C   UNL A   1      37.952  32.240  37.281  1.00  0.00     0.002 A 
ATOM     65  C   UNL A   1      39.399  34.023  36.502  1.00  0.00     0.091 A 
ATOM     66  F   UNL A   1      40.699  33.693  34.529  1.00  0.00    -0.205 F 
ATOM     67  C   UNL A   1      38.445  33.535  37.411  1.00  0.00     0.022 A 
BRANCH  65  68
ATOM     68  S   UNL A   1      40.039  35.672  36.808  1.00  0.00     0.127 S 
ATOM     69  O   UNL A   1      39.377  36.016  38.067  1.00  0.00    -0.237 OA
ATOM     70  O   UNL A   1      41.476  35.426  36.922  1.00  0.00    -0.237 OA
ATOM     71  O   UNL A   1      39.647  36.477  35.660  1.00  0.00    -0.744 OA
ENDBRANCH  65  68
ENDBRANCH  47  61
BRANCH  48  72
ATOM     72  C   UNL A   1      42.463  26.458  27.499  1.00  0.00     0.023 A 
ATOM     73  C   UNL A   1      43.279  27.076  26.530  1.00  0.00     0.012 A 
ATOM     74  C   UNL A   1      42.141  25.096  27.357  1.00  0.00     0.148 A 
ATOM     75  C   UNL A   1      43.730  26.361  25.419  1.00  0.00     0.002 A 
ATOM     76  C   UNL A   1      42.642  24.375  26.279  1.00  0.00     0.091 A 
ATOM     77  F   UNL A   1      41.361  24.528  28.287  1.00  0.00    -0.205 F 
ATOM     78  C   UNL A   1      43.419  25.010  25.299  1.00  0.00     0.022 A 
BRANCH  76  79
ATOM     79  S   UNL A   1      42.402  22.603  26.112  1.00  0.00     0.127 S 
ATOM     80  O   UNL A   1      40.947  22.504  26.039  1.00  0.00    -0.237 OA
ATOM     81  O   UNL A   1      43.103  22.322  24.858  1.00  0.00    -0.237 OA
ATOM     82  O   UNL A   1      43.018  22.010  27.289  1.00  0.00    -0.744 OA
ENDBRANCH  76  79
ENDBRANCH  48  72
BRANCH  60  83
ATOM     83  C   UNL A   1      44.703  27.233  34.063  1.00  0.00     0.023 A 
ATOM     84  C   UNL A   1      45.986  27.813  34.045  1.00  0.00     0.012 A 
ATOM     85  C   UNL A   1      44.473  26.085  34.846  1.00  0.00     0.148 A 
ATOM     86  C   UNL A   1      47.036  27.230  34.753  1.00  0.00     0.002 A 
ATOM     87  C   UNL A   1      45.508  25.544  35.596  1.00  0.00     0.091 A 
ATOM     88  F   UNL A   1      43.248  25.537  34.837  1.00  0.00    -0.205 F 
ATOM     89  C   UNL A   1      46.794  26.103  35.536  1.00  0.00     0.022 A 
BRANCH  87  90
ATOM     90  S   UNL A   1      45.257  24.161  36.713  1.00  0.00     0.127 S 
ATOM     91  O   UNL A   1      44.790  23.120  35.798  1.00  0.00    -0.237 OA
ATOM     92  O   UNL A   1      46.603  23.945  37.247  1.00  0.00    -0.237 OA
ATOM     93  O   UNL A   1      44.285  24.614  37.698  1.00  0.00    -0.744 OA
ENDBRANCH  87  90
ENDBRANCH  60  83
ENDBRANCH  34  35
ENDBRANCH  26  29
ENDBRANCH  24  25
ENDBRANCH   1  24
TORSDOF 17
ENDMDL
