MODEL 1
REMARK VINA RESULT:     -12.4      0.000      0.000
REMARK SMILES Cc1nc2n(n1)[C@@H](c1ccc([N+](=O)[O-])o1)CC(C(=O)NCCCNC(=O)c1ccc(-c3c4nc(c(-c5cccc(S(=O)(=O)[O-])c5F)c5ccc([nH]5)c(-c5cccc(S(=O)(=O)[O-])c5F)c5nc(c(-c6cccc(S(=O)(=O)[O-])c6F)c6ccc3[nH]6)C=C5)C=C4)cc1)=N2
REMARK SMILES IDX 22 1 21 2 20 3 18 4 19 5 17 7 1 8 2 9 3 10 6 11 4 12 5 13
REMARK SMILES IDX 90 14 7 15 16 16 8 17 9 18 15 19 10 20 11 21 12 22 13 23
REMARK SMILES IDX 14 24 23 25 24 26 25 27 26 29 27 30 28 31 89 32 29 33 88 34
REMARK SMILES IDX 30 35 31 36 32 37 82 38 33 39 87 40 81 41 83 42 34 43 86 44
REMARK SMILES IDX 80 45 79 46 35 48 67 49 47 50 66 51 48 52 51 53 65 54 84 55
REMARK SMILES IDX 49 56 50 57 64 59 85 60 52 61 36 62 37 63 45 64 38 65 40 66
REMARK SMILES IDX 46 67 39 68 41 69 42 70 43 71 44 72 68 73 69 74 77 75 70 76
REMARK SMILES IDX 72 77 78 78 71 79 73 80 74 81 75 82 76 83 53 84 54 85 62 86
REMARK SMILES IDX 55 87 57 88 63 89 56 90 58 91 59 92 60 93 61 94
REMARK H PARENT 20 6 24 28 83 47 51 58
REMARK Flexibility Score: inf
ROOT
ATOM      1  C   UNL A   1      38.728  20.561  25.559  1.00  0.00     0.042 C 
ENDROOT
BRANCH   1   2
ATOM      2  C   UNL A   1      37.507  20.814  24.660  1.00  0.00     0.118 C 
BRANCH   2   3
ATOM      3  N   UNL A   1      36.245  20.636  25.359  1.00  0.00    -0.351 N 
ATOM      4  C   UNL A   1      35.020  21.251  25.366  1.00  0.00     0.265 C 
ATOM      5  O   UNL A   1      34.139  20.721  26.042  1.00  0.00    -0.268 OA
ATOM      6  H   UNL A   1      36.279  19.880  25.988  1.00  0.00     0.163 HD
BRANCH   4   7
ATOM      7  C   UNL A   1      34.654  22.537  24.596  1.00  0.00     0.112 C 
ATOM      8  C   UNL A   1      32.593  25.335  19.936  1.00  0.00     0.092 C 
ATOM      9  C   UNL A   1      33.142  24.831  21.210  1.00  0.00     0.149 A 
ATOM     10  N   UNL A   1      33.289  23.493  21.462  1.00  0.00    -0.195 NA
ATOM     11  N   UNL A   1      33.525  25.637  22.209  1.00  0.00    -0.154 NA
ATOM     12  C   UNL A   1      33.764  23.442  22.688  1.00  0.00     0.249 A 
ATOM     13  N   UNL A   1      33.877  24.726  23.139  1.00  0.00    -0.219 N 
ATOM     14  N   UNL A   1      34.086  22.367  23.438  1.00  0.00    -0.211 NA
ATOM     15  C   UNL A   1      34.363  25.078  24.451  1.00  0.00     0.184 C 
ATOM     16  C   UNL A   1      35.017  23.885  25.157  1.00  0.00     0.098 C 
BRANCH  15  17
ATOM     17  C   UNL A   1      33.287  25.688  25.305  1.00  0.00     0.136 A 
ATOM     18  C   UNL A   1      33.098  26.900  25.948  1.00  0.00     0.056 A 
ATOM     19  O   UNL A   1      32.213  24.871  25.551  1.00  0.00    -0.404 OA
ATOM     20  C   UNL A   1      31.835  26.835  26.595  1.00  0.00     0.134 A 
ATOM     21  C   UNL A   1      31.341  25.587  26.307  1.00  0.00     0.433 A 
BRANCH  21  22
ATOM     22  N   UNL A   1      30.124  24.926  26.658  1.00  0.00     0.102 N 
ATOM     23  O   UNL A   1      29.076  25.527  26.390  1.00  0.00    -0.256 OA
ATOM     24  O   UNL A   1      30.212  23.821  27.210  1.00  0.00    -0.256 OA
ENDBRANCH  21  22
ENDBRANCH  15  17
ENDBRANCH   4   7
ENDBRANCH   2   3
ENDBRANCH   1   2
BRANCH   1  25
ATOM     25  C   UNL A   1      39.495  21.841  25.941  1.00  0.00     0.118 C 
BRANCH  25  26
ATOM     26  N   UNL A   1      40.810  21.498  26.462  1.00  0.00    -0.352 N 
ATOM     27  C   UNL A   1      41.896  22.259  26.787  1.00  0.00     0.251 C 
ATOM     28  H   UNL A   1      40.941  20.534  26.609  1.00  0.00     0.163 HD
ATOM     29  O   UNL A   1      42.986  21.683  26.830  1.00  0.00    -0.269 OA
BRANCH  27  30
ATOM     30  C   UNL A   1      41.823  23.702  27.106  1.00  0.00     0.039 A 
ATOM     31  C   UNL A   1      42.485  24.575  26.232  1.00  0.00     0.014 A 
ATOM     32  C   UNL A   1      41.289  24.196  28.300  1.00  0.00     0.014 A 
ATOM     33  C   UNL A   1      42.602  25.929  26.539  1.00  0.00     0.010 A 
ATOM     34  C   UNL A   1      41.402  25.560  28.605  1.00  0.00     0.010 A 
ATOM     35  C   UNL A   1      42.055  26.434  27.726  1.00  0.00    -0.014 A 
BRANCH  35  36
ATOM     36  C   UNL A   1      42.123  27.896  27.936  1.00  0.00     0.031 A 
ATOM     37  C   UNL A   1      40.811  28.611  27.939  1.00  0.00     0.074 A 
ATOM     38  C   UNL A   1      43.188  28.473  28.536  1.00  0.00     0.049 A 
ATOM     39  N   UNL A   1      40.044  28.680  28.988  1.00  0.00    -0.248 NA
ATOM     40  C   UNL A   1      40.168  29.079  26.712  1.00  0.00     0.031 C 
ATOM     41  C   UNL A   1      43.921  27.844  29.642  1.00  0.00     0.029 A 
ATOM     42  N   UNL A   1      43.670  29.764  28.499  1.00  0.00    -0.354 N 
ATOM     43  C   UNL A   1      38.812  29.157  28.574  1.00  0.00     0.074 A 
ATOM     44  C   UNL A   1      38.940  29.396  27.153  1.00  0.00     0.031 C 
ATOM     45  C   UNL A   1      44.628  28.796  30.287  1.00  0.00     0.029 A 
ATOM     46  C   UNL A   1      44.530  30.061  29.559  1.00  0.00     0.049 A 
ATOM     47  H   UNL A   1      43.432  30.412  27.797  1.00  0.00     0.167 HD
ATOM     48  C   UNL A   1      37.764  29.336  29.424  1.00  0.00     0.034 A 
ATOM     49  C   UNL A   1      44.651  31.291  30.139  1.00  0.00     0.034 A 
ATOM     50  C   UNL A   1      38.034  29.037  30.801  1.00  0.00     0.049 A 
ATOM     51  C   UNL A   1      43.320  31.415  30.833  1.00  0.00     0.074 A 
ATOM     52  C   UNL A   1      37.838  27.988  31.673  1.00  0.00     0.029 A 
ATOM     53  N   UNL A   1      38.735  29.963  31.537  1.00  0.00    -0.354 N 
ATOM     54  N   UNL A   1      42.990  30.827  31.952  1.00  0.00    -0.248 NA
ATOM     55  C   UNL A   1      42.190  31.906  30.043  1.00  0.00     0.031 C 
ATOM     56  C   UNL A   1      38.827  28.153  32.698  1.00  0.00     0.029 A 
ATOM     57  C   UNL A   1      39.586  29.272  32.361  1.00  0.00     0.049 A 
ATOM     58  H   UNL A   1      38.643  30.942  31.482  1.00  0.00     0.167 HD
ATOM     59  C   UNL A   1      41.614  30.604  31.860  1.00  0.00     0.074 A 
ATOM     60  C   UNL A   1      41.184  31.312  30.669  1.00  0.00     0.031 C 
ATOM     61  C   UNL A   1      40.931  29.723  32.651  1.00  0.00     0.034 A 
BRANCH  48  62
ATOM     62  C   UNL A   1      36.487  30.003  29.068  1.00  0.00     0.023 A 
ATOM     63  C   UNL A   1      35.685  29.343  28.115  1.00  0.00     0.012 A 
ATOM     64  C   UNL A   1      36.165  31.318  29.450  1.00  0.00     0.148 A 
ATOM     65  C   UNL A   1      34.615  29.990  27.505  1.00  0.00     0.002 A 
ATOM     66  C   UNL A   1      35.083  31.956  28.844  1.00  0.00     0.091 A 
ATOM     67  F   UNL A   1      36.942  31.933  30.353  1.00  0.00    -0.205 F 
ATOM     68  C   UNL A   1      34.321  31.300  27.862  1.00  0.00     0.022 A 
BRANCH  66  69
ATOM     69  S   UNL A   1      34.596  33.645  29.226  1.00  0.00     0.127 S 
ATOM     70  O   UNL A   1      35.822  34.389  28.926  1.00  0.00    -0.237 OA
ATOM     71  O   UNL A   1      33.506  33.866  28.271  1.00  0.00    -0.237 OA
ATOM     72  O   UNL A   1      34.189  33.641  30.618  1.00  0.00    -0.744 OA
ENDBRANCH  66  69
ENDBRANCH  48  62
BRANCH  49  73
ATOM     73  C   UNL A   1      45.248  32.372  29.283  1.00  0.00     0.023 A 
ATOM     74  C   UNL A   1      46.369  33.061  29.810  1.00  0.00     0.012 A 
ATOM     75  C   UNL A   1      44.783  32.775  28.016  1.00  0.00     0.148 A 
ATOM     76  C   UNL A   1      47.059  34.024  29.070  1.00  0.00     0.002 A 
ATOM     77  C   UNL A   1      45.513  33.686  27.252  1.00  0.00     0.091 A 
ATOM     78  F   UNL A   1      43.627  32.280  27.560  1.00  0.00    -0.205 F 
ATOM     79  C   UNL A   1      46.651  34.312  27.776  1.00  0.00     0.022 A 
BRANCH  77  80
ATOM     80  S   UNL A   1      45.117  34.045  25.534  1.00  0.00     0.127 S 
ATOM     81  O   UNL A   1      44.847  32.712  25.000  1.00  0.00    -0.237 OA
ATOM     82  O   UNL A   1      43.940  34.900  25.682  1.00  0.00    -0.237 OA
ATOM     83  O   UNL A   1      46.292  34.709  24.988  1.00  0.00    -0.744 OA
ENDBRANCH  77  80
ENDBRANCH  49  73
BRANCH  61  84
ATOM     84  C   UNL A   1      41.721  29.065  33.746  1.00  0.00     0.023 A 
ATOM     85  C   UNL A   1      41.766  29.679  35.012  1.00  0.00     0.012 A 
ATOM     86  C   UNL A   1      42.382  27.833  33.561  1.00  0.00     0.148 A 
ATOM     87  C   UNL A   1      42.436  29.077  36.077  1.00  0.00     0.002 A 
ATOM     88  C   UNL A   1      43.007  27.213  34.638  1.00  0.00     0.091 A 
ATOM     89  F   UNL A   1      42.389  27.277  32.340  1.00  0.00    -0.205 F 
ATOM     90  C   UNL A   1      43.040  27.838  35.895  1.00  0.00     0.022 A 
BRANCH  88  91
ATOM     91  S   UNL A   1      43.751  25.580  34.530  1.00  0.00     0.127 S 
ATOM     92  O   UNL A   1      42.577  24.707  34.542  1.00  0.00    -0.237 OA
ATOM     93  O   UNL A   1      44.442  25.649  33.242  1.00  0.00    -0.237 OA
ATOM     94  O   UNL A   1      44.627  25.447  35.686  1.00  0.00    -0.744 OA
ENDBRANCH  88  91
ENDBRANCH  61  84
ENDBRANCH  35  36
ENDBRANCH  27  30
ENDBRANCH  25  26
ENDBRANCH   1  25
TORSDOF 15
ENDMDL
MODEL 2
REMARK VINA RESULT:     -12.2      4.903     10.223
REMARK SMILES Cc1nc2n(n1)[C@@H](c1ccc([N+](=O)[O-])o1)CC(C(=O)NCCCNC(=O)c1ccc(-c3c4nc(c(-c5cccc(S(=O)(=O)[O-])c5F)c5ccc([nH]5)c(-c5cccc(S(=O)(=O)[O-])c5F)c5nc(c(-c6cccc(S(=O)(=O)[O-])c6F)c6ccc3[nH]6)C=C5)C=C4)cc1)=N2
REMARK SMILES IDX 22 1 21 2 20 3 18 4 19 5 17 7 1 8 2 9 3 10 6 11 4 12 5 13
REMARK SMILES IDX 90 14 7 15 16 16 8 17 9 18 15 19 10 20 11 21 12 22 13 23
REMARK SMILES IDX 14 24 23 25 24 26 25 27 26 29 27 30 28 31 89 32 29 33 88 34
REMARK SMILES IDX 30 35 31 36 32 37 82 38 33 39 87 40 81 41 83 42 34 43 86 44
REMARK SMILES IDX 80 45 79 46 35 48 67 49 47 50 66 51 48 52 51 53 65 54 84 55
REMARK SMILES IDX 49 56 50 57 64 59 85 60 52 61 36 62 37 63 45 64 38 65 40 66
REMARK SMILES IDX 46 67 39 68 41 69 42 70 43 71 44 72 68 73 69 74 77 75 70 76
REMARK SMILES IDX 72 77 78 78 71 79 73 80 74 81 75 82 76 83 53 84 54 85 62 86
REMARK SMILES IDX 55 87 57 88 63 89 56 90 58 91 59 92 60 93 61 94
REMARK H PARENT 20 6 24 28 83 47 51 58
REMARK Flexibility Score: inf
ROOT
ATOM      1  C   UNL A   1      46.130  33.608  26.213  1.00  0.00     0.042 C 
ENDROOT
BRANCH   1   2
ATOM      2  C   UNL A   1      45.528  32.237  26.557  1.00  0.00     0.118 C 
BRANCH   2   3
ATOM      3  N   UNL A   1      46.050  31.166  25.725  1.00  0.00    -0.351 N 
ATOM      4  C   UNL A   1      46.486  29.881  25.918  1.00  0.00     0.265 C 
ATOM      5  O   UNL A   1      46.760  29.231  24.910  1.00  0.00    -0.268 OA
ATOM      6  H   UNL A   1      46.104  31.432  24.778  1.00  0.00     0.163 HD
BRANCH   4   7
ATOM      7  C   UNL A   1      46.652  29.184  27.285  1.00  0.00     0.112 C 
ATOM      8  C   UNL A   1      47.426  29.272  33.045  1.00  0.00     0.092 C 
ATOM      9  C   UNL A   1      47.220  29.024  31.605  1.00  0.00     0.149 A 
ATOM     10  N   UNL A   1      47.123  30.044  30.697  1.00  0.00    -0.195 NA
ATOM     11  N   UNL A   1      47.107  27.795  31.085  1.00  0.00    -0.154 NA
ATOM     12  C   UNL A   1      46.911  29.438  29.547  1.00  0.00     0.249 A 
ATOM     13  N   UNL A   1      46.875  28.095  29.792  1.00  0.00    -0.219 N 
ATOM     14  N   UNL A   1      46.733  29.969  28.320  1.00  0.00    -0.211 NA
ATOM     15  C   UNL A   1      46.660  27.097  28.771  1.00  0.00     0.184 C 
ATOM     16  C   UNL A   1      46.780  27.687  27.362  1.00  0.00     0.098 C 
BRANCH  15  17
ATOM     17  C   UNL A   1      45.348  26.386  28.949  1.00  0.00     0.136 A 
ATOM     18  C   UNL A   1      44.387  26.310  29.943  1.00  0.00     0.056 A 
ATOM     19  O   UNL A   1      44.978  25.586  27.897  1.00  0.00    -0.404 OA
ATOM     20  C   UNL A   1      43.364  25.445  29.468  1.00  0.00     0.134 A 
ATOM     21  C   UNL A   1      43.772  25.050  28.218  1.00  0.00     0.433 A 
BRANCH  21  22
ATOM     22  N   UNL A   1      43.183  24.196  27.236  1.00  0.00     0.102 N 
ATOM     23  O   UNL A   1      43.457  24.445  26.055  1.00  0.00    -0.256 OA
ATOM     24  O   UNL A   1      42.439  23.291  27.637  1.00  0.00    -0.256 OA
ENDBRANCH  21  22
ENDBRANCH  15  17
ENDBRANCH   4   7
ENDBRANCH   2   3
ENDBRANCH   1   2
BRANCH   1  25
ATOM     25  C   UNL A   1      45.187  34.517  25.404  1.00  0.00     0.118 C 
BRANCH  25  26
ATOM     26  N   UNL A   1      45.149  35.848  25.991  1.00  0.00    -0.352 N 
ATOM     27  C   UNL A   1      44.430  36.377  27.024  1.00  0.00     0.251 C 
ATOM     28  H   UNL A   1      45.759  36.490  25.561  1.00  0.00     0.163 HD
ATOM     29  O   UNL A   1      44.311  37.603  27.049  1.00  0.00    -0.269 OA
BRANCH  27  30
ATOM     30  C   UNL A   1      43.823  35.564  28.103  1.00  0.00     0.039 A 
ATOM     31  C   UNL A   1      44.694  35.060  29.078  1.00  0.00     0.014 A 
ATOM     32  C   UNL A   1      42.489  35.146  28.088  1.00  0.00     0.014 A 
ATOM     33  C   UNL A   1      44.237  34.159  30.036  1.00  0.00     0.010 A 
ATOM     34  C   UNL A   1      42.028  34.244  29.057  1.00  0.00     0.010 A 
ATOM     35  C   UNL A   1      42.897  33.747  30.038  1.00  0.00    -0.014 A 
BRANCH  35  36
ATOM     36  C   UNL A   1      42.456  32.874  31.146  1.00  0.00     0.031 A 
ATOM     37  C   UNL A   1      41.077  33.127  31.660  1.00  0.00     0.074 A 
ATOM     38  C   UNL A   1      43.029  31.669  31.364  1.00  0.00     0.049 A 
ATOM     39  N   UNL A   1      40.010  32.641  31.095  1.00  0.00    -0.248 NA
ATOM     40  C   UNL A   1      40.791  34.132  32.683  1.00  0.00     0.031 C 
ATOM     41  C   UNL A   1      43.484  30.791  30.278  1.00  0.00     0.029 A 
ATOM     42  N   UNL A   1      43.092  30.877  32.491  1.00  0.00    -0.354 N 
ATOM     43  C   UNL A   1      38.915  33.288  31.644  1.00  0.00     0.074 A 
ATOM     44  C   UNL A   1      39.451  34.200  32.631  1.00  0.00     0.031 C 
ATOM     45  C   UNL A   1      43.611  29.537  30.762  1.00  0.00     0.029 A 
ATOM     46  C   UNL A   1      43.404  29.545  32.210  1.00  0.00     0.049 A 
ATOM     47  H   UNL A   1      42.933  31.215  33.401  1.00  0.00     0.167 HD
ATOM     48  C   UNL A   1      37.634  33.028  31.264  1.00  0.00     0.034 A 
ATOM     49  C   UNL A   1      42.951  28.474  32.926  1.00  0.00     0.034 A 
ATOM     50  C   UNL A   1      37.486  31.998  30.276  1.00  0.00     0.049 A 
ATOM     51  C   UNL A   1      41.488  28.486  32.567  1.00  0.00     0.074 A 
ATOM     52  C   UNL A   1      37.317  31.912  28.911  1.00  0.00     0.029 A 
ATOM     53  N   UNL A   1      37.584  30.691  30.688  1.00  0.00    -0.354 N 
ATOM     54  N   UNL A   1      40.978  28.057  31.442  1.00  0.00    -0.248 NA
ATOM     55  C   UNL A   1      40.611  29.366  33.340  1.00  0.00     0.031 C 
ATOM     56  C   UNL A   1      37.794  30.610  28.547  1.00  0.00     0.029 A 
ATOM     57  C   UNL A   1      38.260  30.003  29.712  1.00  0.00     0.049 A 
ATOM     58  H   UNL A   1      37.234  30.316  31.529  1.00  0.00     0.167 HD
ATOM     59  C   UNL A   1      39.850  28.850  31.222  1.00  0.00     0.074 A 
ATOM     60  C   UNL A   1      39.671  29.619  32.440  1.00  0.00     0.031 C 
ATOM     61  C   UNL A   1      39.226  28.967  30.012  1.00  0.00     0.034 A 
BRANCH  48  62
ATOM     62  C   UNL A   1      36.424  33.561  31.936  1.00  0.00     0.023 A 
ATOM     63  C   UNL A   1      36.155  33.057  33.225  1.00  0.00     0.012 A 
ATOM     64  C   UNL A   1      35.452  34.340  31.283  1.00  0.00     0.148 A 
ATOM     65  C   UNL A   1      34.923  33.269  33.837  1.00  0.00     0.002 A 
ATOM     66  C   UNL A   1      34.224  34.559  31.907  1.00  0.00     0.091 A 
ATOM     67  F   UNL A   1      35.722  34.806  30.055  1.00  0.00    -0.205 F 
ATOM     68  C   UNL A   1      33.955  34.011  33.173  1.00  0.00     0.022 A 
BRANCH  66  69
ATOM     69  S   UNL A   1      32.894  35.509  31.157  1.00  0.00     0.127 S 
ATOM     70  O   UNL A   1      33.504  36.835  31.028  1.00  0.00    -0.237 OA
ATOM     71  O   UNL A   1      32.703  34.806  29.885  1.00  0.00    -0.237 OA
ATOM     72  O   UNL A   1      31.772  35.422  32.071  1.00  0.00    -0.744 OA
ENDBRANCH  66  69
ENDBRANCH  48  62
BRANCH  49  73
ATOM     73  C   UNL A   1      43.462  28.352  34.334  1.00  0.00     0.023 A 
ATOM     74  C   UNL A   1      44.284  29.403  34.811  1.00  0.00     0.012 A 
ATOM     75  C   UNL A   1      43.214  27.280  35.212  1.00  0.00     0.148 A 
ATOM     76  C   UNL A   1      44.746  29.440  36.129  1.00  0.00     0.002 A 
ATOM     77  C   UNL A   1      43.617  27.352  36.546  1.00  0.00     0.091 A 
ATOM     78  F   UNL A   1      42.597  26.188  34.748  1.00  0.00    -0.205 F 
ATOM     79  C   UNL A   1      44.382  28.430  37.008  1.00  0.00     0.022 A 
BRANCH  77  80
ATOM     80  S   UNL A   1      43.110  26.141  37.777  1.00  0.00     0.127 S 
ATOM     81  O   UNL A   1      43.634  24.898  37.214  1.00  0.00    -0.237 OA
ATOM     82  O   UNL A   1      43.813  26.626  38.964  1.00  0.00    -0.237 OA
ATOM     83  O   UNL A   1      41.659  26.230  37.846  1.00  0.00    -0.744 OA
ENDBRANCH  77  80
ENDBRANCH  49  73
BRANCH  61  84
ATOM     84  C   UNL A   1      39.744  28.085  28.912  1.00  0.00     0.023 A 
ATOM     85  C   UNL A   1      39.158  26.818  28.726  1.00  0.00     0.012 A 
ATOM     86  C   UNL A   1      40.765  28.501  28.032  1.00  0.00     0.148 A 
ATOM     87  C   UNL A   1      39.563  25.988  27.681  1.00  0.00     0.002 A 
ATOM     88  C   UNL A   1      41.131  27.690  26.962  1.00  0.00     0.091 A 
ATOM     89  F   UNL A   1      41.363  29.683  28.244  1.00  0.00    -0.205 F 
ATOM     90  C   UNL A   1      40.535  26.431  26.790  1.00  0.00     0.022 A 
BRANCH  88  91
ATOM     91  S   UNL A   1      42.319  28.198  25.712  1.00  0.00     0.127 S 
ATOM     92  O   UNL A   1      41.792  29.498  25.298  1.00  0.00    -0.237 OA
ATOM     93  O   UNL A   1      43.559  28.265  26.486  1.00  0.00    -0.237 OA
ATOM     94  O   UNL A   1      42.298  27.170  24.681  1.00  0.00    -0.744 OA
ENDBRANCH  88  91
ENDBRANCH  61  84
ENDBRANCH  35  36
ENDBRANCH  27  30
ENDBRANCH  25  26
ENDBRANCH   1  25
TORSDOF 15
ENDMDL
MODEL 3
REMARK VINA RESULT:     -11.9      1.587      2.004
REMARK SMILES Cc1nc2n(n1)[C@@H](c1ccc([N+](=O)[O-])o1)CC(C(=O)NCCCNC(=O)c1ccc(-c3c4nc(c(-c5cccc(S(=O)(=O)[O-])c5F)c5ccc([nH]5)c(-c5cccc(S(=O)(=O)[O-])c5F)c5nc(c(-c6cccc(S(=O)(=O)[O-])c6F)c6ccc3[nH]6)C=C5)C=C4)cc1)=N2
REMARK SMILES IDX 22 1 21 2 20 3 18 4 19 5 17 7 1 8 2 9 3 10 6 11 4 12 5 13
REMARK SMILES IDX 90 14 7 15 16 16 8 17 9 18 15 19 10 20 11 21 12 22 13 23
REMARK SMILES IDX 14 24 23 25 24 26 25 27 26 29 27 30 28 31 89 32 29 33 88 34
REMARK SMILES IDX 30 35 31 36 32 37 82 38 33 39 87 40 81 41 83 42 34 43 86 44
REMARK SMILES IDX 80 45 79 46 35 48 67 49 47 50 66 51 48 52 51 53 65 54 84 55
REMARK SMILES IDX 49 56 50 57 64 59 85 60 52 61 36 62 37 63 45 64 38 65 40 66
REMARK SMILES IDX 46 67 39 68 41 69 42 70 43 71 44 72 68 73 69 74 77 75 70 76
REMARK SMILES IDX 72 77 78 78 71 79 73 80 74 81 75 82 76 83 53 84 54 85 62 86
REMARK SMILES IDX 55 87 57 88 63 89 56 90 58 91 59 92 60 93 61 94
REMARK H PARENT 20 6 24 28 83 47 51 58
REMARK Flexibility Score: inf
ROOT
ATOM      1  C   UNL A   1      38.476  20.828  25.723  1.00  0.00     0.042 C 
ENDROOT
BRANCH   1   2
ATOM      2  C   UNL A   1      37.338  21.310  24.810  1.00  0.00     0.118 C 
BRANCH   2   3
ATOM      3  N   UNL A   1      36.024  21.138  25.406  1.00  0.00    -0.351 N 
ATOM      4  C   UNL A   1      34.794  21.730  25.283  1.00  0.00     0.265 C 
ATOM      5  O   UNL A   1      33.866  21.212  25.904  1.00  0.00    -0.268 OA
ATOM      6  H   UNL A   1      36.016  20.409  26.067  1.00  0.00     0.163 HD
BRANCH   4   7
ATOM      7  C   UNL A   1      34.477  22.977  24.432  1.00  0.00     0.112 C 
ATOM      8  C   UNL A   1      32.419  25.550  19.642  1.00  0.00     0.092 C 
ATOM      9  C   UNL A   1      32.982  25.107  20.933  1.00  0.00     0.149 A 
ATOM     10  N   UNL A   1      33.060  23.785  21.278  1.00  0.00    -0.195 NA
ATOM     11  N   UNL A   1      33.446  25.959  21.857  1.00  0.00    -0.154 NA
ATOM     12  C   UNL A   1      33.574  23.794  22.491  1.00  0.00     0.249 A 
ATOM     13  N   UNL A   1      33.777  25.098  22.841  1.00  0.00    -0.219 N 
ATOM     14  N   UNL A   1      33.859  22.758  23.307  1.00  0.00    -0.211 NA
ATOM     15  C   UNL A   1      34.328  25.514  24.108  1.00  0.00     0.184 C 
ATOM     16  C   UNL A   1      34.936  24.338  24.880  1.00  0.00     0.098 C 
BRANCH  15  17
ATOM     17  C   UNL A   1      33.320  26.247  24.947  1.00  0.00     0.136 A 
ATOM     18  C   UNL A   1      32.688  26.026  26.160  1.00  0.00     0.056 A 
ATOM     19  O   UNL A   1      32.870  27.427  24.409  1.00  0.00    -0.404 OA
ATOM     20  C   UNL A   1      31.832  27.136  26.392  1.00  0.00     0.134 A 
ATOM     21  C   UNL A   1      31.996  27.957  25.303  1.00  0.00     0.433 A 
BRANCH  21  22
ATOM     22  N   UNL A   1      31.422  29.217  24.950  1.00  0.00     0.102 N 
ATOM     23  O   UNL A   1      31.479  30.106  25.809  1.00  0.00    -0.256 OA
ATOM     24  O   UNL A   1      30.905  29.315  23.830  1.00  0.00    -0.256 OA
ENDBRANCH  21  22
ENDBRANCH  15  17
ENDBRANCH   4   7
ENDBRANCH   2   3
ENDBRANCH   1   2
BRANCH   1  25
ATOM     25  C   UNL A   1      39.420  21.953  26.188  1.00  0.00     0.118 C 
BRANCH  25  26
ATOM     26  N   UNL A   1      40.543  21.391  26.924  1.00  0.00    -0.352 N 
ATOM     27  C   UNL A   1      41.758  21.904  27.278  1.00  0.00     0.251 C 
ATOM     28  H   UNL A   1      40.399  20.465  27.223  1.00  0.00     0.163 HD
ATOM     29  O   UNL A   1      42.647  21.093  27.548  1.00  0.00    -0.269 OA
BRANCH  27  30
ATOM     30  C   UNL A   1      42.042  23.353  27.375  1.00  0.00     0.039 A 
ATOM     31  C   UNL A   1      41.360  24.064  28.371  1.00  0.00     0.014 A 
ATOM     32  C   UNL A   1      42.800  24.049  26.429  1.00  0.00     0.014 A 
ATOM     33  C   UNL A   1      41.444  25.453  28.433  1.00  0.00     0.010 A 
ATOM     34  C   UNL A   1      42.890  25.447  26.495  1.00  0.00     0.010 A 
ATOM     35  C   UNL A   1      42.215  26.156  27.498  1.00  0.00    -0.014 A 
BRANCH  35  36
ATOM     36  C   UNL A   1      42.346  27.616  27.687  1.00  0.00     0.031 A 
ATOM     37  C   UNL A   1      41.064  28.384  27.707  1.00  0.00     0.074 A 
ATOM     38  C   UNL A   1      43.446  28.158  28.255  1.00  0.00     0.049 A 
ATOM     39  N   UNL A   1      40.323  28.497  28.771  1.00  0.00    -0.248 NA
ATOM     40  C   UNL A   1      40.414  28.861  26.488  1.00  0.00     0.031 C 
ATOM     41  C   UNL A   1      44.177  27.515  29.355  1.00  0.00     0.029 A 
ATOM     42  N   UNL A   1      43.977  29.429  28.191  1.00  0.00    -0.354 N 
ATOM     43  C   UNL A   1      39.102  29.018  28.377  1.00  0.00     0.074 A 
ATOM     44  C   UNL A   1      39.209  29.233  26.949  1.00  0.00     0.031 C 
ATOM     45  C   UNL A   1      44.935  28.446  29.972  1.00  0.00     0.029 A 
ATOM     46  C   UNL A   1      44.871  29.704  29.228  1.00  0.00     0.049 A 
ATOM     47  H   UNL A   1      43.751  30.076  27.485  1.00  0.00     0.167 HD
ATOM     48  C   UNL A   1      38.080  29.251  29.246  1.00  0.00     0.034 A 
ATOM     49  C   UNL A   1      45.054  30.936  29.788  1.00  0.00     0.034 A 
ATOM     50  C   UNL A   1      38.368  28.958  30.620  1.00  0.00     0.049 A 
ATOM     51  C   UNL A   1      43.744  31.123  30.508  1.00  0.00     0.074 A 
ATOM     52  C   UNL A   1      38.150  27.930  31.511  1.00  0.00     0.029 A 
ATOM     53  N   UNL A   1      39.121  29.865  31.328  1.00  0.00    -0.354 N 
ATOM     54  N   UNL A   1      43.415  30.563  31.642  1.00  0.00    -0.248 NA
ATOM     55  C   UNL A   1      42.618  31.648  29.735  1.00  0.00     0.031 C 
ATOM     56  C   UNL A   1      39.166  28.068  32.513  1.00  0.00     0.029 A 
ATOM     57  C   UNL A   1      39.962  29.151  32.144  1.00  0.00     0.049 A 
ATOM     58  H   UNL A   1      39.067  30.846  31.262  1.00  0.00     0.167 HD
ATOM     59  C   UNL A   1      42.030  30.394  31.582  1.00  0.00     0.074 A 
ATOM     60  C   UNL A   1      41.603  31.103  30.391  1.00  0.00     0.031 C 
ATOM     61  C   UNL A   1      41.329  29.551  32.399  1.00  0.00     0.034 A 
BRANCH  48  62
ATOM     62  C   UNL A   1      36.824  29.963  28.908  1.00  0.00     0.023 A 
ATOM     63  C   UNL A   1      35.894  29.248  28.126  1.00  0.00     0.012 A 
ATOM     64  C   UNL A   1      36.628  31.338  29.128  1.00  0.00     0.148 A 
ATOM     65  C   UNL A   1      34.818  29.891  27.522  1.00  0.00     0.002 A 
ATOM     66  C   UNL A   1      35.540  31.974  28.530  1.00  0.00     0.091 A 
ATOM     67  F   UNL A   1      37.526  32.004  29.868  1.00  0.00    -0.205 F 
ATOM     68  C   UNL A   1      34.647  31.256  27.716  1.00  0.00     0.022 A 
BRANCH  66  69
ATOM     69  S   UNL A   1      35.205  33.732  28.712  1.00  0.00     0.127 S 
ATOM     70  O   UNL A   1      34.198  33.740  29.776  1.00  0.00    -0.237 OA
ATOM     71  O   UNL A   1      36.517  34.247  29.117  1.00  0.00    -0.237 OA
ATOM     72  O   UNL A   1      34.750  34.191  27.414  1.00  0.00    -0.744 OA
ENDBRANCH  66  69
ENDBRANCH  48  62
BRANCH  49  73
ATOM     73  C   UNL A   1      45.675  31.981  28.905  1.00  0.00     0.023 A 
ATOM     74  C   UNL A   1      46.993  32.391  29.226  1.00  0.00     0.012 A 
ATOM     75  C   UNL A   1      45.060  32.602  27.801  1.00  0.00     0.148 A 
ATOM     76  C   UNL A   1      47.703  33.291  28.428  1.00  0.00     0.002 A 
ATOM     77  C   UNL A   1      45.792  33.447  26.966  1.00  0.00     0.091 A 
ATOM     78  F   UNL A   1      43.761  32.379  27.569  1.00  0.00    -0.205 F 
ATOM     79  C   UNL A   1      47.113  33.793  27.276  1.00  0.00     0.022 A 
BRANCH  77  80
ATOM     80  S   UNL A   1      45.145  34.064  25.405  1.00  0.00     0.127 S 
ATOM     81  O   UNL A   1      46.315  34.728  24.833  1.00  0.00    -0.237 OA
ATOM     82  O   UNL A   1      44.756  32.820  24.742  1.00  0.00    -0.237 OA
ATOM     83  O   UNL A   1      44.040  34.944  25.754  1.00  0.00    -0.744 OA
ENDBRANCH  77  80
ENDBRANCH  49  73
BRANCH  61  84
ATOM     84  C   UNL A   1      42.117  28.877  33.487  1.00  0.00     0.023 A 
ATOM     85  C   UNL A   1      42.545  27.550  33.291  1.00  0.00     0.012 A 
ATOM     86  C   UNL A   1      42.479  29.544  34.677  1.00  0.00     0.148 A 
ATOM     87  C   UNL A   1      43.330  26.903  34.245  1.00  0.00     0.002 A 
ATOM     88  C   UNL A   1      43.302  28.911  35.602  1.00  0.00     0.091 A 
ATOM     89  F   UNL A   1      42.022  30.787  34.889  1.00  0.00    -0.205 F 
ATOM     90  C   UNL A   1      43.723  27.588  35.390  1.00  0.00     0.022 A 
BRANCH  88  91
ATOM     91  S   UNL A   1      43.928  29.730  37.075  1.00  0.00     0.127 S 
ATOM     92  O   UNL A   1      42.717  30.336  37.627  1.00  0.00    -0.237 OA
ATOM     93  O   UNL A   1      44.448  28.601  37.848  1.00  0.00    -0.237 OA
ATOM     94  O   UNL A   1      44.939  30.676  36.624  1.00  0.00    -0.744 OA
ENDBRANCH  88  91
ENDBRANCH  61  84
ENDBRANCH  35  36
ENDBRANCH  27  30
ENDBRANCH  25  26
ENDBRANCH   1  25
TORSDOF 15
ENDMDL
