MODEL 1
REMARK VINA RESULT:     -12.1      0.000      0.000
REMARK SMILES CC(C)n1ccc(C[C@@H](C(=O)NCCCNC(=O)c2ccc(-c3c4nc(c(-c5cccc(S(=O)(=O)[O-])c5F)c5ccc([nH]5)c(-c5cccc(S(=O)(=O)[O-])c5F)c5nc(c(-c6cccc(S(=O)(=O)[O-])c6F)c6ccc3[nH]6)C=C5)C=C4)cc2)c2cccc(Cl)c2)n1
REMARK SMILES IDX 14 1 13 2 12 3 10 4 11 5 9 7 8 8 7 9 4 10 5 11 89 12 6 13
REMARK SMILES IDX 2 14 1 15 3 16 82 17 83 18 88 19 84 20 86 21 85 22 87 23
REMARK SMILES IDX 15 24 16 25 17 26 18 28 19 29 20 30 81 31 21 32 80 33 22 34
REMARK SMILES IDX 23 35 24 36 74 37 25 38 79 39 73 40 75 41 26 42 78 43 72 44
REMARK SMILES IDX 71 45 27 47 59 48 39 49 58 50 40 51 43 52 57 53 76 54 41 55
REMARK SMILES IDX 42 56 56 58 77 59 44 60 28 61 29 62 37 63 30 64 32 65 38 66
REMARK SMILES IDX 31 67 33 68 34 69 35 70 36 71 60 72 61 73 69 74 62 75 64 76
REMARK SMILES IDX 70 77 63 78 65 79 66 80 67 81 68 82 45 83 46 84 54 85 47 86
REMARK SMILES IDX 49 87 55 88 48 89 50 90 51 91 52 92 53 93
REMARK H PARENT 12 6 16 27 75 46 43 57
REMARK Flexibility Score: inf
ROOT
ATOM      1  C   UNL A   1      38.587  21.595  25.576  1.00  0.00     0.042 C 
ENDROOT
BRANCH   1   2
ATOM      2  C   UNL A   1      37.495  22.641  25.713  1.00  0.00     0.117 C 
BRANCH   2   3
ATOM      3  N   UNL A   1      37.273  23.303  24.440  1.00  0.00    -0.355 N 
ATOM      4  C   UNL A   1      36.125  23.225  23.691  1.00  0.00     0.227 C 
ATOM      5  O   UNL A   1      36.260  23.086  22.476  1.00  0.00    -0.274 OA
ATOM      6  H   UNL A   1      38.008  23.855  24.083  1.00  0.00     0.163 HD
BRANCH   4   7
ATOM      7  C   UNL A   1      34.751  23.361  24.361  1.00  0.00     0.114 C 
BRANCH   7   8
ATOM      8  C   UNL A   1      33.700  22.444  23.691  1.00  0.00     0.076 C 
BRANCH   8   9
ATOM      9  C   UNL A   1      33.386  21.125  24.326  1.00  0.00     0.064 A 
ATOM     10  N   UNL A   1      32.972  19.042  24.564  1.00  0.00    -0.270 N 
ATOM     11  C   UNL A   1      33.088  19.531  25.836  1.00  0.00     0.109 A 
ATOM     12  N   UNL A   1      33.144  20.008  23.616  1.00  0.00    -0.178 NA
ATOM     13  C   UNL A   1      33.381  20.865  25.718  1.00  0.00     0.045 A 
BRANCH  10  14
ATOM     14  C   UNL A   1      32.735  17.652  24.171  1.00  0.00     0.101 C 
ATOM     15  C   UNL A   1      33.828  17.094  23.252  1.00  0.00     0.033 C 
ATOM     16  C   UNL A   1      32.566  16.708  25.363  1.00  0.00     0.033 C 
ENDBRANCH  10  14
ENDBRANCH   8   9
ENDBRANCH   7   8
BRANCH   7  17
ATOM     17  C   UNL A   1      34.195  24.813  24.315  1.00  0.00    -0.034 A 
ATOM     18  C   UNL A   1      33.796  25.344  23.071  1.00  0.00     0.004 A 
ATOM     19  C   UNL A   1      34.164  25.676  25.428  1.00  0.00     0.025 A 
ATOM     20  C   UNL A   1      33.460  26.694  22.929  1.00  0.00     0.002 A 
ATOM     21  C   UNL A   1      33.810  27.023  25.284  1.00  0.00     0.041 A 
ATOM     22  C   UNL A   1      33.477  27.539  24.035  1.00  0.00     0.020 A 
ATOM     23  Cl  UNL A   1      33.800  28.070  26.649  1.00  0.00    -0.084 Cl
ENDBRANCH   7  17
ENDBRANCH   4   7
ENDBRANCH   2   3
ENDBRANCH   1   2
BRANCH   1  24
ATOM     24  C   UNL A   1      39.747  21.718  26.523  1.00  0.00     0.118 C 
BRANCH  24  25
ATOM     25  N   UNL A   1      41.048  21.944  25.898  1.00  0.00    -0.352 N 
ATOM     26  C   UNL A   1      41.823  23.104  25.876  1.00  0.00     0.251 C 
ATOM     27  H   UNL A   1      41.431  21.169  25.427  1.00  0.00     0.163 HD
ATOM     28  O   UNL A   1      42.830  23.150  25.197  1.00  0.00    -0.269 OA
BRANCH  26  29
ATOM     29  C   UNL A   1      41.406  24.286  26.677  1.00  0.00     0.039 A 
ATOM     30  C   UNL A   1      40.289  25.079  26.390  1.00  0.00     0.014 A 
ATOM     31  C   UNL A   1      42.224  24.703  27.702  1.00  0.00     0.014 A 
ATOM     32  C   UNL A   1      40.139  26.285  27.091  1.00  0.00     0.010 A 
ATOM     33  C   UNL A   1      41.730  25.491  28.678  1.00  0.00     0.010 A 
ATOM     34  C   UNL A   1      40.971  26.514  28.184  1.00  0.00    -0.014 A 
BRANCH  34  35
ATOM     35  C   UNL A   1      41.117  27.725  28.957  1.00  0.00     0.031 A 
ATOM     36  C   UNL A   1      42.064  28.691  28.366  1.00  0.00     0.074 A 
ATOM     37  C   UNL A   1      40.183  28.098  29.863  1.00  0.00     0.049 A 
ATOM     38  N   UNL A   1      43.270  28.931  28.753  1.00  0.00    -0.248 NA
ATOM     39  C   UNL A   1      41.717  29.294  27.069  1.00  0.00     0.031 C 
ATOM     40  C   UNL A   1      38.913  27.441  30.215  1.00  0.00     0.029 A 
ATOM     41  N   UNL A   1      40.114  29.257  30.567  1.00  0.00    -0.354 N 
ATOM     42  C   UNL A   1      43.733  29.908  27.881  1.00  0.00     0.074 A 
ATOM     43  C   UNL A   1      42.882  29.846  26.726  1.00  0.00     0.031 C 
ATOM     44  C   UNL A   1      38.123  28.309  30.890  1.00  0.00     0.029 A 
ATOM     45  C   UNL A   1      38.880  29.518  31.151  1.00  0.00     0.049 A 
ATOM     46  H   UNL A   1      40.882  29.867  30.658  1.00  0.00     0.167 HD
ATOM     47  C   UNL A   1      44.577  30.892  28.298  1.00  0.00     0.034 A 
ATOM     48  C   UNL A   1      38.513  30.677  31.754  1.00  0.00     0.034 A 
ATOM     49  C   UNL A   1      45.044  30.628  29.639  1.00  0.00     0.049 A 
ATOM     50  C   UNL A   1      39.764  31.413  32.066  1.00  0.00     0.074 A 
ATOM     51  C   UNL A   1      45.749  29.608  30.246  1.00  0.00     0.029 A 
ATOM     52  N   UNL A   1      44.399  31.301  30.653  1.00  0.00    -0.354 N 
ATOM     53  N   UNL A   1      40.656  30.988  32.918  1.00  0.00    -0.248 NA
ATOM     54  C   UNL A   1      40.241  32.385  31.096  1.00  0.00     0.031 C 
ATOM     55  C   UNL A   1      45.129  29.440  31.520  1.00  0.00     0.029 A 
ATOM     56  C   UNL A   1      44.127  30.405  31.654  1.00  0.00     0.049 A 
ATOM     57  H   UNL A   1      44.174  32.260  30.658  1.00  0.00     0.167 HD
ATOM     58  C   UNL A   1      41.877  31.275  32.316  1.00  0.00     0.074 A 
ATOM     59  C   UNL A   1      41.559  32.238  31.262  1.00  0.00     0.031 C 
ATOM     60  C   UNL A   1      42.971  30.483  32.528  1.00  0.00     0.034 A 
BRANCH  47  61
ATOM     61  C   UNL A   1      44.714  32.262  27.676  1.00  0.00     0.023 A 
ATOM     62  C   UNL A   1      45.867  32.484  26.891  1.00  0.00     0.012 A 
ATOM     63  C   UNL A   1      43.923  33.394  27.979  1.00  0.00     0.148 A 
ATOM     64  C   UNL A   1      46.239  33.766  26.475  1.00  0.00     0.002 A 
ATOM     65  C   UNL A   1      44.250  34.654  27.490  1.00  0.00     0.091 A 
ATOM     66  F   UNL A   1      42.922  33.306  28.857  1.00  0.00    -0.205 F 
ATOM     67  C   UNL A   1      45.425  34.852  26.765  1.00  0.00     0.022 A 
BRANCH  65  68
ATOM     68  S   UNL A   1      43.194  36.080  27.789  1.00  0.00     0.127 S 
ATOM     69  O   UNL A   1      43.473  36.361  29.193  1.00  0.00    -0.237 OA
ATOM     70  O   UNL A   1      43.733  37.057  26.841  1.00  0.00    -0.237 OA
ATOM     71  O   UNL A   1      41.843  35.633  27.475  1.00  0.00    -0.744 OA
ENDBRANCH  65  68
ENDBRANCH  47  61
BRANCH  48  72
ATOM     72  C   UNL A   1      37.183  31.319  31.861  1.00  0.00     0.023 A 
ATOM     73  C   UNL A   1      36.688  31.710  33.121  1.00  0.00     0.012 A 
ATOM     74  C   UNL A   1      36.526  31.803  30.707  1.00  0.00     0.148 A 
ATOM     75  C   UNL A   1      35.594  32.578  33.231  1.00  0.00     0.002 A 
ATOM     76  C   UNL A   1      35.439  32.667  30.822  1.00  0.00     0.091 A 
ATOM     77  F   UNL A   1      37.027  31.488  29.506  1.00  0.00    -0.205 F 
ATOM     78  C   UNL A   1      34.976  33.065  32.081  1.00  0.00     0.022 A 
BRANCH  76  79
ATOM     79  S   UNL A   1      34.612  33.371  29.388  1.00  0.00     0.127 S 
ATOM     80  O   UNL A   1      35.698  34.123  28.758  1.00  0.00    -0.237 OA
ATOM     81  O   UNL A   1      34.195  32.172  28.665  1.00  0.00    -0.237 OA
ATOM     82  O   UNL A   1      33.537  34.196  29.923  1.00  0.00    -0.744 OA
ENDBRANCH  76  79
ENDBRANCH  48  72
BRANCH  60  83
ATOM     83  C   UNL A   1      42.874  29.420  33.601  1.00  0.00     0.023 A 
ATOM     84  C   UNL A   1      42.339  28.138  33.347  1.00  0.00     0.012 A 
ATOM     85  C   UNL A   1      43.497  29.651  34.838  1.00  0.00     0.148 A 
ATOM     86  C   UNL A   1      42.405  27.121  34.305  1.00  0.00     0.002 A 
ATOM     87  C   UNL A   1      43.603  28.626  35.771  1.00  0.00     0.091 A 
ATOM     88  F   UNL A   1      44.009  30.871  35.069  1.00  0.00    -0.205 F 
ATOM     89  C   UNL A   1      43.050  27.362  35.513  1.00  0.00     0.022 A 
BRANCH  87  90
ATOM     90  S   UNL A   1      44.535  28.831  37.290  1.00  0.00     0.127 S 
ATOM     91  O   UNL A   1      44.290  27.562  37.974  1.00  0.00    -0.237 OA
ATOM     92  O   UNL A   1      45.903  29.008  36.800  1.00  0.00    -0.237 OA
ATOM     93  O   UNL A   1      43.981  30.012  37.942  1.00  0.00    -0.744 OA
ENDBRANCH  87  90
ENDBRANCH  60  83
ENDBRANCH  34  35
ENDBRANCH  26  29
ENDBRANCH  24  25
ENDBRANCH   1  24
TORSDOF 17
ENDMDL
MODEL 2
REMARK VINA RESULT:     -11.7      3.952      9.385
REMARK SMILES CC(C)n1ccc(C[C@@H](C(=O)NCCCNC(=O)c2ccc(-c3c4nc(c(-c5cccc(S(=O)(=O)[O-])c5F)c5ccc([nH]5)c(-c5cccc(S(=O)(=O)[O-])c5F)c5nc(c(-c6cccc(S(=O)(=O)[O-])c6F)c6ccc3[nH]6)C=C5)C=C4)cc2)c2cccc(Cl)c2)n1
REMARK SMILES IDX 14 1 13 2 12 3 10 4 11 5 9 7 8 8 7 9 4 10 5 11 89 12 6 13
REMARK SMILES IDX 2 14 1 15 3 16 82 17 83 18 88 19 84 20 86 21 85 22 87 23
REMARK SMILES IDX 15 24 16 25 17 26 18 28 19 29 20 30 81 31 21 32 80 33 22 34
REMARK SMILES IDX 23 35 24 36 74 37 25 38 79 39 73 40 75 41 26 42 78 43 72 44
REMARK SMILES IDX 71 45 27 47 59 48 39 49 58 50 40 51 43 52 57 53 76 54 41 55
REMARK SMILES IDX 42 56 56 58 77 59 44 60 28 61 29 62 37 63 30 64 32 65 38 66
REMARK SMILES IDX 31 67 33 68 34 69 35 70 36 71 60 72 61 73 69 74 62 75 64 76
REMARK SMILES IDX 70 77 63 78 65 79 66 80 67 81 68 82 45 83 46 84 54 85 47 86
REMARK SMILES IDX 49 87 55 88 48 89 50 90 51 91 52 92 53 93
REMARK H PARENT 12 6 16 27 75 46 43 57
REMARK Flexibility Score: inf
ROOT
ATOM      1  C   UNL A   1      33.122  31.258  27.520  1.00  0.00     0.042 C 
ENDROOT
BRANCH   1   2
ATOM      2  C   UNL A   1      33.367  30.054  26.627  1.00  0.00     0.117 C 
BRANCH   2   3
ATOM      3  N   UNL A   1      32.947  28.838  27.300  1.00  0.00    -0.355 N 
ATOM      4  C   UNL A   1      32.027  27.940  26.819  1.00  0.00     0.227 C 
ATOM      5  O   UNL A   1      31.208  27.496  27.622  1.00  0.00    -0.274 OA
ATOM      6  H   UNL A   1      33.356  28.641  28.174  1.00  0.00     0.163 HD
BRANCH   4   7
ATOM      7  C   UNL A   1      32.075  27.489  25.352  1.00  0.00     0.114 C 
BRANCH   7   8
ATOM      8  C   UNL A   1      30.656  27.384  24.743  1.00  0.00     0.076 C 
BRANCH   8   9
ATOM      9  C   UNL A   1      30.263  28.347  23.667  1.00  0.00     0.064 A 
ATOM     10  N   UNL A   1      29.129  29.759  22.532  1.00  0.00    -0.270 N 
ATOM     11  C   UNL A   1      30.354  29.713  21.924  1.00  0.00     0.109 A 
ATOM     12  N   UNL A   1      29.046  28.919  23.603  1.00  0.00    -0.178 NA
ATOM     13  C   UNL A   1      31.117  28.833  22.647  1.00  0.00     0.045 A 
BRANCH  10  14
ATOM     14  C   UNL A   1      27.995  30.611  22.167  1.00  0.00     0.101 C 
ATOM     15  C   UNL A   1      27.625  31.616  23.264  1.00  0.00     0.033 C 
ATOM     16  C   UNL A   1      28.207  31.369  20.856  1.00  0.00     0.033 C 
ENDBRANCH  10  14
ENDBRANCH   8   9
ENDBRANCH   7   8
BRANCH   7  17
ATOM     17  C   UNL A   1      32.762  26.106  25.166  1.00  0.00    -0.034 A 
ATOM     18  C   UNL A   1      34.049  25.912  25.709  1.00  0.00     0.004 A 
ATOM     19  C   UNL A   1      32.222  25.060  24.391  1.00  0.00     0.025 A 
ATOM     20  C   UNL A   1      34.794  24.763  25.426  1.00  0.00     0.002 A 
ATOM     21  C   UNL A   1      32.965  23.904  24.124  1.00  0.00     0.041 A 
ATOM     22  C   UNL A   1      34.257  23.762  24.622  1.00  0.00     0.020 A 
ATOM     23  Cl  UNL A   1      32.301  22.647  23.156  1.00  0.00    -0.084 Cl
ENDBRANCH   7  17
ENDBRANCH   4   7
ENDBRANCH   2   3
ENDBRANCH   1   2
BRANCH   1  24
ATOM     24  C   UNL A   1      34.338  32.043  27.924  1.00  0.00     0.118 C 
BRANCH  24  25
ATOM     25  N   UNL A   1      34.403  32.421  29.333  1.00  0.00    -0.352 N 
ATOM     26  C   UNL A   1      35.283  31.977  30.322  1.00  0.00     0.251 C 
ATOM     27  H   UNL A   1      33.733  33.079  29.627  1.00  0.00     0.163 HD
ATOM     28  O   UNL A   1      35.112  32.305  31.479  1.00  0.00    -0.269 OA
BRANCH  26  29
ATOM     29  C   UNL A   1      36.421  31.093  29.955  1.00  0.00     0.039 A 
ATOM     30  C   UNL A   1      36.299  29.730  29.662  1.00  0.00     0.014 A 
ATOM     31  C   UNL A   1      37.696  31.610  30.011  1.00  0.00     0.014 A 
ATOM     32  C   UNL A   1      37.474  28.972  29.550  1.00  0.00     0.010 A 
ATOM     33  C   UNL A   1      38.696  31.008  29.337  1.00  0.00     0.010 A 
ATOM     34  C   UNL A   1      38.689  29.651  29.504  1.00  0.00    -0.014 A 
BRANCH  34  35
ATOM     35  C   UNL A   1      40.024  29.101  29.549  1.00  0.00     0.031 A 
ATOM     36  C   UNL A   1      40.517  28.863  30.919  1.00  0.00     0.074 A 
ATOM     37  C   UNL A   1      40.565  28.482  28.473  1.00  0.00     0.049 A 
ATOM     38  N   UNL A   1      41.366  29.581  31.573  1.00  0.00    -0.248 NA
ATOM     39  C   UNL A   1      39.829  27.851  31.737  1.00  0.00     0.031 C 
ATOM     40  C   UNL A   1      39.972  28.225  27.150  1.00  0.00     0.029 A 
ATOM     41  N   UNL A   1      41.742  27.810  28.398  1.00  0.00    -0.354 N 
ATOM     42  C   UNL A   1      41.494  28.944  32.801  1.00  0.00     0.074 A 
ATOM     43  C   UNL A   1      40.329  28.117  32.945  1.00  0.00     0.031 C 
ATOM     44  C   UNL A   1      40.698  27.284  26.501  1.00  0.00     0.029 A 
ATOM     45  C   UNL A   1      41.880  26.988  27.286  1.00  0.00     0.049 A 
ATOM     46  H   UNL A   1      42.447  27.899  29.080  1.00  0.00     0.167 HD
ATOM     47  C   UNL A   1      42.683  28.907  33.462  1.00  0.00     0.034 A 
ATOM     48  C   UNL A   1      42.880  26.094  27.074  1.00  0.00     0.034 A 
ATOM     49  C   UNL A   1      43.650  29.769  32.821  1.00  0.00     0.049 A 
ATOM     50  C   UNL A   1      43.990  26.467  27.987  1.00  0.00     0.074 A 
ATOM     51  C   UNL A   1      43.720  31.117  32.537  1.00  0.00     0.029 A 
ATOM     52  N   UNL A   1      44.552  29.155  31.982  1.00  0.00    -0.354 N 
ATOM     53  N   UNL A   1      44.659  27.583  27.888  1.00  0.00    -0.248 NA
ATOM     54  C   UNL A   1      44.049  25.817  29.286  1.00  0.00     0.031 C 
ATOM     55  C   UNL A   1      44.311  31.190  31.240  1.00  0.00     0.029 A 
ATOM     56  C   UNL A   1      44.632  29.893  30.829  1.00  0.00     0.049 A 
ATOM     57  H   UNL A   1      45.053  28.330  32.176  1.00  0.00     0.167 HD
ATOM     58  C   UNL A   1      44.833  28.002  29.203  1.00  0.00     0.074 A 
ATOM     59  C   UNL A   1      44.546  26.821  30.015  1.00  0.00     0.031 C 
ATOM     60  C   UNL A   1      44.896  29.331  29.518  1.00  0.00     0.034 A 
BRANCH  47  61
ATOM     61  C   UNL A   1      43.111  27.851  34.454  1.00  0.00     0.023 A 
ATOM     62  C   UNL A   1      43.369  28.290  35.770  1.00  0.00     0.012 A 
ATOM     63  C   UNL A   1      43.486  26.523  34.142  1.00  0.00     0.148 A 
ATOM     64  C   UNL A   1      44.009  27.474  36.708  1.00  0.00     0.002 A 
ATOM     65  C   UNL A   1      44.044  25.686  35.103  1.00  0.00     0.091 A 
ATOM     66  F   UNL A   1      43.444  26.086  32.882  1.00  0.00    -0.205 F 
ATOM     67  C   UNL A   1      44.337  26.166  36.379  1.00  0.00     0.022 A 
BRANCH  65  68
ATOM     68  S   UNL A   1      44.430  23.967  34.740  1.00  0.00     0.127 S 
ATOM     69  O   UNL A   1      43.131  23.461  34.308  1.00  0.00    -0.237 OA
ATOM     70  O   UNL A   1      45.429  24.100  33.679  1.00  0.00    -0.237 OA
ATOM     71  O   UNL A   1      44.956  23.417  35.983  1.00  0.00    -0.744 OA
ENDBRANCH  65  68
ENDBRANCH  47  61
BRANCH  48  72
ATOM     72  C   UNL A   1      42.872  24.807  26.342  1.00  0.00     0.023 A 
ATOM     73  C   UNL A   1      43.842  24.553  25.352  1.00  0.00     0.012 A 
ATOM     74  C   UNL A   1      42.094  23.723  26.807  1.00  0.00     0.148 A 
ATOM     75  C   UNL A   1      44.054  23.257  24.863  1.00  0.00     0.002 A 
ATOM     76  C   UNL A   1      42.308  22.437  26.317  1.00  0.00     0.091 A 
ATOM     77  F   UNL A   1      41.213  23.943  27.791  1.00  0.00    -0.205 F 
ATOM     78  C   UNL A   1      43.294  22.198  25.352  1.00  0.00     0.022 A 
BRANCH  76  79
ATOM     79  S   UNL A   1      41.398  21.010  26.925  1.00  0.00     0.127 S 
ATOM     80  O   UNL A   1      41.351  20.158  25.736  1.00  0.00    -0.237 OA
ATOM     81  O   UNL A   1      42.274  20.528  27.990  1.00  0.00    -0.237 OA
ATOM     82  O   UNL A   1      40.104  21.524  27.352  1.00  0.00    -0.744 OA
ENDBRANCH  76  79
ENDBRANCH  48  72
BRANCH  60  83
ATOM     83  C   UNL A   1      44.989  30.322  28.376  1.00  0.00     0.023 A 
ATOM     84  C   UNL A   1      43.846  30.810  27.705  1.00  0.00     0.012 A 
ATOM     85  C   UNL A   1      46.232  30.908  28.092  1.00  0.00     0.148 A 
ATOM     86  C   UNL A   1      43.942  31.840  26.765  1.00  0.00     0.002 A 
ATOM     87  C   UNL A   1      46.319  31.964  27.191  1.00  0.00     0.091 A 
ATOM     88  F   UNL A   1      47.313  30.442  28.738  1.00  0.00    -0.205 F 
ATOM     89  C   UNL A   1      45.179  32.427  26.517  1.00  0.00     0.022 A 
BRANCH  87  90
ATOM     90  S   UNL A   1      47.857  32.848  26.927  1.00  0.00     0.127 S 
ATOM     91  O   UNL A   1      48.761  31.776  26.513  1.00  0.00    -0.237 OA
ATOM     92  O   UNL A   1      47.501  33.791  25.866  1.00  0.00    -0.237 OA
ATOM     93  O   UNL A   1      48.178  33.482  28.201  1.00  0.00    -0.744 OA
ENDBRANCH  87  90
ENDBRANCH  60  83
ENDBRANCH  34  35
ENDBRANCH  26  29
ENDBRANCH  24  25
ENDBRANCH   1  24
TORSDOF 17
ENDMDL
MODEL 3
REMARK VINA RESULT:     -11.6      4.032      8.135
REMARK SMILES CC(C)n1ccc(C[C@@H](C(=O)NCCCNC(=O)c2ccc(-c3c4nc(c(-c5cccc(S(=O)(=O)[O-])c5F)c5ccc([nH]5)c(-c5cccc(S(=O)(=O)[O-])c5F)c5nc(c(-c6cccc(S(=O)(=O)[O-])c6F)c6ccc3[nH]6)C=C5)C=C4)cc2)c2cccc(Cl)c2)n1
REMARK SMILES IDX 14 1 13 2 12 3 10 4 11 5 9 7 8 8 7 9 4 10 5 11 89 12 6 13
REMARK SMILES IDX 2 14 1 15 3 16 82 17 83 18 88 19 84 20 86 21 85 22 87 23
REMARK SMILES IDX 15 24 16 25 17 26 18 28 19 29 20 30 81 31 21 32 80 33 22 34
REMARK SMILES IDX 23 35 24 36 74 37 25 38 79 39 73 40 75 41 26 42 78 43 72 44
REMARK SMILES IDX 71 45 27 47 59 48 39 49 58 50 40 51 43 52 57 53 76 54 41 55
REMARK SMILES IDX 42 56 56 58 77 59 44 60 28 61 29 62 37 63 30 64 32 65 38 66
REMARK SMILES IDX 31 67 33 68 34 69 35 70 36 71 60 72 61 73 69 74 62 75 64 76
REMARK SMILES IDX 70 77 63 78 65 79 66 80 67 81 68 82 45 83 46 84 54 85 47 86
REMARK SMILES IDX 49 87 55 88 48 89 50 90 51 91 52 92 53 93
REMARK H PARENT 12 6 16 27 75 46 43 57
REMARK Flexibility Score: inf
ROOT
ATOM      1  C   UNL A   1      32.082  28.795  26.101  1.00  0.00     0.042 C 
ENDROOT
BRANCH   1   2
ATOM      2  C   UNL A   1      32.404  27.912  27.293  1.00  0.00     0.117 C 
BRANCH   2   3
ATOM      3  N   UNL A   1      31.504  26.772  27.330  1.00  0.00    -0.355 N 
ATOM      4  C   UNL A   1      31.024  26.102  26.232  1.00  0.00     0.227 C 
ATOM      5  O   UNL A   1      29.834  25.791  26.246  1.00  0.00    -0.274 OA
ATOM      6  H   UNL A   1      31.215  26.454  28.216  1.00  0.00     0.163 HD
BRANCH   4   7
ATOM      7  C   UNL A   1      31.965  25.724  25.080  1.00  0.00     0.114 C 
BRANCH   7   8
ATOM      8  C   UNL A   1      31.240  25.779  23.714  1.00  0.00     0.076 C 
BRANCH   8   9
ATOM      9  C   UNL A   1      30.778  27.106  23.198  1.00  0.00     0.064 A 
ATOM     10  N   UNL A   1      29.530  28.788  22.774  1.00  0.00    -0.270 N 
ATOM     11  C   UNL A   1      30.776  29.149  22.340  1.00  0.00     0.109 A 
ATOM     12  N   UNL A   1      29.504  27.529  23.298  1.00  0.00    -0.178 NA
ATOM     13  C   UNL A   1      31.610  28.098  22.624  1.00  0.00     0.045 A 
BRANCH  10  14
ATOM     14  C   UNL A   1      28.317  29.608  22.754  1.00  0.00     0.101 C 
ATOM     15  C   UNL A   1      28.088  30.306  21.408  1.00  0.00     0.033 C 
ATOM     16  C   UNL A   1      27.055  28.828  23.124  1.00  0.00     0.033 C 
ENDBRANCH  10  14
ENDBRANCH   8   9
ENDBRANCH   7   8
BRANCH   7  17
ATOM     17  C   UNL A   1      32.563  24.296  25.230  1.00  0.00    -0.034 A 
ATOM     18  C   UNL A   1      33.648  24.107  26.110  1.00  0.00     0.004 A 
ATOM     19  C   UNL A   1      32.156  23.190  24.457  1.00  0.00     0.025 A 
ATOM     20  C   UNL A   1      34.346  22.896  26.156  1.00  0.00     0.002 A 
ATOM     21  C   UNL A   1      32.847  21.974  24.519  1.00  0.00     0.041 A 
ATOM     22  C   UNL A   1      33.953  21.831  25.352  1.00  0.00     0.020 A 
ATOM     23  Cl  UNL A   1      32.352  20.642  23.550  1.00  0.00    -0.084 Cl
ENDBRANCH   7  17
ENDBRANCH   4   7
ENDBRANCH   2   3
ENDBRANCH   1   2
BRANCH   1  24
ATOM     24  C   UNL A   1      32.830  30.095  26.018  1.00  0.00     0.118 C 
BRANCH  24  25
ATOM     25  N   UNL A   1      32.026  31.298  26.216  1.00  0.00    -0.352 N 
ATOM     26  C   UNL A   1      32.280  32.399  27.035  1.00  0.00     0.251 C 
ATOM     27  H   UNL A   1      31.187  31.337  25.701  1.00  0.00     0.163 HD
ATOM     28  O   UNL A   1      31.433  33.261  27.173  1.00  0.00    -0.269 OA
BRANCH  26  29
ATOM     29  C   UNL A   1      33.582  32.509  27.743  1.00  0.00     0.039 A 
ATOM     30  C   UNL A   1      34.333  33.687  27.837  1.00  0.00     0.014 A 
ATOM     31  C   UNL A   1      34.151  31.362  28.247  1.00  0.00     0.014 A 
ATOM     32  C   UNL A   1      35.640  33.598  28.339  1.00  0.00     0.010 A 
ATOM     33  C   UNL A   1      35.095  31.445  29.206  1.00  0.00     0.010 A 
ATOM     34  C   UNL A   1      36.033  32.399  28.928  1.00  0.00    -0.014 A 
BRANCH  34  35
ATOM     35  C   UNL A   1      37.353  32.011  29.369  1.00  0.00     0.031 A 
ATOM     36  C   UNL A   1      37.767  30.679  28.887  1.00  0.00     0.074 A 
ATOM     37  C   UNL A   1      38.249  32.931  29.797  1.00  0.00     0.049 A 
ATOM     38  N   UNL A   1      37.800  29.584  29.567  1.00  0.00    -0.248 NA
ATOM     39  C   UNL A   1      37.952  30.493  27.439  1.00  0.00     0.031 C 
ATOM     40  C   UNL A   1      38.115  34.395  29.878  1.00  0.00     0.029 A 
ATOM     41  N   UNL A   1      39.554  32.742  30.120  1.00  0.00    -0.354 N 
ATOM     42  C   UNL A   1      38.255  28.625  28.671  1.00  0.00     0.074 A 
ATOM     43  C   UNL A   1      38.023  29.164  27.360  1.00  0.00     0.031 C 
ATOM     44  C   UNL A   1      39.339  34.957  30.016  1.00  0.00     0.029 A 
ATOM     45  C   UNL A   1      40.318  33.902  30.188  1.00  0.00     0.049 A 
ATOM     46  H   UNL A   1      39.932  31.849  30.294  1.00  0.00     0.167 HD
ATOM     47  C   UNL A   1      39.062  27.605  29.071  1.00  0.00     0.034 A 
ATOM     48  C   UNL A   1      41.667  33.961  30.321  1.00  0.00     0.034 A 
ATOM     49  C   UNL A   1      39.166  27.571  30.511  1.00  0.00     0.049 A 
ATOM     50  C   UNL A   1      42.108  32.634  30.820  1.00  0.00     0.074 A 
ATOM     51  C   UNL A   1      38.273  27.423  31.552  1.00  0.00     0.029 A 
ATOM     52  N   UNL A   1      40.294  28.145  31.054  1.00  0.00    -0.354 N 
ATOM     53  N   UNL A   1      41.785  32.162  31.992  1.00  0.00    -0.248 NA
ATOM     54  C   UNL A   1      42.520  31.643  29.841  1.00  0.00     0.031 C 
ATOM     55  C   UNL A   1      38.726  28.330  32.557  1.00  0.00     0.029 A 
ATOM     56  C   UNL A   1      39.906  28.931  32.109  1.00  0.00     0.049 A 
ATOM     57  H   UNL A   1      41.218  28.014  30.741  1.00  0.00     0.167 HD
ATOM     58  C   UNL A   1      41.512  30.817  31.764  1.00  0.00     0.074 A 
ATOM     59  C   UNL A   1      42.097  30.533  30.454  1.00  0.00     0.031 C 
ATOM     60  C   UNL A   1      40.584  30.148  32.512  1.00  0.00     0.034 A 
BRANCH  47  61
ATOM     61  C   UNL A   1      40.043  26.859  28.196  1.00  0.00     0.023 A 
ATOM     62  C   UNL A   1      40.106  25.459  28.371  1.00  0.00     0.012 A 
ATOM     63  C   UNL A   1      41.046  27.444  27.389  1.00  0.00     0.148 A 
ATOM     64  C   UNL A   1      41.135  24.692  27.817  1.00  0.00     0.002 A 
ATOM     65  C   UNL A   1      42.018  26.666  26.769  1.00  0.00     0.091 A 
ATOM     66  F   UNL A   1      41.168  28.771  27.315  1.00  0.00    -0.205 F 
ATOM     67  C   UNL A   1      42.086  25.293  27.005  1.00  0.00     0.022 A 
BRANCH  65  68
ATOM     68  S   UNL A   1      43.235  27.392  25.661  1.00  0.00     0.127 S 
ATOM     69  O   UNL A   1      43.958  26.209  25.205  1.00  0.00    -0.237 OA
ATOM     70  O   UNL A   1      42.384  28.026  24.653  1.00  0.00    -0.237 OA
ATOM     71  O   UNL A   1      43.990  28.335  26.478  1.00  0.00    -0.744 OA
ENDBRANCH  65  68
ENDBRANCH  47  61
BRANCH  48  72
ATOM     72  C   UNL A   1      42.633  34.968  29.825  1.00  0.00     0.023 A 
ATOM     73  C   UNL A   1      42.656  35.310  28.458  1.00  0.00     0.012 A 
ATOM     74  C   UNL A   1      43.333  35.796  30.731  1.00  0.00     0.148 A 
ATOM     75  C   UNL A   1      43.328  36.454  28.010  1.00  0.00     0.002 A 
ATOM     76  C   UNL A   1      43.999  36.933  30.281  1.00  0.00     0.091 A 
ATOM     77  F   UNL A   1      43.264  35.516  32.039  1.00  0.00    -0.205 F 
ATOM     78  C   UNL A   1      43.991  37.272  28.923  1.00  0.00     0.022 A 
BRANCH  76  79
ATOM     79  S   UNL A   1      44.844  38.061  31.398  1.00  0.00     0.127 S 
ATOM     80  O   UNL A   1      43.744  38.520  32.247  1.00  0.00    -0.237 OA
ATOM     81  O   UNL A   1      45.797  37.172  32.057  1.00  0.00    -0.237 OA
ATOM     82  O   UNL A   1      45.422  39.094  30.548  1.00  0.00    -0.744 OA
ENDBRANCH  76  79
ENDBRANCH  48  72
BRANCH  60  83
ATOM     83  C   UNL A   1      40.025  30.849  33.732  1.00  0.00     0.023 A 
ATOM     84  C   UNL A   1      40.752  30.962  34.937  1.00  0.00     0.012 A 
ATOM     85  C   UNL A   1      38.823  31.563  33.607  1.00  0.00     0.148 A 
ATOM     86  C   UNL A   1      40.286  31.748  35.995  1.00  0.00     0.002 A 
ATOM     87  C   UNL A   1      38.384  32.381  34.642  1.00  0.00     0.091 A 
ATOM     88  F   UNL A   1      38.141  31.455  32.456  1.00  0.00    -0.205 F 
ATOM     89  C   UNL A   1      39.106  32.470  35.843  1.00  0.00     0.022 A 
BRANCH  87  90
ATOM     90  S   UNL A   1      36.945  33.437  34.460  1.00  0.00     0.127 S 
ATOM     91  O   UNL A   1      36.076  32.626  33.608  1.00  0.00    -0.237 OA
ATOM     92  O   UNL A   1      36.484  33.584  35.841  1.00  0.00    -0.237 OA
ATOM     93  O   UNL A   1      37.431  34.675  33.861  1.00  0.00    -0.744 OA
ENDBRANCH  87  90
ENDBRANCH  60  83
ENDBRANCH  34  35
ENDBRANCH  26  29
ENDBRANCH  24  25
ENDBRANCH   1  24
TORSDOF 17
ENDMDL
