MODEL 1
REMARK VINA RESULT:     -10.9      0.000      0.000
REMARK SMILES CC(C)[C@@H](CO)NC(=O)[C@H]1CC=CC[C@H]1C(=O)NCCCNC(=O)c1ccc(-c2c3nc(c(-c4cccc(S(=O)(=O)[O-])c4F)c4ccc([nH]4)c(-c4cccc(S(=O)(=O)[O-])c4F)c4nc(c(-c5cccc(S(=O)(=O)[O-])c5F)c5ccc2[nH]5)C=C4)C=C3)cc1
REMARK SMILES IDX 19 1 18 2 16 3 17 4 15 6 10 7 11 8 12 9 14 10 13 11 8 12
REMARK SMILES IDX 7 13 9 15 4 16 2 17 1 18 3 19 5 20 6 21 20 23 21 24 22 25
REMARK SMILES IDX 23 26 24 28 25 29 26 30 87 31 27 32 86 33 28 34 29 35 30 36
REMARK SMILES IDX 80 37 31 38 85 39 79 40 81 41 32 42 84 43 78 44 77 45 33 47
REMARK SMILES IDX 65 48 45 49 64 50 46 51 49 52 63 53 82 54 47 55 48 56 62 58
REMARK SMILES IDX 83 59 50 60 34 61 35 62 43 63 36 64 38 65 44 66 37 67 39 68
REMARK SMILES IDX 40 69 41 70 42 71 66 72 67 73 75 74 68 75 70 76 76 77 69 78
REMARK SMILES IDX 71 79 72 80 73 81 74 82 51 83 52 84 60 85 53 86 55 87 61 88
REMARK SMILES IDX 54 89 56 90 57 91 58 92 59 93
REMARK H PARENT 18 5 7 14 6 22 22 27 81 46 49 57
REMARK Flexibility Score: inf
ROOT
ATOM      1  C   UNL A   1      33.026  26.626  26.398  1.00  0.00     0.117 C 
ENDROOT
BRANCH   1   2
ATOM      2  N   UNL A   1      31.835  25.855  26.696  1.00  0.00    -0.356 N 
ATOM      3  C   UNL A   1      31.503  24.570  26.432  1.00  0.00     0.224 C 
ATOM      4  O   UNL A   1      30.324  24.266  26.657  1.00  0.00    -0.275 OA
ATOM      5  H   UNL A   1      31.141  26.358  27.178  1.00  0.00     0.163 HD
BRANCH   3   6
ATOM      6  C   UNL A   1      32.463  23.498  25.924  1.00  0.00     0.095 C 
ATOM      7  C   UNL A   1      32.805  23.478  24.413  1.00  0.00     0.095 C 
ATOM      8  C   UNL A   1      33.294  22.046  24.080  1.00  0.00     0.041 C 
ATOM      9  C   UNL A   1      34.279  21.497  25.086  1.00  0.00    -0.030 C 
ATOM     10  C   UNL A   1      33.632  23.158  26.852  1.00  0.00     0.041 C 
ATOM     11  C   UNL A   1      34.448  22.011  26.316  1.00  0.00    -0.030 C 
BRANCH   7  12
ATOM     12  C   UNL A   1      33.901  24.437  23.946  1.00  0.00     0.224 C 
ATOM     13  N   UNL A   1      33.615  25.444  23.071  1.00  0.00    -0.351 N 
ATOM     14  H   UNL A   1      34.361  26.072  22.934  1.00  0.00     0.163 HD
ATOM     15  O   UNL A   1      35.070  24.335  24.320  1.00  0.00    -0.275 OA
BRANCH  13  16
ATOM     16  C   UNL A   1      32.409  25.778  22.287  1.00  0.00     0.110 C 
BRANCH  16  17
ATOM     17  C   UNL A   1      32.052  27.290  22.429  1.00  0.00     0.007 C 
ATOM     18  C   UNL A   1      30.949  27.521  23.468  1.00  0.00     0.009 C 
ATOM     19  C   UNL A   1      33.263  28.145  22.804  1.00  0.00     0.009 C 
ENDBRANCH  16  17
BRANCH  16  20
ATOM     20  C   UNL A   1      32.675  25.399  20.810  1.00  0.00     0.181 C 
BRANCH  20  21
ATOM     21  O   UNL A   1      31.622  25.866  19.967  1.00  0.00    -0.394 OA
ATOM     22  H   UNL A   1      31.060  25.118  19.709  1.00  0.00     0.210 HD
ENDBRANCH  20  21
ENDBRANCH  16  20
ENDBRANCH  13  16
ENDBRANCH   7  12
ENDBRANCH   3   6
ENDBRANCH   1   2
BRANCH   1  23
ATOM     23  C   UNL A   1      32.828  28.084  26.790  1.00  0.00     0.042 C 
BRANCH  23  24
ATOM     24  C   UNL A   1      33.859  29.034  26.193  1.00  0.00     0.118 C 
BRANCH  24  25
ATOM     25  N   UNL A   1      33.783  30.356  26.791  1.00  0.00    -0.352 N 
ATOM     26  C   UNL A   1      34.558  30.944  27.762  1.00  0.00     0.251 C 
ATOM     27  H   UNL A   1      33.058  30.924  26.443  1.00  0.00     0.163 HD
ATOM     28  O   UNL A   1      34.153  31.982  28.285  1.00  0.00    -0.269 OA
BRANCH  26  29
ATOM     29  C   UNL A   1      35.858  30.368  28.191  1.00  0.00     0.039 A 
ATOM     30  C   UNL A   1      35.916  29.697  29.419  1.00  0.00     0.014 A 
ATOM     31  C   UNL A   1      37.033  30.557  27.461  1.00  0.00     0.014 A 
ATOM     32  C   UNL A   1      37.134  29.197  29.895  1.00  0.00     0.010 A 
ATOM     33  C   UNL A   1      38.233  29.989  27.898  1.00  0.00     0.010 A 
ATOM     34  C   UNL A   1      38.303  29.324  29.131  1.00  0.00    -0.014 A 
BRANCH  34  35
ATOM     35  C   UNL A   1      39.608  28.793  29.610  1.00  0.00     0.031 A 
ATOM     36  C   UNL A   1      40.354  29.491  30.718  1.00  0.00     0.074 A 
ATOM     37  C   UNL A   1      40.169  27.733  28.995  1.00  0.00     0.049 A 
ATOM     38  N   UNL A   1      41.540  29.234  31.207  1.00  0.00    -0.248 NA
ATOM     39  C   UNL A   1      39.688  30.646  31.343  1.00  0.00     0.031 C 
ATOM     40  C   UNL A   1      39.583  27.003  27.870  1.00  0.00     0.029 A 
ATOM     41  N   UNL A   1      41.373  27.107  29.208  1.00  0.00    -0.354 N 
ATOM     42  C   UNL A   1      41.782  30.217  32.159  1.00  0.00     0.074 A 
ATOM     43  C   UNL A   1      40.629  31.091  32.164  1.00  0.00     0.031 C 
ATOM     44  C   UNL A   1      40.431  26.035  27.487  1.00  0.00     0.029 A 
ATOM     45  C   UNL A   1      41.634  26.095  28.313  1.00  0.00     0.049 A 
ATOM     46  H   UNL A   1      41.991  27.359  29.932  1.00  0.00     0.167 HD
ATOM     47  C   UNL A   1      42.853  30.367  32.975  1.00  0.00     0.034 A 
ATOM     48  C   UNL A   1      42.722  25.314  28.161  1.00  0.00     0.034 A 
ATOM     49  C   UNL A   1      43.975  29.467  33.010  1.00  0.00     0.049 A 
ATOM     50  C   UNL A   1      43.882  25.473  29.107  1.00  0.00     0.074 A 
ATOM     51  C   UNL A   1      45.061  29.482  33.867  1.00  0.00     0.029 A 
ATOM     52  N   UNL A   1      44.158  28.396  32.150  1.00  0.00    -0.354 N 
ATOM     53  N   UNL A   1      44.025  26.314  30.101  1.00  0.00    -0.248 NA
ATOM     54  C   UNL A   1      45.015  24.551  28.934  1.00  0.00     0.031 C 
ATOM     55  C   UNL A   1      45.913  28.431  33.512  1.00  0.00     0.029 A 
ATOM     56  C   UNL A   1      45.345  27.748  32.448  1.00  0.00     0.049 A 
ATOM     57  H   UNL A   1      43.537  28.134  31.434  1.00  0.00     0.167 HD
ATOM     58  C   UNL A   1      45.244  26.001  30.695  1.00  0.00     0.074 A 
ATOM     59  C   UNL A   1      45.793  24.883  29.957  1.00  0.00     0.031 C 
ATOM     60  C   UNL A   1      45.857  26.598  31.746  1.00  0.00     0.034 A 
BRANCH  47  61
ATOM     61  C   UNL A   1      42.844  31.526  33.939  1.00  0.00     0.023 A 
ATOM     62  C   UNL A   1      43.354  32.775  33.530  1.00  0.00     0.012 A 
ATOM     63  C   UNL A   1      42.277  31.398  35.222  1.00  0.00     0.148 A 
ATOM     64  C   UNL A   1      43.336  33.868  34.396  1.00  0.00     0.002 A 
ATOM     65  C   UNL A   1      42.222  32.503  36.064  1.00  0.00     0.091 A 
ATOM     66  F   UNL A   1      41.815  30.198  35.602  1.00  0.00    -0.205 F 
ATOM     67  C   UNL A   1      42.761  33.735  35.657  1.00  0.00     0.022 A 
BRANCH  65  68
ATOM     68  S   UNL A   1      41.431  32.452  37.676  1.00  0.00     0.127 S 
ATOM     69  O   UNL A   1      42.212  31.420  38.356  1.00  0.00    -0.237 OA
ATOM     70  O   UNL A   1      41.650  33.810  38.174  1.00  0.00    -0.237 OA
ATOM     71  O   UNL A   1      40.034  32.119  37.423  1.00  0.00    -0.744 OA
ENDBRANCH  65  68
ENDBRANCH  47  61
BRANCH  48  72
ATOM     72  C   UNL A   1      42.733  24.271  27.097  1.00  0.00     0.023 A 
ATOM     73  C   UNL A   1      43.450  24.502  25.908  1.00  0.00     0.012 A 
ATOM     74  C   UNL A   1      42.090  23.032  27.282  1.00  0.00     0.148 A 
ATOM     75  C   UNL A   1      43.503  23.528  24.910  1.00  0.00     0.002 A 
ATOM     76  C   UNL A   1      42.198  22.043  26.312  1.00  0.00     0.091 A 
ATOM     77  F   UNL A   1      41.398  22.835  28.415  1.00  0.00    -0.205 F 
ATOM     78  C   UNL A   1      42.890  22.294  25.117  1.00  0.00     0.022 A 
BRANCH  76  79
ATOM     79  S   UNL A   1      41.576  20.377  26.576  1.00  0.00     0.127 S 
ATOM     80  O   UNL A   1      40.132  20.592  26.573  1.00  0.00    -0.237 OA
ATOM     81  O   UNL A   1      42.098  19.666  25.408  1.00  0.00    -0.237 OA
ATOM     82  O   UNL A   1      42.154  19.936  27.840  1.00  0.00    -0.744 OA
ENDBRANCH  76  79
ENDBRANCH  48  72
BRANCH  60  83
ATOM     83  C   UNL A   1      47.180  26.041  32.200  1.00  0.00     0.023 A 
ATOM     84  C   UNL A   1      47.228  25.156  33.295  1.00  0.00     0.012 A 
ATOM     85  C   UNL A   1      48.361  26.318  31.484  1.00  0.00     0.148 A 
ATOM     86  C   UNL A   1      48.434  24.575  33.685  1.00  0.00     0.002 A 
ATOM     87  C   UNL A   1      49.551  25.700  31.848  1.00  0.00     0.091 A 
ATOM     88  F   UNL A   1      48.297  27.178  30.456  1.00  0.00    -0.205 F 
ATOM     89  C   UNL A   1      49.592  24.837  32.955  1.00  0.00     0.022 A 
BRANCH  87  90
ATOM     90  S   UNL A   1      51.070  25.902  30.911  1.00  0.00     0.127 S 
ATOM     91  O   UNL A   1      51.997  25.056  31.660  1.00  0.00    -0.237 OA
ATOM     92  O   UNL A   1      50.696  25.381  29.596  1.00  0.00    -0.237 OA
ATOM     93  O   UNL A   1      51.369  27.328  30.932  1.00  0.00    -0.744 OA
ENDBRANCH  87  90
ENDBRANCH  60  83
ENDBRANCH  34  35
ENDBRANCH  26  29
ENDBRANCH  24  25
ENDBRANCH  23  24
ENDBRANCH   1  23
TORSDOF 18
ENDMDL
MODEL 2
REMARK VINA RESULT:     -10.8      4.736      9.671
REMARK SMILES CC(C)[C@@H](CO)NC(=O)[C@H]1CC=CC[C@H]1C(=O)NCCCNC(=O)c1ccc(-c2c3nc(c(-c4cccc(S(=O)(=O)[O-])c4F)c4ccc([nH]4)c(-c4cccc(S(=O)(=O)[O-])c4F)c4nc(c(-c5cccc(S(=O)(=O)[O-])c5F)c5ccc2[nH]5)C=C4)C=C3)cc1
REMARK SMILES IDX 19 1 18 2 16 3 17 4 15 6 10 7 11 8 12 9 14 10 13 11 8 12
REMARK SMILES IDX 7 13 9 15 4 16 2 17 1 18 3 19 5 20 6 21 20 23 21 24 22 25
REMARK SMILES IDX 23 26 24 28 25 29 26 30 87 31 27 32 86 33 28 34 29 35 30 36
REMARK SMILES IDX 80 37 31 38 85 39 79 40 81 41 32 42 84 43 78 44 77 45 33 47
REMARK SMILES IDX 65 48 45 49 64 50 46 51 49 52 63 53 82 54 47 55 48 56 62 58
REMARK SMILES IDX 83 59 50 60 34 61 35 62 43 63 36 64 38 65 44 66 37 67 39 68
REMARK SMILES IDX 40 69 41 70 42 71 66 72 67 73 75 74 68 75 70 76 76 77 69 78
REMARK SMILES IDX 71 79 72 80 73 81 74 82 51 83 52 84 60 85 53 86 55 87 61 88
REMARK SMILES IDX 54 89 56 90 57 91 58 92 59 93
REMARK H PARENT 18 5 7 14 6 22 22 27 81 46 49 57
REMARK Flexibility Score: inf
ROOT
ATOM      1  C   UNL A   1      37.745  21.770  25.393  1.00  0.00     0.117 C 
ENDROOT
BRANCH   1   2
ATOM      2  N   UNL A   1      37.464  22.394  24.115  1.00  0.00    -0.356 N 
ATOM      3  C   UNL A   1      36.317  22.867  23.575  1.00  0.00     0.224 C 
ATOM      4  O   UNL A   1      36.379  23.173  22.376  1.00  0.00    -0.275 OA
ATOM      5  H   UNL A   1      38.252  22.493  23.534  1.00  0.00     0.163 HD
BRANCH   3   6
ATOM      6  C   UNL A   1      35.006  23.070  24.328  1.00  0.00     0.095 C 
ATOM      7  C   UNL A   1      34.070  21.849  24.511  1.00  0.00     0.095 C 
ATOM      8  C   UNL A   1      32.648  22.407  24.770  1.00  0.00     0.041 C 
ATOM      9  C   UNL A   1      32.618  23.540  25.770  1.00  0.00    -0.030 C 
ATOM     10  C   UNL A   1      35.069  24.019  25.528  1.00  0.00     0.041 C 
ATOM     11  C   UNL A   1      33.705  24.244  26.127  1.00  0.00    -0.030 C 
BRANCH   7  12
ATOM     12  C   UNL A   1      34.392  20.908  25.673  1.00  0.00     0.224 C 
ATOM     13  N   UNL A   1      34.218  19.560  25.544  1.00  0.00    -0.351 N 
ATOM     14  H   UNL A   1      34.570  19.042  26.303  1.00  0.00     0.163 HD
ATOM     15  O   UNL A   1      34.800  21.318  26.761  1.00  0.00    -0.275 OA
BRANCH  13  16
ATOM     16  C   UNL A   1      33.606  18.727  24.490  1.00  0.00     0.110 C 
BRANCH  16  17
ATOM     17  C   UNL A   1      34.617  17.660  23.966  1.00  0.00     0.007 C 
ATOM     18  C   UNL A   1      35.106  16.737  25.089  1.00  0.00     0.009 C 
ATOM     19  C   UNL A   1      34.033  16.799  22.846  1.00  0.00     0.009 C 
ENDBRANCH  16  17
BRANCH  16  20
ATOM     20  C   UNL A   1      32.340  18.060  25.079  1.00  0.00     0.181 C 
BRANCH  20  21
ATOM     21  O   UNL A   1      32.402  18.023  26.505  1.00  0.00    -0.394 OA
ATOM     22  H   UNL A   1      31.710  17.433  26.843  1.00  0.00     0.210 HD
ENDBRANCH  20  21
ENDBRANCH  16  20
ENDBRANCH  13  16
ENDBRANCH   7  12
ENDBRANCH   3   6
ENDBRANCH   1   2
BRANCH   1  23
ATOM     23  C   UNL A   1      38.625  20.542  25.204  1.00  0.00     0.042 C 
BRANCH  23  24
ATOM     24  C   UNL A   1      39.188  19.975  26.501  1.00  0.00     0.118 C 
BRANCH  24  25
ATOM     25  N   UNL A   1      40.441  19.270  26.282  1.00  0.00    -0.352 N 
ATOM     26  C   UNL A   1      41.715  19.748  26.099  1.00  0.00     0.251 C 
ATOM     27  H   UNL A   1      40.362  18.289  26.262  1.00  0.00     0.163 HD
ATOM     28  O   UNL A   1      42.578  18.974  25.685  1.00  0.00    -0.269 OA
BRANCH  26  29
ATOM     29  C   UNL A   1      42.078  21.160  26.386  1.00  0.00     0.039 A 
ATOM     30  C   UNL A   1      42.249  21.545  27.721  1.00  0.00     0.014 A 
ATOM     31  C   UNL A   1      42.158  22.127  25.382  1.00  0.00     0.014 A 
ATOM     32  C   UNL A   1      42.525  22.879  28.043  1.00  0.00     0.010 A 
ATOM     33  C   UNL A   1      42.512  23.442  25.697  1.00  0.00     0.010 A 
ATOM     34  C   UNL A   1      42.676  23.839  27.032  1.00  0.00    -0.014 A 
BRANCH  34  35
ATOM     35  C   UNL A   1      42.979  25.261  27.347  1.00  0.00     0.031 A 
ATOM     36  C   UNL A   1      44.382  25.792  27.198  1.00  0.00     0.074 A 
ATOM     37  C   UNL A   1      42.016  26.058  27.849  1.00  0.00     0.049 A 
ATOM     38  N   UNL A   1      44.858  26.970  27.509  1.00  0.00    -0.248 NA
ATOM     39  C   UNL A   1      45.389  24.867  26.650  1.00  0.00     0.031 C 
ATOM     40  C   UNL A   1      40.632  25.654  28.100  1.00  0.00     0.029 A 
ATOM     41  N   UNL A   1      42.063  27.366  28.269  1.00  0.00    -0.354 N 
ATOM     42  C   UNL A   1      46.221  26.915  27.240  1.00  0.00     0.074 A 
ATOM     43  C   UNL A   1      46.501  25.579  26.762  1.00  0.00     0.031 C 
ATOM     44  C   UNL A   1      39.965  26.688  28.637  1.00  0.00     0.029 A 
ATOM     45  C   UNL A   1      40.877  27.816  28.802  1.00  0.00     0.049 A 
ATOM     46  H   UNL A   1      42.869  27.927  28.196  1.00  0.00     0.167 HD
ATOM     47  C   UNL A   1      47.152  27.893  27.354  1.00  0.00     0.034 A 
ATOM     48  C   UNL A   1      40.561  28.996  29.373  1.00  0.00     0.034 A 
ATOM     49  C   UNL A   1      46.864  29.238  27.776  1.00  0.00     0.049 A 
ATOM     50  C   UNL A   1      41.601  30.080  29.449  1.00  0.00     0.074 A 
ATOM     51  C   UNL A   1      47.721  30.323  27.831  1.00  0.00     0.029 A 
ATOM     52  N   UNL A   1      45.628  29.682  28.218  1.00  0.00    -0.354 N 
ATOM     53  N   UNL A   1      42.848  30.056  29.048  1.00  0.00    -0.248 NA
ATOM     54  C   UNL A   1      41.183  31.368  30.024  1.00  0.00     0.031 C 
ATOM     55  C   UNL A   1      47.008  31.419  28.328  1.00  0.00     0.029 A 
ATOM     56  C   UNL A   1      45.700  31.022  28.559  1.00  0.00     0.049 A 
ATOM     57  H   UNL A   1      44.817  29.128  28.280  1.00  0.00     0.167 HD
ATOM     58  C   UNL A   1      43.353  31.330  29.287  1.00  0.00     0.074 A 
ATOM     59  C   UNL A   1      42.272  32.107  29.855  1.00  0.00     0.031 C 
ATOM     60  C   UNL A   1      44.603  31.805  29.069  1.00  0.00     0.034 A 
BRANCH  47  61
ATOM     61  C   UNL A   1      48.570  27.559  26.969  1.00  0.00     0.023 A 
ATOM     62  C   UNL A   1      49.447  27.028  27.936  1.00  0.00     0.012 A 
ATOM     63  C   UNL A   1      49.017  27.713  25.642  1.00  0.00     0.148 A 
ATOM     64  C   UNL A   1      50.757  26.690  27.598  1.00  0.00     0.002 A 
ATOM     65  C   UNL A   1      50.311  27.333  25.303  1.00  0.00     0.091 A 
ATOM     66  F   UNL A   1      48.176  28.239  24.739  1.00  0.00    -0.205 F 
ATOM     67  C   UNL A   1      51.185  26.832  26.282  1.00  0.00     0.022 A 
BRANCH  65  68
ATOM     68  S   UNL A   1      50.928  27.404  23.618  1.00  0.00     0.127 S 
ATOM     69  O   UNL A   1      49.878  26.697  22.888  1.00  0.00    -0.237 OA
ATOM     70  O   UNL A   1      50.982  28.844  23.365  1.00  0.00    -0.237 OA
ATOM     71  O   UNL A   1      52.229  26.746  23.642  1.00  0.00    -0.744 OA
ENDBRANCH  65  68
ENDBRANCH  47  61
BRANCH  48  72
ATOM     72  C   UNL A   1      39.173  29.224  29.864  1.00  0.00     0.023 A 
ATOM     73  C   UNL A   1      38.804  28.756  31.140  1.00  0.00     0.012 A 
ATOM     74  C   UNL A   1      38.239  29.952  29.102  1.00  0.00     0.148 A 
ATOM     75  C   UNL A   1      37.520  28.986  31.636  1.00  0.00     0.002 A 
ATOM     76  C   UNL A   1      36.983  30.231  29.628  1.00  0.00     0.091 A 
ATOM     77  F   UNL A   1      38.602  30.376  27.883  1.00  0.00    -0.205 F 
ATOM     78  C   UNL A   1      36.615  29.733  30.888  1.00  0.00     0.022 A 
BRANCH  76  79
ATOM     79  S   UNL A   1      35.823  31.323  28.796  1.00  0.00     0.127 S 
ATOM     80  O   UNL A   1      36.685  32.430  28.396  1.00  0.00    -0.237 OA
ATOM     81  O   UNL A   1      35.345  30.483  27.697  1.00  0.00    -0.237 OA
ATOM     82  O   UNL A   1      34.797  31.636  29.785  1.00  0.00    -0.744 OA
ENDBRANCH  76  79
ENDBRANCH  48  72
BRANCH  60  83
ATOM     83  C   UNL A   1      44.879  33.247  29.406  1.00  0.00     0.023 A 
ATOM     84  C   UNL A   1      45.400  33.583  30.670  1.00  0.00     0.012 A 
ATOM     85  C   UNL A   1      44.712  34.256  28.437  1.00  0.00     0.148 A 
ATOM     86  C   UNL A   1      45.729  34.904  30.974  1.00  0.00     0.002 A 
ATOM     87  C   UNL A   1      45.084  35.563  28.729  1.00  0.00     0.091 A 
ATOM     88  F   UNL A   1      44.196  33.918  27.245  1.00  0.00    -0.205 F 
ATOM     89  C   UNL A   1      45.583  35.890  30.000  1.00  0.00     0.022 A 
BRANCH  87  90
ATOM     90  S   UNL A   1      45.021  36.880  27.510  1.00  0.00     0.127 S 
ATOM     91  O   UNL A   1      45.489  38.027  28.286  1.00  0.00    -0.237 OA
ATOM     92  O   UNL A   1      45.962  36.408  26.493  1.00  0.00    -0.237 OA
ATOM     93  O   UNL A   1      43.636  36.950  27.065  1.00  0.00    -0.744 OA
ENDBRANCH  87  90
ENDBRANCH  60  83
ENDBRANCH  34  35
ENDBRANCH  26  29
ENDBRANCH  24  25
ENDBRANCH  23  24
ENDBRANCH   1  23
TORSDOF 18
ENDMDL
MODEL 3
REMARK VINA RESULT:     -10.7      3.725      9.211
REMARK SMILES CC(C)[C@@H](CO)NC(=O)[C@H]1CC=CC[C@H]1C(=O)NCCCNC(=O)c1ccc(-c2c3nc(c(-c4cccc(S(=O)(=O)[O-])c4F)c4ccc([nH]4)c(-c4cccc(S(=O)(=O)[O-])c4F)c4nc(c(-c5cccc(S(=O)(=O)[O-])c5F)c5ccc2[nH]5)C=C4)C=C3)cc1
REMARK SMILES IDX 19 1 18 2 16 3 17 4 15 6 10 7 11 8 12 9 14 10 13 11 8 12
REMARK SMILES IDX 7 13 9 15 4 16 2 17 1 18 3 19 5 20 6 21 20 23 21 24 22 25
REMARK SMILES IDX 23 26 24 28 25 29 26 30 87 31 27 32 86 33 28 34 29 35 30 36
REMARK SMILES IDX 80 37 31 38 85 39 79 40 81 41 32 42 84 43 78 44 77 45 33 47
REMARK SMILES IDX 65 48 45 49 64 50 46 51 49 52 63 53 82 54 47 55 48 56 62 58
REMARK SMILES IDX 83 59 50 60 34 61 35 62 43 63 36 64 38 65 44 66 37 67 39 68
REMARK SMILES IDX 40 69 41 70 42 71 66 72 67 73 75 74 68 75 70 76 76 77 69 78
REMARK SMILES IDX 71 79 72 80 73 81 74 82 51 83 52 84 60 85 53 86 55 87 61 88
REMARK SMILES IDX 54 89 56 90 57 91 58 92 59 93
REMARK H PARENT 18 5 7 14 6 22 22 27 81 46 49 57
REMARK Flexibility Score: inf
ROOT
ATOM      1  C   UNL A   1      31.598  30.550  25.829  1.00  0.00     0.117 C 
ENDROOT
BRANCH   1   2
ATOM      2  N   UNL A   1      31.628  29.467  26.792  1.00  0.00    -0.356 N 
ATOM      3  C   UNL A   1      31.535  28.125  26.644  1.00  0.00     0.224 C 
ATOM      4  O   UNL A   1      31.405  27.480  27.693  1.00  0.00    -0.275 OA
ATOM      5  H   UNL A   1      31.735  29.761  27.725  1.00  0.00     0.163 HD
BRANCH   3   6
ATOM      6  C   UNL A   1      31.608  27.377  25.316  1.00  0.00     0.095 C 
ATOM      7  C   UNL A   1      32.213  25.951  25.310  1.00  0.00     0.095 C 
ATOM      8  C   UNL A   1      32.680  25.665  23.862  1.00  0.00     0.041 C 
ATOM      9  C   UNL A   1      31.666  26.060  22.813  1.00  0.00    -0.030 C 
ATOM     10  C   UNL A   1      30.416  27.574  24.375  1.00  0.00     0.041 C 
ATOM     11  C   UNL A   1      30.640  26.894  23.050  1.00  0.00    -0.030 C 
BRANCH   7  12
ATOM     12  C   UNL A   1      31.276  24.808  25.705  1.00  0.00     0.224 C 
ATOM     13  N   UNL A   1      31.744  23.531  25.811  1.00  0.00    -0.351 N 
ATOM     14  H   UNL A   1      31.089  22.900  26.188  1.00  0.00     0.163 HD
ATOM     15  O   UNL A   1      30.076  24.986  25.925  1.00  0.00    -0.275 OA
BRANCH  13  16
ATOM     16  C   UNL A   1      33.039  22.909  25.472  1.00  0.00     0.110 C 
BRANCH  16  17
ATOM     17  C   UNL A   1      34.103  23.197  26.576  1.00  0.00     0.007 C 
ATOM     18  C   UNL A   1      34.020  22.188  27.726  1.00  0.00     0.009 C 
ATOM     19  C   UNL A   1      35.531  23.198  26.029  1.00  0.00     0.009 C 
ENDBRANCH  16  17
BRANCH  16  20
ATOM     20  C   UNL A   1      32.810  21.388  25.296  1.00  0.00     0.181 C 
BRANCH  20  21
ATOM     21  O   UNL A   1      31.492  21.022  25.704  1.00  0.00    -0.394 OA
ATOM     22  H   UNL A   1      30.927  21.810  25.717  1.00  0.00     0.210 HD
ENDBRANCH  20  21
ENDBRANCH  16  20
ENDBRANCH  13  16
ENDBRANCH   7  12
ENDBRANCH   3   6
ENDBRANCH   1   2
BRANCH   1  23
ATOM     23  C   UNL A   1      31.466  31.890  26.539  1.00  0.00     0.042 C 
BRANCH  23  24
ATOM     24  C   UNL A   1      32.763  32.397  27.157  1.00  0.00     0.118 C 
BRANCH  24  25
ATOM     25  N   UNL A   1      32.650  33.781  27.587  1.00  0.00    -0.352 N 
ATOM     26  C   UNL A   1      33.253  34.445  28.627  1.00  0.00     0.251 C 
ATOM     27  H   UNL A   1      32.042  34.332  27.044  1.00  0.00     0.163 HD
ATOM     28  O   UNL A   1      32.816  35.551  28.948  1.00  0.00    -0.269 OA
BRANCH  26  29
ATOM     29  C   UNL A   1      34.408  33.874  29.366  1.00  0.00     0.039 A 
ATOM     30  C   UNL A   1      35.696  34.298  29.017  1.00  0.00     0.014 A 
ATOM     31  C   UNL A   1      34.257  32.867  30.321  1.00  0.00     0.014 A 
ATOM     32  C   UNL A   1      36.818  33.737  29.640  1.00  0.00     0.010 A 
ATOM     33  C   UNL A   1      35.371  32.365  30.998  1.00  0.00     0.010 A 
ATOM     34  C   UNL A   1      36.666  32.776  30.649  1.00  0.00    -0.014 A 
BRANCH  34  35
ATOM     35  C   UNL A   1      37.842  32.172  31.334  1.00  0.00     0.031 A 
ATOM     36  C   UNL A   1      38.595  31.035  30.691  1.00  0.00     0.074 A 
ATOM     37  C   UNL A   1      38.185  32.584  32.570  1.00  0.00     0.049 A 
ATOM     38  N   UNL A   1      39.582  30.323  31.170  1.00  0.00    -0.248 NA
ATOM     39  C   UNL A   1      38.166  30.630  29.342  1.00  0.00     0.031 C 
ATOM     40  C   UNL A   1      37.502  33.632  33.330  1.00  0.00     0.029 A 
ATOM     41  N   UNL A   1      39.173  32.146  33.418  1.00  0.00    -0.354 N 
ATOM     42  C   UNL A   1      39.861  29.360  30.207  1.00  0.00     0.074 A 
ATOM     43  C   UNL A   1      38.922  29.564  29.125  1.00  0.00     0.031 C 
ATOM     44  C   UNL A   1      38.086  33.751  34.533  1.00  0.00     0.029 A 
ATOM     45  C   UNL A   1      39.159  32.767  34.646  1.00  0.00     0.049 A 
ATOM     46  H   UNL A   1      39.828  31.454  33.171  1.00  0.00     0.167 HD
ATOM     47  C   UNL A   1      40.826  28.408  30.208  1.00  0.00     0.034 A 
ATOM     48  C   UNL A   1      39.913  32.560  35.745  1.00  0.00     0.034 A 
ATOM     49  C   UNL A   1      41.794  28.240  31.257  1.00  0.00     0.049 A 
ATOM     50  C   UNL A   1      41.005  31.526  35.706  1.00  0.00     0.074 A 
ATOM     51  C   UNL A   1      42.868  27.368  31.304  1.00  0.00     0.029 A 
ATOM     52  N   UNL A   1      41.807  28.954  32.445  1.00  0.00    -0.354 N 
ATOM     53  N   UNL A   1      41.350  30.728  34.725  1.00  0.00    -0.248 NA
ATOM     54  C   UNL A   1      41.837  31.388  36.911  1.00  0.00     0.031 C 
ATOM     55  C   UNL A   1      43.517  27.540  32.531  1.00  0.00     0.029 A 
ATOM     56  C   UNL A   1      42.862  28.535  33.238  1.00  0.00     0.049 A 
ATOM     57  H   UNL A   1      41.161  29.655  32.690  1.00  0.00     0.167 HD
ATOM     58  C   UNL A   1      42.458  30.019  35.179  1.00  0.00     0.074 A 
ATOM     59  C   UNL A   1      42.736  30.494  36.518  1.00  0.00     0.031 C 
ATOM     60  C   UNL A   1      43.168  29.054  34.547  1.00  0.00     0.034 A 
BRANCH  47  61
ATOM     61  C   UNL A   1      40.915  27.500  29.008  1.00  0.00     0.023 A 
ATOM     62  C   UNL A   1      40.047  26.394  28.908  1.00  0.00     0.012 A 
ATOM     63  C   UNL A   1      41.811  27.773  27.956  1.00  0.00     0.148 A 
ATOM     64  C   UNL A   1      40.095  25.551  27.797  1.00  0.00     0.002 A 
ATOM     65  C   UNL A   1      41.823  26.954  26.833  1.00  0.00     0.091 A 
ATOM     66  F   UNL A   1      42.643  28.817  28.078  1.00  0.00    -0.205 F 
ATOM     67  C   UNL A   1      40.975  25.837  26.756  1.00  0.00     0.022 A 
BRANCH  65  68
ATOM     68  S   UNL A   1      42.864  27.286  25.407  1.00  0.00     0.127 S 
ATOM     69  O   UNL A   1      42.751  26.035  24.660  1.00  0.00    -0.237 OA
ATOM     70  O   UNL A   1      42.190  28.428  24.788  1.00  0.00    -0.237 OA
ATOM     71  O   UNL A   1      44.188  27.583  25.940  1.00  0.00    -0.744 OA
ENDBRANCH  65  68
ENDBRANCH  47  61
BRANCH  48  72
ATOM     72  C   UNL A   1      39.689  33.398  36.956  1.00  0.00     0.023 A 
ATOM     73  C   UNL A   1      38.590  33.126  37.793  1.00  0.00     0.012 A 
ATOM     74  C   UNL A   1      40.588  34.421  37.314  1.00  0.00     0.148 A 
ATOM     75  C   UNL A   1      38.376  33.875  38.951  1.00  0.00     0.002 A 
ATOM     76  C   UNL A   1      40.405  35.121  38.500  1.00  0.00     0.091 A 
ATOM     77  F   UNL A   1      41.620  34.677  36.496  1.00  0.00    -0.205 F 
ATOM     78  C   UNL A   1      39.289  34.862  39.311  1.00  0.00     0.022 A 
BRANCH  76  79
ATOM     79  S   UNL A   1      41.623  36.292  39.113  1.00  0.00     0.127 S 
ATOM     80  O   UNL A   1      42.805  35.448  39.261  1.00  0.00    -0.237 OA
ATOM     81  O   UNL A   1      41.691  37.265  38.022  1.00  0.00    -0.237 OA
ATOM     82  O   UNL A   1      41.064  36.832  40.347  1.00  0.00    -0.744 OA
ENDBRANCH  76  79
ENDBRANCH  48  72
BRANCH  60  83
ATOM     83  C   UNL A   1      44.347  28.458  35.270  1.00  0.00     0.023 A 
ATOM     84  C   UNL A   1      45.642  28.956  35.028  1.00  0.00     0.012 A 
ATOM     85  C   UNL A   1      44.160  27.471  36.260  1.00  0.00     0.148 A 
ATOM     86  C   UNL A   1      46.736  28.465  35.740  1.00  0.00     0.002 A 
ATOM     87  C   UNL A   1      45.247  27.020  36.998  1.00  0.00     0.091 A 
ATOM     88  F   UNL A   1      42.922  26.997  36.463  1.00  0.00    -0.205 F 
ATOM     89  C   UNL A   1      46.537  27.507  36.733  1.00  0.00     0.022 A 
BRANCH  87  90
ATOM     90  S   UNL A   1      45.074  25.860  38.360  1.00  0.00     0.127 S 
ATOM     91  O   UNL A   1      44.594  24.663  37.672  1.00  0.00    -0.237 OA
ATOM     92  O   UNL A   1      46.444  25.766  38.864  1.00  0.00    -0.237 OA
ATOM     93  O   UNL A   1      44.130  26.468  39.287  1.00  0.00    -0.744 OA
ENDBRANCH  87  90
ENDBRANCH  60  83
ENDBRANCH  34  35
ENDBRANCH  26  29
ENDBRANCH  24  25
ENDBRANCH  23  24
ENDBRANCH   1  23
TORSDOF 18
ENDMDL
