MODEL 1
REMARK VINA RESULT:     -11.2      0.000      0.000
REMARK SMILES CCS(=O)(=O)N1CCC[C@@H](C(=O)NCCCNC(=O)c2ccc(-c3c4nc(c(-c5cccc(S(=O)(=O)[O-])c5F)c5ccc([nH]5)c(-c5cccc(S(=O)(=O)[O-])c5F)c5nc(c(-c6cccc(S(=O)(=O)[O-])c6F)c6ccc3[nH]6)C=C5)C=C4)cc2)C1
REMARK SMILES IDX 15 1 14 2 13 3 11 4 12 5 10 7 6 8 7 9 83 10 8 11 9 12 3 13
REMARK SMILES IDX 4 14 5 15 2 16 1 17 16 18 17 19 18 20 19 22 20 23 21 24
REMARK SMILES IDX 82 25 22 26 81 27 23 28 24 29 25 30 75 31 26 32 80 33 74 34
REMARK SMILES IDX 76 35 27 36 79 37 73 38 72 39 28 41 60 42 40 43 59 44 41 45
REMARK SMILES IDX 44 46 58 47 77 48 42 49 43 50 57 52 78 53 45 54 29 55 30 56
REMARK SMILES IDX 38 57 31 58 33 59 39 60 32 61 34 62 35 63 36 64 37 65 61 66
REMARK SMILES IDX 62 67 70 68 63 69 65 70 71 71 64 72 66 73 67 74 68 75 69 76
REMARK SMILES IDX 46 77 47 78 55 79 48 80 50 81 56 82 49 83 51 84 52 85 53 86
REMARK SMILES IDX 54 87
REMARK H PARENT 13 6 17 21 76 40 44 51
REMARK Flexibility Score: inf
ROOT
ATOM      1  C   UNL A   1      31.519  31.949  26.875  1.00  0.00     0.042 C 
ENDROOT
BRANCH   1   2
ATOM      2  C   UNL A   1      31.784  30.736  25.996  1.00  0.00     0.117 C 
BRANCH   2   3
ATOM      3  N   UNL A   1      32.927  29.956  26.450  1.00  0.00    -0.356 N 
ATOM      4  C   UNL A   1      33.252  28.648  26.268  1.00  0.00     0.224 C 
ATOM      5  O   UNL A   1      34.315  28.247  26.749  1.00  0.00    -0.275 OA
ATOM      6  H   UNL A   1      33.580  30.466  26.983  1.00  0.00     0.163 HD
BRANCH   4   7
ATOM      7  C   UNL A   1      32.363  27.701  25.478  1.00  0.00     0.093 C 
ATOM      8  N   UNL A   1      32.431  25.688  23.963  1.00  0.00    -0.201 NA
ATOM      9  C   UNL A   1      31.623  24.929  24.949  1.00  0.00     0.102 C 
ATOM     10  C   UNL A   1      33.204  26.825  24.548  1.00  0.00     0.115 C 
ATOM     11  C   UNL A   1      30.646  25.865  25.647  1.00  0.00     0.018 C 
ATOM     12  C   UNL A   1      31.383  26.963  26.394  1.00  0.00     0.016 C 
BRANCH   8  13
ATOM     13  S   UNL A   1      33.362  24.691  22.907  1.00  0.00     0.213 S 
ATOM     14  O   UNL A   1      33.837  25.503  21.810  1.00  0.00    -0.212 OA
ATOM     15  O   UNL A   1      32.625  23.466  22.683  1.00  0.00    -0.212 OA
BRANCH  13  16
ATOM     16  C   UNL A   1      34.756  24.298  23.953  1.00  0.00     0.151 C 
ATOM     17  C   UNL A   1      35.475  23.033  23.530  1.00  0.00     0.022 C 
ENDBRANCH  13  16
ENDBRANCH   8  13
ENDBRANCH   4   7
ENDBRANCH   2   3
ENDBRANCH   1   2
BRANCH   1  18
ATOM     18  C   UNL A   1      32.778  32.682  27.314  1.00  0.00     0.118 C 
BRANCH  18  19
ATOM     19  N   UNL A   1      32.525  34.073  27.669  1.00  0.00    -0.352 N 
ATOM     20  C   UNL A   1      33.079  34.846  28.660  1.00  0.00     0.251 C 
ATOM     21  H   UNL A   1      31.852  34.530  27.113  1.00  0.00     0.163 HD
ATOM     22  O   UNL A   1      32.595  35.946  28.912  1.00  0.00    -0.269 OA
BRANCH  20  23
ATOM     23  C   UNL A   1      34.242  34.351  29.429  1.00  0.00     0.039 A 
ATOM     24  C   UNL A   1      34.018  33.630  30.604  1.00  0.00     0.014 A 
ATOM     25  C   UNL A   1      35.547  34.598  28.996  1.00  0.00     0.014 A 
ATOM     26  C   UNL A   1      35.104  33.100  31.307  1.00  0.00     0.010 A 
ATOM     27  C   UNL A   1      36.617  33.989  29.641  1.00  0.00     0.010 A 
ATOM     28  C   UNL A   1      36.410  33.241  30.810  1.00  0.00    -0.014 A 
BRANCH  28  29
ATOM     29  C   UNL A   1      37.569  32.604  31.487  1.00  0.00     0.031 A 
ATOM     30  C   UNL A   1      38.292  31.455  30.839  1.00  0.00     0.074 A 
ATOM     31  C   UNL A   1      37.914  33.002  32.727  1.00  0.00     0.049 A 
ATOM     32  N   UNL A   1      39.287  30.741  31.301  1.00  0.00    -0.248 NA
ATOM     33  C   UNL A   1      37.817  31.031  29.511  1.00  0.00     0.031 C 
ATOM     34  C   UNL A   1      37.238  34.048  33.499  1.00  0.00     0.029 A 
ATOM     35  N   UNL A   1      38.901  32.554  33.570  1.00  0.00    -0.354 N 
ATOM     36  C   UNL A   1      39.530  29.764  30.344  1.00  0.00     0.074 A 
ATOM     37  C   UNL A   1      38.554  29.952  29.292  1.00  0.00     0.031 C 
ATOM     38  C   UNL A   1      37.834  34.166  34.696  1.00  0.00     0.029 A 
ATOM     39  C   UNL A   1      38.906  33.181  34.794  1.00  0.00     0.049 A 
ATOM     40  H   UNL A   1      39.543  31.850  33.323  1.00  0.00     0.167 HD
ATOM     41  C   UNL A   1      40.492  28.810  30.326  1.00  0.00     0.034 A 
ATOM     42  C   UNL A   1      39.676  32.978  35.881  1.00  0.00     0.034 A 
ATOM     43  C   UNL A   1      41.477  28.645  31.361  1.00  0.00     0.049 A 
ATOM     44  C   UNL A   1      40.757  31.935  35.828  1.00  0.00     0.074 A 
ATOM     45  C   UNL A   1      42.551  27.774  31.394  1.00  0.00     0.029 A 
ATOM     46  N   UNL A   1      41.499  29.351  32.554  1.00  0.00    -0.354 N 
ATOM     47  N   UNL A   1      41.075  31.126  34.847  1.00  0.00    -0.248 NA
ATOM     48  C   UNL A   1      41.609  31.800  37.018  1.00  0.00     0.031 C 
ATOM     49  C   UNL A   1      43.196  27.921  32.626  1.00  0.00     0.029 A 
ATOM     50  C   UNL A   1      42.555  28.921  33.341  1.00  0.00     0.049 A 
ATOM     51  H   UNL A   1      40.858  30.054  32.806  1.00  0.00     0.167 HD
ATOM     52  C   UNL A   1      42.184  30.411  35.285  1.00  0.00     0.074 A 
ATOM     53  C   UNL A   1      42.493  30.897  36.615  1.00  0.00     0.031 C 
ATOM     54  C   UNL A   1      42.878  29.437  34.647  1.00  0.00     0.034 A 
BRANCH  41  55
ATOM     55  C   UNL A   1      40.541  27.889  29.133  1.00  0.00     0.023 A 
ATOM     56  C   UNL A   1      39.644  26.804  29.046  1.00  0.00     0.012 A 
ATOM     57  C   UNL A   1      41.447  28.119  28.080  1.00  0.00     0.148 A 
ATOM     58  C   UNL A   1      39.682  25.934  27.956  1.00  0.00     0.002 A 
ATOM     59  C   UNL A   1      41.444  27.279  26.973  1.00  0.00     0.091 A 
ATOM     60  F   UNL A   1      42.306  29.143  28.185  1.00  0.00    -0.205 F 
ATOM     61  C   UNL A   1      40.574  26.178  26.916  1.00  0.00     0.022 A 
BRANCH  59  62
ATOM     62  S   UNL A   1      42.495  27.558  25.543  1.00  0.00     0.127 S 
ATOM     63  O   UNL A   1      42.187  26.389  24.718  1.00  0.00    -0.237 OA
ATOM     64  O   UNL A   1      41.977  28.824  25.023  1.00  0.00    -0.237 OA
ATOM     65  O   UNL A   1      43.858  27.623  26.052  1.00  0.00    -0.744 OA
ENDBRANCH  59  62
ENDBRANCH  41  55
BRANCH  42  66
ATOM     66  C   UNL A   1      39.479  33.822  37.093  1.00  0.00     0.023 A 
ATOM     67  C   UNL A   1      39.919  35.160  37.087  1.00  0.00     0.012 A 
ATOM     68  C   UNL A   1      38.820  33.319  38.231  1.00  0.00     0.148 A 
ATOM     69  C   UNL A   1      39.729  35.974  38.203  1.00  0.00     0.002 A 
ATOM     70  C   UNL A   1      38.584  34.152  39.318  1.00  0.00     0.091 A 
ATOM     71  F   UNL A   1      38.414  32.041  38.216  1.00  0.00    -0.205 F 
ATOM     72  C   UNL A   1      39.054  35.476  39.313  1.00  0.00     0.022 A 
BRANCH  70  73
ATOM     73  S   UNL A   1      37.612  33.639  40.738  1.00  0.00     0.127 S 
ATOM     74  O   UNL A   1      36.402  33.126  40.100  1.00  0.00    -0.237 OA
ATOM     75  O   UNL A   1      38.474  32.621  41.337  1.00  0.00    -0.237 OA
ATOM     76  O   UNL A   1      37.434  34.836  41.549  1.00  0.00    -0.744 OA
ENDBRANCH  70  73
ENDBRANCH  42  66
BRANCH  54  77
ATOM     77  C   UNL A   1      44.074  28.851  35.353  1.00  0.00     0.023 A 
ATOM     78  C   UNL A   1      45.354  29.409  35.161  1.00  0.00     0.012 A 
ATOM     79  C   UNL A   1      43.912  27.790  36.266  1.00  0.00     0.148 A 
ATOM     80  C   UNL A   1      46.459  28.896  35.841  1.00  0.00     0.002 A 
ATOM     81  C   UNL A   1      45.007  27.321  36.980  1.00  0.00     0.091 A 
ATOM     82  F   UNL A   1      42.690  27.261  36.422  1.00  0.00    -0.205 F 
ATOM     83  C   UNL A   1      46.284  27.863  36.758  1.00  0.00     0.022 A 
BRANCH  81  84
ATOM     84  S   UNL A   1      44.862  26.062  38.253  1.00  0.00     0.127 S 
ATOM     85  O   UNL A   1      43.802  26.613  39.096  1.00  0.00    -0.237 OA
ATOM     86  O   UNL A   1      44.476  24.883  37.478  1.00  0.00    -0.237 OA
ATOM     87  O   UNL A   1      46.173  25.971  38.881  1.00  0.00    -0.744 OA
ENDBRANCH  81  84
ENDBRANCH  54  77
ENDBRANCH  28  29
ENDBRANCH  20  23
ENDBRANCH  18  19
ENDBRANCH   1  18
TORSDOF 15
ENDMDL
MODEL 2
REMARK VINA RESULT:     -11.2      3.701      9.231
REMARK SMILES CCS(=O)(=O)N1CCC[C@@H](C(=O)NCCCNC(=O)c2ccc(-c3c4nc(c(-c5cccc(S(=O)(=O)[O-])c5F)c5ccc([nH]5)c(-c5cccc(S(=O)(=O)[O-])c5F)c5nc(c(-c6cccc(S(=O)(=O)[O-])c6F)c6ccc3[nH]6)C=C5)C=C4)cc2)C1
REMARK SMILES IDX 15 1 14 2 13 3 11 4 12 5 10 7 6 8 7 9 83 10 8 11 9 12 3 13
REMARK SMILES IDX 4 14 5 15 2 16 1 17 16 18 17 19 18 20 19 22 20 23 21 24
REMARK SMILES IDX 82 25 22 26 81 27 23 28 24 29 25 30 75 31 26 32 80 33 74 34
REMARK SMILES IDX 76 35 27 36 79 37 73 38 72 39 28 41 60 42 40 43 59 44 41 45
REMARK SMILES IDX 44 46 58 47 77 48 42 49 43 50 57 52 78 53 45 54 29 55 30 56
REMARK SMILES IDX 38 57 31 58 33 59 39 60 32 61 34 62 35 63 36 64 37 65 61 66
REMARK SMILES IDX 62 67 70 68 63 69 65 70 71 71 64 72 66 73 67 74 68 75 69 76
REMARK SMILES IDX 46 77 47 78 55 79 48 80 50 81 56 82 49 83 51 84 52 85 53 86
REMARK SMILES IDX 54 87
REMARK H PARENT 13 6 17 21 76 40 44 51
REMARK Flexibility Score: inf
ROOT
ATOM      1  C   UNL A   1      33.841  27.504  25.133  1.00  0.00     0.042 C 
ENDROOT
BRANCH   1   2
ATOM      2  C   UNL A   1      33.163  26.152  24.959  1.00  0.00     0.117 C 
BRANCH   2   3
ATOM      3  N   UNL A   1      33.458  25.542  23.670  1.00  0.00    -0.356 N 
ATOM      4  C   UNL A   1      33.839  24.278  23.339  1.00  0.00     0.224 C 
ATOM      5  O   UNL A   1      33.998  24.020  22.144  1.00  0.00    -0.275 OA
ATOM      6  H   UNL A   1      33.365  26.151  22.901  1.00  0.00     0.163 HD
BRANCH   4   7
ATOM      7  C   UNL A   1      34.042  23.199  24.391  1.00  0.00     0.093 C 
ATOM      8  N   UNL A   1      33.739  20.733  24.811  1.00  0.00    -0.201 NA
ATOM      9  C   UNL A   1      35.202  20.596  25.014  1.00  0.00     0.102 C 
ATOM     10  C   UNL A   1      33.343  21.905  23.973  1.00  0.00     0.115 C 
ATOM     11  C   UNL A   1      35.755  21.858  25.662  1.00  0.00     0.018 C 
ATOM     12  C   UNL A   1      35.517  23.071  24.780  1.00  0.00     0.016 C 
BRANCH   8  13
ATOM     13  S   UNL A   1      32.955  19.265  24.358  1.00  0.00     0.213 S 
ATOM     14  O   UNL A   1      32.383  19.437  23.042  1.00  0.00    -0.212 OA
ATOM     15  O   UNL A   1      32.159  18.818  25.481  1.00  0.00    -0.212 OA
BRANCH  13  16
ATOM     16  C   UNL A   1      34.354  18.163  24.217  1.00  0.00     0.151 C 
ATOM     17  C   UNL A   1      34.089  16.982  23.306  1.00  0.00     0.022 C 
ENDBRANCH  13  16
ENDBRANCH   8  13
ENDBRANCH   4   7
ENDBRANCH   2   3
ENDBRANCH   1   2
BRANCH   1  18
ATOM     18  C   UNL A   1      33.950  27.959  26.581  1.00  0.00     0.118 C 
BRANCH  18  19
ATOM     19  N   UNL A   1      33.703  29.387  26.743  1.00  0.00    -0.352 N 
ATOM     20  C   UNL A   1      34.418  30.332  27.437  1.00  0.00     0.251 C 
ATOM     21  H   UNL A   1      32.901  29.726  26.284  1.00  0.00     0.163 HD
ATOM     22  O   UNL A   1      33.940  31.451  27.602  1.00  0.00    -0.269 OA
BRANCH  20  23
ATOM     23  C   UNL A   1      35.746  30.001  27.996  1.00  0.00     0.039 A 
ATOM     24  C   UNL A   1      35.828  29.508  29.301  1.00  0.00     0.014 A 
ATOM     25  C   UNL A   1      36.908  30.177  27.240  1.00  0.00     0.014 A 
ATOM     26  C   UNL A   1      37.070  29.128  29.820  1.00  0.00     0.010 A 
ATOM     27  C   UNL A   1      38.126  29.709  27.722  1.00  0.00     0.010 A 
ATOM     28  C   UNL A   1      38.222  29.189  29.021  1.00  0.00    -0.014 A 
BRANCH  28  29
ATOM     29  C   UNL A   1      39.535  28.701  29.518  1.00  0.00     0.031 A 
ATOM     30  C   UNL A   1      40.246  29.427  30.627  1.00  0.00     0.074 A 
ATOM     31  C   UNL A   1      40.129  27.656  28.910  1.00  0.00     0.049 A 
ATOM     32  N   UNL A   1      41.419  29.182  31.154  1.00  0.00    -0.248 NA
ATOM     33  C   UNL A   1      39.567  30.601  31.200  1.00  0.00     0.031 C 
ATOM     34  C   UNL A   1      39.582  26.919  27.768  1.00  0.00     0.029 A 
ATOM     35  N   UNL A   1      41.338  27.049  29.146  1.00  0.00    -0.354 N 
ATOM     36  C   UNL A   1      41.634  30.189  32.087  1.00  0.00     0.074 A 
ATOM     37  C   UNL A   1      40.489  31.070  32.028  1.00  0.00     0.031 C 
ATOM     38  C   UNL A   1      40.446  25.957  27.409  1.00  0.00     0.029 A 
ATOM     39  C   UNL A   1      41.625  26.032  28.266  1.00  0.00     0.049 A 
ATOM     40  H   UNL A   1      41.942  27.318  29.875  1.00  0.00     0.167 HD
ATOM     41  C   UNL A   1      42.679  30.354  32.935  1.00  0.00     0.034 A 
ATOM     42  C   UNL A   1      42.719  25.254  28.151  1.00  0.00     0.034 A 
ATOM     43  C   UNL A   1      43.803  29.459  33.008  1.00  0.00     0.049 A 
ATOM     44  C   UNL A   1      43.853  25.436  29.121  1.00  0.00     0.074 A 
ATOM     45  C   UNL A   1      44.864  29.484  33.895  1.00  0.00     0.029 A 
ATOM     46  N   UNL A   1      44.023  28.392  32.151  1.00  0.00    -0.354 N 
ATOM     47  N   UNL A   1      43.966  26.295  30.104  1.00  0.00    -0.248 NA
ATOM     48  C   UNL A   1      44.993  24.519  28.990  1.00  0.00     0.031 C 
ATOM     49  C   UNL A   1      45.748  28.459  33.546  1.00  0.00     0.029 A 
ATOM     50  C   UNL A   1      45.214  27.763  32.474  1.00  0.00     0.049 A 
ATOM     51  H   UNL A   1      43.422  28.122  31.420  1.00  0.00     0.167 HD
ATOM     52  C   UNL A   1      45.172  26.001  30.731  1.00  0.00     0.074 A 
ATOM     53  C   UNL A   1      45.743  24.871  30.026  1.00  0.00     0.031 C 
ATOM     54  C   UNL A   1      45.755  26.615  31.791  1.00  0.00     0.034 A 
BRANCH  41  55
ATOM     55  C   UNL A   1      42.637  31.535  33.871  1.00  0.00     0.023 A 
ATOM     56  C   UNL A   1      43.115  32.790  33.441  1.00  0.00     0.012 A 
ATOM     57  C   UNL A   1      42.089  31.413  35.163  1.00  0.00     0.148 A 
ATOM     58  C   UNL A   1      43.096  33.891  34.297  1.00  0.00     0.002 A 
ATOM     59  C   UNL A   1      42.026  32.527  35.993  1.00  0.00     0.091 A 
ATOM     60  F   UNL A   1      41.657  30.210  35.565  1.00  0.00    -0.205 F 
ATOM     61  C   UNL A   1      42.543  33.762  35.568  1.00  0.00     0.022 A 
BRANCH  59  62
ATOM     62  S   UNL A   1      41.255  32.484  37.614  1.00  0.00     0.127 S 
ATOM     63  O   UNL A   1      39.899  32.048  37.284  1.00  0.00    -0.237 OA
ATOM     64  O   UNL A   1      42.063  31.483  38.313  1.00  0.00    -0.237 OA
ATOM     65  O   UNL A   1      41.367  33.834  38.148  1.00  0.00    -0.744 OA
ENDBRANCH  59  62
ENDBRANCH  41  55
BRANCH  42  66
ATOM     66  C   UNL A   1      42.766  24.198  27.101  1.00  0.00     0.023 A 
ATOM     67  C   UNL A   1      43.533  24.406  25.939  1.00  0.00     0.012 A 
ATOM     68  C   UNL A   1      42.090  22.974  27.271  1.00  0.00     0.148 A 
ATOM     69  C   UNL A   1      43.606  23.423  24.951  1.00  0.00     0.002 A 
ATOM     70  C   UNL A   1      42.212  21.978  26.309  1.00  0.00     0.091 A 
ATOM     71  F   UNL A   1      41.361  22.800  28.382  1.00  0.00    -0.205 F 
ATOM     72  C   UNL A   1      42.956  22.207  25.140  1.00  0.00     0.022 A 
BRANCH  70  73
ATOM     73  S   UNL A   1      41.518  20.336  26.523  1.00  0.00     0.127 S 
ATOM     74  O   UNL A   1      40.085  20.605  26.445  1.00  0.00    -0.237 OA
ATOM     75  O   UNL A   1      42.077  19.625  25.372  1.00  0.00    -0.237 OA
ATOM     76  O   UNL A   1      42.001  19.868  27.816  1.00  0.00    -0.744 OA
ENDBRANCH  70  73
ENDBRANCH  42  66
BRANCH  54  77
ATOM     77  C   UNL A   1      47.064  26.058  32.290  1.00  0.00     0.023 A 
ATOM     78  C   UNL A   1      48.282  26.545  31.777  1.00  0.00     0.012 A 
ATOM     79  C   UNL A   1      47.082  25.102  33.325  1.00  0.00     0.148 A 
ATOM     80  C   UNL A   1      49.498  26.061  32.262  1.00  0.00     0.002 A 
ATOM     81  C   UNL A   1      48.295  24.665  33.840  1.00  0.00     0.091 A 
ATOM     82  F   UNL A   1      45.912  24.638  33.788  1.00  0.00    -0.205 F 
ATOM     83  C   UNL A   1      49.505  25.133  33.301  1.00  0.00     0.022 A 
BRANCH  81  84
ATOM     84  S   UNL A   1      48.402  23.548  35.243  1.00  0.00     0.127 S 
ATOM     85  O   UNL A   1      47.899  24.386  36.330  1.00  0.00    -0.237 OA
ATOM     86  O   UNL A   1      47.506  22.463  34.842  1.00  0.00    -0.237 OA
ATOM     87  O   UNL A   1      49.804  23.166  35.348  1.00  0.00    -0.744 OA
ENDBRANCH  81  84
ENDBRANCH  54  77
ENDBRANCH  28  29
ENDBRANCH  20  23
ENDBRANCH  18  19
ENDBRANCH   1  18
TORSDOF 15
ENDMDL
MODEL 3
REMARK VINA RESULT:     -11.2      3.506      8.940
REMARK SMILES CCS(=O)(=O)N1CCC[C@@H](C(=O)NCCCNC(=O)c2ccc(-c3c4nc(c(-c5cccc(S(=O)(=O)[O-])c5F)c5ccc([nH]5)c(-c5cccc(S(=O)(=O)[O-])c5F)c5nc(c(-c6cccc(S(=O)(=O)[O-])c6F)c6ccc3[nH]6)C=C5)C=C4)cc2)C1
REMARK SMILES IDX 15 1 14 2 13 3 11 4 12 5 10 7 6 8 7 9 83 10 8 11 9 12 3 13
REMARK SMILES IDX 4 14 5 15 2 16 1 17 16 18 17 19 18 20 19 22 20 23 21 24
REMARK SMILES IDX 82 25 22 26 81 27 23 28 24 29 25 30 75 31 26 32 80 33 74 34
REMARK SMILES IDX 76 35 27 36 79 37 73 38 72 39 28 41 60 42 40 43 59 44 41 45
REMARK SMILES IDX 44 46 58 47 77 48 42 49 43 50 57 52 78 53 45 54 29 55 30 56
REMARK SMILES IDX 38 57 31 58 33 59 39 60 32 61 34 62 35 63 36 64 37 65 61 66
REMARK SMILES IDX 62 67 70 68 63 69 65 70 71 71 64 72 66 73 67 74 68 75 69 76
REMARK SMILES IDX 46 77 47 78 55 79 48 80 50 81 56 82 49 83 51 84 52 85 53 86
REMARK SMILES IDX 54 87
REMARK H PARENT 13 6 17 21 76 40 44 51
REMARK Flexibility Score: inf
ROOT
ATOM      1  C   UNL A   1      33.204  27.726  26.890  1.00  0.00     0.042 C 
ENDROOT
BRANCH   1   2
ATOM      2  C   UNL A   1      32.072  27.181  26.030  1.00  0.00     0.117 C 
BRANCH   2   3
ATOM      3  N   UNL A   1      31.353  26.093  26.677  1.00  0.00    -0.356 N 
ATOM      4  C   UNL A   1      31.297  24.762  26.400  1.00  0.00     0.224 C 
ATOM      5  O   UNL A   1      30.616  24.049  27.142  1.00  0.00    -0.275 OA
ATOM      6  H   UNL A   1      30.811  26.369  27.452  1.00  0.00     0.163 HD
BRANCH   4   7
ATOM      7  C   UNL A   1      32.060  24.150  25.236  1.00  0.00     0.093 C 
ATOM      8  N   UNL A   1      33.737  22.358  24.664  1.00  0.00    -0.201 NA
ATOM      9  C   UNL A   1      32.735  21.714  23.780  1.00  0.00     0.102 C 
ATOM     10  C   UNL A   1      33.147  23.204  25.746  1.00  0.00     0.115 C 
ATOM     11  C   UNL A   1      31.857  22.777  23.134  1.00  0.00     0.018 C 
ATOM     12  C   UNL A   1      31.107  23.576  24.185  1.00  0.00     0.016 C 
BRANCH   8  13
ATOM     13  S   UNL A   1      34.970  21.288  25.221  1.00  0.00     0.213 S 
ATOM     14  O   UNL A   1      34.679  19.959  24.732  1.00  0.00    -0.212 OA
ATOM     15  O   UNL A   1      35.188  21.550  26.627  1.00  0.00    -0.212 OA
BRANCH  13  16
ATOM     16  C   UNL A   1      36.388  21.910  24.330  1.00  0.00     0.151 C 
ATOM     17  C   UNL A   1      36.033  22.994  23.334  1.00  0.00     0.022 C 
ENDBRANCH  13  16
ENDBRANCH   8  13
ENDBRANCH   4   7
ENDBRANCH   2   3
ENDBRANCH   1   2
BRANCH   1  18
ATOM     18  C   UNL A   1      34.086  28.742  26.180  1.00  0.00     0.118 C 
BRANCH  18  19
ATOM     19  N   UNL A   1      33.794  30.115  26.575  1.00  0.00    -0.352 N 
ATOM     20  C   UNL A   1      34.419  30.919  27.496  1.00  0.00     0.251 C 
ATOM     21  H   UNL A   1      33.031  30.529  26.111  1.00  0.00     0.163 HD
ATOM     22  O   UNL A   1      33.903  31.987  27.816  1.00  0.00    -0.269 OA
BRANCH  20  23
ATOM     23  C   UNL A   1      35.696  30.497  28.110  1.00  0.00     0.039 A 
ATOM     24  C   UNL A   1      35.666  29.726  29.275  1.00  0.00     0.014 A 
ATOM     25  C   UNL A   1      36.921  30.860  27.544  1.00  0.00     0.014 A 
ATOM     26  C   UNL A   1      36.862  29.264  29.831  1.00  0.00     0.010 A 
ATOM     27  C   UNL A   1      38.102  30.320  28.041  1.00  0.00     0.010 A 
ATOM     28  C   UNL A   1      38.087  29.524  29.195  1.00  0.00    -0.014 A 
BRANCH  28  29
ATOM     29  C   UNL A   1      39.362  28.962  29.714  1.00  0.00     0.031 A 
ATOM     30  C   UNL A   1      40.080  29.630  30.855  1.00  0.00     0.074 A 
ATOM     31  C   UNL A   1      39.920  27.902  29.097  1.00  0.00     0.049 A 
ATOM     32  N   UNL A   1      41.225  29.317  31.404  1.00  0.00    -0.248 NA
ATOM     33  C   UNL A   1      39.444  30.824  31.436  1.00  0.00     0.031 C 
ATOM     34  C   UNL A   1      39.366  27.216  27.927  1.00  0.00     0.029 A 
ATOM     35  N   UNL A   1      41.091  27.232  29.349  1.00  0.00    -0.354 N 
ATOM     36  C   UNL A   1      41.466  30.293  32.363  1.00  0.00     0.074 A 
ATOM     37  C   UNL A   1      40.366  31.230  32.296  1.00  0.00     0.031 C 
ATOM     38  C   UNL A   1      40.191  26.220  27.569  1.00  0.00     0.029 A 
ATOM     39  C   UNL A   1      41.351  26.220  28.455  1.00  0.00     0.049 A 
ATOM     40  H   UNL A   1      41.690  27.456  30.098  1.00  0.00     0.167 HD
ATOM     41  C   UNL A   1      42.496  30.390  33.239  1.00  0.00     0.034 A 
ATOM     42  C   UNL A   1      42.408  25.392  28.349  1.00  0.00     0.034 A 
ATOM     43  C   UNL A   1      43.573  29.440  33.320  1.00  0.00     0.049 A 
ATOM     44  C   UNL A   1      43.525  25.499  29.350  1.00  0.00     0.074 A 
ATOM     45  C   UNL A   1      44.611  29.395  34.233  1.00  0.00     0.029 A 
ATOM     46  N   UNL A   1      43.763  28.381  32.445  1.00  0.00    -0.354 N 
ATOM     47  N   UNL A   1      43.655  26.331  30.354  1.00  0.00    -0.248 NA
ATOM     48  C   UNL A   1      44.622  24.530  29.227  1.00  0.00     0.031 C 
ATOM     49  C   UNL A   1      45.453  28.334  33.883  1.00  0.00     0.029 A 
ATOM     50  C   UNL A   1      44.913  27.688  32.784  1.00  0.00     0.049 A 
ATOM     51  H   UNL A   1      43.167  28.155  31.695  1.00  0.00     0.167 HD
ATOM     52  C   UNL A   1      44.829  25.966  31.003  1.00  0.00     0.074 A 
ATOM     53  C   UNL A   1      45.362  24.823  30.288  1.00  0.00     0.031 C 
ATOM     54  C   UNL A   1      45.415  26.529  32.089  1.00  0.00     0.034 A 
BRANCH  41  55
ATOM     55  C   UNL A   1      42.488  31.552  34.200  1.00  0.00     0.023 A 
ATOM     56  C   UNL A   1      43.149  32.750  33.858  1.00  0.00     0.012 A 
ATOM     57  C   UNL A   1      41.794  31.473  35.423  1.00  0.00     0.148 A 
ATOM     58  C   UNL A   1      43.163  33.832  34.738  1.00  0.00     0.002 A 
ATOM     59  C   UNL A   1      41.769  32.573  36.272  1.00  0.00     0.091 A 
ATOM     60  F   UNL A   1      41.186  30.322  35.742  1.00  0.00    -0.205 F 
ATOM     61  C   UNL A   1      42.465  33.747  35.940  1.00  0.00     0.022 A 
BRANCH  59  62
ATOM     62  S   UNL A   1      40.828  32.594  37.802  1.00  0.00     0.127 S 
ATOM     63  O   UNL A   1      40.702  34.030  38.052  1.00  0.00    -0.237 OA
ATOM     64  O   UNL A   1      39.583  31.934  37.406  1.00  0.00    -0.237 OA
ATOM     65  O   UNL A   1      41.623  31.857  38.773  1.00  0.00    -0.744 OA
ENDBRANCH  59  62
ENDBRANCH  41  55
BRANCH  42  66
ATOM     66  C   UNL A   1      42.430  24.356  27.278  1.00  0.00     0.023 A 
ATOM     67  C   UNL A   1      43.289  24.515  26.174  1.00  0.00     0.012 A 
ATOM     68  C   UNL A   1      41.637  23.196  27.373  1.00  0.00     0.148 A 
ATOM     69  C   UNL A   1      43.339  23.550  25.169  1.00  0.00     0.002 A 
ATOM     70  C   UNL A   1      41.733  22.212  26.397  1.00  0.00     0.091 A 
ATOM     71  F   UNL A   1      40.823  23.069  28.431  1.00  0.00    -0.205 F 
ATOM     72  C   UNL A   1      42.571  22.395  25.284  1.00  0.00     0.022 A 
BRANCH  70  73
ATOM     73  S   UNL A   1      40.882  20.636  26.524  1.00  0.00     0.127 S 
ATOM     74  O   UNL A   1      41.696  19.787  25.658  1.00  0.00    -0.237 OA
ATOM     75  O   UNL A   1      40.998  20.350  27.954  1.00  0.00    -0.237 OA
ATOM     76  O   UNL A   1      39.522  20.882  26.064  1.00  0.00    -0.744 OA
ENDBRANCH  70  73
ENDBRANCH  42  66
BRANCH  54  77
ATOM     77  C   UNL A   1      46.682  25.898  32.608  1.00  0.00     0.023 A 
ATOM     78  C   UNL A   1      47.937  26.392  32.200  1.00  0.00     0.012 A 
ATOM     79  C   UNL A   1      46.623  24.862  33.560  1.00  0.00     0.148 A 
ATOM     80  C   UNL A   1      49.114  25.838  32.704  1.00  0.00     0.002 A 
ATOM     81  C   UNL A   1      47.797  24.352  34.100  1.00  0.00     0.091 A 
ATOM     82  F   UNL A   1      45.420  24.394  33.923  1.00  0.00    -0.205 F 
ATOM     83  C   UNL A   1      49.044  24.829  33.663  1.00  0.00     0.022 A 
BRANCH  81  84
ATOM     84  S   UNL A   1      47.804  23.124  35.410  1.00  0.00     0.127 S 
ATOM     85  O   UNL A   1      47.040  23.800  36.457  1.00  0.00    -0.237 OA
ATOM     86  O   UNL A   1      47.114  21.998  34.780  1.00  0.00    -0.237 OA
ATOM     87  O   UNL A   1      49.205  22.875  35.723  1.00  0.00    -0.744 OA
ENDBRANCH  81  84
ENDBRANCH  54  77
ENDBRANCH  28  29
ENDBRANCH  20  23
ENDBRANCH  18  19
ENDBRANCH   1  18
TORSDOF 15
ENDMDL
