MODEL 1
REMARK VINA RESULT:     -11.8      0.000      0.000
REMARK SMILES C[C@@H](C(=O)NCCCNC(=O)c1ccc(-c2c3nc(c(-c4cccc(S(=O)(=O)[O-])c4F)c4ccc([nH]4)c(-c4cccc(S(=O)(=O)[O-])c4F)c4nc(c(-c5cccc(S(=O)(=O)[O-])c5F)c5ccc2[nH]5)C=C4)C=C3)cc1)c1ccc(C[C@H]2CCC[C@@H]2O)cc1F
REMARK SMILES IDX 6 1 5 2 3 3 4 4 2 6 1 7 75 8 76 9 87 10 77 11 86 12 88 13
REMARK SMILES IDX 78 14 79 15 80 16 81 17 84 18 82 19 83 20 85 21 7 23 8 24
REMARK SMILES IDX 9 25 10 26 11 28 12 29 13 30 74 31 14 32 73 33 15 34 16 35
REMARK SMILES IDX 17 36 67 37 18 38 72 39 66 40 68 41 19 42 71 43 65 44 64 45
REMARK SMILES IDX 20 47 52 48 32 49 51 50 33 51 36 52 50 53 69 54 34 55 35 56
REMARK SMILES IDX 49 58 70 59 37 60 21 61 22 62 30 63 23 64 25 65 31 66 24 67
REMARK SMILES IDX 26 68 27 69 28 70 29 71 53 72 54 73 62 74 55 75 57 76 63 77
REMARK SMILES IDX 56 78 58 79 59 80 60 81 61 82 38 83 39 84 47 85 40 86 42 87
REMARK SMILES IDX 48 88 41 89 43 90 44 91 45 92 46 93
REMARK H PARENT 5 5 85 22 9 27 68 46 36 57
REMARK Flexibility Score: inf
ROOT
ATOM      1  C   UNL A   1      32.773  28.546  24.790  1.00  0.00     0.117 C 
ENDROOT
BRANCH   1   2
ATOM      2  N   UNL A   1      31.705  27.570  24.901  1.00  0.00    -0.356 N 
ATOM      3  C   UNL A   1      31.549  26.365  24.275  1.00  0.00     0.227 C 
ATOM      4  O   UNL A   1      30.442  25.829  24.369  1.00  0.00    -0.274 OA
ATOM      5  H   UNL A   1      30.981  27.813  25.523  1.00  0.00     0.163 HD
BRANCH   3   6
ATOM      6  C   UNL A   1      32.728  25.738  23.502  1.00  0.00     0.108 C 
ATOM      7  C   UNL A   1      32.629  26.165  22.030  1.00  0.00     0.023 C 
BRANCH   6   8
ATOM      8  C   UNL A   1      32.791  24.221  23.683  1.00  0.00    -0.000 A 
ATOM      9  C   UNL A   1      32.468  23.319  22.659  1.00  0.00     0.008 A 
ATOM     10  C   UNL A   1      33.172  23.679  24.916  1.00  0.00     0.127 A 
ATOM     11  C   UNL A   1      32.426  21.944  22.896  1.00  0.00     0.004 A 
ATOM     12  C   UNL A   1      33.083  22.309  25.173  1.00  0.00     0.043 A 
ATOM     13  F   UNL A   1      33.608  24.483  25.898  1.00  0.00    -0.207 F 
ATOM     14  C   UNL A   1      32.652  21.431  24.173  1.00  0.00    -0.045 A 
BRANCH  14  15
ATOM     15  C   UNL A   1      32.387  19.977  24.476  1.00  0.00     0.041 C 
BRANCH  15  16
ATOM     16  C   UNL A   1      33.337  18.966  23.797  1.00  0.00     0.022 C 
ATOM     17  C   UNL A   1      34.586  18.581  24.606  1.00  0.00     0.007 C 
ATOM     18  C   UNL A   1      32.720  17.625  23.380  1.00  0.00     0.117 C 
ATOM     19  C   UNL A   1      34.844  17.099  24.323  1.00  0.00     0.003 C 
ATOM     20  C   UNL A   1      33.935  16.736  23.161  1.00  0.00     0.032 C 
BRANCH  18  21
ATOM     21  O   UNL A   1      31.971  17.738  22.182  1.00  0.00    -0.393 OA
ATOM     22  H   UNL A   1      32.017  16.903  21.691  1.00  0.00     0.210 HD
ENDBRANCH  18  21
ENDBRANCH  15  16
ENDBRANCH  14  15
ENDBRANCH   6   8
ENDBRANCH   3   6
ENDBRANCH   1   2
BRANCH   1  23
ATOM     23  C   UNL A   1      33.864  28.298  25.833  1.00  0.00     0.042 C 
BRANCH  23  24
ATOM     24  C   UNL A   1      33.460  28.656  27.257  1.00  0.00     0.118 C 
BRANCH  24  25
ATOM     25  N   UNL A   1      33.467  30.089  27.489  1.00  0.00    -0.352 N 
ATOM     26  C   UNL A   1      34.405  30.874  28.111  1.00  0.00     0.251 C 
ATOM     27  H   UNL A   1      32.680  30.571  27.148  1.00  0.00     0.163 HD
ATOM     28  O   UNL A   1      34.119  32.039  28.381  1.00  0.00    -0.269 OA
BRANCH  26  29
ATOM     29  C   UNL A   1      35.743  30.341  28.460  1.00  0.00     0.039 A 
ATOM     30  C   UNL A   1      35.898  29.672  29.679  1.00  0.00     0.014 A 
ATOM     31  C   UNL A   1      36.855  30.549  27.639  1.00  0.00     0.014 A 
ATOM     32  C   UNL A   1      37.156  29.203  30.064  1.00  0.00     0.010 A 
ATOM     33  C   UNL A   1      38.091  30.007  27.984  1.00  0.00     0.010 A 
ATOM     34  C   UNL A   1      38.264  29.360  29.215  1.00  0.00    -0.014 A 
BRANCH  34  35
ATOM     35  C   UNL A   1      39.616  28.905  29.630  1.00  0.00     0.031 A 
ATOM     36  C   UNL A   1      40.349  29.624  30.735  1.00  0.00     0.074 A 
ATOM     37  C   UNL A   1      40.211  27.884  28.984  1.00  0.00     0.049 A 
ATOM     38  N   UNL A   1      41.541  29.392  31.223  1.00  0.00    -0.248 NA
ATOM     39  C   UNL A   1      39.665  30.774  31.350  1.00  0.00     0.031 C 
ATOM     40  C   UNL A   1      39.645  27.162  27.842  1.00  0.00     0.029 A 
ATOM     41  N   UNL A   1      41.433  27.292  29.179  1.00  0.00    -0.354 N 
ATOM     42  C   UNL A   1      41.762  30.382  32.173  1.00  0.00     0.074 A 
ATOM     43  C   UNL A   1      40.602  31.245  32.161  1.00  0.00     0.031 C 
ATOM     44  C   UNL A   1      40.517  26.223  27.440  1.00  0.00     0.029 A 
ATOM     45  C   UNL A   1      41.709  26.287  28.282  1.00  0.00     0.049 A 
ATOM     46  H   UNL A   1      42.055  27.561  29.892  1.00  0.00     0.167 HD
ATOM     47  C   UNL A   1      42.814  30.540  33.011  1.00  0.00     0.034 A 
ATOM     48  C   UNL A   1      42.796  25.501  28.156  1.00  0.00     0.034 A 
ATOM     49  C   UNL A   1      43.944  29.652  33.057  1.00  0.00     0.049 A 
ATOM     50  C   UNL A   1      43.918  25.641  29.149  1.00  0.00     0.074 A 
ATOM     51  C   UNL A   1      45.030  29.681  33.914  1.00  0.00     0.029 A 
ATOM     52  N   UNL A   1      44.129  28.568  32.213  1.00  0.00    -0.354 N 
ATOM     53  N   UNL A   1      44.040  26.491  30.140  1.00  0.00    -0.248 NA
ATOM     54  C   UNL A   1      45.028  24.684  29.040  1.00  0.00     0.031 C 
ATOM     55  C   UNL A   1      45.876  28.615  33.582  1.00  0.00     0.029 A 
ATOM     56  C   UNL A   1      45.305  27.913  32.533  1.00  0.00     0.049 A 
ATOM     57  H   UNL A   1      43.514  28.303  31.491  1.00  0.00     0.167 HD
ATOM     58  C   UNL A   1      45.216  26.145  30.797  1.00  0.00     0.074 A 
ATOM     59  C   UNL A   1      45.759  24.997  30.101  1.00  0.00     0.031 C 
ATOM     60  C   UNL A   1      45.800  26.733  31.871  1.00  0.00     0.034 A 
BRANCH  47  61
ATOM     61  C   UNL A   1      42.755  31.683  33.994  1.00  0.00     0.023 A 
ATOM     62  C   UNL A   1      43.281  32.939  33.625  1.00  0.00     0.012 A 
ATOM     63  C   UNL A   1      42.154  31.532  35.259  1.00  0.00     0.148 A 
ATOM     64  C   UNL A   1      43.251  34.013  34.512  1.00  0.00     0.002 A 
ATOM     65  C   UNL A   1      42.086  32.621  36.121  1.00  0.00     0.091 A 
ATOM     66  F   UNL A   1      41.679  30.327  35.603  1.00  0.00    -0.205 F 
ATOM     67  C   UNL A   1      42.646  33.857  35.755  1.00  0.00     0.022 A 
BRANCH  65  68
ATOM     68  S   UNL A   1      41.256  32.544  37.712  1.00  0.00     0.127 S 
ATOM     69  O   UNL A   1      39.940  32.032  37.335  1.00  0.00    -0.237 OA
ATOM     70  O   UNL A   1      42.090  31.595  38.451  1.00  0.00    -0.237 OA
ATOM     71  O   UNL A   1      41.276  33.902  38.238  1.00  0.00    -0.744 OA
ENDBRANCH  65  68
ENDBRANCH  47  61
BRANCH  48  72
ATOM     72  C   UNL A   1      42.829  24.449  27.100  1.00  0.00     0.023 A 
ATOM     73  C   UNL A   1      43.593  24.658  25.936  1.00  0.00     0.012 A 
ATOM     74  C   UNL A   1      42.145  23.228  27.263  1.00  0.00     0.148 A 
ATOM     75  C   UNL A   1      43.652  23.684  24.939  1.00  0.00     0.002 A 
ATOM     76  C   UNL A   1      42.253  22.241  26.291  1.00  0.00     0.091 A 
ATOM     77  F   UNL A   1      41.417  23.053  28.374  1.00  0.00    -0.205 F 
ATOM     78  C   UNL A   1      42.991  22.473  25.121  1.00  0.00     0.022 A 
BRANCH  76  79
ATOM     79  S   UNL A   1      41.546  20.602  26.505  1.00  0.00     0.127 S 
ATOM     80  O   UNL A   1      40.130  20.851  26.238  1.00  0.00    -0.237 OA
ATOM     81  O   UNL A   1      42.241  19.838  25.466  1.00  0.00    -0.237 OA
ATOM     82  O   UNL A   1      41.877  20.204  27.862  1.00  0.00    -0.744 OA
ENDBRANCH  76  79
ENDBRANCH  48  72
BRANCH  60  83
ATOM     83  C   UNL A   1      47.072  26.121  32.396  1.00  0.00     0.023 A 
ATOM     84  C   UNL A   1      48.320  26.616  31.969  1.00  0.00     0.012 A 
ATOM     85  C   UNL A   1      47.029  25.101  33.366  1.00  0.00     0.148 A 
ATOM     86  C   UNL A   1      49.504  26.080  32.472  1.00  0.00     0.002 A 
ATOM     87  C   UNL A   1      48.212  24.604  33.899  1.00  0.00     0.091 A 
ATOM     88  F   UNL A   1      45.832  24.626  33.745  1.00  0.00    -0.205 F 
ATOM     89  C   UNL A   1      49.451  25.083  33.446  1.00  0.00     0.022 A 
BRANCH  87  90
ATOM     90  S   UNL A   1      48.227  23.390  35.223  1.00  0.00     0.127 S 
ATOM     91  O   UNL A   1      47.698  22.206  34.549  1.00  0.00    -0.237 OA
ATOM     92  O   UNL A   1      49.648  23.313  35.564  1.00  0.00    -0.237 OA
ATOM     93  O   UNL A   1      47.388  23.943  36.277  1.00  0.00    -0.744 OA
ENDBRANCH  87  90
ENDBRANCH  60  83
ENDBRANCH  34  35
ENDBRANCH  26  29
ENDBRANCH  24  25
ENDBRANCH  23  24
ENDBRANCH   1  23
TORSDOF 17
ENDMDL
MODEL 2
REMARK VINA RESULT:     -11.7      2.196      2.872
REMARK SMILES C[C@@H](C(=O)NCCCNC(=O)c1ccc(-c2c3nc(c(-c4cccc(S(=O)(=O)[O-])c4F)c4ccc([nH]4)c(-c4cccc(S(=O)(=O)[O-])c4F)c4nc(c(-c5cccc(S(=O)(=O)[O-])c5F)c5ccc2[nH]5)C=C4)C=C3)cc1)c1ccc(C[C@H]2CCC[C@@H]2O)cc1F
REMARK SMILES IDX 6 1 5 2 3 3 4 4 2 6 1 7 75 8 76 9 87 10 77 11 86 12 88 13
REMARK SMILES IDX 78 14 79 15 80 16 81 17 84 18 82 19 83 20 85 21 7 23 8 24
REMARK SMILES IDX 9 25 10 26 11 28 12 29 13 30 74 31 14 32 73 33 15 34 16 35
REMARK SMILES IDX 17 36 67 37 18 38 72 39 66 40 68 41 19 42 71 43 65 44 64 45
REMARK SMILES IDX 20 47 52 48 32 49 51 50 33 51 36 52 50 53 69 54 34 55 35 56
REMARK SMILES IDX 49 58 70 59 37 60 21 61 22 62 30 63 23 64 25 65 31 66 24 67
REMARK SMILES IDX 26 68 27 69 28 70 29 71 53 72 54 73 62 74 55 75 57 76 63 77
REMARK SMILES IDX 56 78 58 79 59 80 60 81 61 82 38 83 39 84 47 85 40 86 42 87
REMARK SMILES IDX 48 88 41 89 43 90 44 91 45 92 46 93
REMARK H PARENT 5 5 85 22 9 27 68 46 36 57
REMARK Flexibility Score: inf
ROOT
ATOM      1  C   UNL A   1      31.457  29.187  25.973  1.00  0.00     0.117 C 
ENDROOT
BRANCH   1   2
ATOM      2  N   UNL A   1      31.067  28.865  24.613  1.00  0.00    -0.356 N 
ATOM      3  C   UNL A   1      31.839  28.585  23.521  1.00  0.00     0.227 C 
ATOM      4  O   UNL A   1      31.270  28.567  22.427  1.00  0.00    -0.274 OA
ATOM      5  H   UNL A   1      30.095  28.846  24.453  1.00  0.00     0.163 HD
BRANCH   3   6
ATOM      6  C   UNL A   1      33.347  28.305  23.693  1.00  0.00     0.108 C 
ATOM      7  C   UNL A   1      34.093  28.889  22.485  1.00  0.00     0.023 C 
BRANCH   6   8
ATOM      8  C   UNL A   1      33.633  26.819  23.914  1.00  0.00    -0.000 A 
ATOM      9  C   UNL A   1      33.588  25.874  22.880  1.00  0.00     0.008 A 
ATOM     10  C   UNL A   1      33.944  26.349  25.196  1.00  0.00     0.127 A 
ATOM     11  C   UNL A   1      33.742  24.512  23.140  1.00  0.00     0.004 A 
ATOM     12  C   UNL A   1      34.049  24.985  25.471  1.00  0.00     0.043 A 
ATOM     13  F   UNL A   1      34.121  27.216  26.205  1.00  0.00    -0.207 F 
ATOM     14  C   UNL A   1      33.891  24.045  24.446  1.00  0.00    -0.045 A 
BRANCH  14  15
ATOM     15  C   UNL A   1      33.831  22.568  24.747  1.00  0.00     0.041 C 
BRANCH  15  16
ATOM     16  C   UNL A   1      35.082  21.751  24.354  1.00  0.00     0.022 C 
ATOM     17  C   UNL A   1      36.393  22.548  24.261  1.00  0.00     0.007 C 
ATOM     18  C   UNL A   1      35.421  20.552  25.247  1.00  0.00     0.117 C 
ATOM     19  C   UNL A   1      37.498  21.621  24.775  1.00  0.00     0.003 C 
ATOM     20  C   UNL A   1      36.865  20.244  24.881  1.00  0.00     0.032 C 
BRANCH  18  21
ATOM     21  O   UNL A   1      34.594  19.436  24.969  1.00  0.00    -0.393 OA
ATOM     22  H   UNL A   1      35.100  18.772  24.474  1.00  0.00     0.210 HD
ENDBRANCH  18  21
ENDBRANCH  15  16
ENDBRANCH  14  15
ENDBRANCH   6   8
ENDBRANCH   3   6
ENDBRANCH   1   2
BRANCH   1  23
ATOM     23  C   UNL A   1      31.708  30.686  26.140  1.00  0.00     0.042 C 
BRANCH  23  24
ATOM     24  C   UNL A   1      32.906  31.026  27.016  1.00  0.00     0.118 C 
BRANCH  24  25
ATOM     25  N   UNL A   1      33.010  32.450  27.282  1.00  0.00    -0.352 N 
ATOM     26  C   UNL A   1      33.919  33.138  28.044  1.00  0.00     0.251 C 
ATOM     27  H   UNL A   1      32.323  33.007  26.848  1.00  0.00     0.163 HD
ATOM     28  O   UNL A   1      33.705  34.321  28.301  1.00  0.00    -0.269 OA
BRANCH  26  29
ATOM     29  C   UNL A   1      35.143  32.479  28.560  1.00  0.00     0.039 A 
ATOM     30  C   UNL A   1      35.004  31.312  29.318  1.00  0.00     0.014 A 
ATOM     31  C   UNL A   1      36.412  33.031  28.365  1.00  0.00     0.014 A 
ATOM     32  C   UNL A   1      36.132  30.695  29.864  1.00  0.00     0.010 A 
ATOM     33  C   UNL A   1      37.544  32.368  28.837  1.00  0.00     0.010 A 
ATOM     34  C   UNL A   1      37.415  31.213  29.622  1.00  0.00    -0.014 A 
BRANCH  34  35
ATOM     35  C   UNL A   1      38.619  30.593  30.232  1.00  0.00     0.031 A 
ATOM     36  C   UNL A   1      39.082  31.028  31.599  1.00  0.00     0.074 A 
ATOM     37  C   UNL A   1      39.328  29.681  29.540  1.00  0.00     0.049 A 
ATOM     38  N   UNL A   1      40.118  30.622  32.288  1.00  0.00    -0.248 NA
ATOM     39  C   UNL A   1      38.296  32.079  32.267  1.00  0.00     0.031 C 
ATOM     40  C   UNL A   1      39.036  29.238  28.176  1.00  0.00     0.029 A 
ATOM     41  N   UNL A   1      40.457  28.978  29.883  1.00  0.00    -0.354 N 
ATOM     42  C   UNL A   1      40.127  31.388  33.448  1.00  0.00     0.074 A 
ATOM     43  C   UNL A   1      39.022  32.315  33.350  1.00  0.00     0.031 C 
ATOM     44  C   UNL A   1      39.959  28.339  27.798  1.00  0.00     0.029 A 
ATOM     45  C   UNL A   1      40.917  28.153  28.884  1.00  0.00     0.049 A 
ATOM     46  H   UNL A   1      40.896  29.058  30.760  1.00  0.00     0.167 HD
ATOM     47  C   UNL A   1      40.952  31.304  34.519  1.00  0.00     0.034 A 
ATOM     48  C   UNL A   1      41.986  27.333  28.850  1.00  0.00     0.034 A 
ATOM     49  C   UNL A   1      42.019  30.348  34.637  1.00  0.00     0.049 A 
ATOM     50  C   UNL A   1      42.841  27.197  30.081  1.00  0.00     0.074 A 
ATOM     51  C   UNL A   1      42.870  30.131  35.706  1.00  0.00     0.029 A 
ATOM     52  N   UNL A   1      42.378  29.441  33.651  1.00  0.00    -0.354 N 
ATOM     53  N   UNL A   1      42.742  27.824  31.228  1.00  0.00    -0.248 NA
ATOM     54  C   UNL A   1      43.924  26.205  30.032  1.00  0.00     0.031 C 
ATOM     55  C   UNL A   1      43.749  29.096  35.363  1.00  0.00     0.029 A 
ATOM     56  C   UNL A   1      43.430  28.656  34.088  1.00  0.00     0.049 A 
ATOM     57  H   UNL A   1      41.947  29.367  32.768  1.00  0.00     0.167 HD
ATOM     58  C   UNL A   1      43.720  27.274  32.050  1.00  0.00     0.074 A 
ATOM     59  C   UNL A   1      44.388  26.251  31.274  1.00  0.00     0.031 C 
ATOM     60  C   UNL A   1      44.043  27.598  33.327  1.00  0.00     0.034 A 
BRANCH  47  61
ATOM     61  C   UNL A   1      40.685  32.232  35.677  1.00  0.00     0.023 A 
ATOM     62  C   UNL A   1      41.559  33.314  35.911  1.00  0.00     0.012 A 
ATOM     63  C   UNL A   1      39.561  32.062  36.509  1.00  0.00     0.148 A 
ATOM     64  C   UNL A   1      41.347  34.184  36.978  1.00  0.00     0.002 A 
ATOM     65  C   UNL A   1      39.329  32.963  37.543  1.00  0.00     0.091 A 
ATOM     66  F   UNL A   1      38.751  31.017  36.286  1.00  0.00    -0.205 F 
ATOM     67  C   UNL A   1      40.227  34.015  37.787  1.00  0.00     0.022 A 
BRANCH  65  68
ATOM     68  S   UNL A   1      37.872  32.878  38.591  1.00  0.00     0.127 S 
ATOM     69  O   UNL A   1      38.030  31.563  39.211  1.00  0.00    -0.237 OA
ATOM     70  O   UNL A   1      38.078  34.008  39.499  1.00  0.00    -0.237 OA
ATOM     71  O   UNL A   1      36.731  33.019  37.699  1.00  0.00    -0.744 OA
ENDBRANCH  65  68
ENDBRANCH  47  61
BRANCH  48  72
ATOM     72  C   UNL A   1      42.247  26.511  27.635  1.00  0.00     0.023 A 
ATOM     73  C   UNL A   1      42.886  27.095  26.525  1.00  0.00     0.012 A 
ATOM     74  C   UNL A   1      41.908  25.144  27.591  1.00  0.00     0.148 A 
ATOM     75  C   UNL A   1      43.154  26.344  25.380  1.00  0.00     0.002 A 
ATOM     76  C   UNL A   1      42.228  24.388  26.469  1.00  0.00     0.091 A 
ATOM     77  F   UNL A   1      41.293  24.608  28.655  1.00  0.00    -0.205 F 
ATOM     78  C   UNL A   1      42.834  24.990  25.357  1.00  0.00     0.022 A 
BRANCH  76  79
ATOM     79  S   UNL A   1      41.976  22.610  26.405  1.00  0.00     0.127 S 
ATOM     80  O   UNL A   1      42.721  22.160  27.581  1.00  0.00    -0.237 OA
ATOM     81  O   UNL A   1      40.519  22.508  26.526  1.00  0.00    -0.237 OA
ATOM     82  O   UNL A   1      42.500  22.183  25.119  1.00  0.00    -0.744 OA
ENDBRANCH  76  79
ENDBRANCH  48  72
BRANCH  60  83
ATOM     83  C   UNL A   1      45.140  26.807  33.991  1.00  0.00     0.023 A 
ATOM     84  C   UNL A   1      46.483  27.211  33.850  1.00  0.00     0.012 A 
ATOM     85  C   UNL A   1      44.832  25.703  34.810  1.00  0.00     0.148 A 
ATOM     86  C   UNL A   1      47.503  26.507  34.486  1.00  0.00     0.002 A 
ATOM     87  C   UNL A   1      45.851  25.036  35.479  1.00  0.00     0.091 A 
ATOM     88  F   UNL A   1      43.551  25.319  34.914  1.00  0.00    -0.205 F 
ATOM     89  C   UNL A   1      47.187  25.427  35.310  1.00  0.00     0.022 A 
BRANCH  87  90
ATOM     90  S   UNL A   1      45.518  23.698  36.631  1.00  0.00     0.127 S 
ATOM     91  O   UNL A   1      44.680  24.362  37.627  1.00  0.00    -0.237 OA
ATOM     92  O   UNL A   1      44.813  22.727  35.792  1.00  0.00    -0.237 OA
ATOM     93  O   UNL A   1      46.821  23.247  37.102  1.00  0.00    -0.744 OA
ENDBRANCH  87  90
ENDBRANCH  60  83
ENDBRANCH  34  35
ENDBRANCH  26  29
ENDBRANCH  24  25
ENDBRANCH  23  24
ENDBRANCH   1  23
TORSDOF 17
ENDMDL
MODEL 3
REMARK VINA RESULT:     -11.7      4.790      9.900
REMARK SMILES C[C@@H](C(=O)NCCCNC(=O)c1ccc(-c2c3nc(c(-c4cccc(S(=O)(=O)[O-])c4F)c4ccc([nH]4)c(-c4cccc(S(=O)(=O)[O-])c4F)c4nc(c(-c5cccc(S(=O)(=O)[O-])c5F)c5ccc2[nH]5)C=C4)C=C3)cc1)c1ccc(C[C@H]2CCC[C@@H]2O)cc1F
REMARK SMILES IDX 6 1 5 2 3 3 4 4 2 6 1 7 75 8 76 9 87 10 77 11 86 12 88 13
REMARK SMILES IDX 78 14 79 15 80 16 81 17 84 18 82 19 83 20 85 21 7 23 8 24
REMARK SMILES IDX 9 25 10 26 11 28 12 29 13 30 74 31 14 32 73 33 15 34 16 35
REMARK SMILES IDX 17 36 67 37 18 38 72 39 66 40 68 41 19 42 71 43 65 44 64 45
REMARK SMILES IDX 20 47 52 48 32 49 51 50 33 51 36 52 50 53 69 54 34 55 35 56
REMARK SMILES IDX 49 58 70 59 37 60 21 61 22 62 30 63 23 64 25 65 31 66 24 67
REMARK SMILES IDX 26 68 27 69 28 70 29 71 53 72 54 73 62 74 55 75 57 76 63 77
REMARK SMILES IDX 56 78 58 79 59 80 60 81 61 82 38 83 39 84 47 85 40 86 42 87
REMARK SMILES IDX 48 88 41 89 43 90 44 91 45 92 46 93
REMARK H PARENT 5 5 85 22 9 27 68 46 36 57
REMARK Flexibility Score: inf
ROOT
ATOM      1  C   UNL A   1      34.844  23.131  23.653  1.00  0.00     0.117 C 
ENDROOT
BRANCH   1   2
ATOM      2  N   UNL A   1      33.419  22.886  23.526  1.00  0.00    -0.356 N 
ATOM      3  C   UNL A   1      32.415  23.057  24.436  1.00  0.00     0.227 C 
ATOM      4  O   UNL A   1      31.320  22.561  24.157  1.00  0.00    -0.274 OA
ATOM      5  H   UNL A   1      33.133  22.543  22.648  1.00  0.00     0.163 HD
BRANCH   3   6
ATOM      6  C   UNL A   1      32.678  23.844  25.737  1.00  0.00     0.108 C 
ATOM      7  C   UNL A   1      31.920  23.160  26.884  1.00  0.00     0.023 C 
BRANCH   6   8
ATOM      8  C   UNL A   1      32.333  25.327  25.590  1.00  0.00    -0.000 A 
ATOM      9  C   UNL A   1      31.014  25.798  25.529  1.00  0.00     0.008 A 
ATOM     10  C   UNL A   1      33.356  26.278  25.498  1.00  0.00     0.127 A 
ATOM     11  C   UNL A   1      30.739  27.143  25.279  1.00  0.00     0.004 A 
ATOM     12  C   UNL A   1      33.089  27.615  25.199  1.00  0.00     0.043 A 
ATOM     13  F   UNL A   1      34.635  25.908  25.670  1.00  0.00    -0.207 F 
ATOM     14  C   UNL A   1      31.770  28.050  25.029  1.00  0.00    -0.045 A 
BRANCH  14  15
ATOM     15  C   UNL A   1      31.466  29.444  24.541  1.00  0.00     0.041 C 
BRANCH  15  16
ATOM     16  C   UNL A   1      30.172  29.600  23.713  1.00  0.00     0.022 C 
ATOM     17  C   UNL A   1      29.402  30.913  23.926  1.00  0.00     0.007 C 
ATOM     18  C   UNL A   1      30.318  29.481  22.191  1.00  0.00     0.117 C 
ATOM     19  C   UNL A   1      28.825  31.301  22.561  1.00  0.00     0.003 C 
ATOM     20  C   UNL A   1      29.024  30.087  21.669  1.00  0.00     0.032 C 
BRANCH  18  21
ATOM     21  O   UNL A   1      30.431  28.130  21.776  1.00  0.00    -0.393 OA
ATOM     22  H   UNL A   1      30.720  27.585  22.525  1.00  0.00     0.210 HD
ENDBRANCH  18  21
ENDBRANCH  15  16
ENDBRANCH  14  15
ENDBRANCH   6   8
ENDBRANCH   3   6
ENDBRANCH   1   2
BRANCH   1  23
ATOM     23  C   UNL A   1      35.557  21.945  24.304  1.00  0.00     0.042 C 
BRANCH  23  24
ATOM     24  C   UNL A   1      36.600  22.336  25.342  1.00  0.00     0.118 C 
BRANCH  24  25
ATOM     25  N   UNL A   1      37.541  21.262  25.611  1.00  0.00    -0.352 N 
ATOM     26  C   UNL A   1      38.845  21.323  26.033  1.00  0.00     0.251 C 
ATOM     27  H   UNL A   1      37.190  20.354  25.469  1.00  0.00     0.163 HD
ATOM     28  O   UNL A   1      39.526  20.299  26.002  1.00  0.00    -0.269 OA
BRANCH  26  29
ATOM     29  C   UNL A   1      39.438  22.592  26.517  1.00  0.00     0.039 A 
ATOM     30  C   UNL A   1      38.944  23.796  26.006  1.00  0.00     0.014 A 
ATOM     31  C   UNL A   1      40.512  22.608  27.411  1.00  0.00     0.014 A 
ATOM     32  C   UNL A   1      39.515  25.009  26.400  1.00  0.00     0.010 A 
ATOM     33  C   UNL A   1      41.024  23.820  27.869  1.00  0.00     0.010 A 
ATOM     34  C   UNL A   1      40.557  25.032  27.343  1.00  0.00    -0.014 A 
BRANCH  34  35
ATOM     35  C   UNL A   1      41.202  26.310  27.739  1.00  0.00     0.031 A 
ATOM     36  C   UNL A   1      42.636  26.582  27.359  1.00  0.00     0.074 A 
ATOM     37  C   UNL A   1      40.524  27.204  28.485  1.00  0.00     0.049 A 
ATOM     38  N   UNL A   1      43.379  27.624  27.629  1.00  0.00    -0.248 NA
ATOM     39  C   UNL A   1      43.336  25.530  26.602  1.00  0.00     0.031 C 
ATOM     40  C   UNL A   1      39.162  27.023  28.991  1.00  0.00     0.029 A 
ATOM     41  N   UNL A   1      40.897  28.434  28.966  1.00  0.00    -0.354 N 
ATOM     42  C   UNL A   1      44.636  27.341  27.108  1.00  0.00     0.074 A 
ATOM     43  C   UNL A   1      44.570  26.010  26.547  1.00  0.00     0.031 C 
ATOM     44  C   UNL A   1      38.814  28.102  29.710  1.00  0.00     0.029 A 
ATOM     45  C   UNL A   1      39.930  29.043  29.731  1.00  0.00     0.049 A 
ATOM     46  H   UNL A   1      41.774  28.840  28.784  1.00  0.00     0.167 HD
ATOM     47  C   UNL A   1      45.737  28.128  27.062  1.00  0.00     0.034 A 
ATOM     48  C   UNL A   1      39.940  30.229  30.370  1.00  0.00     0.034 A 
ATOM     49  C   UNL A   1      45.787  29.470  27.576  1.00  0.00     0.049 A 
ATOM     50  C   UNL A   1      41.144  31.121  30.237  1.00  0.00     0.074 A 
ATOM     51  C   UNL A   1      46.829  30.378  27.518  1.00  0.00     0.029 A 
ATOM     52  N   UNL A   1      44.743  30.100  28.236  1.00  0.00    -0.354 N 
ATOM     53  N   UNL A   1      42.273  30.895  29.609  1.00  0.00    -0.248 NA
ATOM     54  C   UNL A   1      41.059  32.452  30.855  1.00  0.00     0.031 C 
ATOM     55  C   UNL A   1      46.416  31.557  28.151  1.00  0.00     0.029 A 
ATOM     56  C   UNL A   1      45.110  31.388  28.583  1.00  0.00     0.049 A 
ATOM     57  H   UNL A   1      43.868  29.691  28.429  1.00  0.00     0.167 HD
ATOM     58  C   UNL A   1      43.014  32.066  29.721  1.00  0.00     0.074 A 
ATOM     59  C   UNL A   1      42.198  33.005  30.461  1.00  0.00     0.031 C 
ATOM     60  C   UNL A   1      44.263  32.334  29.264  1.00  0.00     0.034 A 
BRANCH  47  61
ATOM     61  C   UNL A   1      46.959  27.575  26.371  1.00  0.00     0.023 A 
ATOM     62  C   UNL A   1      47.154  27.837  24.999  1.00  0.00     0.012 A 
ATOM     63  C   UNL A   1      47.927  26.833  27.075  1.00  0.00     0.148 A 
ATOM     64  C   UNL A   1      48.266  27.333  24.328  1.00  0.00     0.002 A 
ATOM     65  C   UNL A   1      49.058  26.373  26.410  1.00  0.00     0.091 A 
ATOM     66  F   UNL A   1      47.716  26.574  28.374  1.00  0.00    -0.205 F 
ATOM     67  C   UNL A   1      49.222  26.610  25.035  1.00  0.00     0.022 A 
BRANCH  65  68
ATOM     68  S   UNL A   1      50.386  25.501  27.248  1.00  0.00     0.127 S 
ATOM     69  O   UNL A   1      49.711  24.277  27.679  1.00  0.00    -0.237 OA
ATOM     70  O   UNL A   1      51.360  25.312  26.172  1.00  0.00    -0.237 OA
ATOM     71  O   UNL A   1      50.829  26.384  28.317  1.00  0.00    -0.744 OA
ENDBRANCH  65  68
ENDBRANCH  47  61
BRANCH  48  72
ATOM     72  C   UNL A   1      38.729  30.676  31.116  1.00  0.00     0.023 A 
ATOM     73  C   UNL A   1      38.664  30.488  32.510  1.00  0.00     0.012 A 
ATOM     74  C   UNL A   1      37.664  31.324  30.460  1.00  0.00     0.148 A 
ATOM     75  C   UNL A   1      37.548  30.909  33.234  1.00  0.00     0.002 A 
ATOM     76  C   UNL A   1      36.581  31.790  31.195  1.00  0.00     0.091 A 
ATOM     77  F   UNL A   1      37.742  31.486  29.131  1.00  0.00    -0.205 F 
ATOM     78  C   UNL A   1      36.513  31.568  32.578  1.00  0.00     0.022 A 
BRANCH  76  79
ATOM     79  S   UNL A   1      35.267  32.768  30.454  1.00  0.00     0.127 S 
ATOM     80  O   UNL A   1      35.997  33.950  29.996  1.00  0.00    -0.237 OA
ATOM     81  O   UNL A   1      34.799  31.883  29.385  1.00  0.00    -0.237 OA
ATOM     82  O   UNL A   1      34.297  32.991  31.513  1.00  0.00    -0.744 OA
ENDBRANCH  76  79
ENDBRANCH  48  72
BRANCH  60  83
ATOM     83  C   UNL A   1      44.813  33.714  29.506  1.00  0.00     0.023 A 
ATOM     84  C   UNL A   1      45.544  33.986  30.680  1.00  0.00     0.012 A 
ATOM     85  C   UNL A   1      44.665  34.725  28.536  1.00  0.00     0.148 A 
ATOM     86  C   UNL A   1      46.086  35.250  30.900  1.00  0.00     0.002 A 
ATOM     87  C   UNL A   1      45.249  35.969  28.741  1.00  0.00     0.091 A 
ATOM     88  F   UNL A   1      43.948  34.457  27.435  1.00  0.00    -0.205 F 
ATOM     89  C   UNL A   1      45.949  36.238  29.926  1.00  0.00     0.022 A 
BRANCH  87  90
ATOM     90  S   UNL A   1      45.200  37.263  27.495  1.00  0.00     0.127 S 
ATOM     91  O   UNL A   1      45.782  38.394  28.214  1.00  0.00    -0.237 OA
ATOM     92  O   UNL A   1      46.049  36.712  26.436  1.00  0.00    -0.237 OA
ATOM     93  O   UNL A   1      43.798  37.404  27.125  1.00  0.00    -0.744 OA
ENDBRANCH  87  90
ENDBRANCH  60  83
ENDBRANCH  34  35
ENDBRANCH  26  29
ENDBRANCH  24  25
ENDBRANCH  23  24
ENDBRANCH   1  23
TORSDOF 17
ENDMDL
