MODEL 1
REMARK VINA RESULT:     -11.8      0.000      0.000
REMARK SMILES CC1(C)C(CNC(=O)[C@H]2C[C@H]2C(=O)NCCCNC(=O)c2ccc(-c3c4nc(c(-c5cccc(S(=O)(=O)[O-])c5F)c5ccc([nH]5)c(-c5cccc(S(=O)(=O)[O-])c5F)c5nc(c(-c6cccc(S(=O)(=O)[O-])c6F)c6ccc3[nH]6)C=C5)C=C4)cc2)C1(C)C
REMARK SMILES IDX 16 1 15 2 14 3 12 4 13 5 11 7 9 8 10 9 7 10 6 11 8 13 5 14
REMARK SMILES IDX 4 15 1 16 2 17 3 18 84 19 85 20 86 21 17 22 18 23 19 24
REMARK SMILES IDX 20 26 21 27 22 28 83 29 23 30 82 31 24 32 25 33 26 34 76 35
REMARK SMILES IDX 27 36 81 37 75 38 77 39 28 40 80 41 74 42 73 43 29 45 61 46
REMARK SMILES IDX 41 47 60 48 42 49 45 50 59 51 78 52 43 53 44 54 58 56 79 57
REMARK SMILES IDX 46 58 30 59 31 60 39 61 32 62 34 63 40 64 33 65 35 66 36 67
REMARK SMILES IDX 37 68 38 69 62 70 63 71 71 72 64 73 66 74 72 75 65 76 67 77
REMARK SMILES IDX 68 78 69 79 70 80 47 81 48 82 56 83 49 84 51 85 57 86 50 87
REMARK SMILES IDX 52 88 53 89 54 90 55 91
REMARK H PARENT 14 6 6 12 18 25 77 44 45 55
REMARK Flexibility Score: inf
ROOT
ATOM      1  C   UNL A   1      37.260  19.962  24.735  1.00  0.00     0.042 C 
ENDROOT
BRANCH   1   2
ATOM      2  C   UNL A   1      35.843  20.451  24.989  1.00  0.00     0.117 C 
BRANCH   2   3
ATOM      3  N   UNL A   1      35.731  21.880  24.721  1.00  0.00    -0.356 N 
ATOM      4  C   UNL A   1      35.293  22.743  25.700  1.00  0.00     0.223 C 
ATOM      5  O   UNL A   1      35.070  22.406  26.849  1.00  0.00    -0.275 OA
ATOM      6  H   UNL A   1      35.970  22.231  23.834  1.00  0.00     0.163 HD
BRANCH   4   7
ATOM      7  C   UNL A   1      35.150  24.166  25.315  1.00  0.00     0.091 C 
ATOM      8  C   UNL A   1      34.433  24.845  24.181  1.00  0.00     0.091 C 
ATOM      9  C   UNL A   1      33.770  24.783  25.524  1.00  0.00     0.028 C 
BRANCH   8  10
ATOM     10  C   UNL A   1      33.741  24.399  22.945  1.00  0.00     0.223 C 
ATOM     11  N   UNL A   1      32.798  25.093  22.255  1.00  0.00    -0.356 N 
ATOM     12  H   UNL A   1      32.528  24.677  21.404  1.00  0.00     0.163 HD
ATOM     13  O   UNL A   1      34.097  23.321  22.472  1.00  0.00    -0.275 OA
BRANCH  11  14
ATOM     14  C   UNL A   1      32.128  26.321  22.550  1.00  0.00     0.120 C 
BRANCH  14  15
ATOM     15  C   UNL A   1      31.012  26.119  23.526  1.00  0.00     0.021 C 
ATOM     16  C   UNL A   1      30.434  26.213  26.042  1.00  0.00     0.012 C 
ATOM     17  C   UNL A   1      30.877  26.954  24.795  1.00  0.00    -0.025 C 
ATOM     18  C   UNL A   1      31.960  27.953  25.119  1.00  0.00     0.012 C 
ATOM     19  C   UNL A   1      29.889  27.145  23.610  1.00  0.00    -0.025 C 
ATOM     20  C   UNL A   1      28.467  26.649  23.755  1.00  0.00     0.012 C 
ATOM     21  C   UNL A   1      29.945  28.331  22.678  1.00  0.00     0.012 C 
ENDBRANCH  14  15
ENDBRANCH  11  14
ENDBRANCH   8  10
ENDBRANCH   4   7
ENDBRANCH   2   3
ENDBRANCH   1   2
BRANCH   1  22
ATOM     22  C   UNL A   1      38.380  20.826  25.316  1.00  0.00     0.118 C 
BRANCH  22  23
ATOM     23  N   UNL A   1      39.456  20.134  26.031  1.00  0.00    -0.352 N 
ATOM     24  C   UNL A   1      40.412  20.579  26.928  1.00  0.00     0.251 C 
ATOM     25  H   UNL A   1      39.507  19.170  25.838  1.00  0.00     0.163 HD
ATOM     26  O   UNL A   1      41.183  19.772  27.443  1.00  0.00    -0.269 OA
BRANCH  24  27
ATOM     27  C   UNL A   1      40.588  22.020  27.215  1.00  0.00     0.039 A 
ATOM     28  C   UNL A   1      41.550  22.430  28.157  1.00  0.00     0.014 A 
ATOM     29  C   UNL A   1      39.863  22.972  26.515  1.00  0.00     0.014 A 
ATOM     30  C   UNL A   1      41.903  23.779  28.265  1.00  0.00     0.010 A 
ATOM     31  C   UNL A   1      40.283  24.286  26.537  1.00  0.00     0.010 A 
ATOM     32  C   UNL A   1      41.305  24.703  27.409  1.00  0.00    -0.014 A 
BRANCH  32  33
ATOM     33  C   UNL A   1      41.560  26.159  27.434  1.00  0.00     0.031 A 
ATOM     34  C   UNL A   1      42.912  26.584  26.945  1.00  0.00     0.074 A 
ATOM     35  C   UNL A   1      40.753  26.992  28.113  1.00  0.00     0.049 A 
ATOM     36  N   UNL A   1      43.650  27.585  27.325  1.00  0.00    -0.248 NA
ATOM     37  C   UNL A   1      43.572  25.656  26.007  1.00  0.00     0.031 C 
ATOM     38  C   UNL A   1      39.438  26.657  28.663  1.00  0.00     0.029 A 
ATOM     39  N   UNL A   1      40.968  28.283  28.524  1.00  0.00    -0.354 N 
ATOM     40  C   UNL A   1      44.905  27.334  26.784  1.00  0.00     0.074 A 
ATOM     41  C   UNL A   1      44.822  26.086  26.060  1.00  0.00     0.031 C 
ATOM     42  C   UNL A   1      38.973  27.708  29.360  1.00  0.00     0.029 A 
ATOM     43  C   UNL A   1      39.980  28.765  29.352  1.00  0.00     0.049 A 
ATOM     44  H   UNL A   1      41.752  28.812  28.253  1.00  0.00     0.167 HD
ATOM     45  C   UNL A   1      46.022  28.090  26.887  1.00  0.00     0.034 A 
ATOM     46  C   UNL A   1      39.926  29.922  30.043  1.00  0.00     0.034 A 
ATOM     47  C   UNL A   1      46.013  29.388  27.500  1.00  0.00     0.049 A 
ATOM     48  C   UNL A   1      41.110  30.853  29.958  1.00  0.00     0.074 A 
ATOM     49  C   UNL A   1      47.026  30.324  27.562  1.00  0.00     0.029 A 
ATOM     50  N   UNL A   1      44.901  29.948  28.115  1.00  0.00    -0.354 N 
ATOM     51  N   UNL A   1      42.274  30.652  29.382  1.00  0.00    -0.248 NA
ATOM     52  C   UNL A   1      40.972  32.174  30.583  1.00  0.00     0.031 C 
ATOM     53  C   UNL A   1      46.512  31.467  28.188  1.00  0.00     0.029 A 
ATOM     54  C   UNL A   1      45.183  31.238  28.514  1.00  0.00     0.049 A 
ATOM     55  H   UNL A   1      44.038  29.493  28.246  1.00  0.00     0.167 HD
ATOM     56  C   UNL A   1      42.987  31.836  29.534  1.00  0.00     0.074 A 
ATOM     57  C   UNL A   1      42.120  32.751  30.251  1.00  0.00     0.031 C 
ATOM     58  C   UNL A   1      44.247  32.140  29.139  1.00  0.00     0.034 A 
BRANCH  45  59
ATOM     59  C   UNL A   1      47.287  27.559  26.271  1.00  0.00     0.023 A 
ATOM     60  C   UNL A   1      47.596  27.872  24.930  1.00  0.00     0.012 A 
ATOM     61  C   UNL A   1      48.169  26.742  27.006  1.00  0.00     0.148 A 
ATOM     62  C   UNL A   1      48.722  27.331  24.312  1.00  0.00     0.002 A 
ATOM     63  C   UNL A   1      49.321  26.251  26.398  1.00  0.00     0.091 A 
ATOM     64  F   UNL A   1      47.854  26.432  28.271  1.00  0.00    -0.205 F 
ATOM     65  C   UNL A   1      49.588  26.529  25.048  1.00  0.00     0.022 A 
BRANCH  63  66
ATOM     66  S   UNL A   1      50.546  25.278  27.284  1.00  0.00     0.127 S 
ATOM     67  O   UNL A   1      51.487  24.944  26.216  1.00  0.00    -0.237 OA
ATOM     68  O   UNL A   1      51.052  26.240  28.264  1.00  0.00    -0.237 OA
ATOM     69  O   UNL A   1      49.822  24.153  27.858  1.00  0.00    -0.744 OA
ENDBRANCH  63  66
ENDBRANCH  45  59
BRANCH  46  70
ATOM     70  C   UNL A   1      38.688  30.303  30.782  1.00  0.00     0.023 A 
ATOM     71  C   UNL A   1      38.571  29.927  32.135  1.00  0.00     0.012 A 
ATOM     72  C   UNL A   1      37.656  31.058  30.193  1.00  0.00     0.148 A 
ATOM     73  C   UNL A   1      37.440  30.263  32.880  1.00  0.00     0.002 A 
ATOM     74  C   UNL A   1      36.550  31.430  30.954  1.00  0.00     0.091 A 
ATOM     75  F   UNL A   1      37.776  31.404  28.904  1.00  0.00    -0.205 F 
ATOM     76  C   UNL A   1      36.433  31.023  32.292  1.00  0.00     0.022 A 
BRANCH  74  77
ATOM     77  S   UNL A   1      35.261  32.511  30.318  1.00  0.00     0.127 S 
ATOM     78  O   UNL A   1      34.807  31.774  29.141  1.00  0.00    -0.237 OA
ATOM     79  O   UNL A   1      34.310  32.541  31.430  1.00  0.00    -0.237 OA
ATOM     80  O   UNL A   1      35.919  33.785  30.058  1.00  0.00    -0.744 OA
ENDBRANCH  74  77
ENDBRANCH  46  70
BRANCH  58  81
ATOM     81  C   UNL A   1      44.744  33.534  29.391  1.00  0.00     0.023 A 
ATOM     82  C   UNL A   1      45.372  33.840  30.612  1.00  0.00     0.012 A 
ATOM     83  C   UNL A   1      44.715  34.490  28.357  1.00  0.00     0.148 A 
ATOM     84  C   UNL A   1      45.961  35.089  30.803  1.00  0.00     0.002 A 
ATOM     85  C   UNL A   1      45.341  35.714  28.540  1.00  0.00     0.091 A 
ATOM     86  F   UNL A   1      44.092  34.175  27.212  1.00  0.00    -0.205 F 
ATOM     87  C   UNL A   1      45.960  36.017  29.764  1.00  0.00     0.022 A 
BRANCH  85  88
ATOM     88  S   UNL A   1      45.478  36.925  27.222  1.00  0.00     0.127 S 
ATOM     89  O   UNL A   1      46.162  36.159  26.182  1.00  0.00    -0.237 OA
ATOM     90  O   UNL A   1      44.075  37.231  26.933  1.00  0.00    -0.237 OA
ATOM     91  O   UNL A   1      46.234  38.041  27.777  1.00  0.00    -0.744 OA
ENDBRANCH  85  88
ENDBRANCH  58  81
ENDBRANCH  32  33
ENDBRANCH  24  27
ENDBRANCH  22  23
ENDBRANCH   1  22
TORSDOF 16
ENDMDL
MODEL 2
REMARK VINA RESULT:     -11.6      1.862      2.502
REMARK SMILES CC1(C)C(CNC(=O)[C@H]2C[C@H]2C(=O)NCCCNC(=O)c2ccc(-c3c4nc(c(-c5cccc(S(=O)(=O)[O-])c5F)c5ccc([nH]5)c(-c5cccc(S(=O)(=O)[O-])c5F)c5nc(c(-c6cccc(S(=O)(=O)[O-])c6F)c6ccc3[nH]6)C=C5)C=C4)cc2)C1(C)C
REMARK SMILES IDX 16 1 15 2 14 3 12 4 13 5 11 7 9 8 10 9 7 10 6 11 8 13 5 14
REMARK SMILES IDX 4 15 1 16 2 17 3 18 84 19 85 20 86 21 17 22 18 23 19 24
REMARK SMILES IDX 20 26 21 27 22 28 83 29 23 30 82 31 24 32 25 33 26 34 76 35
REMARK SMILES IDX 27 36 81 37 75 38 77 39 28 40 80 41 74 42 73 43 29 45 61 46
REMARK SMILES IDX 41 47 60 48 42 49 45 50 59 51 78 52 43 53 44 54 58 56 79 57
REMARK SMILES IDX 46 58 30 59 31 60 39 61 32 62 34 63 40 64 33 65 35 66 36 67
REMARK SMILES IDX 37 68 38 69 62 70 63 71 71 72 64 73 66 74 72 75 65 76 67 77
REMARK SMILES IDX 68 78 69 79 70 80 47 81 48 82 56 83 49 84 51 85 57 86 50 87
REMARK SMILES IDX 52 88 53 89 54 90 55 91
REMARK H PARENT 14 6 6 12 18 25 77 44 45 55
REMARK Flexibility Score: inf
ROOT
ATOM      1  C   UNL A   1      36.502  21.903  24.302  1.00  0.00     0.042 C 
ENDROOT
BRANCH   1   2
ATOM      2  C   UNL A   1      35.645  23.158  24.337  1.00  0.00     0.117 C 
BRANCH   2   3
ATOM      3  N   UNL A   1      34.270  22.837  24.707  1.00  0.00    -0.356 N 
ATOM      4  C   UNL A   1      33.287  22.764  23.747  1.00  0.00     0.223 C 
ATOM      5  O   UNL A   1      33.500  22.859  22.551  1.00  0.00    -0.275 OA
ATOM      6  H   UNL A   1      34.044  22.670  25.650  1.00  0.00     0.163 HD
BRANCH   4   7
ATOM      7  C   UNL A   1      31.911  22.496  24.226  1.00  0.00     0.091 C 
ATOM      8  C   UNL A   1      31.148  22.958  25.436  1.00  0.00     0.091 C 
ATOM      9  C   UNL A   1      30.928  23.658  24.129  1.00  0.00     0.028 C 
BRANCH   8  10
ATOM     10  C   UNL A   1      31.478  23.702  26.677  1.00  0.00     0.223 C 
ATOM     11  N   UNL A   1      31.250  25.022  26.911  1.00  0.00    -0.356 N 
ATOM     12  H   UNL A   1      31.445  25.312  27.831  1.00  0.00     0.163 HD
ATOM     13  O   UNL A   1      31.955  23.047  27.603  1.00  0.00    -0.275 OA
BRANCH  11  14
ATOM     14  C   UNL A   1      30.775  26.061  26.052  1.00  0.00     0.120 C 
BRANCH  14  15
ATOM     15  C   UNL A   1      31.568  27.320  26.222  1.00  0.00     0.021 C 
ATOM     16  C   UNL A   1      33.981  28.226  26.393  1.00  0.00     0.012 C 
ATOM     17  C   UNL A   1      32.926  27.524  25.559  1.00  0.00    -0.025 C 
ATOM     18  C   UNL A   1      33.529  26.379  24.783  1.00  0.00     0.012 C 
ATOM     19  C   UNL A   1      31.677  28.305  25.065  1.00  0.00    -0.025 C 
ATOM     20  C   UNL A   1      31.572  29.784  25.364  1.00  0.00     0.012 C 
ATOM     21  C   UNL A   1      30.954  27.969  23.783  1.00  0.00     0.012 C 
ENDBRANCH  14  15
ENDBRANCH  11  14
ENDBRANCH   8  10
ENDBRANCH   4   7
ENDBRANCH   2   3
ENDBRANCH   1   2
BRANCH   1  22
ATOM     22  C   UNL A   1      36.919  21.338  25.660  1.00  0.00     0.118 C 
BRANCH  22  23
ATOM     23  N   UNL A   1      38.178  20.591  25.716  1.00  0.00    -0.352 N 
ATOM     24  C   UNL A   1      39.446  20.937  26.153  1.00  0.00     0.251 C 
ATOM     25  H   UNL A   1      38.109  19.668  25.380  1.00  0.00     0.163 HD
ATOM     26  O   UNL A   1      40.340  20.093  26.149  1.00  0.00    -0.269 OA
BRANCH  24  27
ATOM     27  C   UNL A   1      39.776  22.326  26.541  1.00  0.00     0.039 A 
ATOM     28  C   UNL A   1      40.894  22.575  27.357  1.00  0.00     0.014 A 
ATOM     29  C   UNL A   1      39.033  23.389  26.052  1.00  0.00     0.014 A 
ATOM     30  C   UNL A   1      41.365  23.880  27.533  1.00  0.00     0.010 A 
ATOM     31  C   UNL A   1      39.554  24.665  26.129  1.00  0.00     0.010 A 
ATOM     32  C   UNL A   1      40.722  24.924  26.869  1.00  0.00    -0.014 A 
BRANCH  32  33
ATOM     33  C   UNL A   1      41.092  26.350  26.988  1.00  0.00     0.031 A 
ATOM     34  C   UNL A   1      42.452  26.707  26.470  1.00  0.00     0.074 A 
ATOM     35  C   UNL A   1      40.381  27.187  27.763  1.00  0.00     0.049 A 
ATOM     36  N   UNL A   1      43.282  27.618  26.887  1.00  0.00    -0.248 NA
ATOM     37  C   UNL A   1      42.999  25.807  25.437  1.00  0.00     0.031 C 
ATOM     38  C   UNL A   1      39.067  26.911  28.347  1.00  0.00     0.029 A 
ATOM     39  N   UNL A   1      40.714  28.422  28.257  1.00  0.00    -0.354 N 
ATOM     40  C   UNL A   1      44.490  27.315  26.273  1.00  0.00     0.074 A 
ATOM     41  C   UNL A   1      44.280  26.136  25.464  1.00  0.00     0.031 C 
ATOM     42  C   UNL A   1      38.715  27.938  29.140  1.00  0.00     0.029 A 
ATOM     43  C   UNL A   1      39.801  28.914  29.163  1.00  0.00     0.049 A 
ATOM     44  H   UNL A   1      41.526  28.910  27.989  1.00  0.00     0.167 HD
ATOM     45  C   UNL A   1      45.666  27.974  26.380  1.00  0.00     0.034 A 
ATOM     46  C   UNL A   1      39.866  30.014  29.938  1.00  0.00     0.034 A 
ATOM     47  C   UNL A   1      45.784  29.218  27.085  1.00  0.00     0.049 A 
ATOM     48  C   UNL A   1      41.116  30.857  29.867  1.00  0.00     0.074 A 
ATOM     49  C   UNL A   1      46.869  30.068  27.169  1.00  0.00     0.029 A 
ATOM     50  N   UNL A   1      44.746  29.812  27.790  1.00  0.00    -0.354 N 
ATOM     51  N   UNL A   1      42.236  30.613  29.225  1.00  0.00    -0.248 NA
ATOM     52  C   UNL A   1      41.107  32.134  30.593  1.00  0.00     0.031 C 
ATOM     53  C   UNL A   1      46.473  31.195  27.900  1.00  0.00     0.029 A 
ATOM     54  C   UNL A   1      45.144  31.043  28.269  1.00  0.00     0.049 A 
ATOM     55  H   UNL A   1      43.856  29.415  27.927  1.00  0.00     0.167 HD
ATOM     56  C   UNL A   1      43.045  31.725  29.430  1.00  0.00     0.074 A 
ATOM     57  C   UNL A   1      42.282  32.645  30.251  1.00  0.00     0.031 C 
ATOM     58  C   UNL A   1      44.309  31.962  29.000  1.00  0.00     0.034 A 
BRANCH  45  59
ATOM     59  C   UNL A   1      46.860  27.397  25.668  1.00  0.00     0.023 A 
ATOM     60  C   UNL A   1      47.720  26.512  26.350  1.00  0.00     0.012 A 
ATOM     61  C   UNL A   1      47.144  27.735  24.330  1.00  0.00     0.148 A 
ATOM     62  C   UNL A   1      48.873  26.023  25.740  1.00  0.00     0.002 A 
ATOM     63  C   UNL A   1      48.268  27.199  23.708  1.00  0.00     0.091 A 
ATOM     64  F   UNL A   1      46.333  28.596  23.698  1.00  0.00    -0.205 F 
ATOM     65  C   UNL A   1      49.142  26.360  24.417  1.00  0.00     0.022 A 
BRANCH  63  66
ATOM     66  S   UNL A   1      48.658  27.502  21.980  1.00  0.00     0.127 S 
ATOM     67  O   UNL A   1      49.810  28.395  22.088  1.00  0.00    -0.237 OA
ATOM     68  O   UNL A   1      48.971  26.157  21.495  1.00  0.00    -0.237 OA
ATOM     69  O   UNL A   1      47.460  28.091  21.398  1.00  0.00    -0.744 OA
ENDBRANCH  63  66
ENDBRANCH  45  59
BRANCH  46  70
ATOM     70  C   UNL A   1      38.693  30.430  30.759  1.00  0.00     0.023 A 
ATOM     71  C   UNL A   1      38.671  30.081  32.125  1.00  0.00     0.012 A 
ATOM     72  C   UNL A   1      37.632  31.193  30.234  1.00  0.00     0.148 A 
ATOM     73  C   UNL A   1      37.604  30.450  32.944  1.00  0.00     0.002 A 
ATOM     74  C   UNL A   1      36.591  31.598  31.067  1.00  0.00     0.091 A 
ATOM     75  F   UNL A   1      37.661  31.513  28.933  1.00  0.00    -0.205 F 
ATOM     76  C   UNL A   1      36.568  31.217  32.418  1.00  0.00     0.022 A 
BRANCH  74  77
ATOM     77  S   UNL A   1      35.276  32.689  30.507  1.00  0.00     0.127 S 
ATOM     78  O   UNL A   1      36.013  33.911  30.198  1.00  0.00    -0.237 OA
ATOM     79  O   UNL A   1      34.757  31.972  29.342  1.00  0.00    -0.237 OA
ATOM     80  O   UNL A   1      34.343  32.772  31.623  1.00  0.00    -0.744 OA
ENDBRANCH  74  77
ENDBRANCH  46  70
BRANCH  58  81
ATOM     81  C   UNL A   1      44.923  33.292  29.331  1.00  0.00     0.023 A 
ATOM     82  C   UNL A   1      45.675  33.438  30.511  1.00  0.00     0.012 A 
ATOM     83  C   UNL A   1      44.873  34.343  28.394  1.00  0.00     0.148 A 
ATOM     84  C   UNL A   1      46.365  34.623  30.760  1.00  0.00     0.002 A 
ATOM     85  C   UNL A   1      45.599  35.502  28.629  1.00  0.00     0.091 A 
ATOM     86  F   UNL A   1      44.134  34.179  27.288  1.00  0.00    -0.205 F 
ATOM     87  C   UNL A   1      46.341  35.646  29.813  1.00  0.00     0.022 A 
BRANCH  85  88
ATOM     88  S   UNL A   1      45.708  36.824  27.419  1.00  0.00     0.127 S 
ATOM     89  O   UNL A   1      44.345  37.350  27.429  1.00  0.00    -0.237 OA
ATOM     90  O   UNL A   1      46.711  37.709  28.013  1.00  0.00    -0.237 OA
ATOM     91  O   UNL A   1      46.126  36.194  26.173  1.00  0.00    -0.744 OA
ENDBRANCH  85  88
ENDBRANCH  58  81
ENDBRANCH  32  33
ENDBRANCH  24  27
ENDBRANCH  22  23
ENDBRANCH   1  22
TORSDOF 16
ENDMDL
MODEL 3
REMARK VINA RESULT:     -11.5      6.443     11.856
REMARK SMILES CC1(C)C(CNC(=O)[C@H]2C[C@H]2C(=O)NCCCNC(=O)c2ccc(-c3c4nc(c(-c5cccc(S(=O)(=O)[O-])c5F)c5ccc([nH]5)c(-c5cccc(S(=O)(=O)[O-])c5F)c5nc(c(-c6cccc(S(=O)(=O)[O-])c6F)c6ccc3[nH]6)C=C5)C=C4)cc2)C1(C)C
REMARK SMILES IDX 16 1 15 2 14 3 12 4 13 5 11 7 9 8 10 9 7 10 6 11 8 13 5 14
REMARK SMILES IDX 4 15 1 16 2 17 3 18 84 19 85 20 86 21 17 22 18 23 19 24
REMARK SMILES IDX 20 26 21 27 22 28 83 29 23 30 82 31 24 32 25 33 26 34 76 35
REMARK SMILES IDX 27 36 81 37 75 38 77 39 28 40 80 41 74 42 73 43 29 45 61 46
REMARK SMILES IDX 41 47 60 48 42 49 45 50 59 51 78 52 43 53 44 54 58 56 79 57
REMARK SMILES IDX 46 58 30 59 31 60 39 61 32 62 34 63 40 64 33 65 35 66 36 67
REMARK SMILES IDX 37 68 38 69 62 70 63 71 71 72 64 73 66 74 72 75 65 76 67 77
REMARK SMILES IDX 68 78 69 79 70 80 47 81 48 82 56 83 49 84 51 85 57 86 50 87
REMARK SMILES IDX 52 88 53 89 54 90 55 91
REMARK H PARENT 14 6 6 12 18 25 77 44 45 55
REMARK Flexibility Score: inf
ROOT
ATOM      1  C   UNL A   1      33.280  34.315  28.516  1.00  0.00     0.042 C 
ENDROOT
BRANCH   1   2
ATOM      2  C   UNL A   1      34.307  33.403  27.864  1.00  0.00     0.117 C 
BRANCH   2   3
ATOM      3  N   UNL A   1      33.753  32.071  27.642  1.00  0.00    -0.356 N 
ATOM      4  C   UNL A   1      34.546  30.954  27.765  1.00  0.00     0.223 C 
ATOM      5  O   UNL A   1      35.701  30.983  28.150  1.00  0.00    -0.275 OA
ATOM      6  H   UNL A   1      32.803  31.972  27.404  1.00  0.00     0.163 HD
BRANCH   4   7
ATOM      7  C   UNL A   1      33.911  29.652  27.457  1.00  0.00     0.091 C 
ATOM      8  C   UNL A   1      32.853  29.245  26.469  1.00  0.00     0.091 C 
ATOM      9  C   UNL A   1      34.294  29.015  26.125  1.00  0.00     0.028 C 
BRANCH   8  10
ATOM     10  C   UNL A   1      31.931  29.957  25.548  1.00  0.00     0.223 C 
ATOM     11  N   UNL A   1      31.551  29.545  24.311  1.00  0.00    -0.356 N 
ATOM     12  H   UNL A   1      30.855  30.101  23.892  1.00  0.00     0.163 HD
ATOM     13  O   UNL A   1      31.423  30.995  25.971  1.00  0.00    -0.275 OA
BRANCH  11  14
ATOM     14  C   UNL A   1      31.986  28.443  23.511  1.00  0.00     0.120 C 
BRANCH  14  15
ATOM     15  C   UNL A   1      31.535  27.135  24.084  1.00  0.00     0.021 C 
ATOM     16  C   UNL A   1      30.277  24.956  23.500  1.00  0.00     0.012 C 
ATOM     17  C   UNL A   1      31.469  25.859  23.251  1.00  0.00    -0.025 C 
ATOM     18  C   UNL A   1      31.781  25.944  21.777  1.00  0.00     0.012 C 
ATOM     19  C   UNL A   1      32.556  26.036  24.348  1.00  0.00    -0.025 C 
ATOM     20  C   UNL A   1      32.441  25.237  25.627  1.00  0.00     0.012 C 
ATOM     21  C   UNL A   1      34.003  26.326  24.030  1.00  0.00     0.012 C 
ENDBRANCH  14  15
ENDBRANCH  11  14
ENDBRANCH   8  10
ENDBRANCH   4   7
ENDBRANCH   2   3
ENDBRANCH   1   2
BRANCH   1  22
ATOM     22  C   UNL A   1      33.814  35.636  29.070  1.00  0.00     0.118 C 
BRANCH  22  23
ATOM     23  N   UNL A   1      33.001  36.315  30.081  1.00  0.00    -0.352 N 
ATOM     24  C   UNL A   1      33.023  36.285  31.466  1.00  0.00     0.251 C 
ATOM     25  H   UNL A   1      32.307  36.904  29.705  1.00  0.00     0.163 HD
ATOM     26  O   UNL A   1      32.256  37.007  32.100  1.00  0.00    -0.269 OA
BRANCH  24  27
ATOM     27  C   UNL A   1      33.889  35.338  32.203  1.00  0.00     0.039 A 
ATOM     28  C   UNL A   1      33.394  34.069  32.552  1.00  0.00     0.014 A 
ATOM     29  C   UNL A   1      35.205  35.665  32.491  1.00  0.00     0.014 A 
ATOM     30  C   UNL A   1      34.259  33.077  33.024  1.00  0.00     0.010 A 
ATOM     31  C   UNL A   1      36.083  34.662  32.850  1.00  0.00     0.010 A 
ATOM     32  C   UNL A   1      35.621  33.362  33.120  1.00  0.00    -0.014 A 
BRANCH  32  33
ATOM     33  C   UNL A   1      36.642  32.422  33.631  1.00  0.00     0.031 A 
ATOM     34  C   UNL A   1      37.195  32.745  34.986  1.00  0.00     0.074 A 
ATOM     35  C   UNL A   1      37.227  31.527  32.817  1.00  0.00     0.049 A 
ATOM     36  N   UNL A   1      38.386  32.537  35.463  1.00  0.00    -0.248 NA
ATOM     37  C   UNL A   1      36.316  33.548  35.858  1.00  0.00     0.031 C 
ATOM     38  C   UNL A   1      36.786  31.175  31.466  1.00  0.00     0.029 A 
ATOM     39  N   UNL A   1      38.380  30.804  32.990  1.00  0.00    -0.354 N 
ATOM     40  C   UNL A   1      38.449  33.297  36.624  1.00  0.00     0.074 A 
ATOM     41  C   UNL A   1      37.178  33.972  36.768  1.00  0.00     0.031 C 
ATOM     42  C   UNL A   1      37.671  30.321  30.923  1.00  0.00     0.029 A 
ATOM     43  C   UNL A   1      38.766  30.111  31.865  1.00  0.00     0.049 A 
ATOM     44  H   UNL A   1      38.881  30.782  33.837  1.00  0.00     0.167 HD
ATOM     45  C   UNL A   1      39.482  33.413  37.489  1.00  0.00     0.034 A 
ATOM     46  C   UNL A   1      39.897  29.417  31.629  1.00  0.00     0.034 A 
ATOM     47  C   UNL A   1      40.669  32.613  37.373  1.00  0.00     0.049 A 
ATOM     48  C   UNL A   1      40.945  29.382  32.714  1.00  0.00     0.074 A 
ATOM     49  C   UNL A   1      41.739  32.519  38.240  1.00  0.00     0.029 A 
ATOM     50  N   UNL A   1      40.908  31.726  36.332  1.00  0.00    -0.354 N 
ATOM     51  N   UNL A   1      40.975  30.041  33.850  1.00  0.00    -0.248 NA
ATOM     52  C   UNL A   1      42.096  28.494  32.507  1.00  0.00     0.031 C 
ATOM     53  C   UNL A   1      42.612  31.546  37.736  1.00  0.00     0.029 A 
ATOM     54  C   UNL A   1      42.083  31.040  36.558  1.00  0.00     0.049 A 
ATOM     55  H   UNL A   1      40.326  31.604  35.548  1.00  0.00     0.167 HD
ATOM     56  C   UNL A   1      42.119  29.611  34.513  1.00  0.00     0.074 A 
ATOM     57  C   UNL A   1      42.751  28.631  33.652  1.00  0.00     0.031 C 
ATOM     58  C   UNL A   1      42.617  30.001  35.712  1.00  0.00     0.034 A 
BRANCH  45  59
ATOM     59  C   UNL A   1      39.329  34.367  38.641  1.00  0.00     0.023 A 
ATOM     60  C   UNL A   1      39.831  35.681  38.532  1.00  0.00     0.012 A 
ATOM     61  C   UNL A   1      38.700  33.970  39.838  1.00  0.00     0.148 A 
ATOM     62  C   UNL A   1      39.770  36.561  39.611  1.00  0.00     0.002 A 
ATOM     63  C   UNL A   1      38.593  34.872  40.892  1.00  0.00     0.091 A 
ATOM     64  F   UNL A   1      38.248  32.712  39.940  1.00  0.00    -0.205 F 
ATOM     65  C   UNL A   1      39.144  36.160  40.787  1.00  0.00     0.022 A 
BRANCH  63  66
ATOM     66  S   UNL A   1      37.730  34.482  42.419  1.00  0.00     0.127 S 
ATOM     67  O   UNL A   1      37.948  35.697  43.202  1.00  0.00    -0.237 OA
ATOM     68  O   UNL A   1      36.355  34.293  41.956  1.00  0.00    -0.237 OA
ATOM     69  O   UNL A   1      38.363  33.278  42.939  1.00  0.00    -0.744 OA
ENDBRANCH  63  66
ENDBRANCH  45  59
BRANCH  46  70
ATOM     70  C   UNL A   1      40.051  28.628  30.373  1.00  0.00     0.023 A 
ATOM     71  C   UNL A   1      39.199  27.524  30.165  1.00  0.00     0.012 A 
ATOM     72  C   UNL A   1      40.981  28.968  29.373  1.00  0.00     0.148 A 
ATOM     73  C   UNL A   1      39.290  26.755  29.005  1.00  0.00     0.002 A 
ATOM     74  C   UNL A   1      41.037  28.224  28.197  1.00  0.00     0.091 A 
ATOM     75  F   UNL A   1      41.790  30.016  29.585  1.00  0.00    -0.205 F 
ATOM     76  C   UNL A   1      40.203  27.110  28.016  1.00  0.00     0.022 A 
BRANCH  74  77
ATOM     77  S   UNL A   1      42.096  28.679  26.816  1.00  0.00     0.127 S 
ATOM     78  O   UNL A   1      42.985  27.524  26.727  1.00  0.00    -0.237 OA
ATOM     79  O   UNL A   1      41.135  28.802  25.720  1.00  0.00    -0.237 OA
ATOM     80  O   UNL A   1      42.721  29.936  27.207  1.00  0.00    -0.744 OA
ENDBRANCH  74  77
ENDBRANCH  46  70
BRANCH  58  81
ATOM     81  C   UNL A   1      43.857  29.317  36.212  1.00  0.00     0.023 A 
ATOM     82  C   UNL A   1      45.102  29.961  36.097  1.00  0.00     0.012 A 
ATOM     83  C   UNL A   1      43.755  28.105  36.923  1.00  0.00     0.148 A 
ATOM     84  C   UNL A   1      46.237  29.400  36.680  1.00  0.00     0.002 A 
ATOM     85  C   UNL A   1      44.881  27.577  37.538  1.00  0.00     0.091 A 
ATOM     86  F   UNL A   1      42.558  27.507  36.998  1.00  0.00    -0.205 F 
ATOM     87  C   UNL A   1      46.123  28.220  37.413  1.00  0.00     0.022 A 
BRANCH  85  88
ATOM     88  S   UNL A   1      44.804  26.120  38.584  1.00  0.00     0.127 S 
ATOM     89  O   UNL A   1      43.944  26.580  39.673  1.00  0.00    -0.237 OA
ATOM     90  O   UNL A   1      44.192  25.131  37.697  1.00  0.00    -0.237 OA
ATOM     91  O   UNL A   1      46.181  25.822  38.958  1.00  0.00    -0.744 OA
ENDBRANCH  85  88
ENDBRANCH  58  81
ENDBRANCH  32  33
ENDBRANCH  24  27
ENDBRANCH  22  23
ENDBRANCH   1  22
TORSDOF 16
ENDMDL
