MODEL 1
REMARK VINA RESULT:     -10.0      0.000      0.000
REMARK SMILES C[C@@H](O)c1ccc(F)cc1OCC(C)(C)C(=O)NCCCNC(=O)c1ccc(-c2c3nc(c(-c4cccc(S(=O)(=O)[O-])c4F)c4ccc([nH]4)c(-c4cccc(S(=O)(=O)[O-])c4F)c4nc(c(-c5cccc(S(=O)(=O)[O-])c5F)c5ccc2[nH]5)C=C4)C=C3)cc1
REMARK SMILES IDX 19 1 18 2 16 3 17 4 13 6 14 7 15 8 12 9 11 10 10 11 4 12
REMARK SMILES IDX 5 13 6 14 9 15 7 16 8 17 2 18 1 19 3 20 20 22 21 23 22 24
REMARK SMILES IDX 23 25 24 27 25 28 26 29 87 30 27 31 86 32 28 33 29 34 30 35
REMARK SMILES IDX 80 36 31 37 85 38 79 39 81 40 32 41 84 42 78 43 77 44 33 46
REMARK SMILES IDX 65 47 45 48 64 49 46 50 49 51 63 52 82 53 47 54 48 55 62 57
REMARK SMILES IDX 83 58 50 59 34 60 35 61 43 62 36 63 38 64 44 65 37 66 39 67
REMARK SMILES IDX 40 68 41 69 42 70 66 71 67 72 75 73 68 74 70 75 76 76 69 77
REMARK SMILES IDX 71 78 72 79 73 80 74 81 51 82 52 83 60 84 53 85 55 86 61 87
REMARK SMILES IDX 54 88 56 89 57 90 58 91 59 92
REMARK H PARENT 18 5 3 21 22 26 81 45 49 56
REMARK Flexibility Score: inf
ROOT
ATOM      1  C   UNL A   1      43.519  19.883  25.763  1.00  0.00     0.117 C 
ENDROOT
BRANCH   1   2
ATOM      2  N   UNL A   1      43.239  21.103  25.010  1.00  0.00    -0.355 N 
ATOM      3  C   UNL A   1      44.095  22.106  24.618  1.00  0.00     0.229 C 
ATOM      4  O   UNL A   1      43.656  22.965  23.854  1.00  0.00    -0.274 OA
ATOM      5  H   UNL A   1      42.298  21.226  24.745  1.00  0.00     0.163 HD
BRANCH   3   6
ATOM      6  C   UNL A   1      45.533  22.133  25.172  1.00  0.00     0.077 C 
ATOM      7  C   UNL A   1      46.352  23.087  24.282  1.00  0.00     0.025 C 
ATOM      8  C   UNL A   1      46.034  20.664  25.123  1.00  0.00     0.025 C 
BRANCH   6   9
ATOM      9  C   UNL A   1      45.568  22.506  26.692  1.00  0.00     0.245 C 
BRANCH   9  10
ATOM     10  O   UNL A   1      46.479  23.520  27.084  1.00  0.00    -0.492 OA
BRANCH  10  11
ATOM     11  C   UNL A   1      46.420  24.300  28.202  1.00  0.00     0.128 A 
ATOM     12  C   UNL A   1      47.351  25.181  28.808  1.00  0.00     0.022 A 
ATOM     13  C   UNL A   1      46.879  26.001  29.868  1.00  0.00     0.013 A 
ATOM     14  C   UNL A   1      45.554  25.971  30.303  1.00  0.00     0.040 A 
ATOM     15  C   UNL A   1      45.105  24.239  28.706  1.00  0.00     0.086 A 
ATOM     16  C   UNL A   1      44.681  25.073  29.727  1.00  0.00     0.126 A 
ATOM     17  F   UNL A   1      43.407  25.028  30.136  1.00  0.00    -0.207 F 
BRANCH  12  18
ATOM     18  C   UNL A   1      48.801  25.393  28.411  1.00  0.00     0.145 C 
ATOM     19  C   UNL A   1      49.812  25.259  29.560  1.00  0.00     0.044 C 
BRANCH  18  20
ATOM     20  O   UNL A   1      49.141  24.442  27.402  1.00  0.00    -0.389 OA
ATOM     21  H   UNL A   1      49.649  23.717  27.799  1.00  0.00     0.211 HD
ENDBRANCH  18  20
ENDBRANCH  12  18
ENDBRANCH  10  11
ENDBRANCH   9  10
ENDBRANCH   6   9
ENDBRANCH   3   6
ENDBRANCH   1   2
BRANCH   1  22
ATOM     22  C   UNL A   1      42.289  19.083  26.109  1.00  0.00     0.042 C 
BRANCH  22  23
ATOM     23  C   UNL A   1      41.298  19.893  26.915  1.00  0.00     0.118 C 
BRANCH  23  24
ATOM     24  N   UNL A   1      40.019  20.066  26.227  1.00  0.00    -0.352 N 
ATOM     25  C   UNL A   1      39.217  21.183  26.142  1.00  0.00     0.251 C 
ATOM     26  H   UNL A   1      39.681  19.269  25.757  1.00  0.00     0.163 HD
ATOM     27  O   UNL A   1      38.092  21.108  25.674  1.00  0.00    -0.269 OA
BRANCH  25  28
ATOM     28  C   UNL A   1      39.743  22.464  26.654  1.00  0.00     0.039 A 
ATOM     29  C   UNL A   1      40.802  22.462  27.562  1.00  0.00     0.014 A 
ATOM     30  C   UNL A   1      39.231  23.663  26.159  1.00  0.00     0.014 A 
ATOM     31  C   UNL A   1      41.405  23.674  27.904  1.00  0.00     0.010 A 
ATOM     32  C   UNL A   1      39.919  24.841  26.388  1.00  0.00     0.010 A 
ATOM     33  C   UNL A   1      40.998  24.865  27.281  1.00  0.00    -0.014 A 
BRANCH  33  34
ATOM     34  C   UNL A   1      41.658  26.164  27.552  1.00  0.00     0.031 A 
ATOM     35  C   UNL A   1      40.947  27.194  28.389  1.00  0.00     0.074 A 
ATOM     36  C   UNL A   1      42.828  26.461  26.952  1.00  0.00     0.049 A 
ATOM     37  N   UNL A   1      41.291  28.427  28.642  1.00  0.00    -0.248 NA
ATOM     38  C   UNL A   1      39.653  26.802  28.978  1.00  0.00     0.031 C 
ATOM     39  C   UNL A   1      43.559  25.584  26.034  1.00  0.00     0.029 A 
ATOM     40  N   UNL A   1      43.595  27.597  27.003  1.00  0.00    -0.354 N 
ATOM     41  C   UNL A   1      40.236  28.971  29.364  1.00  0.00     0.074 A 
ATOM     42  C   UNL A   1      39.218  27.953  29.469  1.00  0.00     0.031 C 
ATOM     43  C   UNL A   1      44.676  26.206  25.624  1.00  0.00     0.029 A 
ATOM     44  C   UNL A   1      44.726  27.537  26.223  1.00  0.00     0.049 A 
ATOM     45  H   UNL A   1      43.359  28.382  27.548  1.00  0.00     0.167 HD
ATOM     46  C   UNL A   1      40.142  30.195  29.931  1.00  0.00     0.034 A 
ATOM     47  C   UNL A   1      45.695  28.450  26.014  1.00  0.00     0.034 A 
ATOM     48  C   UNL A   1      41.199  31.164  29.905  1.00  0.00     0.049 A 
ATOM     49  C   UNL A   1      45.616  29.767  26.738  1.00  0.00     0.074 A 
ATOM     50  C   UNL A   1      41.259  32.383  30.554  1.00  0.00     0.029 A 
ATOM     51  N   UNL A   1      42.385  31.019  29.204  1.00  0.00    -0.354 N 
ATOM     52  N   UNL A   1      44.685  30.203  27.551  1.00  0.00    -0.248 NA
ATOM     53  C   UNL A   1      46.733  30.704  26.548  1.00  0.00     0.031 C 
ATOM     54  C   UNL A   1      42.480  32.982  30.235  1.00  0.00     0.029 A 
ATOM     55  C   UNL A   1      43.186  32.128  29.401  1.00  0.00     0.049 A 
ATOM     56  H   UNL A   1      42.622  30.242  28.647  1.00  0.00     0.167 HD
ATOM     57  C   UNL A   1      45.113  31.450  27.991  1.00  0.00     0.074 A 
ATOM     58  C   UNL A   1      46.400  31.692  27.370  1.00  0.00     0.031 C 
ATOM     59  C   UNL A   1      44.488  32.324  28.819  1.00  0.00     0.034 A 
BRANCH  46  60
ATOM     60  C   UNL A   1      38.890  30.522  30.700  1.00  0.00     0.023 A 
ATOM     61  C   UNL A   1      38.836  30.252  32.083  1.00  0.00     0.012 A 
ATOM     62  C   UNL A   1      37.801  31.161  30.076  1.00  0.00     0.148 A 
ATOM     63  C   UNL A   1      37.707  30.586  32.829  1.00  0.00     0.002 A 
ATOM     64  C   UNL A   1      36.699  31.534  30.836  1.00  0.00     0.091 A 
ATOM     65  F   UNL A   1      37.863  31.385  28.756  1.00  0.00    -0.205 F 
ATOM     66  C   UNL A   1      36.645  31.238  32.207  1.00  0.00     0.022 A 
BRANCH  64  67
ATOM     67  S   UNL A   1      35.317  32.454  30.151  1.00  0.00     0.127 S 
ATOM     68  O   UNL A   1      34.862  31.556  29.089  1.00  0.00    -0.237 OA
ATOM     69  O   UNL A   1      34.413  32.550  31.297  1.00  0.00    -0.237 OA
ATOM     70  O   UNL A   1      35.864  33.726  29.700  1.00  0.00    -0.744 OA
ENDBRANCH  64  67
ENDBRANCH  46  60
BRANCH  47  71
ATOM     71  C   UNL A   1      46.863  28.098  25.158  1.00  0.00     0.023 A 
ATOM     72  C   UNL A   1      46.721  28.124  23.757  1.00  0.00     0.012 A 
ATOM     73  C   UNL A   1      48.127  27.819  25.714  1.00  0.00     0.148 A 
ATOM     74  C   UNL A   1      47.810  27.864  22.925  1.00  0.00     0.002 A 
ATOM     75  C   UNL A   1      49.220  27.615  24.880  1.00  0.00     0.091 A 
ATOM     76  F   UNL A   1      48.240  27.790  27.049  1.00  0.00    -0.205 F 
ATOM     77  C   UNL A   1      49.062  27.623  23.486  1.00  0.00     0.022 A 
BRANCH  75  78
ATOM     78  S   UNL A   1      50.896  27.446  25.508  1.00  0.00     0.127 S 
ATOM     79  O   UNL A   1      50.945  26.029  25.854  1.00  0.00    -0.237 OA
ATOM     80  O   UNL A   1      51.695  27.824  24.341  1.00  0.00    -0.237 OA
ATOM     81  O   UNL A   1      50.994  28.376  26.626  1.00  0.00    -0.744 OA
ENDBRANCH  75  78
ENDBRANCH  47  71
BRANCH  59  82
ATOM     82  C   UNL A   1      45.179  33.624  29.126  1.00  0.00     0.023 A 
ATOM     83  C   UNL A   1      46.050  33.700  30.230  1.00  0.00     0.012 A 
ATOM     84  C   UNL A   1      45.075  34.719  28.245  1.00  0.00     0.148 A 
ATOM     85  C   UNL A   1      46.798  34.855  30.460  1.00  0.00     0.002 A 
ATOM     86  C   UNL A   1      45.859  35.846  28.453  1.00  0.00     0.091 A 
ATOM     87  F   UNL A   1      44.227  34.627  27.210  1.00  0.00    -0.205 F 
ATOM     88  C   UNL A   1      46.714  35.919  29.565  1.00  0.00     0.022 A 
BRANCH  86  89
ATOM     89  S   UNL A   1      45.897  37.219  27.296  1.00  0.00     0.127 S 
ATOM     90  O   UNL A   1      44.504  37.660  27.310  1.00  0.00    -0.237 OA
ATOM     91  O   UNL A   1      46.835  38.140  27.938  1.00  0.00    -0.237 OA
ATOM     92  O   UNL A   1      46.365  36.666  26.031  1.00  0.00    -0.744 OA
ENDBRANCH  86  89
ENDBRANCH  59  82
ENDBRANCH  33  34
ENDBRANCH  25  28
ENDBRANCH  23  24
ENDBRANCH  22  23
ENDBRANCH   1  22
TORSDOF 18
ENDMDL
MODEL 2
REMARK VINA RESULT:     -10.0      5.448     10.063
REMARK SMILES C[C@@H](O)c1ccc(F)cc1OCC(C)(C)C(=O)NCCCNC(=O)c1ccc(-c2c3nc(c(-c4cccc(S(=O)(=O)[O-])c4F)c4ccc([nH]4)c(-c4cccc(S(=O)(=O)[O-])c4F)c4nc(c(-c5cccc(S(=O)(=O)[O-])c5F)c5ccc2[nH]5)C=C4)C=C3)cc1
REMARK SMILES IDX 19 1 18 2 16 3 17 4 13 6 14 7 15 8 12 9 11 10 10 11 4 12
REMARK SMILES IDX 5 13 6 14 9 15 7 16 8 17 2 18 1 19 3 20 20 22 21 23 22 24
REMARK SMILES IDX 23 25 24 27 25 28 26 29 87 30 27 31 86 32 28 33 29 34 30 35
REMARK SMILES IDX 80 36 31 37 85 38 79 39 81 40 32 41 84 42 78 43 77 44 33 46
REMARK SMILES IDX 65 47 45 48 64 49 46 50 49 51 63 52 82 53 47 54 48 55 62 57
REMARK SMILES IDX 83 58 50 59 34 60 35 61 43 62 36 63 38 64 44 65 37 66 39 67
REMARK SMILES IDX 40 68 41 69 42 70 66 71 67 72 75 73 68 74 70 75 76 76 69 77
REMARK SMILES IDX 71 78 72 79 73 80 74 81 51 82 52 83 60 84 53 85 55 86 61 87
REMARK SMILES IDX 54 88 56 89 57 90 58 91 59 92
REMARK H PARENT 18 5 3 21 22 26 81 45 49 56
REMARK Flexibility Score: inf
ROOT
ATOM      1  C   UNL A   1      31.385  27.942  25.216  1.00  0.00     0.117 C 
ENDROOT
BRANCH   1   2
ATOM      2  N   UNL A   1      32.498  27.215  24.612  1.00  0.00    -0.355 N 
ATOM      3  C   UNL A   1      32.591  25.889  24.260  1.00  0.00     0.229 C 
ATOM      4  O   UNL A   1      33.581  25.535  23.619  1.00  0.00    -0.274 OA
ATOM      5  H   UNL A   1      33.302  27.755  24.429  1.00  0.00     0.163 HD
BRANCH   3   6
ATOM      6  C   UNL A   1      31.489  24.909  24.709  1.00  0.00     0.077 C 
ATOM      7  C   UNL A   1      30.187  25.322  23.996  1.00  0.00     0.025 C 
ATOM      8  C   UNL A   1      31.411  25.036  26.254  1.00  0.00     0.025 C 
BRANCH   6   9
ATOM      9  C   UNL A   1      31.894  23.418  24.460  1.00  0.00     0.245 C 
BRANCH   9  10
ATOM     10  O   UNL A   1      32.520  22.734  25.534  1.00  0.00    -0.492 OA
BRANCH  10  11
ATOM     11  C   UNL A   1      33.745  22.132  25.531  1.00  0.00     0.128 A 
ATOM     12  C   UNL A   1      34.191  20.867  25.071  1.00  0.00     0.022 A 
ATOM     13  C   UNL A   1      35.594  20.643  25.038  1.00  0.00     0.013 A 
ATOM     14  C   UNL A   1      36.516  21.615  25.423  1.00  0.00     0.040 A 
ATOM     15  C   UNL A   1      34.694  23.073  25.980  1.00  0.00     0.086 A 
ATOM     16  C   UNL A   1      36.054  22.820  25.910  1.00  0.00     0.126 A 
ATOM     17  F   UNL A   1      36.925  23.763  26.289  1.00  0.00    -0.207 F 
BRANCH  12  18
ATOM     18  C   UNL A   1      33.332  19.730  24.547  1.00  0.00     0.145 C 
ATOM     19  C   UNL A   1      34.044  18.370  24.460  1.00  0.00     0.044 C 
BRANCH  18  20
ATOM     20  O   UNL A   1      32.195  19.588  25.397  1.00  0.00    -0.389 OA
ATOM     21  H   UNL A   1      31.461  19.203  24.893  1.00  0.00     0.211 HD
ENDBRANCH  18  20
ENDBRANCH  12  18
ENDBRANCH  10  11
ENDBRANCH   9  10
ENDBRANCH   6   9
ENDBRANCH   3   6
ENDBRANCH   1   2
BRANCH   1  22
ATOM     22  C   UNL A   1      31.795  28.875  26.327  1.00  0.00     0.042 C 
BRANCH  22  23
ATOM     23  C   UNL A   1      32.885  29.828  25.889  1.00  0.00     0.118 C 
BRANCH  23  24
ATOM     24  N   UNL A   1      32.642  31.202  26.328  1.00  0.00    -0.352 N 
ATOM     25  C   UNL A   1      33.349  31.969  27.228  1.00  0.00     0.251 C 
ATOM     26  H   UNL A   1      31.860  31.643  25.923  1.00  0.00     0.163 HD
ATOM     27  O   UNL A   1      32.908  33.040  27.614  1.00  0.00    -0.269 OA
BRANCH  25  28
ATOM     28  C   UNL A   1      34.637  31.452  27.730  1.00  0.00     0.039 A 
ATOM     29  C   UNL A   1      35.699  32.331  27.945  1.00  0.00     0.014 A 
ATOM     30  C   UNL A   1      34.751  30.102  28.063  1.00  0.00     0.014 A 
ATOM     31  C   UNL A   1      36.848  31.864  28.582  1.00  0.00     0.010 A 
ATOM     32  C   UNL A   1      35.829  29.679  28.819  1.00  0.00     0.010 A 
ATOM     33  C   UNL A   1      36.901  30.546  29.067  1.00  0.00    -0.014 A 
BRANCH  33  34
ATOM     34  C   UNL A   1      38.068  30.027  29.818  1.00  0.00     0.031 A 
ATOM     35  C   UNL A   1      38.301  30.489  31.232  1.00  0.00     0.074 A 
ATOM     36  C   UNL A   1      38.974  29.246  29.197  1.00  0.00     0.049 A 
ATOM     37  N   UNL A   1      39.318  30.254  32.016  1.00  0.00    -0.248 NA
ATOM     38  C   UNL A   1      37.282  31.373  31.825  1.00  0.00     0.031 C 
ATOM     39  C   UNL A   1      38.910  28.820  27.796  1.00  0.00     0.029 A 
ATOM     40  N   UNL A   1      40.142  28.693  29.656  1.00  0.00    -0.354 N 
ATOM     41  C   UNL A   1      39.089  31.004  33.163  1.00  0.00     0.074 A 
ATOM     42  C   UNL A   1      37.864  31.739  32.958  1.00  0.00     0.031 C 
ATOM     43  C   UNL A   1      39.980  28.058  27.517  1.00  0.00     0.029 A 
ATOM     44  C   UNL A   1      40.822  27.967  28.707  1.00  0.00     0.049 A 
ATOM     45  H   UNL A   1      40.464  28.805  30.580  1.00  0.00     0.167 HD
ATOM     46  C   UNL A   1      39.810  31.041  34.307  1.00  0.00     0.034 A 
ATOM     47  C   UNL A   1      41.992  27.302  28.785  1.00  0.00     0.034 A 
ATOM     48  C   UNL A   1      40.971  30.231  34.538  1.00  0.00     0.049 A 
ATOM     49  C   UNL A   1      42.723  27.276  30.100  1.00  0.00     0.074 A 
ATOM     50  C   UNL A   1      41.701  30.095  35.704  1.00  0.00     0.029 A 
ATOM     51  N   UNL A   1      41.564  29.412  33.591  1.00  0.00    -0.354 N 
ATOM     52  N   UNL A   1      42.404  27.862  31.229  1.00  0.00    -0.248 NA
ATOM     53  C   UNL A   1      43.952  26.473  30.168  1.00  0.00     0.031 C 
ATOM     54  C   UNL A   1      42.746  29.200  35.457  1.00  0.00     0.029 A 
ATOM     55  C   UNL A   1      42.654  28.767  34.143  1.00  0.00     0.049 A 
ATOM     56  H   UNL A   1      41.255  29.306  32.662  1.00  0.00     0.167 HD
ATOM     57  C   UNL A   1      43.374  27.479  32.147  1.00  0.00     0.074 A 
ATOM     58  C   UNL A   1      44.283  26.592  31.448  1.00  0.00     0.031 C 
ATOM     59  C   UNL A   1      43.512  27.844  33.446  1.00  0.00     0.034 A 
BRANCH  46  60
ATOM     60  C   UNL A   1      39.316  31.919  35.425  1.00  0.00     0.023 A 
ATOM     61  C   UNL A   1      38.434  31.385  36.387  1.00  0.00     0.012 A 
ATOM     62  C   UNL A   1      39.777  33.241  35.566  1.00  0.00     0.148 A 
ATOM     63  C   UNL A   1      37.996  32.162  37.458  1.00  0.00     0.002 A 
ATOM     64  C   UNL A   1      39.374  33.995  36.663  1.00  0.00     0.091 A 
ATOM     65  F   UNL A   1      40.595  33.738  34.627  1.00  0.00    -0.205 F 
ATOM     66  C   UNL A   1      38.476  33.462  37.601  1.00  0.00     0.022 A 
BRANCH  64  67
ATOM     67  S   UNL A   1      40.001  35.646  36.988  1.00  0.00     0.127 S 
ATOM     68  O   UNL A   1      41.440  35.401  37.084  1.00  0.00    -0.237 OA
ATOM     69  O   UNL A   1      39.585  36.373  35.788  1.00  0.00    -0.237 OA
ATOM     70  O   UNL A   1      39.359  36.086  38.219  1.00  0.00    -0.744 OA
ENDBRANCH  64  67
ENDBRANCH  46  60
BRANCH  47  71
ATOM     71  C   UNL A   1      42.478  26.530  27.606  1.00  0.00     0.023 A 
ATOM     72  C   UNL A   1      43.401  27.128  26.727  1.00  0.00     0.012 A 
ATOM     73  C   UNL A   1      42.100  25.190  27.396  1.00  0.00     0.148 A 
ATOM     74  C   UNL A   1      43.926  26.413  25.651  1.00  0.00     0.002 A 
ATOM     75  C   UNL A   1      42.669  24.465  26.355  1.00  0.00     0.091 A 
ATOM     76  F   UNL A   1      41.213  24.642  28.239  1.00  0.00    -0.205 F 
ATOM     77  C   UNL A   1      43.571  25.078  25.473  1.00  0.00     0.022 A 
BRANCH  75  78
ATOM     78  S   UNL A   1      42.386  22.703  26.137  1.00  0.00     0.127 S 
ATOM     79  O   UNL A   1      43.011  22.458  24.840  1.00  0.00    -0.237 OA
ATOM     80  O   UNL A   1      43.101  22.139  27.282  1.00  0.00    -0.237 OA
ATOM     81  O   UNL A   1      40.941  22.527  26.187  1.00  0.00    -0.744 OA
ENDBRANCH  75  78
ENDBRANCH  47  71
BRANCH  59  82
ATOM     82  C   UNL A   1      44.674  27.282  34.220  1.00  0.00     0.023 A 
ATOM     83  C   UNL A   1      45.850  28.045  34.352  1.00  0.00     0.012 A 
ATOM     84  C   UNL A   1      44.546  26.071  34.928  1.00  0.00     0.148 A 
ATOM     85  C   UNL A   1      46.890  27.602  35.169  1.00  0.00     0.002 A 
ATOM     86  C   UNL A   1      45.565  25.660  35.776  1.00  0.00     0.091 A 
ATOM     87  F   UNL A   1      43.422  25.356  34.773  1.00  0.00    -0.205 F 
ATOM     88  C   UNL A   1      46.741  26.420  35.891  1.00  0.00     0.022 A 
BRANCH  86  89
ATOM     89  S   UNL A   1      45.419  24.210  36.827  1.00  0.00     0.127 S 
ATOM     90  O   UNL A   1      44.784  23.252  35.925  1.00  0.00    -0.237 OA
ATOM     91  O   UNL A   1      46.815  23.916  37.147  1.00  0.00    -0.237 OA
ATOM     92  O   UNL A   1      44.612  24.623  37.969  1.00  0.00    -0.744 OA
ENDBRANCH  86  89
ENDBRANCH  59  82
ENDBRANCH  33  34
ENDBRANCH  25  28
ENDBRANCH  23  24
ENDBRANCH  22  23
ENDBRANCH   1  22
TORSDOF 18
ENDMDL
MODEL 3
REMARK VINA RESULT:     -10.0      3.882     10.404
REMARK SMILES C[C@@H](O)c1ccc(F)cc1OCC(C)(C)C(=O)NCCCNC(=O)c1ccc(-c2c3nc(c(-c4cccc(S(=O)(=O)[O-])c4F)c4ccc([nH]4)c(-c4cccc(S(=O)(=O)[O-])c4F)c4nc(c(-c5cccc(S(=O)(=O)[O-])c5F)c5ccc2[nH]5)C=C4)C=C3)cc1
REMARK SMILES IDX 19 1 18 2 16 3 17 4 13 6 14 7 15 8 12 9 11 10 10 11 4 12
REMARK SMILES IDX 5 13 6 14 9 15 7 16 8 17 2 18 1 19 3 20 20 22 21 23 22 24
REMARK SMILES IDX 23 25 24 27 25 28 26 29 87 30 27 31 86 32 28 33 29 34 30 35
REMARK SMILES IDX 80 36 31 37 85 38 79 39 81 40 32 41 84 42 78 43 77 44 33 46
REMARK SMILES IDX 65 47 45 48 64 49 46 50 49 51 63 52 82 53 47 54 48 55 62 57
REMARK SMILES IDX 83 58 50 59 34 60 35 61 43 62 36 63 38 64 44 65 37 66 39 67
REMARK SMILES IDX 40 68 41 69 42 70 66 71 67 72 75 73 68 74 70 75 76 76 69 77
REMARK SMILES IDX 71 78 72 79 73 80 74 81 51 82 52 83 60 84 53 85 55 86 61 87
REMARK SMILES IDX 54 88 56 89 57 90 58 91 59 92
REMARK H PARENT 18 5 3 21 22 26 81 45 49 56
REMARK Flexibility Score: inf
ROOT
ATOM      1  C   UNL A   1      35.123  22.635  24.013  1.00  0.00     0.117 C 
ENDROOT
BRANCH   1   2
ATOM      2  N   UNL A   1      33.668  22.501  23.981  1.00  0.00    -0.355 N 
ATOM      3  C   UNL A   1      32.711  23.172  24.704  1.00  0.00     0.229 C 
ATOM      4  O   UNL A   1      31.533  22.999  24.393  1.00  0.00    -0.274 OA
ATOM      5  H   UNL A   1      33.323  21.830  23.347  1.00  0.00     0.163 HD
BRANCH   3   6
ATOM      6  C   UNL A   1      33.143  24.070  25.880  1.00  0.00     0.077 C 
ATOM      7  C   UNL A   1      34.270  24.988  25.369  1.00  0.00     0.025 C 
ATOM      8  C   UNL A   1      33.600  23.104  27.006  1.00  0.00     0.025 C 
BRANCH   6   9
ATOM      9  C   UNL A   1      31.934  24.846  26.500  1.00  0.00     0.245 C 
BRANCH   9  10
ATOM     10  O   UNL A   1      31.954  26.260  26.393  1.00  0.00    -0.492 OA
BRANCH  10  11
ATOM     11  C   UNL A   1      31.265  27.034  25.504  1.00  0.00     0.128 A 
ATOM     12  C   UNL A   1      31.521  28.310  24.942  1.00  0.00     0.022 A 
ATOM     13  C   UNL A   1      30.682  28.734  23.877  1.00  0.00     0.013 A 
ATOM     14  C   UNL A   1      29.650  27.941  23.377  1.00  0.00     0.040 A 
ATOM     15  C   UNL A   1      30.173  26.280  25.027  1.00  0.00     0.086 A 
ATOM     16  C   UNL A   1      29.393  26.724  23.971  1.00  0.00     0.126 A 
ATOM     17  F   UNL A   1      28.403  25.952  23.507  1.00  0.00    -0.207 F 
BRANCH  12  18
ATOM     18  C   UNL A   1      32.642  29.264  25.314  1.00  0.00     0.145 C 
ATOM     19  C   UNL A   1      32.243  30.381  26.291  1.00  0.00     0.044 C 
BRANCH  18  20
ATOM     20  O   UNL A   1      33.704  28.513  25.901  1.00  0.00    -0.389 OA
ATOM     21  H   UNL A   1      33.625  28.543  26.867  1.00  0.00     0.211 HD
ENDBRANCH  18  20
ENDBRANCH  12  18
ENDBRANCH  10  11
ENDBRANCH   9  10
ENDBRANCH   6   9
ENDBRANCH   3   6
ENDBRANCH   1   2
BRANCH   1  22
ATOM     22  C   UNL A   1      35.833  21.442  24.602  1.00  0.00     0.042 C 
BRANCH  22  23
ATOM     23  C   UNL A   1      36.901  21.853  25.590  1.00  0.00     0.118 C 
BRANCH  23  24
ATOM     24  N   UNL A   1      37.955  20.847  25.732  1.00  0.00    -0.352 N 
ATOM     25  C   UNL A   1      39.264  21.005  26.131  1.00  0.00     0.251 C 
ATOM     26  H   UNL A   1      37.690  19.925  25.511  1.00  0.00     0.163 HD
ATOM     27  O   UNL A   1      40.061  20.086  26.026  1.00  0.00    -0.269 OA
BRANCH  25  28
ATOM     28  C   UNL A   1      39.682  22.317  26.662  1.00  0.00     0.039 A 
ATOM     29  C   UNL A   1      40.704  22.386  27.609  1.00  0.00     0.014 A 
ATOM     30  C   UNL A   1      39.107  23.480  26.149  1.00  0.00     0.014 A 
ATOM     31  C   UNL A   1      41.210  23.634  27.972  1.00  0.00     0.010 A 
ATOM     32  C   UNL A   1      39.704  24.701  26.403  1.00  0.00     0.010 A 
ATOM     33  C   UNL A   1      40.746  24.797  27.335  1.00  0.00    -0.014 A 
BRANCH  33  34
ATOM     34  C   UNL A   1      41.305  26.137  27.630  1.00  0.00     0.031 A 
ATOM     35  C   UNL A   1      42.708  26.464  27.191  1.00  0.00     0.074 A 
ATOM     36  C   UNL A   1      40.608  27.004  28.391  1.00  0.00     0.049 A 
ATOM     37  N   UNL A   1      43.425  27.523  27.452  1.00  0.00    -0.248 NA
ATOM     38  C   UNL A   1      43.417  25.445  26.395  1.00  0.00     0.031 C 
ATOM     39  C   UNL A   1      39.283  26.756  28.964  1.00  0.00     0.029 A 
ATOM     40  N   UNL A   1      40.930  28.261  28.836  1.00  0.00    -0.354 N 
ATOM     41  C   UNL A   1      44.678  27.273  26.907  1.00  0.00     0.074 A 
ATOM     42  C   UNL A   1      44.643  25.944  26.342  1.00  0.00     0.031 C 
ATOM     43  C   UNL A   1      38.898  27.833  29.668  1.00  0.00     0.029 A 
ATOM     44  C   UNL A   1      39.959  28.834  29.623  1.00  0.00     0.049 A 
ATOM     45  H   UNL A   1      41.776  28.711  28.611  1.00  0.00     0.167 HD
ATOM     46  C   UNL A   1      45.750  28.094  26.839  1.00  0.00     0.034 A 
ATOM     47  C   UNL A   1      39.928  30.032  30.240  1.00  0.00     0.034 A 
ATOM     48  C   UNL A   1      45.743  29.447  27.316  1.00  0.00     0.049 A 
ATOM     49  C   UNL A   1      41.093  30.968  30.065  1.00  0.00     0.074 A 
ATOM     50  C   UNL A   1      46.730  30.406  27.183  1.00  0.00     0.029 A 
ATOM     51  N   UNL A   1      44.695  30.036  28.003  1.00  0.00    -0.354 N 
ATOM     52  N   UNL A   1      42.209  30.775  29.404  1.00  0.00    -0.248 NA
ATOM     53  C   UNL A   1      40.985  32.296  30.685  1.00  0.00     0.031 C 
ATOM     54  C   UNL A   1      46.281  31.576  27.803  1.00  0.00     0.029 A 
ATOM     55  C   UNL A   1      45.009  31.348  28.306  1.00  0.00     0.049 A 
ATOM     56  H   UNL A   1      43.851  29.587  28.242  1.00  0.00     0.167 HD
ATOM     57  C   UNL A   1      42.924  31.962  29.505  1.00  0.00     0.074 A 
ATOM     58  C   UNL A   1      42.105  32.878  30.273  1.00  0.00     0.031 C 
ATOM     59  C   UNL A   1      44.156  32.260  29.022  1.00  0.00     0.034 A 
BRANCH  46  60
ATOM     60  C   UNL A   1      46.989  27.584  26.153  1.00  0.00     0.023 A 
ATOM     61  C   UNL A   1      47.896  26.778  26.870  1.00  0.00     0.012 A 
ATOM     62  C   UNL A   1      47.217  27.838  24.787  1.00  0.00     0.148 A 
ATOM     63  C   UNL A   1      49.028  26.255  26.246  1.00  0.00     0.002 A 
ATOM     64  C   UNL A   1      48.322  27.273  24.160  1.00  0.00     0.091 A 
ATOM     65  F   UNL A   1      46.355  28.628  24.130  1.00  0.00    -0.205 F 
ATOM     66  C   UNL A   1      49.233  26.493  24.890  1.00  0.00     0.022 A 
BRANCH  64  67
ATOM     67  S   UNL A   1      48.631  27.446  22.399  1.00  0.00     0.127 S 
ATOM     68  O   UNL A   1      48.653  26.049  21.966  1.00  0.00    -0.237 OA
ATOM     69  O   UNL A   1      47.460  28.203  21.955  1.00  0.00    -0.237 OA
ATOM     70  O   UNL A   1      49.896  28.156  22.279  1.00  0.00    -0.744 OA
ENDBRANCH  64  67
ENDBRANCH  46  60
BRANCH  47  71
ATOM     71  C   UNL A   1      38.705  30.439  30.990  1.00  0.00     0.023 A 
ATOM     72  C   UNL A   1      38.653  30.231  32.382  1.00  0.00     0.012 A 
ATOM     73  C   UNL A   1      37.636  31.100  30.355  1.00  0.00     0.148 A 
ATOM     74  C   UNL A   1      37.553  30.659  33.126  1.00  0.00     0.002 A 
ATOM     75  C   UNL A   1      36.568  31.573  31.110  1.00  0.00     0.091 A 
ATOM     76  F   UNL A   1      37.701  31.280  29.028  1.00  0.00    -0.205 F 
ATOM     77  C   UNL A   1      36.518  31.341  32.492  1.00  0.00     0.022 A 
BRANCH  75  78
ATOM     78  S   UNL A   1      35.264  32.590  30.406  1.00  0.00     0.127 S 
ATOM     79  O   UNL A   1      34.784  31.749  29.314  1.00  0.00    -0.237 OA
ATOM     80  O   UNL A   1      34.342  32.721  31.535  1.00  0.00    -0.237 OA
ATOM     81  O   UNL A   1      35.907  33.837  30.011  1.00  0.00    -0.744 OA
ENDBRANCH  75  78
ENDBRANCH  47  71
BRANCH  59  82
ATOM     82  C   UNL A   1      44.706  33.636  29.286  1.00  0.00     0.023 A 
ATOM     83  C   UNL A   1      45.455  33.868  30.456  1.00  0.00     0.012 A 
ATOM     84  C   UNL A   1      44.601  34.650  28.314  1.00  0.00     0.148 A 
ATOM     85  C   UNL A   1      46.081  35.097  30.660  1.00  0.00     0.002 A 
ATOM     86  C   UNL A   1      45.267  35.853  28.501  1.00  0.00     0.091 A 
ATOM     87  F   UNL A   1      43.870  34.408  27.216  1.00  0.00    -0.205 F 
ATOM     88  C   UNL A   1      46.000  36.082  29.678  1.00  0.00     0.022 A 
BRANCH  86  89
ATOM     89  S   UNL A   1      45.308  37.137  27.246  1.00  0.00     0.127 S 
ATOM     90  O   UNL A   1      43.885  37.343  26.983  1.00  0.00    -0.237 OA
ATOM     91  O   UNL A   1      45.965  38.239  27.949  1.00  0.00    -0.237 OA
ATOM     92  O   UNL A   1      46.075  36.588  26.135  1.00  0.00    -0.744 OA
ENDBRANCH  86  89
ENDBRANCH  59  82
ENDBRANCH  33  34
ENDBRANCH  25  28
ENDBRANCH  23  24
ENDBRANCH  22  23
ENDBRANCH   1  22
TORSDOF 18
ENDMDL
