MODEL 1
REMARK VINA RESULT:     -12.2      0.000      0.000
REMARK SMILES O=C(NCCCNC(=O)c1cccc2c(Br)ccnc12)c1ccc(-c2c3nc(c(-c4cccc(S(=O)(=O)[O-])c4F)c4ccc([nH]4)c(-c4cccc(S(=O)(=O)[O-])c4F)c4nc(c(-c5cccc(S(=O)(=O)[O-])c5F)c5ccc2[nH]5)C=C4)C=C3)cc1
REMARK SMILES IDX 1 1 2 2 3 3 21 5 22 6 83 7 23 8 82 9 24 10 25 11 26 12 76 13
REMARK SMILES IDX 27 14 81 15 75 16 77 17 28 18 80 19 74 20 73 21 29 23 61 24
REMARK SMILES IDX 41 25 60 26 42 27 45 28 59 29 78 30 43 31 44 32 58 34 79 35
REMARK SMILES IDX 46 36 30 37 31 38 39 39 32 40 34 41 40 42 33 43 35 44 36 45
REMARK SMILES IDX 37 46 38 47 62 48 63 49 71 50 64 51 66 52 72 53 65 54 67 55
REMARK SMILES IDX 68 56 69 57 70 58 47 59 48 60 56 61 49 62 51 63 57 64 50 65
REMARK SMILES IDX 52 66 53 67 54 68 55 69 4 70 5 71 6 72 7 73 8 74 9 76 10 77
REMARK SMILES IDX 11 78 20 79 12 80 14 81 19 82 13 83 15 84 18 85 16 86 17 87
REMARK H PARENT 3 4 77 22 45 33 7 75
REMARK Flexibility Score: inf
ROOT
ATOM      1  O   UNL A   1      32.040  32.164  27.164  1.00  0.00    -0.269 OA
ATOM      2  C   UNL A   1      32.753  31.240  26.779  1.00  0.00     0.251 C 
ATOM      3  N   UNL A   1      32.343  30.493  25.701  1.00  0.00    -0.352 N 
ATOM      4  H   UNL A   1      31.572  30.863  25.214  1.00  0.00     0.163 HD
ENDROOT
BRANCH   2   5
ATOM      5  C   UNL A   1      34.025  30.949  27.480  1.00  0.00     0.039 A 
ATOM      6  C   UNL A   1      34.290  29.633  27.876  1.00  0.00     0.014 A 
ATOM      7  C   UNL A   1      34.924  31.964  27.817  1.00  0.00     0.014 A 
ATOM      8  C   UNL A   1      35.462  29.335  28.578  1.00  0.00     0.010 A 
ATOM      9  C   UNL A   1      36.130  31.654  28.439  1.00  0.00     0.010 A 
ATOM     10  C   UNL A   1      36.399  30.341  28.855  1.00  0.00    -0.014 A 
BRANCH  10  11
ATOM     11  C   UNL A   1      37.626  30.066  29.646  1.00  0.00     0.031 A 
ATOM     12  C   UNL A   1      38.709  29.195  29.060  1.00  0.00     0.074 A 
ATOM     13  C   UNL A   1      37.752  30.545  30.898  1.00  0.00     0.049 A 
ATOM     14  N   UNL A   1      39.809  28.761  29.618  1.00  0.00    -0.248 NA
ATOM     15  C   UNL A   1      38.521  28.730  27.674  1.00  0.00     0.031 C 
ATOM     16  C   UNL A   1      36.758  31.361  31.600  1.00  0.00     0.029 A 
ATOM     17  N   UNL A   1      38.767  30.401  31.813  1.00  0.00    -0.354 N 
ATOM     18  C   UNL A   1      40.414  27.940  28.675  1.00  0.00     0.074 A 
ATOM     19  C   UNL A   1      39.553  27.914  27.515  1.00  0.00     0.031 C 
ATOM     20  C   UNL A   1      37.219  31.659  32.825  1.00  0.00     0.029 A 
ATOM     21  C   UNL A   1      38.526  31.034  33.009  1.00  0.00     0.049 A 
ATOM     22  H   UNL A   1      39.589  29.892  31.628  1.00  0.00     0.167 HD
ATOM     23  C   UNL A   1      41.600  27.294  28.752  1.00  0.00     0.034 A 
ATOM     24  C   UNL A   1      39.275  31.105  34.130  1.00  0.00     0.034 A 
ATOM     25  C   UNL A   1      42.501  27.390  29.864  1.00  0.00     0.049 A 
ATOM     26  C   UNL A   1      40.612  30.417  34.169  1.00  0.00     0.074 A 
ATOM     27  C   UNL A   1      43.764  26.839  29.993  1.00  0.00     0.029 A 
ATOM     28  N   UNL A   1      42.247  28.095  31.028  1.00  0.00    -0.354 N 
ATOM     29  N   UNL A   1      41.209  29.728  33.227  1.00  0.00    -0.248 NA
ATOM     30  C   UNL A   1      41.389  30.534  35.412  1.00  0.00     0.031 C 
ATOM     31  C   UNL A   1      44.276  27.215  31.237  1.00  0.00     0.029 A 
ATOM     32  C   UNL A   1      43.332  28.000  31.879  1.00  0.00     0.049 A 
ATOM     33  H   UNL A   1      41.418  28.591  31.220  1.00  0.00     0.167 HD
ATOM     34  C   UNL A   1      42.438  29.349  33.754  1.00  0.00     0.074 A 
ATOM     35  C   UNL A   1      42.509  29.897  35.092  1.00  0.00     0.031 C 
ATOM     36  C   UNL A   1      43.411  28.600  33.183  1.00  0.00     0.034 A 
BRANCH  23  37
ATOM     37  C   UNL A   1      42.046  26.489  27.564  1.00  0.00     0.023 A 
ATOM     38  C   UNL A   1      42.867  27.098  26.594  1.00  0.00     0.012 A 
ATOM     39  C   UNL A   1      41.749  25.116  27.463  1.00  0.00     0.148 A 
ATOM     40  C   UNL A   1      43.381  26.353  25.535  1.00  0.00     0.002 A 
ATOM     41  C   UNL A   1      42.290  24.374  26.421  1.00  0.00     0.091 A 
ATOM     42  F   UNL A   1      40.957  24.566  28.395  1.00  0.00    -0.205 F 
ATOM     43  C   UNL A   1      43.102  24.991  25.454  1.00  0.00     0.022 A 
BRANCH  41  44
ATOM     44  S   UNL A   1      42.043  22.603  26.252  1.00  0.00     0.127 S 
ATOM     45  O   UNL A   1      42.670  22.098  27.474  1.00  0.00    -0.237 OA
ATOM     46  O   UNL A   1      40.584  22.501  26.226  1.00  0.00    -0.237 OA
ATOM     47  O   UNL A   1      42.710  22.217  25.015  1.00  0.00    -0.744 OA
ENDBRANCH  41  44
ENDBRANCH  23  37
BRANCH  24  48
ATOM     48  C   UNL A   1      38.805  31.927  35.278  1.00  0.00     0.023 A 
ATOM     49  C   UNL A   1      38.848  33.330  35.172  1.00  0.00     0.012 A 
ATOM     50  C   UNL A   1      38.275  31.337  36.440  1.00  0.00     0.148 A 
ATOM     51  C   UNL A   1      38.383  34.135  36.213  1.00  0.00     0.002 A 
ATOM     52  C   UNL A   1      37.778  32.144  37.457  1.00  0.00     0.091 A 
ATOM     53  F   UNL A   1      38.253  29.999  36.519  1.00  0.00    -0.205 F 
ATOM     54  C   UNL A   1      37.840  33.543  37.350  1.00  0.00     0.022 A 
BRANCH  52  55
ATOM     55  S   UNL A   1      36.968  31.479  38.917  1.00  0.00     0.127 S 
ATOM     56  O   UNL A   1      35.816  32.367  39.050  1.00  0.00    -0.237 OA
ATOM     57  O   UNL A   1      36.650  30.116  38.488  1.00  0.00    -0.237 OA
ATOM     58  O   UNL A   1      37.952  31.561  39.988  1.00  0.00    -0.744 OA
ENDBRANCH  52  55
ENDBRANCH  24  48
BRANCH  36  59
ATOM     59  C   UNL A   1      44.657  28.325  33.979  1.00  0.00     0.023 A 
ATOM     60  C   UNL A   1      45.729  29.235  33.911  1.00  0.00     0.012 A 
ATOM     61  C   UNL A   1      44.702  27.258  34.896  1.00  0.00     0.148 A 
ATOM     62  C   UNL A   1      46.834  29.084  34.746  1.00  0.00     0.002 A 
ATOM     63  C   UNL A   1      45.793  27.133  35.748  1.00  0.00     0.091 A 
ATOM     64  F   UNL A   1      43.669  26.404  34.934  1.00  0.00    -0.205 F 
ATOM     65  C   UNL A   1      46.861  28.043  35.672  1.00  0.00     0.022 A 
BRANCH  63  66
ATOM     66  S   UNL A   1      45.884  25.875  37.027  1.00  0.00     0.127 S 
ATOM     67  O   UNL A   1      45.952  24.648  36.234  1.00  0.00    -0.237 OA
ATOM     68  O   UNL A   1      47.126  26.225  37.717  1.00  0.00    -0.237 OA
ATOM     69  O   UNL A   1      44.678  26.026  37.830  1.00  0.00    -0.744 OA
ENDBRANCH  63  66
ENDBRANCH  36  59
ENDBRANCH  10  11
ENDBRANCH   2   5
BRANCH   3  70
ATOM     70  C   UNL A   1      32.862  29.245  25.158  1.00  0.00     0.118 C 
BRANCH  70  71
ATOM     71  C   UNL A   1      31.804  28.154  25.070  1.00  0.00     0.042 C 
BRANCH  71  72
ATOM     72  C   UNL A   1      31.999  26.999  26.040  1.00  0.00     0.118 C 
BRANCH  72  73
ATOM     73  N   UNL A   1      30.745  26.437  26.521  1.00  0.00    -0.352 N 
ATOM     74  C   UNL A   1      30.202  25.196  26.291  1.00  0.00     0.253 C 
ATOM     75  H   UNL A   1      30.210  27.032  27.095  1.00  0.00     0.163 HD
ATOM     76  O   UNL A   1      29.138  24.885  26.825  1.00  0.00    -0.269 OA
BRANCH  74  77
ATOM     77  C   UNL A   1      30.949  24.212  25.483  1.00  0.00     0.066 A 
ATOM     78  C   UNL A   1      30.733  24.225  24.097  1.00  0.00     0.016 A 
ATOM     79  C   UNL A   1      31.857  23.342  26.101  1.00  0.00     0.084 A 
ATOM     80  C   UNL A   1      31.384  23.306  23.295  1.00  0.00     0.002 A 
ATOM     81  C   UNL A   1      32.548  22.427  25.274  1.00  0.00     0.015 A 
ATOM     82  N   UNL A   1      32.060  23.365  27.440  1.00  0.00    -0.255 NA
ATOM     83  C   UNL A   1      32.281  22.415  23.878  1.00  0.00     0.011 A 
ATOM     84  C   UNL A   1      33.479  21.568  25.906  1.00  0.00     0.028 A 
ATOM     85  C   UNL A   1      32.962  22.536  27.998  1.00  0.00     0.113 A 
ATOM     86  Br  UNL A   1      34.517  20.291  24.944  1.00  0.00    -0.050 Br
ATOM     87  C   UNL A   1      33.696  21.626  27.278  1.00  0.00     0.036 A 
ENDBRANCH  74  77
ENDBRANCH  72  73
ENDBRANCH  71  72
ENDBRANCH  70  71
ENDBRANCH   3  70
TORSDOF 13
ENDMDL
MODEL 2
REMARK VINA RESULT:     -12.2      2.489      3.543
REMARK SMILES O=C(NCCCNC(=O)c1cccc2c(Br)ccnc12)c1ccc(-c2c3nc(c(-c4cccc(S(=O)(=O)[O-])c4F)c4ccc([nH]4)c(-c4cccc(S(=O)(=O)[O-])c4F)c4nc(c(-c5cccc(S(=O)(=O)[O-])c5F)c5ccc2[nH]5)C=C4)C=C3)cc1
REMARK SMILES IDX 1 1 2 2 3 3 21 5 22 6 83 7 23 8 82 9 24 10 25 11 26 12 76 13
REMARK SMILES IDX 27 14 81 15 75 16 77 17 28 18 80 19 74 20 73 21 29 23 61 24
REMARK SMILES IDX 41 25 60 26 42 27 45 28 59 29 78 30 43 31 44 32 58 34 79 35
REMARK SMILES IDX 46 36 30 37 31 38 39 39 32 40 34 41 40 42 33 43 35 44 36 45
REMARK SMILES IDX 37 46 38 47 62 48 63 49 71 50 64 51 66 52 72 53 65 54 67 55
REMARK SMILES IDX 68 56 69 57 70 58 47 59 48 60 56 61 49 62 51 63 57 64 50 65
REMARK SMILES IDX 52 66 53 67 54 68 55 69 4 70 5 71 6 72 7 73 8 74 9 76 10 77
REMARK SMILES IDX 11 78 20 79 12 80 14 81 19 82 13 83 15 84 18 85 16 86 17 87
REMARK H PARENT 3 4 77 22 45 33 7 75
REMARK Flexibility Score: inf
ROOT
ATOM      1  O   UNL A   1      32.666  35.822  28.879  1.00  0.00    -0.269 OA
ATOM      2  C   UNL A   1      33.105  34.702  28.621  1.00  0.00     0.251 C 
ATOM      3  N   UNL A   1      32.508  33.972  27.621  1.00  0.00    -0.352 N 
ATOM      4  H   UNL A   1      31.864  34.476  27.074  1.00  0.00     0.163 HD
ENDROOT
BRANCH   2   5
ATOM      5  C   UNL A   1      34.253  34.165  29.388  1.00  0.00     0.039 A 
ATOM      6  C   UNL A   1      35.550  34.421  28.927  1.00  0.00     0.014 A 
ATOM      7  C   UNL A   1      34.068  33.354  30.511  1.00  0.00     0.014 A 
ATOM      8  C   UNL A   1      36.651  33.891  29.605  1.00  0.00     0.010 A 
ATOM      9  C   UNL A   1      35.167  32.900  31.235  1.00  0.00     0.010 A 
ATOM     10  C   UNL A   1      36.470  33.136  30.773  1.00  0.00    -0.014 A 
BRANCH  10  11
ATOM     11  C   UNL A   1      37.617  32.515  31.485  1.00  0.00     0.031 A 
ATOM     12  C   UNL A   1      38.357  31.367  30.845  1.00  0.00     0.074 A 
ATOM     13  C   UNL A   1      37.964  32.936  32.716  1.00  0.00     0.049 A 
ATOM     14  N   UNL A   1      39.320  30.632  31.336  1.00  0.00    -0.248 NA
ATOM     15  C   UNL A   1      37.945  30.978  29.484  1.00  0.00     0.031 C 
ATOM     16  C   UNL A   1      37.302  34.006  33.466  1.00  0.00     0.029 A 
ATOM     17  N   UNL A   1      38.956  32.503  33.563  1.00  0.00    -0.354 N 
ATOM     18  C   UNL A   1      39.593  29.671  30.371  1.00  0.00     0.074 A 
ATOM     19  C   UNL A   1      38.682  29.897  29.273  1.00  0.00     0.031 C 
ATOM     20  C   UNL A   1      37.915  34.156  34.652  1.00  0.00     0.029 A 
ATOM     21  C   UNL A   1      38.994  33.178  34.760  1.00  0.00     0.049 A 
ATOM     22  H   UNL A   1      39.580  31.777  33.333  1.00  0.00     0.167 HD
ATOM     23  C   UNL A   1      40.543  28.708  30.380  1.00  0.00     0.034 A 
ATOM     24  C   UNL A   1      39.807  33.028  35.825  1.00  0.00     0.034 A 
ATOM     25  C   UNL A   1      41.509  28.538  31.427  1.00  0.00     0.049 A 
ATOM     26  C   UNL A   1      40.886  31.980  35.788  1.00  0.00     0.074 A 
ATOM     27  C   UNL A   1      42.563  27.643  31.481  1.00  0.00     0.029 A 
ATOM     28  N   UNL A   1      41.553  29.285  32.591  1.00  0.00    -0.354 N 
ATOM     29  N   UNL A   1      41.190  31.148  34.822  1.00  0.00    -0.248 NA
ATOM     30  C   UNL A   1      41.750  31.867  36.973  1.00  0.00     0.031 C 
ATOM     31  C   UNL A   1      43.248  27.853  32.681  1.00  0.00     0.029 A 
ATOM     32  C   UNL A   1      42.620  28.878  33.369  1.00  0.00     0.049 A 
ATOM     33  H   UNL A   1      40.919  30.000  32.828  1.00  0.00     0.167 HD
ATOM     34  C   UNL A   1      42.291  30.428  35.272  1.00  0.00     0.074 A 
ATOM     35  C   UNL A   1      42.611  30.931  36.592  1.00  0.00     0.031 C 
ATOM     36  C   UNL A   1      42.962  29.429  34.653  1.00  0.00     0.034 A 
BRANCH  23  37
ATOM     37  C   UNL A   1      40.651  27.808  29.182  1.00  0.00     0.023 A 
ATOM     38  C   UNL A   1      39.765  26.719  29.063  1.00  0.00     0.012 A 
ATOM     39  C   UNL A   1      41.543  28.099  28.132  1.00  0.00     0.148 A 
ATOM     40  C   UNL A   1      39.770  25.926  27.917  1.00  0.00     0.002 A 
ATOM     41  C   UNL A   1      41.520  27.323  26.980  1.00  0.00     0.091 A 
ATOM     42  F   UNL A   1      42.381  29.136  28.277  1.00  0.00    -0.205 F 
ATOM     43  C   UNL A   1      40.639  26.233  26.873  1.00  0.00     0.022 A 
BRANCH  41  44
ATOM     44  S   UNL A   1      42.555  27.663  25.552  1.00  0.00     0.127 S 
ATOM     45  O   UNL A   1      42.306  26.487  24.719  1.00  0.00    -0.237 OA
ATOM     46  O   UNL A   1      41.975  28.905  25.045  1.00  0.00    -0.237 OA
ATOM     47  O   UNL A   1      43.917  27.780  26.057  1.00  0.00    -0.744 OA
ENDBRANCH  41  44
ENDBRANCH  23  37
BRANCH  24  48
ATOM     48  C   UNL A   1      39.678  33.950  36.986  1.00  0.00     0.023 A 
ATOM     49  C   UNL A   1      40.085  35.290  36.838  1.00  0.00     0.012 A 
ATOM     50  C   UNL A   1      39.115  33.529  38.205  1.00  0.00     0.148 A 
ATOM     51  C   UNL A   1      39.947  36.194  37.892  1.00  0.00     0.002 A 
ATOM     52  C   UNL A   1      38.945  34.444  39.238  1.00  0.00     0.091 A 
ATOM     53  F   UNL A   1      38.744  32.246  38.322  1.00  0.00    -0.205 F 
ATOM     54  C   UNL A   1      39.369  35.774  39.087  1.00  0.00     0.022 A 
BRANCH  52  55
ATOM     55  S   UNL A   1      38.120  34.026  40.778  1.00  0.00     0.127 S 
ATOM     56  O   UNL A   1      39.105  33.158  41.419  1.00  0.00    -0.237 OA
ATOM     57  O   UNL A   1      37.961  35.341  41.400  1.00  0.00    -0.237 OA
ATOM     58  O   UNL A   1      36.870  33.383  40.396  1.00  0.00    -0.744 OA
ENDBRANCH  52  55
ENDBRANCH  24  48
BRANCH  36  59
ATOM     59  C   UNL A   1      44.127  28.803  35.368  1.00  0.00     0.023 A 
ATOM     60  C   UNL A   1      45.403  29.382  35.237  1.00  0.00     0.012 A 
ATOM     61  C   UNL A   1      43.928  27.745  36.275  1.00  0.00     0.148 A 
ATOM     62  C   UNL A   1      46.470  28.914  36.001  1.00  0.00     0.002 A 
ATOM     63  C   UNL A   1      44.990  27.305  37.057  1.00  0.00     0.091 A 
ATOM     64  F   UNL A   1      42.703  27.210  36.374  1.00  0.00    -0.205 F 
ATOM     65  C   UNL A   1      46.262  27.886  36.918  1.00  0.00     0.022 A 
BRANCH  63  66
ATOM     66  S   UNL A   1      44.804  26.043  38.322  1.00  0.00     0.127 S 
ATOM     67  O   UNL A   1      46.178  25.896  38.799  1.00  0.00    -0.237 OA
ATOM     68  O   UNL A   1      43.894  26.687  39.269  1.00  0.00    -0.237 OA
ATOM     69  O   UNL A   1      44.255  24.873  37.649  1.00  0.00    -0.744 OA
ENDBRANCH  63  66
ENDBRANCH  36  59
ENDBRANCH  10  11
ENDBRANCH   2   5
BRANCH   3  70
ATOM     70  C   UNL A   1      32.673  32.577  27.237  1.00  0.00     0.118 C 
BRANCH  70  71
ATOM     71  C   UNL A   1      31.426  31.993  26.586  1.00  0.00     0.042 C 
BRANCH  71  72
ATOM     72  C   UNL A   1      31.645  30.670  25.869  1.00  0.00     0.118 C 
BRANCH  72  73
ATOM     73  N   UNL A   1      30.655  30.409  24.833  1.00  0.00    -0.352 N 
ATOM     74  C   UNL A   1      30.679  29.484  23.818  1.00  0.00     0.253 C 
ATOM     75  H   UNL A   1      29.853  30.978  24.866  1.00  0.00     0.163 HD
ATOM     76  O   UNL A   1      29.718  29.385  23.056  1.00  0.00    -0.269 OA
BRANCH  74  77
ATOM     77  C   UNL A   1      31.817  28.549  23.711  1.00  0.00     0.066 A 
ATOM     78  C   UNL A   1      32.827  28.872  22.791  1.00  0.00     0.016 A 
ATOM     79  C   UNL A   1      31.876  27.418  24.536  1.00  0.00     0.084 A 
ATOM     80  C   UNL A   1      33.901  28.018  22.628  1.00  0.00     0.002 A 
ATOM     81  C   UNL A   1      32.994  26.565  24.391  1.00  0.00     0.015 A 
ATOM     82  N   UNL A   1      30.896  27.142  25.429  1.00  0.00    -0.255 NA
ATOM     83  C   UNL A   1      33.983  26.875  23.419  1.00  0.00     0.011 A 
ATOM     84  C   UNL A   1      33.054  25.437  25.246  1.00  0.00     0.028 A 
ATOM     85  C   UNL A   1      30.999  26.063  26.227  1.00  0.00     0.113 A 
ATOM     86  Br  UNL A   1      34.499  24.195  25.207  1.00  0.00    -0.050 Br
ATOM     87  C   UNL A   1      32.053  25.186  26.178  1.00  0.00     0.036 A 
ENDBRANCH  74  77
ENDBRANCH  72  73
ENDBRANCH  71  72
ENDBRANCH  70  71
ENDBRANCH   3  70
TORSDOF 13
ENDMDL
MODEL 3
REMARK VINA RESULT:     -12.2      5.238     10.123
REMARK SMILES O=C(NCCCNC(=O)c1cccc2c(Br)ccnc12)c1ccc(-c2c3nc(c(-c4cccc(S(=O)(=O)[O-])c4F)c4ccc([nH]4)c(-c4cccc(S(=O)(=O)[O-])c4F)c4nc(c(-c5cccc(S(=O)(=O)[O-])c5F)c5ccc2[nH]5)C=C4)C=C3)cc1
REMARK SMILES IDX 1 1 2 2 3 3 21 5 22 6 83 7 23 8 82 9 24 10 25 11 26 12 76 13
REMARK SMILES IDX 27 14 81 15 75 16 77 17 28 18 80 19 74 20 73 21 29 23 61 24
REMARK SMILES IDX 41 25 60 26 42 27 45 28 59 29 78 30 43 31 44 32 58 34 79 35
REMARK SMILES IDX 46 36 30 37 31 38 39 39 32 40 34 41 40 42 33 43 35 44 36 45
REMARK SMILES IDX 37 46 38 47 62 48 63 49 71 50 64 51 66 52 72 53 65 54 67 55
REMARK SMILES IDX 68 56 69 57 70 58 47 59 48 60 56 61 49 62 51 63 57 64 50 65
REMARK SMILES IDX 52 66 53 67 54 68 55 69 4 70 5 71 6 72 7 73 8 74 9 76 10 77
REMARK SMILES IDX 11 78 20 79 12 80 14 81 19 82 13 83 15 84 18 85 16 86 17 87
REMARK H PARENT 3 4 77 22 45 33 7 75
REMARK Flexibility Score: inf
ROOT
ATOM      1  O   UNL A   1      38.757  20.009  25.424  1.00  0.00    -0.269 OA
ATOM      2  C   UNL A   1      38.129  21.042  25.650  1.00  0.00     0.251 C 
ATOM      3  N   UNL A   1      36.769  21.046  25.451  1.00  0.00    -0.352 N 
ATOM      4  H   UNL A   1      36.375  20.158  25.289  1.00  0.00     0.163 HD
ENDROOT
BRANCH   2   5
ATOM      5  C   UNL A   1      38.843  22.250  26.124  1.00  0.00     0.039 A 
ATOM      6  C   UNL A   1      38.363  23.509  25.742  1.00  0.00     0.014 A 
ATOM      7  C   UNL A   1      40.017  22.159  26.876  1.00  0.00     0.014 A 
ATOM      8  C   UNL A   1      39.041  24.665  26.137  1.00  0.00     0.010 A 
ATOM      9  C   UNL A   1      40.642  23.313  27.342  1.00  0.00     0.010 A 
ATOM     10  C   UNL A   1      40.180  24.578  26.951  1.00  0.00    -0.014 A 
BRANCH  10  11
ATOM     11  C   UNL A   1      40.952  25.786  27.342  1.00  0.00     0.031 A 
ATOM     12  C   UNL A   1      40.290  26.856  28.173  1.00  0.00     0.074 A 
ATOM     13  C   UNL A   1      42.218  25.954  26.915  1.00  0.00     0.049 A 
ATOM     14  N   UNL A   1      40.757  28.021  28.541  1.00  0.00    -0.248 NA
ATOM     15  C   UNL A   1      38.914  26.594  28.633  1.00  0.00     0.031 C 
ATOM     16  C   UNL A   1      42.960  25.018  26.068  1.00  0.00     0.029 A 
ATOM     17  N   UNL A   1      43.104  26.984  27.124  1.00  0.00    -0.354 N 
ATOM     18  C   UNL A   1      39.722  28.645  29.227  1.00  0.00     0.074 A 
ATOM     19  C   UNL A   1      38.593  27.744  29.210  1.00  0.00     0.031 C 
ATOM     20  C   UNL A   1      44.190  25.507  25.844  1.00  0.00     0.029 A 
ATOM     21  C   UNL A   1      44.318  26.802  26.506  1.00  0.00     0.049 A 
ATOM     22  H   UNL A   1      42.887  27.777  27.666  1.00  0.00     0.167 HD
ATOM     23  C   UNL A   1      39.723  29.845  29.850  1.00  0.00     0.034 A 
ATOM     24  C   UNL A   1      45.413  27.590  26.476  1.00  0.00     0.034 A 
ATOM     25  C   UNL A   1      40.869  30.703  29.949  1.00  0.00     0.049 A 
ATOM     26  C   UNL A   1      45.401  28.898  27.219  1.00  0.00     0.074 A 
ATOM     27  C   UNL A   1      40.985  31.899  30.634  1.00  0.00     0.029 A 
ATOM     28  N   UNL A   1      42.097  30.450  29.364  1.00  0.00    -0.354 N 
ATOM     29  N   UNL A   1      44.444  29.421  27.945  1.00  0.00    -0.248 NA
ATOM     30  C   UNL A   1      46.625  29.712  27.159  1.00  0.00     0.031 C 
ATOM     31  C   UNL A   1      42.291  32.369  30.466  1.00  0.00     0.029 A 
ATOM     32  C   UNL A   1      42.983  31.464  29.678  1.00  0.00     0.049 A 
ATOM     33  H   UNL A   1      42.309  29.664  28.809  1.00  0.00     0.167 HD
ATOM     34  C   UNL A   1      44.956  30.613  28.447  1.00  0.00     0.074 A 
ATOM     35  C   UNL A   1      46.313  30.728  27.954  1.00  0.00     0.031 C 
ATOM     36  C   UNL A   1      44.347  31.534  29.230  1.00  0.00     0.034 A 
BRANCH  23  37
ATOM     37  C   UNL A   1      38.469  30.277  30.557  1.00  0.00     0.023 A 
ATOM     38  C   UNL A   1      38.309  29.960  31.921  1.00  0.00     0.012 A 
ATOM     39  C   UNL A   1      37.510  31.081  29.911  1.00  0.00     0.148 A 
ATOM     40  C   UNL A   1      37.207  30.432  32.632  1.00  0.00     0.002 A 
ATOM     41  C   UNL A   1      36.430  31.572  30.635  1.00  0.00     0.091 A 
ATOM     42  F   UNL A   1      37.682  31.358  28.611  1.00  0.00    -0.205 F 
ATOM     43  C   UNL A   1      36.275  31.245  31.993  1.00  0.00     0.022 A 
BRANCH  41  44
ATOM     44  S   UNL A   1      35.201  32.674  29.927  1.00  0.00     0.127 S 
ATOM     45  O   UNL A   1      34.327  32.918  31.075  1.00  0.00    -0.237 OA
ATOM     46  O   UNL A   1      36.015  33.820  29.524  1.00  0.00    -0.237 OA
ATOM     47  O   UNL A   1      34.583  31.941  28.830  1.00  0.00    -0.744 OA
ENDBRANCH  41  44
ENDBRANCH  23  37
BRANCH  24  48
ATOM     48  C   UNL A   1      46.640  27.118  25.779  1.00  0.00     0.023 A 
ATOM     49  C   UNL A   1      47.459  26.164  26.414  1.00  0.00     0.012 A 
ATOM     50  C   UNL A   1      46.972  27.563  24.486  1.00  0.00     0.148 A 
ATOM     51  C   UNL A   1      48.599  25.672  25.777  1.00  0.00     0.002 A 
ATOM     52  C   UNL A   1      48.087  27.039  23.842  1.00  0.00     0.091 A 
ATOM     53  F   UNL A   1      46.180  28.477  23.907  1.00  0.00    -0.205 F 
ATOM     54  C   UNL A   1      48.907  26.101  24.489  1.00  0.00     0.022 A 
BRANCH  52  55
ATOM     55  S   UNL A   1      48.512  27.452  22.145  1.00  0.00     0.127 S 
ATOM     56  O   UNL A   1      48.653  26.129  21.542  1.00  0.00    -0.237 OA
ATOM     57  O   UNL A   1      47.332  28.203  21.715  1.00  0.00    -0.237 OA
ATOM     58  O   UNL A   1      49.734  28.240  22.225  1.00  0.00    -0.744 OA
ENDBRANCH  52  55
ENDBRANCH  24  48
BRANCH  36  59
ATOM     59  C   UNL A   1      45.128  32.754  29.632  1.00  0.00     0.023 A 
ATOM     60  C   UNL A   1      45.921  32.709  30.794  1.00  0.00     0.012 A 
ATOM     61  C   UNL A   1      45.191  33.878  28.785  1.00  0.00     0.148 A 
ATOM     62  C   UNL A   1      46.766  33.770  31.111  1.00  0.00     0.002 A 
ATOM     63  C   UNL A   1      46.060  34.918  29.091  1.00  0.00     0.091 A 
ATOM     64  F   UNL A   1      44.420  33.895  27.689  1.00  0.00    -0.205 F 
ATOM     65  C   UNL A   1      46.846  34.867  30.255  1.00  0.00     0.022 A 
BRANCH  63  66
ATOM     66  S   UNL A   1      46.293  36.335  28.013  1.00  0.00     0.127 S 
ATOM     67  O   UNL A   1      47.299  37.104  28.745  1.00  0.00    -0.237 OA
ATOM     68  O   UNL A   1      46.779  35.710  26.783  1.00  0.00    -0.237 OA
ATOM     69  O   UNL A   1      44.989  36.975  27.897  1.00  0.00    -0.744 OA
ENDBRANCH  63  66
ENDBRANCH  36  59
ENDBRANCH  10  11
ENDBRANCH   2   5
BRANCH   3  70
ATOM     70  C   UNL A   1      35.815  22.145  25.441  1.00  0.00     0.118 C 
BRANCH  70  71
ATOM     71  C   UNL A   1      34.745  22.009  26.516  1.00  0.00     0.042 C 
BRANCH  71  72
ATOM     72  C   UNL A   1      33.887  23.249  26.718  1.00  0.00     0.118 C 
BRANCH  72  73
ATOM     73  N   UNL A   1      32.584  22.955  27.298  1.00  0.00    -0.352 N 
ATOM     74  C   UNL A   1      31.334  23.341  26.876  1.00  0.00     0.253 C 
ATOM     75  H   UNL A   1      32.602  22.399  28.110  1.00  0.00     0.163 HD
ATOM     76  O   UNL A   1      30.336  22.953  27.482  1.00  0.00    -0.269 OA
BRANCH  74  77
ATOM     77  C   UNL A   1      31.197  24.137  25.640  1.00  0.00     0.066 A 
ATOM     78  C   UNL A   1      30.943  23.435  24.452  1.00  0.00     0.016 A 
ATOM     79  C   UNL A   1      31.282  25.535  25.693  1.00  0.00     0.084 A 
ATOM     80  C   UNL A   1      30.834  24.127  23.260  1.00  0.00     0.002 A 
ATOM     81  C   UNL A   1      31.135  26.241  24.477  1.00  0.00     0.015 A 
ATOM     82  N   UNL A   1      31.508  26.186  26.858  1.00  0.00    -0.255 NA
ATOM     83  C   UNL A   1      30.931  25.515  23.272  1.00  0.00     0.011 A 
ATOM     84  C   UNL A   1      31.200  27.654  24.546  1.00  0.00     0.028 A 
ATOM     85  C   UNL A   1      31.554  27.531  26.878  1.00  0.00     0.113 A 
ATOM     86  Br  UNL A   1      30.998  28.768  23.012  1.00  0.00    -0.050 Br
ATOM     87  C   UNL A   1      31.403  28.308  25.756  1.00  0.00     0.036 A 
ENDBRANCH  74  77
ENDBRANCH  72  73
ENDBRANCH  71  72
ENDBRANCH  70  71
ENDBRANCH   3  70
TORSDOF 13
ENDMDL
