MODEL 1
REMARK VINA RESULT:     -12.7      0.000      0.000
REMARK SMILES Cc1ccc(F)cc1-c1ccc(F)cc1C(=O)NCCCNC(=O)c1ccc(-c2c3nc(c(-c4cccc(S(=O)(=O)[O-])c4F)c4ccc([nH]4)c(-c4cccc(S(=O)(=O)[O-])c4F)c4nc(c(-c5cccc(S(=O)(=O)[O-])c5F)c5ccc2[nH]5)C=C4)C=C3)cc1
REMARK SMILES IDX 21 1 20 2 19 3 18 4 16 5 17 6 15 8 9 9 10 10 11 11 14 12
REMARK SMILES IDX 12 13 13 14 8 15 1 16 2 17 3 18 4 19 7 20 5 21 6 22 22 23
REMARK SMILES IDX 23 24 24 26 25 27 26 28 87 29 27 30 86 31 28 32 29 33 30 34
REMARK SMILES IDX 80 35 31 36 85 37 79 38 81 39 32 40 84 41 78 42 77 43 33 45
REMARK SMILES IDX 65 46 45 47 64 48 46 49 49 50 63 51 82 52 47 53 48 54 62 56
REMARK SMILES IDX 83 57 50 58 34 59 35 60 43 61 36 62 38 63 44 64 37 65 39 66
REMARK SMILES IDX 40 67 41 68 42 69 66 70 67 71 75 72 68 73 70 74 76 75 69 76
REMARK SMILES IDX 71 77 72 78 73 79 74 80 51 81 52 82 60 83 53 84 55 85 61 86
REMARK SMILES IDX 54 87 56 88 57 89 58 90 59 91
REMARK H PARENT 18 7 22 25 81 44 49 55
REMARK Flexibility Score: inf
ROOT
ATOM      1  C   UNL A   1      32.829  28.816  25.483  1.00  0.00     0.118 C 
ENDROOT
BRANCH   1   2
ATOM      2  C   UNL A   1      33.884  28.908  24.388  1.00  0.00     0.042 C 
BRANCH   2   3
ATOM      3  C   UNL A   1      33.319  29.045  22.987  1.00  0.00     0.118 C 
BRANCH   3   4
ATOM      4  N   UNL A   1      33.591  27.971  22.065  1.00  0.00    -0.352 N 
ATOM      5  C   UNL A   1      33.002  26.736  21.962  1.00  0.00     0.252 C 
ATOM      6  O   UNL A   1      33.322  26.047  20.988  1.00  0.00    -0.269 OA
ATOM      7  H   UNL A   1      34.306  28.150  21.413  1.00  0.00     0.163 HD
BRANCH   5   8
ATOM      8  C   UNL A   1      32.082  26.124  22.974  1.00  0.00     0.050 A 
ATOM      9  C   UNL A   1      32.362  25.123  23.940  1.00  0.00    -0.005 A 
ATOM     10  C   UNL A   1      31.356  24.811  24.891  1.00  0.00     0.012 A 
ATOM     11  C   UNL A   1      30.109  25.432  24.882  1.00  0.00     0.040 A 
ATOM     12  C   UNL A   1      30.811  26.746  22.990  1.00  0.00     0.053 A 
ATOM     13  C   UNL A   1      29.848  26.394  23.926  1.00  0.00     0.124 A 
ATOM     14  F   UNL A   1      28.657  27.007  23.915  1.00  0.00    -0.207 F 
BRANCH   9  15
ATOM     15  C   UNL A   1      33.623  24.372  24.070  1.00  0.00    -0.012 A 
ATOM     16  C   UNL A   1      33.002  22.729  22.166  1.00  0.00     0.045 C 
ATOM     17  C   UNL A   1      33.918  23.241  23.256  1.00  0.00    -0.043 A 
ATOM     18  C   UNL A   1      35.173  22.610  23.367  1.00  0.00     0.007 A 
ATOM     19  C   UNL A   1      36.120  23.067  24.280  1.00  0.00     0.039 A 
ATOM     20  C   UNL A   1      34.578  24.784  25.018  1.00  0.00     0.048 A 
ATOM     21  C   UNL A   1      35.808  24.136  25.107  1.00  0.00     0.123 A 
ATOM     22  F   UNL A   1      36.717  24.576  25.987  1.00  0.00    -0.207 F 
ENDBRANCH   9  15
ENDBRANCH   5   8
ENDBRANCH   3   4
ENDBRANCH   2   3
ENDBRANCH   1   2
BRANCH   1  23
ATOM     23  N   UNL A   1      32.434  30.096  26.071  1.00  0.00    -0.352 N 
ATOM     24  C   UNL A   1      33.045  30.983  26.927  1.00  0.00     0.251 C 
ATOM     25  H   UNL A   1      31.534  30.384  25.796  1.00  0.00     0.163 HD
ATOM     26  O   UNL A   1      32.409  31.972  27.298  1.00  0.00    -0.269 OA
BRANCH  24  27
ATOM     27  C   UNL A   1      34.412  30.768  27.462  1.00  0.00     0.039 A 
ATOM     28  C   UNL A   1      35.261  31.874  27.621  1.00  0.00     0.014 A 
ATOM     29  C   UNL A   1      34.891  29.508  27.794  1.00  0.00     0.014 A 
ATOM     30  C   UNL A   1      36.524  31.722  28.210  1.00  0.00     0.010 A 
ATOM     31  C   UNL A   1      36.079  29.376  28.504  1.00  0.00     0.010 A 
ATOM     32  C   UNL A   1      36.917  30.477  28.722  1.00  0.00    -0.014 A 
BRANCH  32  33
ATOM     33  C   UNL A   1      38.180  30.266  29.484  1.00  0.00     0.031 A 
ATOM     34  C   UNL A   1      39.246  29.354  28.924  1.00  0.00     0.074 A 
ATOM     35  C   UNL A   1      38.307  30.747  30.737  1.00  0.00     0.049 A 
ATOM     36  N   UNL A   1      40.269  28.808  29.527  1.00  0.00    -0.248 NA
ATOM     37  C   UNL A   1      39.103  28.954  27.513  1.00  0.00     0.031 C 
ATOM     38  C   UNL A   1      37.326  31.582  31.433  1.00  0.00     0.029 A 
ATOM     39  N   UNL A   1      39.302  30.567  31.669  1.00  0.00    -0.354 N 
ATOM     40  C   UNL A   1      40.836  27.939  28.599  1.00  0.00     0.074 A 
ATOM     41  C   UNL A   1      40.025  28.010  27.404  1.00  0.00     0.031 C 
ATOM     42  C   UNL A   1      37.770  31.850  32.671  1.00  0.00     0.029 A 
ATOM     43  C   UNL A   1      39.040  31.164  32.880  1.00  0.00     0.049 A 
ATOM     44  H   UNL A   1      40.126  30.058  31.486  1.00  0.00     0.167 HD
ATOM     45  C   UNL A   1      41.948  27.175  28.718  1.00  0.00     0.034 A 
ATOM     46  C   UNL A   1      39.731  31.148  34.037  1.00  0.00     0.034 A 
ATOM     47  C   UNL A   1      42.816  27.198  29.863  1.00  0.00     0.049 A 
ATOM     48  C   UNL A   1      41.020  30.377  34.109  1.00  0.00     0.074 A 
ATOM     49  C   UNL A   1      44.028  26.554  30.035  1.00  0.00     0.029 A 
ATOM     50  N   UNL A   1      42.580  27.924  31.020  1.00  0.00    -0.354 N 
ATOM     51  N   UNL A   1      41.597  29.647  33.184  1.00  0.00    -0.248 NA
ATOM     52  C   UNL A   1      41.770  30.444  35.372  1.00  0.00     0.031 C 
ATOM     53  C   UNL A   1      44.526  26.892  31.297  1.00  0.00     0.029 A 
ATOM     54  C   UNL A   1      43.627  27.753  31.908  1.00  0.00     0.049 A 
ATOM     55  H   UNL A   1      41.783  28.480  31.186  1.00  0.00     0.167 HD
ATOM     56  C   UNL A   1      42.784  29.189  33.743  1.00  0.00     0.074 A 
ATOM     57  C   UNL A   1      42.860  29.747  35.078  1.00  0.00     0.031 C 
ATOM     58  C   UNL A   1      43.716  28.361  33.210  1.00  0.00     0.034 A 
BRANCH  45  59
ATOM     59  C   UNL A   1      42.340  26.312  27.546  1.00  0.00     0.023 A 
ATOM     60  C   UNL A   1      43.162  26.848  26.535  1.00  0.00     0.012 A 
ATOM     61  C   UNL A   1      41.957  24.957  27.479  1.00  0.00     0.148 A 
ATOM     62  C   UNL A   1      43.566  26.064  25.456  1.00  0.00     0.002 A 
ATOM     63  C   UNL A   1      42.403  24.168  26.424  1.00  0.00     0.091 A 
ATOM     64  F   UNL A   1      41.161  24.467  28.439  1.00  0.00    -0.205 F 
ATOM     65  C   UNL A   1      43.196  24.724  25.406  1.00  0.00     0.022 A 
BRANCH  63  66
ATOM     66  S   UNL A   1      42.057  22.409  26.308  1.00  0.00     0.127 S 
ATOM     67  O   UNL A   1      42.755  22.052  25.073  1.00  0.00    -0.237 OA
ATOM     68  O   UNL A   1      42.676  21.893  27.529  1.00  0.00    -0.237 OA
ATOM     69  O   UNL A   1      40.607  22.286  26.263  1.00  0.00    -0.744 OA
ENDBRANCH  63  66
ENDBRANCH  45  59
BRANCH  46  70
ATOM     70  C   UNL A   1      39.253  31.959  35.194  1.00  0.00     0.023 A 
ATOM     71  C   UNL A   1      38.407  31.355  36.144  1.00  0.00     0.012 A 
ATOM     72  C   UNL A   1      39.673  33.289  35.397  1.00  0.00     0.148 A 
ATOM     73  C   UNL A   1      37.970  32.064  37.263  1.00  0.00     0.002 A 
ATOM     74  C   UNL A   1      39.280  33.972  36.543  1.00  0.00     0.091 A 
ATOM     75  F   UNL A   1      40.470  33.851  34.477  1.00  0.00    -0.205 F 
ATOM     76  C   UNL A   1      38.415  33.367  37.469  1.00  0.00     0.022 A 
BRANCH  74  77
ATOM     77  S   UNL A   1      39.918  35.597  36.966  1.00  0.00     0.127 S 
ATOM     78  O   UNL A   1      41.348  35.333  37.099  1.00  0.00    -0.237 OA
ATOM     79  O   UNL A   1      39.542  36.384  35.790  1.00  0.00    -0.237 OA
ATOM     80  O   UNL A   1      39.229  35.985  38.189  1.00  0.00    -0.744 OA
ENDBRANCH  74  77
ENDBRANCH  46  70
BRANCH  58  81
ATOM     81  C   UNL A   1      44.912  28.010  34.055  1.00  0.00     0.023 A 
ATOM     82  C   UNL A   1      46.040  28.853  34.039  1.00  0.00     0.012 A 
ATOM     83  C   UNL A   1      44.878  26.913  34.937  1.00  0.00     0.148 A 
ATOM     84  C   UNL A   1      47.127  28.597  34.874  1.00  0.00     0.002 A 
ATOM     85  C   UNL A   1      45.945  26.690  35.800  1.00  0.00     0.091 A 
ATOM     86  F   UNL A   1      43.803  26.111  34.921  1.00  0.00    -0.205 F 
ATOM     87  C   UNL A   1      47.073  27.525  35.763  1.00  0.00     0.022 A 
BRANCH  85  88
ATOM     88  S   UNL A   1      45.915  25.395  37.045  1.00  0.00     0.127 S 
ATOM     89  O   UNL A   1      44.689  25.711  37.775  1.00  0.00    -0.237 OA
ATOM     90  O   UNL A   1      45.846  24.180  36.233  1.00  0.00    -0.237 OA
ATOM     91  O   UNL A   1      47.152  25.544  37.801  1.00  0.00    -0.744 OA
ENDBRANCH  85  88
ENDBRANCH  58  81
ENDBRANCH  32  33
ENDBRANCH  24  27
ENDBRANCH   1  23
TORSDOF 14
ENDMDL
MODEL 2
REMARK VINA RESULT:     -12.7      5.375      9.847
REMARK SMILES Cc1ccc(F)cc1-c1ccc(F)cc1C(=O)NCCCNC(=O)c1ccc(-c2c3nc(c(-c4cccc(S(=O)(=O)[O-])c4F)c4ccc([nH]4)c(-c4cccc(S(=O)(=O)[O-])c4F)c4nc(c(-c5cccc(S(=O)(=O)[O-])c5F)c5ccc2[nH]5)C=C4)C=C3)cc1
REMARK SMILES IDX 21 1 20 2 19 3 18 4 16 5 17 6 15 8 9 9 10 10 11 11 14 12
REMARK SMILES IDX 12 13 13 14 8 15 1 16 2 17 3 18 4 19 7 20 5 21 6 22 22 23
REMARK SMILES IDX 23 24 24 26 25 27 26 28 87 29 27 30 86 31 28 32 29 33 30 34
REMARK SMILES IDX 80 35 31 36 85 37 79 38 81 39 32 40 84 41 78 42 77 43 33 45
REMARK SMILES IDX 65 46 45 47 64 48 46 49 49 50 63 51 82 52 47 53 48 54 62 56
REMARK SMILES IDX 83 57 50 58 34 59 35 60 43 61 36 62 38 63 44 64 37 65 39 66
REMARK SMILES IDX 40 67 41 68 42 69 66 70 67 71 75 72 68 73 70 74 76 75 69 76
REMARK SMILES IDX 71 77 72 78 73 79 74 80 51 81 52 82 60 83 53 84 55 85 61 86
REMARK SMILES IDX 54 87 56 88 57 89 58 90 59 91
REMARK H PARENT 18 7 22 25 81 44 49 55
REMARK Flexibility Score: inf
ROOT
ATOM      1  C   UNL A   1      35.829  22.275  25.530  1.00  0.00     0.118 C 
ENDROOT
BRANCH   1   2
ATOM      2  C   UNL A   1      35.282  22.397  26.947  1.00  0.00     0.042 C 
BRANCH   2   3
ATOM      3  C   UNL A   1      34.059  21.542  27.217  1.00  0.00     0.118 C 
BRANCH   3   4
ATOM      4  N   UNL A   1      32.859  22.228  27.627  1.00  0.00    -0.352 N 
ATOM      5  C   UNL A   1      31.907  22.857  26.864  1.00  0.00     0.252 C 
ATOM      6  O   UNL A   1      30.894  23.249  27.452  1.00  0.00    -0.269 OA
ATOM      7  H   UNL A   1      32.700  22.249  28.598  1.00  0.00     0.163 HD
BRANCH   5   8
ATOM      8  C   UNL A   1      32.038  23.186  25.408  1.00  0.00     0.050 A 
ATOM      9  C   UNL A   1      32.258  24.448  24.798  1.00  0.00    -0.005 A 
ATOM     10  C   UNL A   1      32.493  24.482  23.399  1.00  0.00     0.012 A 
ATOM     11  C   UNL A   1      32.484  23.330  22.617  1.00  0.00     0.040 A 
ATOM     12  C   UNL A   1      32.040  22.029  24.594  1.00  0.00     0.053 A 
ATOM     13  C   UNL A   1      32.252  22.111  23.225  1.00  0.00     0.124 A 
ATOM     14  F   UNL A   1      32.252  20.995  22.485  1.00  0.00    -0.207 F 
BRANCH   9  15
ATOM     15  C   UNL A   1      32.288  25.751  25.486  1.00  0.00    -0.012 A 
ATOM     16  C   UNL A   1      29.706  25.878  25.650  1.00  0.00     0.045 C 
ATOM     17  C   UNL A   1      31.096  26.432  25.869  1.00  0.00    -0.043 A 
ATOM     18  C   UNL A   1      31.184  27.635  26.597  1.00  0.00     0.007 A 
ATOM     19  C   UNL A   1      32.423  28.178  26.925  1.00  0.00     0.039 A 
ATOM     20  C   UNL A   1      33.527  26.345  25.789  1.00  0.00     0.048 A 
ATOM     21  C   UNL A   1      33.580  27.539  26.505  1.00  0.00     0.123 A 
ATOM     22  F   UNL A   1      34.773  28.060  26.819  1.00  0.00    -0.207 F 
ENDBRANCH   9  15
ENDBRANCH   5   8
ENDBRANCH   3   4
ENDBRANCH   2   3
ENDBRANCH   1   2
BRANCH   1  23
ATOM     23  N   UNL A   1      36.907  21.300  25.364  1.00  0.00    -0.352 N 
ATOM     24  C   UNL A   1      38.250  21.301  25.664  1.00  0.00     0.251 C 
ATOM     25  H   UNL A   1      36.605  20.462  24.945  1.00  0.00     0.163 HD
ATOM     26  O   UNL A   1      38.923  20.322  25.334  1.00  0.00    -0.269 OA
BRANCH  24  27
ATOM     27  C   UNL A   1      38.926  22.450  26.314  1.00  0.00     0.039 A 
ATOM     28  C   UNL A   1      40.013  22.204  27.167  1.00  0.00     0.014 A 
ATOM     29  C   UNL A   1      38.510  23.761  26.126  1.00  0.00     0.014 A 
ATOM     30  C   UNL A   1      40.734  23.269  27.724  1.00  0.00     0.010 A 
ATOM     31  C   UNL A   1      39.304  24.816  26.561  1.00  0.00     0.010 A 
ATOM     32  C   UNL A   1      40.426  24.590  27.369  1.00  0.00    -0.014 A 
BRANCH  32  33
ATOM     33  C   UNL A   1      41.231  25.766  27.807  1.00  0.00     0.031 A 
ATOM     34  C   UNL A   1      40.575  26.858  28.618  1.00  0.00     0.074 A 
ATOM     35  C   UNL A   1      42.486  25.941  27.347  1.00  0.00     0.049 A 
ATOM     36  N   UNL A   1      40.988  28.075  28.856  1.00  0.00    -0.248 NA
ATOM     37  C   UNL A   1      39.248  26.559  29.184  1.00  0.00     0.031 C 
ATOM     38  C   UNL A   1      43.220  25.002  26.495  1.00  0.00     0.029 A 
ATOM     39  N   UNL A   1      43.356  26.994  27.498  1.00  0.00    -0.354 N 
ATOM     40  C   UNL A   1      39.942  28.708  29.518  1.00  0.00     0.074 A 
ATOM     41  C   UNL A   1      38.864  27.749  29.619  1.00  0.00     0.031 C 
ATOM     42  C   UNL A   1      44.427  25.514  26.209  1.00  0.00     0.029 A 
ATOM     43  C   UNL A   1      44.537  26.839  26.810  1.00  0.00     0.049 A 
ATOM     44  H   UNL A   1      43.153  27.787  28.048  1.00  0.00     0.167 HD
ATOM     45  C   UNL A   1      39.891  29.963  30.026  1.00  0.00     0.034 A 
ATOM     46  C   UNL A   1      45.585  27.674  26.660  1.00  0.00     0.034 A 
ATOM     47  C   UNL A   1      41.005  30.871  30.028  1.00  0.00     0.049 A 
ATOM     48  C   UNL A   1      45.547  29.023  27.324  1.00  0.00     0.074 A 
ATOM     49  C   UNL A   1      41.095  32.118  30.620  1.00  0.00     0.029 A 
ATOM     50  N   UNL A   1      42.232  30.619  29.434  1.00  0.00    -0.354 N 
ATOM     51  N   UNL A   1      44.589  29.563  28.039  1.00  0.00    -0.248 NA
ATOM     52  C   UNL A   1      46.741  29.870  27.186  1.00  0.00     0.031 C 
ATOM     53  C   UNL A   1      42.379  32.620  30.385  1.00  0.00     0.029 A 
ATOM     54  C   UNL A   1      43.090  31.681  29.653  1.00  0.00     0.049 A 
ATOM     55  H   UNL A   1      42.459  29.804  28.929  1.00  0.00     0.167 HD
ATOM     56  C   UNL A   1      45.072  30.799  28.454  1.00  0.00     0.074 A 
ATOM     57  C   UNL A   1      46.419  30.917  27.935  1.00  0.00     0.031 C 
ATOM     58  C   UNL A   1      44.448  31.760  29.178  1.00  0.00     0.034 A 
BRANCH  45  59
ATOM     59  C   UNL A   1      38.616  30.402  30.699  1.00  0.00     0.023 A 
ATOM     60  C   UNL A   1      38.437  30.151  32.075  1.00  0.00     0.012 A 
ATOM     61  C   UNL A   1      37.629  31.119  29.995  1.00  0.00     0.148 A 
ATOM     62  C   UNL A   1      37.282  30.572  32.731  1.00  0.00     0.002 A 
ATOM     63  C   UNL A   1      36.501  31.578  30.667  1.00  0.00     0.091 A 
ATOM     64  F   UNL A   1      37.806  31.334  28.684  1.00  0.00    -0.205 F 
ATOM     65  C   UNL A   1      36.320  31.294  32.031  1.00  0.00     0.022 A 
BRANCH  63  66
ATOM     66  S   UNL A   1      35.243  32.591  29.880  1.00  0.00     0.127 S 
ATOM     67  O   UNL A   1      34.735  31.684  28.851  1.00  0.00    -0.237 OA
ATOM     68  O   UNL A   1      34.315  32.841  30.983  1.00  0.00    -0.237 OA
ATOM     69  O   UNL A   1      35.931  33.774  29.384  1.00  0.00    -0.744 OA
ENDBRANCH  63  66
ENDBRANCH  45  59
BRANCH  46  70
ATOM     70  C   UNL A   1      46.792  27.217  25.913  1.00  0.00     0.023 A 
ATOM     71  C   UNL A   1      47.642  26.266  26.513  1.00  0.00     0.012 A 
ATOM     72  C   UNL A   1      47.073  27.659  24.606  1.00  0.00     0.148 A 
ATOM     73  C   UNL A   1      48.759  25.780  25.834  1.00  0.00     0.002 A 
ATOM     74  C   UNL A   1      48.156  27.128  23.912  1.00  0.00     0.091 A 
ATOM     75  F   UNL A   1      46.259  28.571  24.055  1.00  0.00    -0.205 F 
ATOM     76  C   UNL A   1      49.009  26.200  24.531  1.00  0.00     0.022 A 
BRANCH  74  77
ATOM     77  S   UNL A   1      48.472  27.498  22.183  1.00  0.00     0.127 S 
ATOM     78  O   UNL A   1      47.241  28.179  21.792  1.00  0.00    -0.237 OA
ATOM     79  O   UNL A   1      49.652  28.361  22.271  1.00  0.00    -0.237 OA
ATOM     80  O   UNL A   1      48.717  26.214  21.543  1.00  0.00    -0.744 OA
ENDBRANCH  74  77
ENDBRANCH  46  70
BRANCH  58  81
ATOM     81  C   UNL A   1      45.209  33.025  29.472  1.00  0.00     0.023 A 
ATOM     82  C   UNL A   1      46.052  33.078  30.599  1.00  0.00     0.012 A 
ATOM     83  C   UNL A   1      45.172  34.116  28.582  1.00  0.00     0.148 A 
ATOM     84  C   UNL A   1      46.831  34.208  30.848  1.00  0.00     0.002 A 
ATOM     85  C   UNL A   1      45.986  35.219  28.810  1.00  0.00     0.091 A 
ATOM     86  F   UNL A   1      44.346  34.053  27.526  1.00  0.00    -0.205 F 
ATOM     87  C   UNL A   1      46.808  35.271  29.946  1.00  0.00     0.022 A 
BRANCH  85  88
ATOM     88  S   UNL A   1      46.094  36.586  27.649  1.00  0.00     0.127 S 
ATOM     89  O   UNL A   1      47.119  37.423  28.268  1.00  0.00    -0.237 OA
ATOM     90  O   UNL A   1      46.515  35.917  26.417  1.00  0.00    -0.237 OA
ATOM     91  O   UNL A   1      44.759  37.165  27.592  1.00  0.00    -0.744 OA
ENDBRANCH  85  88
ENDBRANCH  58  81
ENDBRANCH  32  33
ENDBRANCH  24  27
ENDBRANCH   1  23
TORSDOF 14
ENDMDL
MODEL 3
REMARK VINA RESULT:     -12.7      4.969      9.734
REMARK SMILES Cc1ccc(F)cc1-c1ccc(F)cc1C(=O)NCCCNC(=O)c1ccc(-c2c3nc(c(-c4cccc(S(=O)(=O)[O-])c4F)c4ccc([nH]4)c(-c4cccc(S(=O)(=O)[O-])c4F)c4nc(c(-c5cccc(S(=O)(=O)[O-])c5F)c5ccc2[nH]5)C=C4)C=C3)cc1
REMARK SMILES IDX 21 1 20 2 19 3 18 4 16 5 17 6 15 8 9 9 10 10 11 11 14 12
REMARK SMILES IDX 12 13 13 14 8 15 1 16 2 17 3 18 4 19 7 20 5 21 6 22 22 23
REMARK SMILES IDX 23 24 24 26 25 27 26 28 87 29 27 30 86 31 28 32 29 33 30 34
REMARK SMILES IDX 80 35 31 36 85 37 79 38 81 39 32 40 84 41 78 42 77 43 33 45
REMARK SMILES IDX 65 46 45 47 64 48 46 49 49 50 63 51 82 52 47 53 48 54 62 56
REMARK SMILES IDX 83 57 50 58 34 59 35 60 43 61 36 62 38 63 44 64 37 65 39 66
REMARK SMILES IDX 40 67 41 68 42 69 66 70 67 71 75 72 68 73 70 74 76 75 69 76
REMARK SMILES IDX 71 77 72 78 73 79 74 80 51 81 52 82 60 83 53 84 55 85 61 86
REMARK SMILES IDX 54 87 56 88 57 89 58 90 59 91
REMARK H PARENT 18 7 22 25 81 44 49 55
REMARK Flexibility Score: inf
ROOT
ATOM      1  C   UNL A   1      35.723  22.452  25.457  1.00  0.00     0.118 C 
ENDROOT
BRANCH   1   2
ATOM      2  C   UNL A   1      35.200  22.677  26.870  1.00  0.00     0.042 C 
BRANCH   2   3
ATOM      3  C   UNL A   1      34.090  21.729  27.282  1.00  0.00     0.118 C 
BRANCH   3   4
ATOM      4  N   UNL A   1      32.810  22.315  27.590  1.00  0.00    -0.352 N 
ATOM      5  C   UNL A   1      31.872  22.861  26.750  1.00  0.00     0.252 C 
ATOM      6  O   UNL A   1      30.788  23.170  27.252  1.00  0.00    -0.269 OA
ATOM      7  H   UNL A   1      32.573  22.326  28.546  1.00  0.00     0.163 HD
BRANCH   5   8
ATOM      8  C   UNL A   1      32.090  23.195  25.305  1.00  0.00     0.050 A 
ATOM      9  C   UNL A   1      32.371  24.455  24.716  1.00  0.00    -0.005 A 
ATOM     10  C   UNL A   1      32.683  24.491  23.332  1.00  0.00     0.012 A 
ATOM     11  C   UNL A   1      32.691  23.343  22.543  1.00  0.00     0.040 A 
ATOM     12  C   UNL A   1      32.111  22.042  24.484  1.00  0.00     0.053 A 
ATOM     13  C   UNL A   1      32.401  22.127  23.130  1.00  0.00     0.124 A 
ATOM     14  F   UNL A   1      32.417  21.015  22.384  1.00  0.00    -0.207 F 
BRANCH   9  15
ATOM     15  C   UNL A   1      32.391  25.753  25.413  1.00  0.00    -0.012 A 
ATOM     16  C   UNL A   1      29.806  25.900  25.503  1.00  0.00     0.045 C 
ATOM     17  C   UNL A   1      31.194  26.441  25.766  1.00  0.00    -0.043 A 
ATOM     18  C   UNL A   1      31.270  27.639  26.504  1.00  0.00     0.007 A 
ATOM     19  C   UNL A   1      32.504  28.170  26.871  1.00  0.00     0.039 A 
ATOM     20  C   UNL A   1      33.625  26.335  25.755  1.00  0.00     0.048 A 
ATOM     21  C   UNL A   1      33.667  27.524  26.480  1.00  0.00     0.123 A 
ATOM     22  F   UNL A   1      34.855  28.034  26.832  1.00  0.00    -0.207 F 
ENDBRANCH   9  15
ENDBRANCH   5   8
ENDBRANCH   3   4
ENDBRANCH   2   3
ENDBRANCH   1   2
BRANCH   1  23
ATOM     23  N   UNL A   1      36.783  21.450  25.341  1.00  0.00    -0.352 N 
ATOM     24  C   UNL A   1      38.117  21.429  25.678  1.00  0.00     0.251 C 
ATOM     25  H   UNL A   1      36.475  20.610  24.933  1.00  0.00     0.163 HD
ATOM     26  O   UNL A   1      38.777  20.429  25.388  1.00  0.00    -0.269 OA
BRANCH  24  27
ATOM     27  C   UNL A   1      38.801  22.577  26.321  1.00  0.00     0.039 A 
ATOM     28  C   UNL A   1      39.925  22.335  27.125  1.00  0.00     0.014 A 
ATOM     29  C   UNL A   1      38.356  23.885  26.174  1.00  0.00     0.014 A 
ATOM     30  C   UNL A   1      40.651  23.403  27.671  1.00  0.00     0.010 A 
ATOM     31  C   UNL A   1      39.150  24.945  26.596  1.00  0.00     0.010 A 
ATOM     32  C   UNL A   1      40.308  24.724  27.353  1.00  0.00    -0.014 A 
BRANCH  32  33
ATOM     33  C   UNL A   1      41.110  25.906  27.780  1.00  0.00     0.031 A 
ATOM     34  C   UNL A   1      40.449  27.012  28.568  1.00  0.00     0.074 A 
ATOM     35  C   UNL A   1      42.370  26.071  27.328  1.00  0.00     0.049 A 
ATOM     36  N   UNL A   1      40.863  28.231  28.790  1.00  0.00    -0.248 NA
ATOM     37  C   UNL A   1      39.116  26.723  29.126  1.00  0.00     0.031 C 
ATOM     38  C   UNL A   1      43.110  25.117  26.499  1.00  0.00     0.029 A 
ATOM     39  N   UNL A   1      43.241  27.125  27.471  1.00  0.00    -0.354 N 
ATOM     40  C   UNL A   1      39.811  28.877  29.432  1.00  0.00     0.074 A 
ATOM     41  C   UNL A   1      38.731  27.921  29.538  1.00  0.00     0.031 C 
ATOM     42  C   UNL A   1      44.321  25.623  26.216  1.00  0.00     0.029 A 
ATOM     43  C   UNL A   1      44.428  26.956  26.796  1.00  0.00     0.049 A 
ATOM     44  H   UNL A   1      43.034  27.926  28.006  1.00  0.00     0.167 HD
ATOM     45  C   UNL A   1      39.758  30.140  29.919  1.00  0.00     0.034 A 
ATOM     46  C   UNL A   1      45.479  27.787  26.642  1.00  0.00     0.034 A 
ATOM     47  C   UNL A   1      40.874  31.046  29.916  1.00  0.00     0.049 A 
ATOM     48  C   UNL A   1      45.437  29.147  27.284  1.00  0.00     0.074 A 
ATOM     49  C   UNL A   1      40.961  32.302  30.489  1.00  0.00     0.029 A 
ATOM     50  N   UNL A   1      42.106  30.782  29.337  1.00  0.00    -0.354 N 
ATOM     51  N   UNL A   1      44.474  29.699  27.982  1.00  0.00    -0.248 NA
ATOM     52  C   UNL A   1      46.634  29.989  27.144  1.00  0.00     0.031 C 
ATOM     53  C   UNL A   1      42.248  32.798  30.257  1.00  0.00     0.029 A 
ATOM     54  C   UNL A   1      42.964  31.846  29.547  1.00  0.00     0.049 A 
ATOM     55  H   UNL A   1      42.336  29.958  28.848  1.00  0.00     0.167 HD
ATOM     56  C   UNL A   1      44.955  30.941  28.381  1.00  0.00     0.074 A 
ATOM     57  C   UNL A   1      46.307  31.049  27.873  1.00  0.00     0.031 C 
ATOM     58  C   UNL A   1      44.326  31.915  29.084  1.00  0.00     0.034 A 
BRANCH  45  59
ATOM     59  C   UNL A   1      38.478  30.591  30.573  1.00  0.00     0.023 A 
ATOM     60  C   UNL A   1      38.294  30.380  31.955  1.00  0.00     0.012 A 
ATOM     61  C   UNL A   1      37.491  31.283  29.843  1.00  0.00     0.148 A 
ATOM     62  C   UNL A   1      37.133  30.814  32.593  1.00  0.00     0.002 A 
ATOM     63  C   UNL A   1      36.357  31.756  30.497  1.00  0.00     0.091 A 
ATOM     64  F   UNL A   1      37.673  31.461  28.527  1.00  0.00    -0.205 F 
ATOM     65  C   UNL A   1      36.172  31.511  31.867  1.00  0.00     0.022 A 
BRANCH  63  66
ATOM     66  S   UNL A   1      35.098  32.739  29.675  1.00  0.00     0.127 S 
ATOM     67  O   UNL A   1      34.207  33.068  30.788  1.00  0.00    -0.237 OA
ATOM     68  O   UNL A   1      35.875  33.868  29.163  1.00  0.00    -0.237 OA
ATOM     69  O   UNL A   1      34.524  31.882  28.648  1.00  0.00    -0.744 OA
ENDBRANCH  63  66
ENDBRANCH  45  59
BRANCH  46  70
ATOM     70  C   UNL A   1      46.692  27.316  25.914  1.00  0.00     0.023 A 
ATOM     71  C   UNL A   1      46.797  27.569  24.532  1.00  0.00     0.012 A 
ATOM     72  C   UNL A   1      47.761  26.682  26.578  1.00  0.00     0.148 A 
ATOM     73  C   UNL A   1      47.932  27.183  23.821  1.00  0.00     0.002 A 
ATOM     74  C   UNL A   1      48.914  26.350  25.874  1.00  0.00     0.091 A 
ATOM     75  F   UNL A   1      47.639  26.440  27.891  1.00  0.00    -0.205 F 
ATOM     76  C   UNL A   1      48.995  26.585  24.492  1.00  0.00     0.022 A 
BRANCH  74  77
ATOM     77  S   UNL A   1      50.387  25.712  26.679  1.00  0.00     0.127 S 
ATOM     78  O   UNL A   1      49.899  24.461  27.252  1.00  0.00    -0.237 OA
ATOM     79  O   UNL A   1      51.304  25.555  25.549  1.00  0.00    -0.237 OA
ATOM     80  O   UNL A   1      50.788  26.733  27.636  1.00  0.00    -0.744 OA
ENDBRANCH  74  77
ENDBRANCH  46  70
BRANCH  58  81
ATOM     81  C   UNL A   1      45.087  33.184  29.365  1.00  0.00     0.023 A 
ATOM     82  C   UNL A   1      45.905  33.260  30.508  1.00  0.00     0.012 A 
ATOM     83  C   UNL A   1      45.074  34.253  28.448  1.00  0.00     0.148 A 
ATOM     84  C   UNL A   1      46.685  34.391  30.747  1.00  0.00     0.002 A 
ATOM     85  C   UNL A   1      45.889  35.358  28.668  1.00  0.00     0.091 A 
ATOM     86  F   UNL A   1      44.272  34.169  27.376  1.00  0.00    -0.205 F 
ATOM     87  C   UNL A   1      46.687  35.433  29.821  1.00  0.00     0.022 A 
BRANCH  85  88
ATOM     88  S   UNL A   1      46.030  36.696  27.477  1.00  0.00     0.127 S 
ATOM     89  O   UNL A   1      47.013  37.565  28.120  1.00  0.00    -0.237 OA
ATOM     90  O   UNL A   1      46.515  36.003  26.283  1.00  0.00    -0.237 OA
ATOM     91  O   UNL A   1      44.689  37.252  27.345  1.00  0.00    -0.744 OA
ENDBRANCH  85  88
ENDBRANCH  58  81
ENDBRANCH  32  33
ENDBRANCH  24  27
ENDBRANCH   1  23
TORSDOF 14
ENDMDL
