MODEL 1
REMARK VINA RESULT:     -12.3      0.000      0.000
REMARK SMILES C[C@H](c1ccncc1)N1C[C@H](C(=O)NCCCNC(=O)c2ccc(-c3c4nc(c(-c5cccc(S(=O)(=O)[O-])c5F)c5ccc([nH]5)c(-c5cccc(S(=O)(=O)[O-])c5F)c5nc(c(-c6cccc(S(=O)(=O)[O-])c6F)c6ccc3[nH]6)C=C5)C=C4)cc2)CC1=O
REMARK SMILES IDX 16 1 15 2 14 3 12 4 13 5 11 7 9 8 10 9 85 10 84 11 86 12
REMARK SMILES IDX 2 13 1 14 3 15 4 16 8 17 5 18 7 19 6 20 17 21 18 22 19 23
REMARK SMILES IDX 20 25 21 26 22 27 83 28 23 29 82 30 24 31 25 32 26 33 76 34
REMARK SMILES IDX 27 35 81 36 75 37 77 38 28 39 80 40 74 41 73 42 29 44 61 45
REMARK SMILES IDX 41 46 60 47 42 48 45 49 59 50 78 51 43 52 44 53 58 55 79 56
REMARK SMILES IDX 46 57 30 58 31 59 39 60 32 61 34 62 40 63 33 64 35 65 36 66
REMARK SMILES IDX 37 67 38 68 62 69 63 70 71 71 64 72 66 73 72 74 65 75 67 76
REMARK SMILES IDX 68 77 69 78 70 79 47 80 48 81 56 82 49 83 51 84 57 85 50 86
REMARK SMILES IDX 52 87 53 88 54 89 55 90
REMARK H PARENT 14 6 18 24 77 43 45 54
REMARK Flexibility Score: inf
ROOT
ATOM      1  C   UNL A   1      31.803  29.214  27.043  1.00  0.00     0.042 C 
ENDROOT
BRANCH   1   2
ATOM      2  C   UNL A   1      31.858  27.713  26.789  1.00  0.00     0.117 C 
BRANCH   2   3
ATOM      3  N   UNL A   1      31.087  27.309  25.624  1.00  0.00    -0.356 N 
ATOM      4  C   UNL A   1      31.527  26.821  24.428  1.00  0.00     0.225 C 
ATOM      5  O   UNL A   1      30.696  26.440  23.605  1.00  0.00    -0.275 OA
ATOM      6  H   UNL A   1      30.110  27.401  25.710  1.00  0.00     0.163 HD
BRANCH   4   7
ATOM      7  C   UNL A   1      33.024  26.744  24.182  1.00  0.00     0.107 C 
ATOM      8  N   UNL A   1      33.560  24.785  23.001  1.00  0.00    -0.335 N 
ATOM      9  C   UNL A   1      33.574  25.338  24.336  1.00  0.00     0.134 C 
ATOM     10  C   UNL A   1      33.384  25.778  22.046  1.00  0.00     0.223 C 
ATOM     11  C   UNL A   1      33.353  27.107  22.743  1.00  0.00     0.115 C 
ATOM     12  O   UNL A   1      33.314  25.681  20.832  1.00  0.00    -0.275 OA
BRANCH   8  13
ATOM     13  C   UNL A   1      33.677  23.332  22.786  1.00  0.00     0.112 C 
ATOM     14  C   UNL A   1      32.315  22.636  22.928  1.00  0.00     0.036 C 
BRANCH  13  15
ATOM     15  C   UNL A   1      34.753  22.679  23.632  1.00  0.00    -0.023 A 
ATOM     16  C   UNL A   1      36.108  22.999  23.481  1.00  0.00     0.026 A 
ATOM     17  C   UNL A   1      34.422  21.609  24.470  1.00  0.00     0.026 A 
ATOM     18  C   UNL A   1      37.053  22.235  24.149  1.00  0.00     0.111 A 
ATOM     19  C   UNL A   1      35.441  20.914  25.103  1.00  0.00     0.111 A 
ATOM     20  N   UNL A   1      36.751  21.216  24.979  1.00  0.00    -0.265 NA
ENDBRANCH  13  15
ENDBRANCH   8  13
ENDBRANCH   4   7
ENDBRANCH   2   3
ENDBRANCH   1   2
BRANCH   1  21
ATOM     21  C   UNL A   1      32.902  30.015  26.355  1.00  0.00     0.118 C 
BRANCH  21  22
ATOM     22  N   UNL A   1      32.894  31.421  26.730  1.00  0.00    -0.352 N 
ATOM     23  C   UNL A   1      33.720  32.129  27.568  1.00  0.00     0.251 C 
ATOM     24  H   UNL A   1      32.178  31.953  26.313  1.00  0.00     0.163 HD
ATOM     25  O   UNL A   1      33.404  33.276  27.878  1.00  0.00    -0.269 OA
BRANCH  23  26
ATOM     26  C   UNL A   1      34.960  31.531  28.110  1.00  0.00     0.039 A 
ATOM     27  C   UNL A   1      36.107  32.326  28.173  1.00  0.00     0.014 A 
ATOM     28  C   UNL A   1      35.020  30.196  28.518  1.00  0.00     0.014 A 
ATOM     29  C   UNL A   1      37.289  31.802  28.702  1.00  0.00     0.010 A 
ATOM     30  C   UNL A   1      36.173  29.701  29.127  1.00  0.00     0.010 A 
ATOM     31  C   UNL A   1      37.324  30.497  29.222  1.00  0.00    -0.014 A 
BRANCH  31  32
ATOM     32  C   UNL A   1      38.546  29.988  29.900  1.00  0.00     0.031 A 
ATOM     33  C   UNL A   1      38.939  30.471  31.270  1.00  0.00     0.074 A 
ATOM     34  C   UNL A   1      39.335  29.110  29.249  1.00  0.00     0.049 A 
ATOM     35  N   UNL A   1      39.944  30.092  32.018  1.00  0.00    -0.248 NA
ATOM     36  C   UNL A   1      38.114  31.530  31.873  1.00  0.00     0.031 C 
ATOM     37  C   UNL A   1      39.119  28.635  27.880  1.00  0.00     0.029 A 
ATOM     38  N   UNL A   1      40.482  28.469  29.643  1.00  0.00    -0.354 N 
ATOM     39  C   UNL A   1      39.890  30.879  33.162  1.00  0.00     0.074 A 
ATOM     40  C   UNL A   1      38.773  31.784  32.995  1.00  0.00     0.031 C 
ATOM     41  C   UNL A   1      40.084  27.760  27.559  1.00  0.00     0.029 A 
ATOM     42  C   UNL A   1      41.005  27.635  28.683  1.00  0.00     0.049 A 
ATOM     43  H   UNL A   1      40.891  28.593  30.530  1.00  0.00     0.167 HD
ATOM     44  C   UNL A   1      40.677  30.835  34.264  1.00  0.00     0.034 A 
ATOM     45  C   UNL A   1      42.104  26.856  28.700  1.00  0.00     0.034 A 
ATOM     46  C   UNL A   1      41.776  29.920  34.436  1.00  0.00     0.049 A 
ATOM     47  C   UNL A   1      42.936  26.795  29.952  1.00  0.00     0.074 A 
ATOM     48  C   UNL A   1      42.580  29.741  35.549  1.00  0.00     0.029 A 
ATOM     49  N   UNL A   1      42.239  29.043  33.467  1.00  0.00    -0.354 N 
ATOM     50  N   UNL A   1      42.762  27.421  31.090  1.00  0.00    -0.248 NA
ATOM     51  C   UNL A   1      44.090  25.886  29.934  1.00  0.00     0.031 C 
ATOM     52  C   UNL A   1      43.552  28.783  35.239  1.00  0.00     0.029 A 
ATOM     53  C   UNL A   1      43.327  28.332  33.948  1.00  0.00     0.049 A 
ATOM     54  H   UNL A   1      41.852  28.941  32.569  1.00  0.00     0.167 HD
ATOM     55  C   UNL A   1      43.768  26.961  31.933  1.00  0.00     0.074 A 
ATOM     56  C   UNL A   1      44.520  25.976  31.184  1.00  0.00     0.031 C 
ATOM     57  C   UNL A   1      44.053  27.332  33.207  1.00  0.00     0.034 A 
BRANCH  44  58
ATOM     58  C   UNL A   1      40.355  31.779  35.396  1.00  0.00     0.023 A 
ATOM     59  C   UNL A   1      41.125  32.948  35.572  1.00  0.00     0.012 A 
ATOM     60  C   UNL A   1      39.255  31.546  36.246  1.00  0.00     0.148 A 
ATOM     61  C   UNL A   1      40.829  33.849  36.594  1.00  0.00     0.002 A 
ATOM     62  C   UNL A   1      38.937  32.473  37.232  1.00  0.00     0.091 A 
ATOM     63  F   UNL A   1      38.545  30.422  36.078  1.00  0.00    -0.205 F 
ATOM     64  C   UNL A   1      39.730  33.617  37.416  1.00  0.00     0.022 A 
BRANCH  62  65
ATOM     65  S   UNL A   1      37.493  32.313  38.288  1.00  0.00     0.127 S 
ATOM     66  O   UNL A   1      37.309  30.862  38.315  1.00  0.00    -0.237 OA
ATOM     67  O   UNL A   1      37.966  32.889  39.546  1.00  0.00    -0.237 OA
ATOM     68  O   UNL A   1      36.430  33.063  37.635  1.00  0.00    -0.744 OA
ENDBRANCH  62  65
ENDBRANCH  44  58
BRANCH  45  69
ATOM     69  C   UNL A   1      42.446  26.021  27.513  1.00  0.00     0.023 A 
ATOM     70  C   UNL A   1      43.195  26.581  26.460  1.00  0.00     0.012 A 
ATOM     71  C   UNL A   1      42.049  24.673  27.434  1.00  0.00     0.148 A 
ATOM     72  C   UNL A   1      43.509  25.825  25.330  1.00  0.00     0.002 A 
ATOM     73  C   UNL A   1      42.419  23.907  26.334  1.00  0.00     0.091 A 
ATOM     74  F   UNL A   1      41.330  24.162  28.443  1.00  0.00    -0.205 F 
ATOM     75  C   UNL A   1      43.130  24.486  25.272  1.00  0.00     0.022 A 
BRANCH  73  76
ATOM     76  S   UNL A   1      42.098  22.143  26.239  1.00  0.00     0.127 S 
ATOM     77  O   UNL A   1      40.652  22.114  26.037  1.00  0.00    -0.237 OA
ATOM     78  O   UNL A   1      42.892  21.757  25.072  1.00  0.00    -0.237 OA
ATOM     79  O   UNL A   1      42.573  21.587  27.498  1.00  0.00    -0.744 OA
ENDBRANCH  73  76
ENDBRANCH  45  69
BRANCH  57  80
ATOM     80  C   UNL A   1      45.215  26.646  33.881  1.00  0.00     0.023 A 
ATOM     81  C   UNL A   1      46.517  27.170  33.748  1.00  0.00     0.012 A 
ATOM     82  C   UNL A   1      45.014  25.491  34.662  1.00  0.00     0.148 A 
ATOM     83  C   UNL A   1      47.606  26.523  34.331  1.00  0.00     0.002 A 
ATOM     84  C   UNL A   1      46.097  24.884  35.288  1.00  0.00     0.091 A 
ATOM     85  F   UNL A   1      43.774  24.994  34.767  1.00  0.00    -0.205 F 
ATOM     86  C   UNL A   1      47.396  25.387  35.107  1.00  0.00     0.022 A 
BRANCH  84  87
ATOM     87  S   UNL A   1      45.907  23.475  36.386  1.00  0.00     0.127 S 
ATOM     88  O   UNL A   1      45.124  24.051  37.477  1.00  0.00    -0.237 OA
ATOM     89  O   UNL A   1      45.176  22.524  35.546  1.00  0.00    -0.237 OA
ATOM     90  O   UNL A   1      47.257  23.056  36.735  1.00  0.00    -0.744 OA
ENDBRANCH  84  87
ENDBRANCH  57  80
ENDBRANCH  31  32
ENDBRANCH  23  26
ENDBRANCH  21  22
ENDBRANCH   1  21
TORSDOF 15
ENDMDL
MODEL 2
REMARK VINA RESULT:     -12.3      1.347      1.603
REMARK SMILES C[C@H](c1ccncc1)N1C[C@H](C(=O)NCCCNC(=O)c2ccc(-c3c4nc(c(-c5cccc(S(=O)(=O)[O-])c5F)c5ccc([nH]5)c(-c5cccc(S(=O)(=O)[O-])c5F)c5nc(c(-c6cccc(S(=O)(=O)[O-])c6F)c6ccc3[nH]6)C=C5)C=C4)cc2)CC1=O
REMARK SMILES IDX 16 1 15 2 14 3 12 4 13 5 11 7 9 8 10 9 85 10 84 11 86 12
REMARK SMILES IDX 2 13 1 14 3 15 4 16 8 17 5 18 7 19 6 20 17 21 18 22 19 23
REMARK SMILES IDX 20 25 21 26 22 27 83 28 23 29 82 30 24 31 25 32 26 33 76 34
REMARK SMILES IDX 27 35 81 36 75 37 77 38 28 39 80 40 74 41 73 42 29 44 61 45
REMARK SMILES IDX 41 46 60 47 42 48 45 49 59 50 78 51 43 52 44 53 58 55 79 56
REMARK SMILES IDX 46 57 30 58 31 59 39 60 32 61 34 62 40 63 33 64 35 65 36 66
REMARK SMILES IDX 37 67 38 68 62 69 63 70 71 71 64 72 66 73 72 74 65 75 67 76
REMARK SMILES IDX 68 77 69 78 70 79 47 80 48 81 56 82 49 83 51 84 57 85 50 86
REMARK SMILES IDX 52 87 53 88 54 89 55 90
REMARK H PARENT 14 6 18 24 77 43 45 54
REMARK Flexibility Score: inf
ROOT
ATOM      1  C   UNL A   1      31.424  29.230  27.119  1.00  0.00     0.042 C 
ENDROOT
BRANCH   1   2
ATOM      2  C   UNL A   1      31.772  27.759  27.302  1.00  0.00     0.117 C 
BRANCH   2   3
ATOM      3  N   UNL A   1      31.147  26.902  26.307  1.00  0.00    -0.356 N 
ATOM      4  C   UNL A   1      31.728  26.180  25.305  1.00  0.00     0.225 C 
ATOM      5  O   UNL A   1      31.021  25.433  24.630  1.00  0.00    -0.275 OA
ATOM      6  H   UNL A   1      30.166  26.834  26.363  1.00  0.00     0.163 HD
BRANCH   4   7
ATOM      7  C   UNL A   1      33.226  26.313  25.090  1.00  0.00     0.107 C 
ATOM      8  N   UNL A   1      33.970  24.736  23.515  1.00  0.00    -0.335 N 
ATOM      9  C   UNL A   1      33.920  24.972  24.940  1.00  0.00     0.134 C 
ATOM     10  C   UNL A   1      33.695  25.896  22.803  1.00  0.00     0.223 C 
ATOM     11  C   UNL A   1      33.520  27.023  23.778  1.00  0.00     0.115 C 
ATOM     12  O   UNL A   1      33.640  26.069  21.596  1.00  0.00    -0.275 OA
BRANCH   8  13
ATOM     13  C   UNL A   1      34.239  23.388  22.984  1.00  0.00     0.112 C 
ATOM     14  C   UNL A   1      32.935  22.635  22.687  1.00  0.00     0.036 C 
BRANCH  13  15
ATOM     15  C   UNL A   1      35.196  22.580  23.839  1.00  0.00    -0.023 A 
ATOM     16  C   UNL A   1      36.584  22.736  23.746  1.00  0.00     0.026 A 
ATOM     17  C   UNL A   1      34.705  21.532  24.625  1.00  0.00     0.026 A 
ATOM     18  C   UNL A   1      37.403  21.839  24.415  1.00  0.00     0.111 A 
ATOM     19  C   UNL A   1      35.608  20.696  25.264  1.00  0.00     0.111 A 
ATOM     20  N   UNL A   1      36.948  20.838  25.196  1.00  0.00    -0.265 NA
ENDBRANCH  13  15
ENDBRANCH   8  13
ENDBRANCH   4   7
ENDBRANCH   2   3
ENDBRANCH   1   2
BRANCH   1  21
ATOM     21  C   UNL A   1      32.409  30.013  26.257  1.00  0.00     0.118 C 
BRANCH  21  22
ATOM     22  N   UNL A   1      32.376  31.443  26.521  1.00  0.00    -0.352 N 
ATOM     23  C   UNL A   1      33.180  32.227  27.310  1.00  0.00     0.251 C 
ATOM     24  H   UNL A   1      31.658  31.930  26.056  1.00  0.00     0.163 HD
ATOM     25  O   UNL A   1      32.844  33.389  27.527  1.00  0.00    -0.269 OA
BRANCH  23  26
ATOM     26  C   UNL A   1      34.422  31.692  27.912  1.00  0.00     0.039 A 
ATOM     27  C   UNL A   1      35.472  32.579  28.166  1.00  0.00     0.014 A 
ATOM     28  C   UNL A   1      34.582  30.332  28.193  1.00  0.00     0.014 A 
ATOM     29  C   UNL A   1      36.649  32.113  28.755  1.00  0.00     0.010 A 
ATOM     30  C   UNL A   1      35.721  29.885  28.862  1.00  0.00     0.010 A 
ATOM     31  C   UNL A   1      36.771  30.769  29.147  1.00  0.00    -0.014 A 
BRANCH  31  32
ATOM     32  C   UNL A   1      37.973  30.307  29.890  1.00  0.00     0.031 A 
ATOM     33  C   UNL A   1      38.250  30.768  31.296  1.00  0.00     0.074 A 
ATOM     34  C   UNL A   1      38.850  29.492  29.269  1.00  0.00     0.049 A 
ATOM     35  N   UNL A   1      39.225  30.421  32.098  1.00  0.00    -0.248 NA
ATOM     36  C   UNL A   1      37.330  31.762  31.871  1.00  0.00     0.031 C 
ATOM     37  C   UNL A   1      38.749  29.049  27.877  1.00  0.00     0.029 A 
ATOM     38  N   UNL A   1      40.004  28.902  29.720  1.00  0.00    -0.354 N 
ATOM     39  C   UNL A   1      39.052  31.168  33.257  1.00  0.00     0.074 A 
ATOM     40  C   UNL A   1      37.900  32.016  33.041  1.00  0.00     0.031 C 
ATOM     41  C   UNL A   1      39.780  28.237  27.596  1.00  0.00     0.029 A 
ATOM     42  C   UNL A   1      40.633  28.128  28.775  1.00  0.00     0.049 A 
ATOM     43  H   UNL A   1      40.347  29.022  30.635  1.00  0.00     0.167 HD
ATOM     44  C   UNL A   1      39.769  31.133  34.407  1.00  0.00     0.034 A 
ATOM     45  C   UNL A   1      41.770  27.408  28.844  1.00  0.00     0.034 A 
ATOM     46  C   UNL A   1      40.904  30.274  34.626  1.00  0.00     0.049 A 
ATOM     47  C   UNL A   1      42.522  27.354  30.145  1.00  0.00     0.074 A 
ATOM     48  C   UNL A   1      41.643  30.104  35.784  1.00  0.00     0.029 A 
ATOM     49  N   UNL A   1      41.477  29.454  33.666  1.00  0.00    -0.354 N 
ATOM     50  N   UNL A   1      42.241  27.936  31.286  1.00  0.00    -0.248 NA
ATOM     51  C   UNL A   1      43.724  26.510  30.178  1.00  0.00     0.031 C 
ATOM     52  C   UNL A   1      42.685  29.210  35.513  1.00  0.00     0.029 A 
ATOM     53  C   UNL A   1      42.569  28.788  34.198  1.00  0.00     0.049 A 
ATOM     54  H   UNL A   1      41.154  29.358  32.742  1.00  0.00     0.167 HD
ATOM     55  C   UNL A   1      43.214  27.505  32.181  1.00  0.00     0.074 A 
ATOM     56  C   UNL A   1      44.067  26.585  31.456  1.00  0.00     0.031 C 
ATOM     57  C   UNL A   1      43.395  27.852  33.480  1.00  0.00     0.034 A 
BRANCH  44  58
ATOM     58  C   UNL A   1      39.322  32.024  35.540  1.00  0.00     0.023 A 
ATOM     59  C   UNL A   1      38.450  31.516  36.526  1.00  0.00     0.012 A 
ATOM     60  C   UNL A   1      39.811  33.339  35.667  1.00  0.00     0.148 A 
ATOM     61  C   UNL A   1      38.044  32.311  37.597  1.00  0.00     0.002 A 
ATOM     62  C   UNL A   1      39.440  34.109  36.764  1.00  0.00     0.091 A 
ATOM     63  F   UNL A   1      40.625  33.813  34.713  1.00  0.00    -0.205 F 
ATOM     64  C   UNL A   1      38.547  33.602  37.721  1.00  0.00     0.022 A 
BRANCH  62  65
ATOM     65  S   UNL A   1      40.099  35.754  37.063  1.00  0.00     0.127 S 
ATOM     66  O   UNL A   1      41.537  35.490  37.110  1.00  0.00    -0.237 OA
ATOM     67  O   UNL A   1      39.653  36.484  35.876  1.00  0.00    -0.237 OA
ATOM     68  O   UNL A   1      39.507  36.204  38.314  1.00  0.00    -0.744 OA
ENDBRANCH  62  65
ENDBRANCH  44  58
BRANCH  45  69
ATOM     69  C   UNL A   1      42.233  26.630  27.660  1.00  0.00     0.023 A 
ATOM     70  C   UNL A   1      43.024  27.259  26.678  1.00  0.00     0.012 A 
ATOM     71  C   UNL A   1      41.911  25.268  27.513  1.00  0.00     0.148 A 
ATOM     72  C   UNL A   1      43.452  26.556  25.552  1.00  0.00     0.002 A 
ATOM     73  C   UNL A   1      42.393  24.557  26.421  1.00  0.00     0.091 A 
ATOM     74  F   UNL A   1      41.151  24.691  28.455  1.00  0.00    -0.205 F 
ATOM     75  C   UNL A   1      43.146  25.204  25.428  1.00  0.00     0.022 A 
BRANCH  73  76
ATOM     76  S   UNL A   1      42.167  22.784  26.252  1.00  0.00     0.127 S 
ATOM     77  O   UNL A   1      40.712  22.671  26.210  1.00  0.00    -0.237 OA
ATOM     78  O   UNL A   1      42.844  22.515  24.981  1.00  0.00    -0.237 OA
ATOM     79  O   UNL A   1      42.816  22.191  27.413  1.00  0.00    -0.744 OA
ENDBRANCH  73  76
ENDBRANCH  45  69
BRANCH  57  80
ATOM     80  C   UNL A   1      44.549  27.209  34.210  1.00  0.00     0.023 A 
ATOM     81  C   UNL A   1      45.829  27.798  34.166  1.00  0.00     0.012 A 
ATOM     82  C   UNL A   1      44.360  26.029  34.957  1.00  0.00     0.148 A 
ATOM     83  C   UNL A   1      46.912  27.193  34.801  1.00  0.00     0.002 A 
ATOM     84  C   UNL A   1      45.433  25.463  35.637  1.00  0.00     0.091 A 
ATOM     85  F   UNL A   1      43.141  25.470  34.978  1.00  0.00    -0.205 F 
ATOM     86  C   UNL A   1      46.713  26.032  35.543  1.00  0.00     0.022 A 
BRANCH  84  87
ATOM     87  S   UNL A   1      45.248  24.024  36.695  1.00  0.00     0.127 S 
ATOM     88  O   UNL A   1      46.628  23.780  37.110  1.00  0.00    -0.237 OA
ATOM     89  O   UNL A   1      44.372  24.528  37.754  1.00  0.00    -0.237 OA
ATOM     90  O   UNL A   1      44.650  22.989  35.862  1.00  0.00    -0.744 OA
ENDBRANCH  84  87
ENDBRANCH  57  80
ENDBRANCH  31  32
ENDBRANCH  23  26
ENDBRANCH  21  22
ENDBRANCH   1  21
TORSDOF 15
ENDMDL
MODEL 3
REMARK VINA RESULT:     -12.1      5.035     10.396
REMARK SMILES C[C@H](c1ccncc1)N1C[C@H](C(=O)NCCCNC(=O)c2ccc(-c3c4nc(c(-c5cccc(S(=O)(=O)[O-])c5F)c5ccc([nH]5)c(-c5cccc(S(=O)(=O)[O-])c5F)c5nc(c(-c6cccc(S(=O)(=O)[O-])c6F)c6ccc3[nH]6)C=C5)C=C4)cc2)CC1=O
REMARK SMILES IDX 16 1 15 2 14 3 12 4 13 5 11 7 9 8 10 9 85 10 84 11 86 12
REMARK SMILES IDX 2 13 1 14 3 15 4 16 8 17 5 18 7 19 6 20 17 21 18 22 19 23
REMARK SMILES IDX 20 25 21 26 22 27 83 28 23 29 82 30 24 31 25 32 26 33 76 34
REMARK SMILES IDX 27 35 81 36 75 37 77 38 28 39 80 40 74 41 73 42 29 44 61 45
REMARK SMILES IDX 41 46 60 47 42 48 45 49 59 50 78 51 43 52 44 53 58 55 79 56
REMARK SMILES IDX 46 57 30 58 31 59 39 60 32 61 34 62 40 63 33 64 35 65 36 66
REMARK SMILES IDX 37 67 38 68 62 69 63 70 71 71 64 72 66 73 72 74 65 75 67 76
REMARK SMILES IDX 68 77 69 78 70 79 47 80 48 81 56 82 49 83 51 84 57 85 50 86
REMARK SMILES IDX 52 87 53 88 54 89 55 90
REMARK H PARENT 14 6 18 24 77 43 45 54
REMARK Flexibility Score: inf
ROOT
ATOM      1  C   UNL A   1      36.974  22.234  23.774  1.00  0.00     0.042 C 
ENDROOT
BRANCH   1   2
ATOM      2  C   UNL A   1      35.937  23.239  23.286  1.00  0.00     0.117 C 
BRANCH   2   3
ATOM      3  N   UNL A   1      34.582  22.710  23.314  1.00  0.00    -0.356 N 
ATOM      4  C   UNL A   1      33.573  22.974  24.193  1.00  0.00     0.225 C 
ATOM      5  O   UNL A   1      32.461  22.495  23.975  1.00  0.00    -0.275 OA
ATOM      6  H   UNL A   1      34.363  22.071  22.597  1.00  0.00     0.163 HD
BRANCH   4   7
ATOM      7  C   UNL A   1      33.864  23.872  25.383  1.00  0.00     0.107 C 
ATOM      8  N   UNL A   1      31.939  25.073  25.992  1.00  0.00    -0.335 N 
ATOM      9  C   UNL A   1      33.185  25.225  25.279  1.00  0.00     0.134 C 
ATOM     10  C   UNL A   1      31.942  23.923  26.771  1.00  0.00     0.223 C 
ATOM     11  C   UNL A   1      33.292  23.276  26.659  1.00  0.00     0.115 C 
ATOM     12  O   UNL A   1      31.065  23.474  27.492  1.00  0.00    -0.275 OA
BRANCH   8  13
ATOM     13  C   UNL A   1      30.844  26.043  25.813  1.00  0.00     0.112 C 
ATOM     14  C   UNL A   1      30.072  25.778  24.513  1.00  0.00     0.036 C 
BRANCH  13  15
ATOM     15  C   UNL A   1      31.288  27.487  25.941  1.00  0.00    -0.023 A 
ATOM     16  C   UNL A   1      31.474  28.307  24.821  1.00  0.00     0.026 A 
ATOM     17  C   UNL A   1      31.688  27.981  27.188  1.00  0.00     0.026 A 
ATOM     18  C   UNL A   1      32.059  29.552  24.995  1.00  0.00     0.111 A 
ATOM     19  C   UNL A   1      32.253  29.245  27.258  1.00  0.00     0.111 A 
ATOM     20  N   UNL A   1      32.428  30.054  26.191  1.00  0.00    -0.265 NA
ENDBRANCH  13  15
ENDBRANCH   8  13
ENDBRANCH   4   7
ENDBRANCH   2   3
ENDBRANCH   1   2
BRANCH   1  21
ATOM     21  C   UNL A   1      37.165  22.202  25.286  1.00  0.00     0.118 C 
BRANCH  21  22
ATOM     22  N   UNL A   1      38.171  21.239  25.707  1.00  0.00    -0.352 N 
ATOM     23  C   UNL A   1      39.408  21.425  26.271  1.00  0.00     0.251 C 
ATOM     24  H   UNL A   1      37.923  20.297  25.563  1.00  0.00     0.163 HD
ATOM     25  O   UNL A   1      40.163  20.460  26.371  1.00  0.00    -0.269 OA
BRANCH  23  26
ATOM     26  C   UNL A   1      39.846  22.758  26.739  1.00  0.00     0.039 A 
ATOM     27  C   UNL A   1      40.825  22.824  27.735  1.00  0.00     0.014 A 
ATOM     28  C   UNL A   1      39.286  23.938  26.243  1.00  0.00     0.014 A 
ATOM     29  C   UNL A   1      41.280  24.065  28.183  1.00  0.00     0.010 A 
ATOM     30  C   UNL A   1      39.803  25.175  26.626  1.00  0.00     0.010 A 
ATOM     31  C   UNL A   1      40.803  25.254  27.605  1.00  0.00    -0.014 A 
BRANCH  31  32
ATOM     32  C   UNL A   1      41.384  26.567  27.994  1.00  0.00     0.031 A 
ATOM     33  C   UNL A   1      42.820  26.907  27.698  1.00  0.00     0.074 A 
ATOM     34  C   UNL A   1      40.613  27.448  28.664  1.00  0.00     0.049 A 
ATOM     35  N   UNL A   1      43.464  28.023  27.926  1.00  0.00    -0.248 NA
ATOM     36  C   UNL A   1      43.648  25.854  27.087  1.00  0.00     0.031 C 
ATOM     37  C   UNL A   1      39.235  27.204  29.097  1.00  0.00     0.029 A 
ATOM     38  N   UNL A   1      40.879  28.718  29.109  1.00  0.00    -0.354 N 
ATOM     39  C   UNL A   1      44.773  27.802  27.513  1.00  0.00     0.074 A 
ATOM     40  C   UNL A   1      44.841  26.431  27.054  1.00  0.00     0.031 C 
ATOM     41  C   UNL A   1      38.769  28.297  29.720  1.00  0.00     0.029 A 
ATOM     42  C   UNL A   1      39.821  29.307  29.761  1.00  0.00     0.049 A 
ATOM     43  H   UNL A   1      41.745  29.166  28.972  1.00  0.00     0.167 HD
ATOM     44  C   UNL A   1      45.816  28.667  27.491  1.00  0.00     0.034 A 
ATOM     45  C   UNL A   1      39.707  30.522  30.331  1.00  0.00     0.034 A 
ATOM     46  C   UNL A   1      45.740  30.036  27.931  1.00  0.00     0.049 A 
ATOM     47  C   UNL A   1      40.867  31.476  30.254  1.00  0.00     0.074 A 
ATOM     48  C   UNL A   1      46.718  31.014  27.870  1.00  0.00     0.029 A 
ATOM     49  N   UNL A   1      44.633  30.619  28.528  1.00  0.00    -0.354 N 
ATOM     50  N   UNL A   1      42.043  31.304  29.701  1.00  0.00    -0.248 NA
ATOM     51  C   UNL A   1      40.666  32.807  30.843  1.00  0.00     0.031 C 
ATOM     52  C   UNL A   1      46.214  32.177  28.464  1.00  0.00     0.029 A 
ATOM     53  C   UNL A   1      44.906  31.937  28.856  1.00  0.00     0.049 A 
ATOM     54  H   UNL A   1      43.777  30.163  28.695  1.00  0.00     0.167 HD
ATOM     55  C   UNL A   1      42.713  32.513  29.850  1.00  0.00     0.074 A 
ATOM     56  C   UNL A   1      41.794  33.418  30.510  1.00  0.00     0.031 C 
ATOM     57  C   UNL A   1      43.978  32.840  29.487  1.00  0.00     0.034 A 
BRANCH  44  58
ATOM     58  C   UNL A   1      47.128  28.171  26.934  1.00  0.00     0.023 A 
ATOM     59  C   UNL A   1      48.168  27.807  27.814  1.00  0.00     0.012 A 
ATOM     60  C   UNL A   1      47.311  28.004  25.547  1.00  0.00     0.148 A 
ATOM     61  C   UNL A   1      49.379  27.321  27.324  1.00  0.00     0.002 A 
ATOM     62  C   UNL A   1      48.504  27.473  25.068  1.00  0.00     0.091 A 
ATOM     63  F   UNL A   1      46.320  28.371  24.723  1.00  0.00    -0.205 F 
ATOM     64  C   UNL A   1      49.542  27.144  25.953  1.00  0.00     0.022 A 
BRANCH  62  65
ATOM     65  S   UNL A   1      48.783  27.124  23.328  1.00  0.00     0.127 S 
ATOM     66  O   UNL A   1      48.105  25.837  23.174  1.00  0.00    -0.237 OA
ATOM     67  O   UNL A   1      48.109  28.249  22.678  1.00  0.00    -0.237 OA
ATOM     68  O   UNL A   1      50.227  27.093  23.150  1.00  0.00    -0.744 OA
ENDBRANCH  62  65
ENDBRANCH  44  58
BRANCH  45  69
ATOM     69  C   UNL A   1      38.423  30.929  30.970  1.00  0.00     0.023 A 
ATOM     70  C   UNL A   1      38.225  30.698  32.345  1.00  0.00     0.012 A 
ATOM     71  C   UNL A   1      37.407  31.559  30.226  1.00  0.00     0.148 A 
ATOM     72  C   UNL A   1      37.024  31.052  32.960  1.00  0.00     0.002 A 
ATOM     73  C   UNL A   1      36.239  31.965  30.858  1.00  0.00     0.091 A 
ATOM     74  F   UNL A   1      37.612  31.761  28.917  1.00  0.00    -0.205 F 
ATOM     75  C   UNL A   1      36.035  31.694  32.220  1.00  0.00     0.022 A 
BRANCH  73  76
ATOM     76  S   UNL A   1      34.973  32.922  30.016  1.00  0.00     0.127 S 
ATOM     77  O   UNL A   1      34.069  33.251  31.114  1.00  0.00    -0.237 OA
ATOM     78  O   UNL A   1      35.748  34.050  29.495  1.00  0.00    -0.237 OA
ATOM     79  O   UNL A   1      34.431  32.043  28.991  1.00  0.00    -0.744 OA
ENDBRANCH  73  76
ENDBRANCH  45  69
BRANCH  57  80
ATOM     80  C   UNL A   1      44.435  34.250  29.773  1.00  0.00     0.023 A 
ATOM     81  C   UNL A   1      45.060  34.554  31.000  1.00  0.00     0.012 A 
ATOM     82  C   UNL A   1      44.261  35.271  28.818  1.00  0.00     0.148 A 
ATOM     83  C   UNL A   1      45.449  35.859  31.295  1.00  0.00     0.002 A 
ATOM     84  C   UNL A   1      44.704  36.559  29.096  1.00  0.00     0.091 A 
ATOM     85  F   UNL A   1      43.650  34.972  27.662  1.00  0.00    -0.205 F 
ATOM     86  C   UNL A   1      45.280  36.859  30.341  1.00  0.00     0.022 A 
BRANCH  84  87
ATOM     87  S   UNL A   1      44.617  37.886  27.890  1.00  0.00     0.127 S 
ATOM     88  O   UNL A   1      45.455  37.366  26.812  1.00  0.00    -0.237 OA
ATOM     89  O   UNL A   1      43.186  37.932  27.582  1.00  0.00    -0.237 OA
ATOM     90  O   UNL A   1      45.125  39.073  28.564  1.00  0.00    -0.744 OA
ENDBRANCH  84  87
ENDBRANCH  57  80
ENDBRANCH  31  32
ENDBRANCH  23  26
ENDBRANCH  21  22
ENDBRANCH   1  21
TORSDOF 15
ENDMDL
