MODEL 1
REMARK VINA RESULT:     -11.6      0.000      0.000
REMARK SMILES CN(CC(C)(C)O)C(=O)N[C@H]1CC[C@H](C(=O)NCCCNC(=O)c2ccc(-c3c4nc(c(-c5cccc(S(=O)(=O)[O-])c5F)c5ccc([nH]5)c(-c5cccc(S(=O)(=O)[O-])c5F)c5nc(c(-c6cccc(S(=O)(=O)[O-])c6F)c6ccc3[nH]6)C=C5)C=C4)cc2)C1
REMARK SMILES IDX 18 1 17 2 15 3 16 4 14 6 11 7 12 8 87 9 13 10 10 11 8 12
REMARK SMILES IDX 9 13 2 15 1 16 3 17 4 18 5 19 6 20 7 21 19 23 20 24 21 25
REMARK SMILES IDX 22 26 23 28 24 29 25 30 86 31 26 32 85 33 27 34 28 35 29 36
REMARK SMILES IDX 79 37 30 38 84 39 78 40 80 41 31 42 83 43 77 44 76 45 32 47
REMARK SMILES IDX 64 48 44 49 63 50 45 51 48 52 62 53 81 54 46 55 47 56 61 58
REMARK SMILES IDX 82 59 49 60 33 61 34 62 42 63 35 64 37 65 43 66 36 67 38 68
REMARK SMILES IDX 39 69 40 70 41 71 65 72 66 73 74 74 67 75 69 76 75 77 68 78
REMARK SMILES IDX 70 79 71 80 72 81 73 82 50 83 51 84 59 85 52 86 54 87 60 88
REMARK SMILES IDX 53 89 55 90 56 91 57 92 58 93
REMARK H PARENT 17 5 10 14 7 22 21 27 80 46 48 57
REMARK Flexibility Score: inf
ROOT
ATOM      1  C   UNL A   1      31.875  30.503  26.555  1.00  0.00     0.117 C 
ENDROOT
BRANCH   1   2
ATOM      2  N   UNL A   1      32.319  30.090  25.231  1.00  0.00    -0.356 N 
ATOM      3  C   UNL A   1      32.023  29.002  24.469  1.00  0.00     0.223 C 
ATOM      4  O   UNL A   1      32.623  28.877  23.399  1.00  0.00    -0.275 OA
ATOM      5  H   UNL A   1      32.952  30.715  24.809  1.00  0.00     0.163 HD
BRANCH   3   6
ATOM      6  C   UNL A   1      30.901  28.046  24.837  1.00  0.00     0.080 C 
ATOM      7  C   UNL A   1      30.792  25.589  24.769  1.00  0.00     0.084 C 
ATOM      8  C   UNL A   1      29.778  26.145  23.764  1.00  0.00     0.026 C 
ATOM      9  C   UNL A   1      31.517  26.775  25.376  1.00  0.00     0.038 C 
ATOM     10  C   UNL A   1      29.937  27.661  23.728  1.00  0.00     0.015 C 
BRANCH   7  11
ATOM     11  N   UNL A   1      30.181  24.736  25.768  1.00  0.00    -0.335 N 
ATOM     12  C   UNL A   1      30.574  23.614  26.402  1.00  0.00     0.317 C 
ATOM     13  O   UNL A   1      29.893  23.299  27.385  1.00  0.00    -0.249 OA
ATOM     14  H   UNL A   1      29.287  25.043  26.044  1.00  0.00     0.165 HD
BRANCH  12  15
ATOM     15  N   UNL A   1      31.692  22.908  26.047  1.00  0.00    -0.325 N 
ATOM     16  C   UNL A   1      32.902  23.302  26.760  1.00  0.00     0.148 C 
BRANCH  15  17
ATOM     17  C   UNL A   1      31.878  21.852  25.036  1.00  0.00     0.155 C 
BRANCH  17  18
ATOM     18  C   UNL A   1      32.104  22.193  23.537  1.00  0.00     0.077 C 
ATOM     19  C   UNL A   1      33.344  23.001  23.158  1.00  0.00     0.043 C 
ATOM     20  C   UNL A   1      32.132  20.851  22.774  1.00  0.00     0.043 C 
BRANCH  18  21
ATOM     21  O   UNL A   1      30.950  22.918  23.079  1.00  0.00    -0.389 OA
ATOM     22  H   UNL A   1      30.211  22.303  22.952  1.00  0.00     0.211 HD
ENDBRANCH  18  21
ENDBRANCH  17  18
ENDBRANCH  15  17
ENDBRANCH  12  15
ENDBRANCH   7  11
ENDBRANCH   3   6
ENDBRANCH   1   2
BRANCH   1  23
ATOM     23  C   UNL A   1      31.709  32.010  26.640  1.00  0.00     0.042 C 
BRANCH  23  24
ATOM     24  C   UNL A   1      32.812  32.686  27.439  1.00  0.00     0.118 C 
BRANCH  24  25
ATOM     25  N   UNL A   1      32.547  34.098  27.682  1.00  0.00    -0.352 N 
ATOM     26  C   UNL A   1      33.110  34.937  28.618  1.00  0.00     0.251 C 
ATOM     27  H   UNL A   1      31.872  34.510  27.095  1.00  0.00     0.163 HD
ATOM     28  O   UNL A   1      32.644  36.053  28.796  1.00  0.00    -0.269 OA
BRANCH  26  29
ATOM     29  C   UNL A   1      34.258  34.461  29.422  1.00  0.00     0.039 A 
ATOM     30  C   UNL A   1      34.013  33.763  30.606  1.00  0.00     0.014 A 
ATOM     31  C   UNL A   1      35.567  34.673  28.988  1.00  0.00     0.014 A 
ATOM     32  C   UNL A   1      35.085  33.215  31.315  1.00  0.00     0.010 A 
ATOM     33  C   UNL A   1      36.619  34.035  29.633  1.00  0.00     0.010 A 
ATOM     34  C   UNL A   1      36.394  33.312  30.812  1.00  0.00    -0.014 A 
BRANCH  34  35
ATOM     35  C   UNL A   1      37.545  32.679  31.505  1.00  0.00     0.031 A 
ATOM     36  C   UNL A   1      38.273  31.531  30.855  1.00  0.00     0.074 A 
ATOM     37  C   UNL A   1      37.877  33.068  32.752  1.00  0.00     0.049 A 
ATOM     38  N   UNL A   1      39.243  30.795  31.329  1.00  0.00    -0.248 NA
ATOM     39  C   UNL A   1      37.829  31.138  29.505  1.00  0.00     0.031 C 
ATOM     40  C   UNL A   1      37.200  34.115  33.522  1.00  0.00     0.029 A 
ATOM     41  N   UNL A   1      38.850  32.610  33.605  1.00  0.00    -0.354 N 
ATOM     42  C   UNL A   1      39.496  29.831  30.361  1.00  0.00     0.074 A 
ATOM     43  C   UNL A   1      38.551  30.048  29.289  1.00  0.00     0.031 C 
ATOM     44  C   UNL A   1      37.782  34.222  34.727  1.00  0.00     0.029 A 
ATOM     45  C   UNL A   1      38.846  33.229  34.833  1.00  0.00     0.049 A 
ATOM     46  H   UNL A   1      39.491  31.904  33.359  1.00  0.00     0.167 HD
ATOM     47  C   UNL A   1      40.449  28.869  30.347  1.00  0.00     0.034 A 
ATOM     48  C   UNL A   1      39.604  33.013  35.926  1.00  0.00     0.034 A 
ATOM     49  C   UNL A   1      41.415  28.683  31.395  1.00  0.00     0.049 A 
ATOM     50  C   UNL A   1      40.677  31.958  35.874  1.00  0.00     0.074 A 
ATOM     51  C   UNL A   1      42.476  27.797  31.437  1.00  0.00     0.029 A 
ATOM     52  N   UNL A   1      41.431  29.385  32.590  1.00  0.00    -0.354 N 
ATOM     53  N   UNL A   1      41.001  31.159  34.886  1.00  0.00    -0.248 NA
ATOM     54  C   UNL A   1      41.511  31.799  37.073  1.00  0.00     0.031 C 
ATOM     55  C   UNL A   1      43.115  27.941  32.673  1.00  0.00     0.029 A 
ATOM     56  C   UNL A   1      42.476  28.945  33.384  1.00  0.00     0.049 A 
ATOM     57  H   UNL A   1      40.793  30.093  32.838  1.00  0.00     0.167 HD
ATOM     58  C   UNL A   1      42.099  30.430  35.330  1.00  0.00     0.074 A 
ATOM     59  C   UNL A   1      42.396  30.899  36.668  1.00  0.00     0.031 C 
ATOM     60  C   UNL A   1      42.792  29.454  34.693  1.00  0.00     0.034 A 
BRANCH  47  61
ATOM     61  C   UNL A   1      40.520  27.970  29.140  1.00  0.00     0.023 A 
ATOM     62  C   UNL A   1      39.637  26.877  29.028  1.00  0.00     0.012 A 
ATOM     63  C   UNL A   1      41.423  28.237  28.093  1.00  0.00     0.148 A 
ATOM     64  C   UNL A   1      39.678  26.040  27.913  1.00  0.00     0.002 A 
ATOM     65  C   UNL A   1      41.424  27.429  26.962  1.00  0.00     0.091 A 
ATOM     66  F   UNL A   1      42.270  29.268  28.225  1.00  0.00    -0.205 F 
ATOM     67  C   UNL A   1      40.562  26.323  26.877  1.00  0.00     0.022 A 
BRANCH  65  68
ATOM     68  S   UNL A   1      42.464  27.757  25.535  1.00  0.00     0.127 S 
ATOM     69  O   UNL A   1      42.247  26.555  24.731  1.00  0.00    -0.237 OA
ATOM     70  O   UNL A   1      41.860  28.972  24.989  1.00  0.00    -0.237 OA
ATOM     71  O   UNL A   1      43.814  27.927  26.053  1.00  0.00    -0.744 OA
ENDBRANCH  65  68
ENDBRANCH  47  61
BRANCH  48  72
ATOM     72  C   UNL A   1      39.412  33.847  37.146  1.00  0.00     0.023 A 
ATOM     73  C   UNL A   1      39.855  35.185  37.149  1.00  0.00     0.012 A 
ATOM     74  C   UNL A   1      38.780  33.331  38.294  1.00  0.00     0.148 A 
ATOM     75  C   UNL A   1      39.706  35.981  38.285  1.00  0.00     0.002 A 
ATOM     76  C   UNL A   1      38.581  34.148  39.400  1.00  0.00     0.091 A 
ATOM     77  F   UNL A   1      38.371  32.055  38.274  1.00  0.00    -0.205 F 
ATOM     78  C   UNL A   1      39.061  35.467  39.406  1.00  0.00     0.022 A 
BRANCH  76  79
ATOM     79  S   UNL A   1      37.643  33.614  40.836  1.00  0.00     0.127 S 
ATOM     80  O   UNL A   1      36.341  33.312  40.247  1.00  0.00    -0.237 OA
ATOM     81  O   UNL A   1      38.408  32.446  41.276  1.00  0.00    -0.237 OA
ATOM     82  O   UNL A   1      37.673  34.735  41.765  1.00  0.00    -0.744 OA
ENDBRANCH  76  79
ENDBRANCH  48  72
BRANCH  60  83
ATOM     83  C   UNL A   1      43.973  28.852  35.408  1.00  0.00     0.023 A 
ATOM     84  C   UNL A   1      45.255  29.414  35.251  1.00  0.00     0.012 A 
ATOM     85  C   UNL A   1      43.794  27.771  36.294  1.00  0.00     0.148 A 
ATOM     86  C   UNL A   1      46.347  28.887  35.939  1.00  0.00     0.002 A 
ATOM     87  C   UNL A   1      44.877  27.286  37.018  1.00  0.00     0.091 A 
ATOM     88  F   UNL A   1      42.569  27.239  36.416  1.00  0.00    -0.205 F 
ATOM     89  C   UNL A   1      46.157  27.834  36.830  1.00  0.00     0.022 A 
BRANCH  87  90
ATOM     90  S   UNL A   1      44.709  26.001  38.260  1.00  0.00     0.127 S 
ATOM     91  O   UNL A   1      46.103  25.626  38.492  1.00  0.00    -0.237 OA
ATOM     92  O   UNL A   1      44.077  26.720  39.366  1.00  0.00    -0.237 OA
ATOM     93  O   UNL A   1      43.877  24.966  37.659  1.00  0.00    -0.744 OA
ENDBRANCH  87  90
ENDBRANCH  60  83
ENDBRANCH  34  35
ENDBRANCH  26  29
ENDBRANCH  24  25
ENDBRANCH  23  24
ENDBRANCH   1  23
TORSDOF 18
ENDMDL
MODEL 2
REMARK VINA RESULT:     -11.2      5.943     12.027
REMARK SMILES CN(CC(C)(C)O)C(=O)N[C@H]1CC[C@H](C(=O)NCCCNC(=O)c2ccc(-c3c4nc(c(-c5cccc(S(=O)(=O)[O-])c5F)c5ccc([nH]5)c(-c5cccc(S(=O)(=O)[O-])c5F)c5nc(c(-c6cccc(S(=O)(=O)[O-])c6F)c6ccc3[nH]6)C=C5)C=C4)cc2)C1
REMARK SMILES IDX 18 1 17 2 15 3 16 4 14 6 11 7 12 8 87 9 13 10 10 11 8 12
REMARK SMILES IDX 9 13 2 15 1 16 3 17 4 18 5 19 6 20 7 21 19 23 20 24 21 25
REMARK SMILES IDX 22 26 23 28 24 29 25 30 86 31 26 32 85 33 27 34 28 35 29 36
REMARK SMILES IDX 79 37 30 38 84 39 78 40 80 41 31 42 83 43 77 44 76 45 32 47
REMARK SMILES IDX 64 48 44 49 63 50 45 51 48 52 62 53 81 54 46 55 47 56 61 58
REMARK SMILES IDX 82 59 49 60 33 61 34 62 42 63 35 64 37 65 43 66 36 67 38 68
REMARK SMILES IDX 39 69 40 70 41 71 65 72 66 73 74 74 67 75 69 76 75 77 68 78
REMARK SMILES IDX 70 79 71 80 72 81 73 82 50 83 51 84 59 85 52 86 54 87 60 88
REMARK SMILES IDX 53 89 55 90 56 91 57 92 58 93
REMARK H PARENT 17 5 10 14 7 22 21 27 80 46 48 57
REMARK Flexibility Score: inf
ROOT
ATOM      1  C   UNL A   1      36.721  21.320  25.316  1.00  0.00     0.117 C 
ENDROOT
BRANCH   1   2
ATOM      2  N   UNL A   1      35.482  20.767  25.846  1.00  0.00    -0.356 N 
ATOM      3  C   UNL A   1      34.203  20.786  25.382  1.00  0.00     0.223 C 
ATOM      4  O   UNL A   1      33.329  20.292  26.099  1.00  0.00    -0.275 OA
ATOM      5  H   UNL A   1      35.591  20.291  26.701  1.00  0.00     0.163 HD
BRANCH   3   6
ATOM      6  C   UNL A   1      33.866  21.265  23.979  1.00  0.00     0.080 C 
ATOM      7  C   UNL A   1      32.365  23.055  23.206  1.00  0.00     0.084 C 
ATOM      8  C   UNL A   1      31.811  21.713  22.713  1.00  0.00     0.026 C 
ATOM      9  C   UNL A   1      33.598  22.752  24.035  1.00  0.00     0.038 C 
ATOM     10  C   UNL A   1      32.681  20.605  23.296  1.00  0.00     0.015 C 
BRANCH   7  11
ATOM     11  N   UNL A   1      32.632  23.981  22.125  1.00  0.00    -0.335 N 
ATOM     12  C   UNL A   1      32.785  25.319  22.060  1.00  0.00     0.317 C 
ATOM     13  O   UNL A   1      33.258  25.743  21.000  1.00  0.00    -0.249 OA
ATOM     14  H   UNL A   1      32.722  23.540  21.250  1.00  0.00     0.165 HD
BRANCH  12  15
ATOM     15  N   UNL A   1      32.521  26.153  23.113  1.00  0.00    -0.325 N 
ATOM     16  C   UNL A   1      33.703  26.567  23.862  1.00  0.00     0.148 C 
BRANCH  15  17
ATOM     17  C   UNL A   1      31.241  26.659  23.637  1.00  0.00     0.155 C 
BRANCH  17  18
ATOM     18  C   UNL A   1      30.516  27.869  22.984  1.00  0.00     0.077 C 
ATOM     19  C   UNL A   1      28.999  27.972  23.138  1.00  0.00     0.043 C 
ATOM     20  C   UNL A   1      31.163  29.144  23.566  1.00  0.00     0.043 C 
BRANCH  18  21
ATOM     21  O   UNL A   1      30.814  27.845  21.578  1.00  0.00    -0.389 OA
ATOM     22  H   UNL A   1      30.803  28.750  21.229  1.00  0.00     0.211 HD
ENDBRANCH  18  21
ENDBRANCH  17  18
ENDBRANCH  15  17
ENDBRANCH  12  15
ENDBRANCH   7  11
ENDBRANCH   3   6
ENDBRANCH   1   2
BRANCH   1  23
ATOM     23  C   UNL A   1      37.772  20.242  25.121  1.00  0.00     0.042 C 
BRANCH  23  24
ATOM     24  C   UNL A   1      39.129  20.624  25.690  1.00  0.00     0.118 C 
BRANCH  24  25
ATOM     25  N   UNL A   1      40.023  19.482  25.832  1.00  0.00    -0.352 N 
ATOM     26  C   UNL A   1      41.381  19.467  26.059  1.00  0.00     0.251 C 
ATOM     27  H   UNL A   1      39.596  18.598  25.755  1.00  0.00     0.163 HD
ATOM     28  O   UNL A   1      42.002  18.418  25.979  1.00  0.00    -0.269 OA
BRANCH  26  29
ATOM     29  C   UNL A   1      42.079  20.736  26.369  1.00  0.00     0.039 A 
ATOM     30  C   UNL A   1      42.492  21.556  25.317  1.00  0.00     0.014 A 
ATOM     31  C   UNL A   1      42.289  21.128  27.692  1.00  0.00     0.014 A 
ATOM     32  C   UNL A   1      43.053  22.805  25.599  1.00  0.00     0.010 A 
ATOM     33  C   UNL A   1      42.743  22.412  27.966  1.00  0.00     0.010 A 
ATOM     34  C   UNL A   1      43.146  23.259  26.925  1.00  0.00    -0.014 A 
BRANCH  34  35
ATOM     35  C   UNL A   1      43.670  24.610  27.252  1.00  0.00     0.031 A 
ATOM     36  C   UNL A   1      42.734  25.676  27.759  1.00  0.00     0.074 A 
ATOM     37  C   UNL A   1      44.962  24.908  27.006  1.00  0.00     0.049 A 
ATOM     38  N   UNL A   1      42.979  26.933  28.021  1.00  0.00    -0.248 NA
ATOM     39  C   UNL A   1      41.328  25.285  27.969  1.00  0.00     0.031 C 
ATOM     40  C   UNL A   1      45.952  23.987  26.442  1.00  0.00     0.029 A 
ATOM     41  N   UNL A   1      45.658  26.079  27.172  1.00  0.00    -0.354 N 
ATOM     42  C   UNL A   1      41.759  27.489  28.383  1.00  0.00     0.074 A 
ATOM     43  C   UNL A   1      40.765  26.446  28.268  1.00  0.00     0.031 C 
ATOM     44  C   UNL A   1      47.126  24.626  26.316  1.00  0.00     0.029 A 
ATOM     45  C   UNL A   1      46.966  26.010  26.752  1.00  0.00     0.049 A 
ATOM     46  H   UNL A   1      45.258  26.893  27.556  1.00  0.00     0.167 HD
ATOM     47  C   UNL A   1      41.490  28.748  28.804  1.00  0.00     0.034 A 
ATOM     48  C   UNL A   1      47.924  26.955  26.709  1.00  0.00     0.034 A 
ATOM     49  C   UNL A   1      42.487  29.772  28.958  1.00  0.00     0.049 A 
ATOM     50  C   UNL A   1      47.609  28.338  27.212  1.00  0.00     0.074 A 
ATOM     51  C   UNL A   1      42.334  31.051  29.462  1.00  0.00     0.029 A 
ATOM     52  N   UNL A   1      43.819  29.639  28.600  1.00  0.00    -0.354 N 
ATOM     53  N   UNL A   1      46.482  28.803  27.697  1.00  0.00    -0.248 NA
ATOM     54  C   UNL A   1      48.703  29.318  27.194  1.00  0.00     0.031 C 
ATOM     55  C   UNL A   1      43.569  31.703  29.378  1.00  0.00     0.029 A 
ATOM     56  C   UNL A   1      44.499  30.816  28.859  1.00  0.00     0.049 A 
ATOM     57  H   UNL A   1      44.223  28.826  28.218  1.00  0.00     0.167 HD
ATOM     58  C   UNL A   1      46.743  30.115  28.077  1.00  0.00     0.074 A 
ATOM     59  C   UNL A   1      48.139  30.363  27.785  1.00  0.00     0.031 C 
ATOM     60  C   UNL A   1      45.901  31.034  28.610  1.00  0.00     0.034 A 
BRANCH  47  61
ATOM     61  C   UNL A   1      40.066  29.076  29.169  1.00  0.00     0.023 A 
ATOM     62  C   UNL A   1      39.124  29.335  28.152  1.00  0.00     0.012 A 
ATOM     63  C   UNL A   1      39.646  29.076  30.514  1.00  0.00     0.148 A 
ATOM     64  C   UNL A   1      37.798  29.628  28.468  1.00  0.00     0.002 A 
ATOM     65  C   UNL A   1      38.312  29.319  30.818  1.00  0.00     0.091 A 
ATOM     66  F   UNL A   1      40.559  28.848  31.469  1.00  0.00    -0.205 F 
ATOM     67  C   UNL A   1      37.390  29.609  29.798  1.00  0.00     0.022 A 
BRANCH  65  68
ATOM     68  S   UNL A   1      37.667  29.233  32.492  1.00  0.00     0.127 S 
ATOM     69  O   UNL A   1      36.300  29.718  32.305  1.00  0.00    -0.237 OA
ATOM     70  O   UNL A   1      37.771  27.804  32.787  1.00  0.00    -0.237 OA
ATOM     71  O   UNL A   1      38.527  30.086  33.299  1.00  0.00    -0.744 OA
ENDBRANCH  65  68
ENDBRANCH  47  61
BRANCH  48  72
ATOM     72  C   UNL A   1      49.291  26.614  26.221  1.00  0.00     0.023 A 
ATOM     73  C   UNL A   1      50.129  25.804  27.012  1.00  0.00     0.012 A 
ATOM     74  C   UNL A   1      49.757  27.070  24.972  1.00  0.00     0.148 A 
ATOM     75  C   UNL A   1      51.420  25.487  26.588  1.00  0.00     0.002 A 
ATOM     76  C   UNL A   1      51.021  26.701  24.529  1.00  0.00     0.091 A 
ATOM     77  F   UNL A   1      48.947  27.845  24.237  1.00  0.00    -0.205 F 
ATOM     78  C   UNL A   1      51.862  25.927  25.343  1.00  0.00     0.022 A 
BRANCH  76  79
ATOM     79  S   UNL A   1      51.623  27.108  22.886  1.00  0.00     0.127 S 
ATOM     80  O   UNL A   1      52.719  26.155  22.725  1.00  0.00    -0.237 OA
ATOM     81  O   UNL A   1      50.445  26.839  22.060  1.00  0.00    -0.237 OA
ATOM     82  O   UNL A   1      52.008  28.511  22.944  1.00  0.00    -0.744 OA
ENDBRANCH  76  79
ENDBRANCH  48  72
BRANCH  60  83
ATOM     83  C   UNL A   1      46.468  32.385  28.960  1.00  0.00     0.023 A 
ATOM     84  C   UNL A   1      47.021  32.609  30.235  1.00  0.00     0.012 A 
ATOM     85  C   UNL A   1      46.517  33.410  27.993  1.00  0.00     0.148 A 
ATOM     86  C   UNL A   1      47.583  33.845  30.555  1.00  0.00     0.002 A 
ATOM     87  C   UNL A   1      47.128  34.619  28.301  1.00  0.00     0.091 A 
ATOM     88  F   UNL A   1      45.969  33.181  26.790  1.00  0.00    -0.205 F 
ATOM     89  C   UNL A   1      47.648  34.843  29.586  1.00  0.00     0.022 A 
BRANCH  87  90
ATOM     90  S   UNL A   1      47.346  35.925  27.088  1.00  0.00     0.127 S 
ATOM     91  O   UNL A   1      47.607  37.083  27.941  1.00  0.00    -0.237 OA
ATOM     92  O   UNL A   1      48.504  35.452  26.329  1.00  0.00    -0.237 OA
ATOM     93  O   UNL A   1      46.105  35.979  26.327  1.00  0.00    -0.744 OA
ENDBRANCH  87  90
ENDBRANCH  60  83
ENDBRANCH  34  35
ENDBRANCH  26  29
ENDBRANCH  24  25
ENDBRANCH  23  24
ENDBRANCH   1  23
TORSDOF 18
ENDMDL
MODEL 3
REMARK VINA RESULT:     -11.2      1.557      7.874
REMARK SMILES CN(CC(C)(C)O)C(=O)N[C@H]1CC[C@H](C(=O)NCCCNC(=O)c2ccc(-c3c4nc(c(-c5cccc(S(=O)(=O)[O-])c5F)c5ccc([nH]5)c(-c5cccc(S(=O)(=O)[O-])c5F)c5nc(c(-c6cccc(S(=O)(=O)[O-])c6F)c6ccc3[nH]6)C=C5)C=C4)cc2)C1
REMARK SMILES IDX 18 1 17 2 15 3 16 4 14 6 11 7 12 8 87 9 13 10 10 11 8 12
REMARK SMILES IDX 9 13 2 15 1 16 3 17 4 18 5 19 6 20 7 21 19 23 20 24 21 25
REMARK SMILES IDX 22 26 23 28 24 29 25 30 86 31 26 32 85 33 27 34 28 35 29 36
REMARK SMILES IDX 79 37 30 38 84 39 78 40 80 41 31 42 83 43 77 44 76 45 32 47
REMARK SMILES IDX 64 48 44 49 63 50 45 51 48 52 62 53 81 54 46 55 47 56 61 58
REMARK SMILES IDX 82 59 49 60 33 61 34 62 42 63 35 64 37 65 43 66 36 67 38 68
REMARK SMILES IDX 39 69 40 70 41 71 65 72 66 73 74 74 67 75 69 76 75 77 68 78
REMARK SMILES IDX 70 79 71 80 72 81 73 82 50 83 51 84 59 85 52 86 54 87 60 88
REMARK SMILES IDX 53 89 55 90 56 91 57 92 58 93
REMARK H PARENT 17 5 10 14 7 22 21 27 80 46 48 57
REMARK Flexibility Score: inf
ROOT
ATOM      1  C   UNL A   1      31.645  30.286  26.153  1.00  0.00     0.117 C 
ENDROOT
BRANCH   1   2
ATOM      2  N   UNL A   1      31.639  30.041  24.719  1.00  0.00    -0.356 N 
ATOM      3  C   UNL A   1      31.313  28.943  23.982  1.00  0.00     0.223 C 
ATOM      4  O   UNL A   1      31.485  29.004  22.763  1.00  0.00    -0.275 OA
ATOM      5  H   UNL A   1      31.926  30.813  24.180  1.00  0.00     0.163 HD
BRANCH   3   6
ATOM      6  C   UNL A   1      30.633  27.734  24.603  1.00  0.00     0.080 C 
ATOM      7  C   UNL A   1      31.336  25.380  24.732  1.00  0.00     0.084 C 
ATOM      8  C   UNL A   1      30.067  25.458  23.876  1.00  0.00     0.026 C 
ATOM      9  C   UNL A   1      31.702  26.799  25.121  1.00  0.00     0.038 C 
ATOM     10  C   UNL A   1      29.709  26.931  23.705  1.00  0.00     0.015 C 
BRANCH   7  11
ATOM     11  N   UNL A   1      31.184  24.508  25.878  1.00  0.00    -0.335 N 
ATOM     12  C   UNL A   1      31.944  23.534  26.416  1.00  0.00     0.317 C 
ATOM     13  O   UNL A   1      31.614  23.174  27.551  1.00  0.00    -0.249 OA
ATOM     14  H   UNL A   1      30.346  24.660  26.372  1.00  0.00     0.165 HD
BRANCH  12  15
ATOM     15  N   UNL A   1      33.056  23.027  25.798  1.00  0.00    -0.325 N 
ATOM     16  C   UNL A   1      34.293  23.734  26.112  1.00  0.00     0.148 C 
BRANCH  15  17
ATOM     17  C   UNL A   1      33.197  21.919  24.837  1.00  0.00     0.155 C 
BRANCH  17  18
ATOM     18  C   UNL A   1      33.525  20.473  25.305  1.00  0.00     0.077 C 
ATOM     19  C   UNL A   1      32.710  19.321  24.717  1.00  0.00     0.043 C 
ATOM     20  C   UNL A   1      35.019  20.233  24.997  1.00  0.00     0.043 C 
BRANCH  18  21
ATOM     21  O   UNL A   1      33.373  20.435  26.734  1.00  0.00    -0.389 OA
ATOM     22  H   UNL A   1      33.041  21.291  27.046  1.00  0.00     0.211 HD
ENDBRANCH  18  21
ENDBRANCH  17  18
ENDBRANCH  15  17
ENDBRANCH  12  15
ENDBRANCH   7  11
ENDBRANCH   3   6
ENDBRANCH   1   2
BRANCH   1  23
ATOM     23  C   UNL A   1      31.500  31.766  26.464  1.00  0.00     0.042 C 
BRANCH  23  24
ATOM     24  C   UNL A   1      32.721  32.349  27.158  1.00  0.00     0.118 C 
BRANCH  24  25
ATOM     25  N   UNL A   1      32.551  33.753  27.510  1.00  0.00    -0.352 N 
ATOM     26  C   UNL A   1      33.193  34.487  28.482  1.00  0.00     0.251 C 
ATOM     27  H   UNL A   1      31.885  34.246  26.978  1.00  0.00     0.163 HD
ATOM     28  O   UNL A   1      32.803  35.612  28.756  1.00  0.00    -0.269 OA
BRANCH  26  29
ATOM     29  C   UNL A   1      34.334  33.886  29.210  1.00  0.00     0.039 A 
ATOM     30  C   UNL A   1      34.080  32.965  30.227  1.00  0.00     0.014 A 
ATOM     31  C   UNL A   1      35.647  34.205  28.862  1.00  0.00     0.014 A 
ATOM     32  C   UNL A   1      35.149  32.311  30.846  1.00  0.00     0.010 A 
ATOM     33  C   UNL A   1      36.700  33.475  29.399  1.00  0.00     0.010 A 
ATOM     34  C   UNL A   1      36.466  32.531  30.408  1.00  0.00    -0.014 A 
BRANCH  34  35
ATOM     35  C   UNL A   1      37.617  31.798  30.996  1.00  0.00     0.031 A 
ATOM     36  C   UNL A   1      38.038  32.077  32.414  1.00  0.00     0.074 A 
ATOM     37  C   UNL A   1      38.339  30.956  30.230  1.00  0.00     0.049 A 
ATOM     38  N   UNL A   1      39.059  31.606  33.080  1.00  0.00    -0.248 NA
ATOM     39  C   UNL A   1      37.220  33.038  33.178  1.00  0.00     0.031 C 
ATOM     40  C   UNL A   1      38.081  30.660  28.819  1.00  0.00     0.029 A 
ATOM     41  N   UNL A   1      39.456  30.214  30.524  1.00  0.00    -0.354 N 
ATOM     42  C   UNL A   1      39.033  32.240  34.315  1.00  0.00     0.074 A 
ATOM     43  C   UNL A   1      37.920  33.161  34.296  1.00  0.00     0.031 C 
ATOM     44  C   UNL A   1      39.008  29.797  28.373  1.00  0.00     0.029 A 
ATOM     45  C   UNL A   1      39.948  29.507  29.452  1.00  0.00     0.049 A 
ATOM     46  H   UNL A   1      39.867  30.191  31.419  1.00  0.00     0.167 HD
ATOM     47  C   UNL A   1      39.843  32.053  35.385  1.00  0.00     0.034 A 
ATOM     48  C   UNL A   1      41.038  28.723  29.344  1.00  0.00     0.034 A 
ATOM     49  C   UNL A   1      40.923  31.106  35.416  1.00  0.00     0.049 A 
ATOM     50  C   UNL A   1      41.904  28.507  30.556  1.00  0.00     0.074 A 
ATOM     51  C   UNL A   1      41.745  30.776  36.478  1.00  0.00     0.029 A 
ATOM     52  N   UNL A   1      41.339  30.345  34.335  1.00  0.00    -0.354 N 
ATOM     53  N   UNL A   1      41.771  28.999  31.764  1.00  0.00    -0.248 NA
ATOM     54  C   UNL A   1      43.051  27.602  30.401  1.00  0.00     0.031 C 
ATOM     55  C   UNL A   1      42.681  29.838  36.029  1.00  0.00     0.029 A 
ATOM     56  C   UNL A   1      42.416  29.555  34.699  1.00  0.00     0.049 A 
ATOM     57  H   UNL A   1      40.930  30.364  33.439  1.00  0.00     0.167 HD
ATOM     58  C   UNL A   1      42.791  28.434  32.522  1.00  0.00     0.074 A 
ATOM     59  C   UNL A   1      43.521  27.547  31.640  1.00  0.00     0.031 C 
ATOM     60  C   UNL A   1      43.103  28.639  33.825  1.00  0.00     0.034 A 
BRANCH  47  61
ATOM     61  C   UNL A   1      39.563  32.861  36.625  1.00  0.00     0.023 A 
ATOM     62  C   UNL A   1      40.175  34.121  36.794  1.00  0.00     0.012 A 
ATOM     63  C   UNL A   1      38.655  32.399  37.598  1.00  0.00     0.148 A 
ATOM     64  C   UNL A   1      39.920  34.889  37.929  1.00  0.00     0.002 A 
ATOM     65  C   UNL A   1      38.367  33.194  38.702  1.00  0.00     0.091 A 
ATOM     66  F   UNL A   1      38.099  31.192  37.433  1.00  0.00    -0.205 F 
ATOM     67  C   UNL A   1      39.009  34.432  38.876  1.00  0.00     0.022 A 
BRANCH  65  68
ATOM     68  S   UNL A   1      37.145  32.735  39.936  1.00  0.00     0.127 S 
ATOM     69  O   UNL A   1      35.926  32.667  39.131  1.00  0.00    -0.237 OA
ATOM     70  O   UNL A   1      37.645  31.439  40.394  1.00  0.00    -0.237 OA
ATOM     71  O   UNL A   1      37.172  33.789  40.940  1.00  0.00    -0.744 OA
ENDBRANCH  65  68
ENDBRANCH  47  61
BRANCH  48  72
ATOM     72  C   UNL A   1      41.345  28.041  28.056  1.00  0.00     0.023 A 
ATOM     73  C   UNL A   1      41.791  28.801  26.956  1.00  0.00     0.012 A 
ATOM     74  C   UNL A   1      41.217  26.645  27.917  1.00  0.00     0.148 A 
ATOM     75  C   UNL A   1      42.065  28.189  25.732  1.00  0.00     0.002 A 
ATOM     76  C   UNL A   1      41.549  26.035  26.714  1.00  0.00     0.091 A 
ATOM     77  F   UNL A   1      40.785  25.940  28.973  1.00  0.00    -0.205 F 
ATOM     78  C   UNL A   1      41.954  26.807  25.614  1.00  0.00     0.022 A 
BRANCH  76  79
ATOM     79  S   UNL A   1      41.565  24.250  26.510  1.00  0.00     0.127 S 
ATOM     80  O   UNL A   1      42.378  24.094  25.306  1.00  0.00    -0.237 OA
ATOM     81  O   UNL A   1      42.207  23.813  27.750  1.00  0.00    -0.237 OA
ATOM     82  O   UNL A   1      40.169  23.855  26.386  1.00  0.00    -0.744 OA
ENDBRANCH  76  79
ENDBRANCH  48  72
BRANCH  60  83
ATOM     83  C   UNL A   1      44.255  27.858  34.402  1.00  0.00     0.023 A 
ATOM     84  C   UNL A   1      45.562  28.380  34.341  1.00  0.00     0.012 A 
ATOM     85  C   UNL A   1      44.026  26.639  35.070  1.00  0.00     0.148 A 
ATOM     86  C   UNL A   1      46.629  27.682  34.906  1.00  0.00     0.002 A 
ATOM     87  C   UNL A   1      45.086  25.977  35.679  1.00  0.00     0.091 A 
ATOM     88  F   UNL A   1      42.777  26.151  35.102  1.00  0.00    -0.205 F 
ATOM     89  C   UNL A   1      46.389  26.490  35.584  1.00  0.00     0.022 A 
BRANCH  87  90
ATOM     90  S   UNL A   1      44.858  24.489  36.658  1.00  0.00     0.127 S 
ATOM     91  O   UNL A   1      46.209  24.257  37.164  1.00  0.00    -0.237 OA
ATOM     92  O   UNL A   1      43.895  24.929  37.668  1.00  0.00    -0.237 OA
ATOM     93  O   UNL A   1      44.353  23.476  35.741  1.00  0.00    -0.744 OA
ENDBRANCH  87  90
ENDBRANCH  60  83
ENDBRANCH  34  35
ENDBRANCH  26  29
ENDBRANCH  24  25
ENDBRANCH  23  24
ENDBRANCH   1  23
TORSDOF 18
ENDMDL
