MODEL 1
REMARK VINA RESULT:     -11.0      0.000      0.000
REMARK SMILES C[N@H+](C[C@H]1CCC[N@@H+]1C)C[C@]([NH3+])(C(=O)NCCCNC(=O)c1ccc(-c2c3nc(c(-c4cccc(S(=O)(=O)[O-])c4F)c4ccc([nH]4)c(-c4cccc(S(=O)(=O)[O-])c4F)c4nc(c(-c5cccc(S(=O)(=O)[O-])c5F)c5ccc2[nH]5)C=C4)C=C3)cc1)c1ccccc1
REMARK SMILES IDX 16 1 15 2 13 3 14 4 11 6 10 7 2 8 1 9 3 11 4 12 5 13 8 14
REMARK SMILES IDX 6 15 7 16 9 17 85 19 86 20 90 21 87 22 89 23 88 24 12 25
REMARK SMILES IDX 17 29 18 30 19 31 20 32 21 34 22 35 23 36 84 37 24 38 83 39
REMARK SMILES IDX 25 40 26 41 27 42 77 43 28 44 82 45 76 46 78 47 29 48 81 49
REMARK SMILES IDX 75 50 74 51 30 53 62 54 42 55 61 56 43 57 46 58 60 59 79 60
REMARK SMILES IDX 44 61 45 62 59 64 80 65 47 66 31 67 32 68 40 69 33 70 35 71
REMARK SMILES IDX 41 72 34 73 36 74 37 75 38 76 39 77 63 78 64 79 72 80 65 81
REMARK SMILES IDX 67 82 73 83 66 84 68 85 69 86 70 87 71 88 48 89 49 90 57 91
REMARK SMILES IDX 50 92 52 93 58 94 51 95 53 96 54 97 55 98 56 99
REMARK H PARENT 15 5 2 10 8 18 12 26 12 27 12 28 19 33 78 52 46 63
REMARK Flexibility Score: inf
ROOT
ATOM      1  C   UNL A   1      31.633  28.071  27.248  1.00  0.00     0.118 C 
ENDROOT
BRANCH   1   2
ATOM      2  N   UNL A   1      31.170  26.679  27.106  1.00  0.00    -0.350 N 
ATOM      3  C   UNL A   1      31.476  25.606  26.301  1.00  0.00     0.292 C 
ATOM      4  O   UNL A   1      31.152  24.532  26.834  1.00  0.00    -0.267 OA
ATOM      5  H   UNL A   1      30.459  26.461  27.752  1.00  0.00     0.163 HD
BRANCH   3   6
ATOM      6  C   UNL A   1      31.942  25.650  24.758  1.00  0.00     0.248 C 
BRANCH   6   7
ATOM      7  C   UNL A   1      31.649  24.376  23.898  1.00  0.00     0.347 C 
BRANCH   7   8
ATOM      8  N   UNL A   1      32.787  23.547  23.534  1.00  0.00    -0.326 N 
ATOM      9  C   UNL A   1      33.115  23.687  22.114  1.00  0.00     0.333 C 
ATOM     10  H   UNL A   1      33.585  23.915  24.052  1.00  0.00     0.348 HD
BRANCH   8  11
ATOM     11  C   UNL A   1      32.722  22.157  24.016  1.00  0.00     0.327 C 
BRANCH  11  12
ATOM     12  C   UNL A   1      33.527  21.706  25.323  1.00  0.00     0.239 C 
ATOM     13  C   UNL A   1      34.887  21.177  24.829  1.00  0.00     0.077 C 
ATOM     14  N   UNL A   1      33.881  22.742  26.347  1.00  0.00    -0.330 N 
ATOM     15  C   UNL A   1      35.900  21.630  25.854  1.00  0.00     0.068 C 
ATOM     16  C   UNL A   1      35.338  22.968  26.276  1.00  0.00     0.262 C 
ATOM     17  C   UNL A   1      33.539  22.363  27.732  1.00  0.00     0.333 C 
ATOM     18  H   UNL A   1      33.336  23.577  26.130  1.00  0.00     0.348 HD
ENDBRANCH  11  12
ENDBRANCH   8  11
ENDBRANCH   7   8
ENDBRANCH   6   7
BRANCH   6  19
ATOM     19  C   UNL A   1      31.319  26.812  23.879  1.00  0.00     0.028 A 
ATOM     20  C   UNL A   1      29.907  26.941  23.793  1.00  0.00     0.011 A 
ATOM     21  C   UNL A   1      32.070  27.840  23.286  1.00  0.00     0.011 A 
ATOM     22  C   UNL A   1      29.294  28.047  23.184  1.00  0.00     0.001 A 
ATOM     23  C   UNL A   1      31.457  28.930  22.647  1.00  0.00     0.001 A 
ATOM     24  C   UNL A   1      30.071  29.045  22.612  1.00  0.00     0.000 A 
ENDBRANCH   6  19
BRANCH   6  25
ATOM     25  N   UNL A   1      33.420  25.907  24.836  1.00  0.00    -0.336 N 
ATOM     26  H   UNL A   1      33.801  25.988  23.892  1.00  0.00     0.345 HD
ATOM     27  H   UNL A   1      33.874  25.134  25.321  1.00  0.00     0.345 HD
ATOM     28  H   UNL A   1      33.588  26.774  25.346  1.00  0.00     0.345 HD
ENDBRANCH   6  25
ENDBRANCH   3   6
ENDBRANCH   1   2
BRANCH   1  29
ATOM     29  C   UNL A   1      33.159  28.230  27.180  1.00  0.00     0.042 C 
BRANCH  29  30
ATOM     30  C   UNL A   1      33.671  29.539  26.554  1.00  0.00     0.118 C 
BRANCH  30  31
ATOM     31  N   UNL A   1      33.622  30.740  27.389  1.00  0.00    -0.352 N 
ATOM     32  C   UNL A   1      34.578  31.207  28.275  1.00  0.00     0.251 C 
ATOM     33  H   UNL A   1      32.804  31.285  27.310  1.00  0.00     0.163 HD
ATOM     34  O   UNL A   1      34.395  32.250  28.902  1.00  0.00    -0.269 OA
BRANCH  32  35
ATOM     35  C   UNL A   1      35.810  30.415  28.509  1.00  0.00     0.039 A 
ATOM     36  C   UNL A   1      36.876  30.531  27.613  1.00  0.00     0.014 A 
ATOM     37  C   UNL A   1      35.947  29.632  29.657  1.00  0.00     0.014 A 
ATOM     38  C   UNL A   1      38.115  29.960  27.933  1.00  0.00     0.010 A 
ATOM     39  C   UNL A   1      37.203  29.141  30.015  1.00  0.00     0.010 A 
ATOM     40  C   UNL A   1      38.307  29.311  29.166  1.00  0.00    -0.014 A 
BRANCH  40  41
ATOM     41  C   UNL A   1      39.664  28.860  29.583  1.00  0.00     0.031 A 
ATOM     42  C   UNL A   1      40.412  29.566  30.684  1.00  0.00     0.074 A 
ATOM     43  C   UNL A   1      40.257  27.841  28.925  1.00  0.00     0.049 A 
ATOM     44  N   UNL A   1      41.569  29.263  31.218  1.00  0.00    -0.248 NA
ATOM     45  C   UNL A   1      39.802  30.784  31.239  1.00  0.00     0.031 C 
ATOM     46  C   UNL A   1      39.702  27.152  27.758  1.00  0.00     0.029 A 
ATOM     47  N   UNL A   1      41.461  27.212  29.134  1.00  0.00    -0.354 N 
ATOM     48  C   UNL A   1      41.831  30.260  32.151  1.00  0.00     0.074 A 
ATOM     49  C   UNL A   1      40.740  31.205  32.073  1.00  0.00     0.031 C 
ATOM     50  C   UNL A   1      40.544  26.178  27.376  1.00  0.00     0.029 A 
ATOM     51  C   UNL A   1      41.707  26.180  28.257  1.00  0.00     0.049 A 
ATOM     52  H   UNL A   1      42.090  27.476  29.844  1.00  0.00     0.167 HD
ATOM     53  C   UNL A   1      42.862  30.360  33.024  1.00  0.00     0.034 A 
ATOM     54  C   UNL A   1      42.740  25.316  28.184  1.00  0.00     0.034 A 
ATOM     55  C   UNL A   1      43.926  29.398  33.128  1.00  0.00     0.049 A 
ATOM     56  C   UNL A   1      43.832  25.399  29.216  1.00  0.00     0.074 A 
ATOM     57  C   UNL A   1      44.966  29.356  34.040  1.00  0.00     0.029 A 
ATOM     58  N   UNL A   1      44.093  28.311  32.283  1.00  0.00    -0.354 N 
ATOM     59  N   UNL A   1      43.960  26.235  30.218  1.00  0.00    -0.248 NA
ATOM     60  C   UNL A   1      44.898  24.389  29.137  1.00  0.00     0.031 C 
ATOM     61  C   UNL A   1      45.771  28.254  33.735  1.00  0.00     0.029 A 
ATOM     62  C   UNL A   1      45.221  27.595  32.648  1.00  0.00     0.049 A 
ATOM     63  H   UNL A   1      43.496  28.081  31.534  1.00  0.00     0.167 HD
ATOM     64  C   UNL A   1      45.103  25.839  30.903  1.00  0.00     0.074 A 
ATOM     65  C   UNL A   1      45.610  24.665  30.222  1.00  0.00     0.031 C 
ATOM     66  C   UNL A   1      45.692  26.406  31.984  1.00  0.00     0.034 A 
BRANCH  53  67
ATOM     67  C   UNL A   1      42.848  31.520  33.988  1.00  0.00     0.023 A 
ATOM     68  C   UNL A   1      43.395  32.757  33.588  1.00  0.00     0.012 A 
ATOM     69  C   UNL A   1      42.257  31.408  35.262  1.00  0.00     0.148 A 
ATOM     70  C   UNL A   1      43.394  33.851  34.452  1.00  0.00     0.002 A 
ATOM     71  C   UNL A   1      42.219  32.516  36.101  1.00  0.00     0.091 A 
ATOM     72  F   UNL A   1      41.758  30.221  35.634  1.00  0.00    -0.205 F 
ATOM     73  C   UNL A   1      42.797  33.734  35.703  1.00  0.00     0.022 A 
BRANCH  71  74
ATOM     74  S   UNL A   1      41.405  32.493  37.703  1.00  0.00     0.127 S 
ATOM     75  O   UNL A   1      41.458  33.905  38.080  1.00  0.00    -0.237 OA
ATOM     76  O   UNL A   1      40.069  32.003  37.363  1.00  0.00    -0.237 OA
ATOM     77  O   UNL A   1      42.188  31.593  38.539  1.00  0.00    -0.744 OA
ENDBRANCH  71  74
ENDBRANCH  53  67
BRANCH  54  78
ATOM     78  C   UNL A   1      42.742  24.239  27.151  1.00  0.00     0.023 A 
ATOM     79  C   UNL A   1      43.444  24.435  25.945  1.00  0.00     0.012 A 
ATOM     80  C   UNL A   1      42.080  23.015  27.366  1.00  0.00     0.148 A 
ATOM     81  C   UNL A   1      43.460  23.446  24.959  1.00  0.00     0.002 A 
ATOM     82  C   UNL A   1      42.148  22.012  26.405  1.00  0.00     0.091 A 
ATOM     83  F   UNL A   1      41.405  22.851  28.512  1.00  0.00    -0.205 F 
ATOM     84  C   UNL A   1      42.821  22.232  25.193  1.00  0.00     0.022 A 
BRANCH  82  85
ATOM     85  S   UNL A   1      41.473  20.370  26.681  1.00  0.00     0.127 S 
ATOM     86  O   UNL A   1      41.838  19.684  25.445  1.00  0.00    -0.237 OA
ATOM     87  O   UNL A   1      42.211  19.935  27.868  1.00  0.00    -0.237 OA
ATOM     88  O   UNL A   1      40.047  20.567  26.902  1.00  0.00    -0.744 OA
ENDBRANCH  82  85
ENDBRANCH  54  78
BRANCH  66  89
ATOM     89  C   UNL A   1      46.948  25.759  32.508  1.00  0.00     0.023 A 
ATOM     90  C   UNL A   1      46.878  24.899  33.624  1.00  0.00     0.012 A 
ATOM     91  C   UNL A   1      48.186  25.957  31.868  1.00  0.00     0.148 A 
ATOM     92  C   UNL A   1      48.025  24.285  34.120  1.00  0.00     0.002 A 
ATOM     93  C   UNL A   1      49.319  25.302  32.338  1.00  0.00     0.091 A 
ATOM     94  F   UNL A   1      48.240  26.792  30.820  1.00  0.00    -0.205 F 
ATOM     95  C   UNL A   1      49.243  24.476  33.471  1.00  0.00     0.022 A 
BRANCH  93  96
ATOM     96  S   UNL A   1      50.907  25.416  31.505  1.00  0.00     0.127 S 
ATOM     97  O   UNL A   1      51.361  26.744  31.913  1.00  0.00    -0.237 OA
ATOM     98  O   UNL A   1      51.652  24.307  32.099  1.00  0.00    -0.237 OA
ATOM     99  O   UNL A   1      50.621  25.256  30.085  1.00  0.00    -0.744 OA
ENDBRANCH  93  96
ENDBRANCH  66  89
ENDBRANCH  40  41
ENDBRANCH  32  35
ENDBRANCH  30  31
ENDBRANCH  29  30
ENDBRANCH   1  29
TORSDOF 19
ENDMDL
MODEL 2
REMARK VINA RESULT:     -10.9      4.622      9.368
REMARK SMILES C[N@H+](C[C@H]1CCC[N@@H+]1C)C[C@]([NH3+])(C(=O)NCCCNC(=O)c1ccc(-c2c3nc(c(-c4cccc(S(=O)(=O)[O-])c4F)c4ccc([nH]4)c(-c4cccc(S(=O)(=O)[O-])c4F)c4nc(c(-c5cccc(S(=O)(=O)[O-])c5F)c5ccc2[nH]5)C=C4)C=C3)cc1)c1ccccc1
REMARK SMILES IDX 16 1 15 2 13 3 14 4 11 6 10 7 2 8 1 9 3 11 4 12 5 13 8 14
REMARK SMILES IDX 6 15 7 16 9 17 85 19 86 20 90 21 87 22 89 23 88 24 12 25
REMARK SMILES IDX 17 29 18 30 19 31 20 32 21 34 22 35 23 36 84 37 24 38 83 39
REMARK SMILES IDX 25 40 26 41 27 42 77 43 28 44 82 45 76 46 78 47 29 48 81 49
REMARK SMILES IDX 75 50 74 51 30 53 62 54 42 55 61 56 43 57 46 58 60 59 79 60
REMARK SMILES IDX 44 61 45 62 59 64 80 65 47 66 31 67 32 68 40 69 33 70 35 71
REMARK SMILES IDX 41 72 34 73 36 74 37 75 38 76 39 77 63 78 64 79 72 80 65 81
REMARK SMILES IDX 67 82 73 83 66 84 68 85 69 86 70 87 71 88 48 89 49 90 57 91
REMARK SMILES IDX 50 92 52 93 58 94 51 95 53 96 54 97 55 98 56 99
REMARK H PARENT 15 5 2 10 8 18 12 26 12 27 12 28 19 33 78 52 46 63
REMARK Flexibility Score: inf
ROOT
ATOM      1  C   UNL A   1      35.612  23.160  24.000  1.00  0.00     0.118 C 
ENDROOT
BRANCH   1   2
ATOM      2  N   UNL A   1      34.680  23.014  22.866  1.00  0.00    -0.350 N 
ATOM      3  C   UNL A   1      33.488  23.583  22.479  1.00  0.00     0.292 C 
ATOM      4  O   UNL A   1      33.310  23.472  21.255  1.00  0.00    -0.267 OA
ATOM      5  H   UNL A   1      34.989  22.337  22.222  1.00  0.00     0.163 HD
BRANCH   3   6
ATOM      6  C   UNL A   1      32.301  24.102  23.439  1.00  0.00     0.248 C 
BRANCH   6   7
ATOM      7  C   UNL A   1      32.411  23.733  24.956  1.00  0.00     0.347 C 
BRANCH   7   8
ATOM      8  N   UNL A   1      31.776  22.496  25.382  1.00  0.00    -0.326 N 
ATOM      9  C   UNL A   1      30.802  22.737  26.449  1.00  0.00     0.333 C 
ATOM     10  H   UNL A   1      31.246  22.156  24.580  1.00  0.00     0.348 HD
BRANCH   8  11
ATOM     11  C   UNL A   1      32.701  21.379  25.636  1.00  0.00     0.327 C 
BRANCH  11  12
ATOM     12  C   UNL A   1      32.363  19.903  25.120  1.00  0.00     0.239 C 
ATOM     13  C   UNL A   1      32.367  19.973  23.581  1.00  0.00     0.077 C 
ATOM     14  N   UNL A   1      33.314  18.789  25.443  1.00  0.00    -0.330 N 
ATOM     15  C   UNL A   1      32.981  18.675  23.112  1.00  0.00     0.068 C 
ATOM     16  C   UNL A   1      34.001  18.406  24.195  1.00  0.00     0.262 C 
ATOM     17  C   UNL A   1      32.667  17.586  26.003  1.00  0.00     0.333 C 
ATOM     18  H   UNL A   1      33.951  19.137  26.160  1.00  0.00     0.348 HD
ENDBRANCH  11  12
ENDBRANCH   8  11
ENDBRANCH   7   8
ENDBRANCH   6   7
BRANCH   6  19
ATOM     19  C   UNL A   1      32.081  25.671  23.481  1.00  0.00     0.028 A 
ATOM     20  C   UNL A   1      30.893  26.195  24.058  1.00  0.00     0.011 A 
ATOM     21  C   UNL A   1      33.058  26.613  23.121  1.00  0.00     0.011 A 
ATOM     22  C   UNL A   1      30.717  27.567  24.289  1.00  0.00     0.001 A 
ATOM     23  C   UNL A   1      32.868  27.990  23.322  1.00  0.00     0.001 A 
ATOM     24  C   UNL A   1      31.708  28.467  23.922  1.00  0.00     0.000 A 
ENDBRANCH   6  19
BRANCH   6  25
ATOM     25  N   UNL A   1      31.062  23.504  22.837  1.00  0.00    -0.336 N 
ATOM     26  H   UNL A   1      30.494  24.244  22.424  1.00  0.00     0.345 HD
ATOM     27  H   UNL A   1      30.527  23.029  23.563  1.00  0.00     0.345 HD
ATOM     28  H   UNL A   1      31.325  22.833  22.115  1.00  0.00     0.345 HD
ENDBRANCH   6  25
ENDBRANCH   3   6
ENDBRANCH   1   2
BRANCH   1  29
ATOM     29  C   UNL A   1      36.411  21.888  24.317  1.00  0.00     0.042 C 
BRANCH  29  30
ATOM     30  C   UNL A   1      37.263  21.932  25.598  1.00  0.00     0.118 C 
BRANCH  30  31
ATOM     31  N   UNL A   1      38.431  21.052  25.652  1.00  0.00    -0.352 N 
ATOM     32  C   UNL A   1      39.659  21.293  26.246  1.00  0.00     0.251 C 
ATOM     33  H   UNL A   1      38.331  20.178  25.208  1.00  0.00     0.163 HD
ATOM     34  O   UNL A   1      40.546  20.441  26.217  1.00  0.00    -0.269 OA
BRANCH  32  35
ATOM     35  C   UNL A   1      39.923  22.609  26.877  1.00  0.00     0.039 A 
ATOM     36  C   UNL A   1      40.856  22.695  27.914  1.00  0.00     0.014 A 
ATOM     37  C   UNL A   1      39.318  23.769  26.386  1.00  0.00     0.014 A 
ATOM     38  C   UNL A   1      41.269  23.953  28.371  1.00  0.00     0.010 A 
ATOM     39  C   UNL A   1      39.796  25.019  26.779  1.00  0.00     0.010 A 
ATOM     40  C   UNL A   1      40.788  25.128  27.766  1.00  0.00    -0.014 A 
BRANCH  40  41
ATOM     41  C   UNL A   1      41.357  26.456  28.128  1.00  0.00     0.031 A 
ATOM     42  C   UNL A   1      42.786  26.805  27.799  1.00  0.00     0.074 A 
ATOM     43  C   UNL A   1      40.600  27.339  28.814  1.00  0.00     0.049 A 
ATOM     44  N   UNL A   1      43.419  27.937  27.980  1.00  0.00    -0.248 NA
ATOM     45  C   UNL A   1      43.622  25.741  27.222  1.00  0.00     0.031 C 
ATOM     46  C   UNL A   1      39.245  27.084  29.309  1.00  0.00     0.029 A 
ATOM     47  N   UNL A   1      40.862  28.624  29.224  1.00  0.00    -0.354 N 
ATOM     48  C   UNL A   1      44.725  27.714  27.559  1.00  0.00     0.074 A 
ATOM     49  C   UNL A   1      44.809  26.326  27.165  1.00  0.00     0.031 C 
ATOM     50  C   UNL A   1      38.783  28.185  29.924  1.00  0.00     0.029 A 
ATOM     51  C   UNL A   1      39.811  29.220  29.884  1.00  0.00     0.049 A 
ATOM     52  H   UNL A   1      41.721  29.076  29.062  1.00  0.00     0.167 HD
ATOM     53  C   UNL A   1      45.752  28.594  27.467  1.00  0.00     0.034 A 
ATOM     54  C   UNL A   1      39.679  30.467  30.381  1.00  0.00     0.034 A 
ATOM     55  C   UNL A   1      45.657  29.983  27.823  1.00  0.00     0.049 A 
ATOM     56  C   UNL A   1      40.805  31.448  30.193  1.00  0.00     0.074 A 
ATOM     57  C   UNL A   1      46.608  30.978  27.680  1.00  0.00     0.029 A 
ATOM     58  N   UNL A   1      44.545  30.576  28.402  1.00  0.00    -0.354 N 
ATOM     59  N   UNL A   1      41.967  31.270  29.612  1.00  0.00    -0.248 NA
ATOM     60  C   UNL A   1      40.584  32.815  30.688  1.00  0.00     0.031 C 
ATOM     61  C   UNL A   1      46.077  32.168  28.189  1.00  0.00     0.029 A 
ATOM     62  C   UNL A   1      44.787  31.921  28.628  1.00  0.00     0.049 A 
ATOM     63  H   UNL A   1      43.705  30.109  28.619  1.00  0.00     0.167 HD
ATOM     64  C   UNL A   1      42.605  32.505  29.648  1.00  0.00     0.074 A 
ATOM     65  C   UNL A   1      41.684  33.431  30.276  1.00  0.00     0.031 C 
ATOM     66  C   UNL A   1      43.847  32.839  29.219  1.00  0.00     0.034 A 
BRANCH  53  67
ATOM     67  C   UNL A   1      47.052  28.088  26.893  1.00  0.00     0.023 A 
ATOM     68  C   UNL A   1      48.080  27.677  27.767  1.00  0.00     0.012 A 
ATOM     69  C   UNL A   1      47.243  27.972  25.502  1.00  0.00     0.148 A 
ATOM     70  C   UNL A   1      49.292  27.200  27.269  1.00  0.00     0.002 A 
ATOM     71  C   UNL A   1      48.437  27.453  25.013  1.00  0.00     0.091 A 
ATOM     72  F   UNL A   1      46.264  28.385  24.684  1.00  0.00    -0.205 F 
ATOM     73  C   UNL A   1      49.466  27.079  25.894  1.00  0.00     0.022 A 
BRANCH  71  74
ATOM     74  S   UNL A   1      48.734  27.183  23.262  1.00  0.00     0.127 S 
ATOM     75  O   UNL A   1      50.195  27.220  23.202  1.00  0.00    -0.237 OA
ATOM     76  O   UNL A   1      48.149  25.859  23.051  1.00  0.00    -0.237 OA
ATOM     77  O   UNL A   1      48.053  28.266  22.567  1.00  0.00    -0.744 OA
ENDBRANCH  71  74
ENDBRANCH  53  67
BRANCH  54  78
ATOM     78  C   UNL A   1      38.396  30.886  31.019  1.00  0.00     0.023 A 
ATOM     79  C   UNL A   1      38.188  30.636  32.390  1.00  0.00     0.012 A 
ATOM     80  C   UNL A   1      37.396  31.554  30.286  1.00  0.00     0.148 A 
ATOM     81  C   UNL A   1      36.997  31.012  33.011  1.00  0.00     0.002 A 
ATOM     82  C   UNL A   1      36.236  31.979  30.924  1.00  0.00     0.091 A 
ATOM     83  F   UNL A   1      37.604  31.771  28.980  1.00  0.00    -0.205 F 
ATOM     84  C   UNL A   1      36.026  31.693  32.282  1.00  0.00     0.022 A 
BRANCH  82  85
ATOM     85  S   UNL A   1      34.996  32.981  30.097  1.00  0.00     0.127 S 
ATOM     86  O   UNL A   1      34.178  33.434  31.218  1.00  0.00    -0.237 OA
ATOM     87  O   UNL A   1      35.815  34.021  29.471  1.00  0.00    -0.237 OA
ATOM     88  O   UNL A   1      34.340  32.087  29.151  1.00  0.00    -0.744 OA
ENDBRANCH  82  85
ENDBRANCH  54  78
BRANCH  66  89
ATOM     89  C   UNL A   1      44.281  34.270  29.403  1.00  0.00     0.023 A 
ATOM     90  C   UNL A   1      45.068  34.623  30.519  1.00  0.00     0.012 A 
ATOM     91  C   UNL A   1      43.957  35.253  28.449  1.00  0.00     0.148 A 
ATOM     92  C   UNL A   1      45.486  35.939  30.705  1.00  0.00     0.002 A 
ATOM     93  C   UNL A   1      44.420  36.554  28.616  1.00  0.00     0.091 A 
ATOM     94  F   UNL A   1      43.192  34.906  27.404  1.00  0.00    -0.205 F 
ATOM     95  C   UNL A   1      45.172  36.902  29.749  1.00  0.00     0.022 A 
BRANCH  93  96
ATOM     96  S   UNL A   1      44.143  37.834  27.385  1.00  0.00     0.127 S 
ATOM     97  O   UNL A   1      43.056  37.258  26.596  1.00  0.00    -0.237 OA
ATOM     98  O   UNL A   1      43.759  38.981  28.206  1.00  0.00    -0.237 OA
ATOM     99  O   UNL A   1      45.412  37.993  26.687  1.00  0.00    -0.744 OA
ENDBRANCH  93  96
ENDBRANCH  66  89
ENDBRANCH  40  41
ENDBRANCH  32  35
ENDBRANCH  30  31
ENDBRANCH  29  30
ENDBRANCH   1  29
TORSDOF 19
ENDMDL
MODEL 3
REMARK VINA RESULT:     -10.8      4.492      7.522
REMARK SMILES C[N@H+](C[C@H]1CCC[N@@H+]1C)C[C@]([NH3+])(C(=O)NCCCNC(=O)c1ccc(-c2c3nc(c(-c4cccc(S(=O)(=O)[O-])c4F)c4ccc([nH]4)c(-c4cccc(S(=O)(=O)[O-])c4F)c4nc(c(-c5cccc(S(=O)(=O)[O-])c5F)c5ccc2[nH]5)C=C4)C=C3)cc1)c1ccccc1
REMARK SMILES IDX 16 1 15 2 13 3 14 4 11 6 10 7 2 8 1 9 3 11 4 12 5 13 8 14
REMARK SMILES IDX 6 15 7 16 9 17 85 19 86 20 90 21 87 22 89 23 88 24 12 25
REMARK SMILES IDX 17 29 18 30 19 31 20 32 21 34 22 35 23 36 84 37 24 38 83 39
REMARK SMILES IDX 25 40 26 41 27 42 77 43 28 44 82 45 76 46 78 47 29 48 81 49
REMARK SMILES IDX 75 50 74 51 30 53 62 54 42 55 61 56 43 57 46 58 60 59 79 60
REMARK SMILES IDX 44 61 45 62 59 64 80 65 47 66 31 67 32 68 40 69 33 70 35 71
REMARK SMILES IDX 41 72 34 73 36 74 37 75 38 76 39 77 63 78 64 79 72 80 65 81
REMARK SMILES IDX 67 82 73 83 66 84 68 85 69 86 70 87 71 88 48 89 49 90 57 91
REMARK SMILES IDX 50 92 52 93 58 94 51 95 53 96 54 97 55 98 56 99
REMARK H PARENT 15 5 2 10 8 18 12 26 12 27 12 28 19 33 78 52 46 63
REMARK Flexibility Score: inf
ROOT
ATOM      1  C   UNL A   1      36.109  23.097  23.880  1.00  0.00     0.118 C 
ENDROOT
BRANCH   1   2
ATOM      2  N   UNL A   1      35.045  22.942  22.872  1.00  0.00    -0.350 N 
ATOM      3  C   UNL A   1      33.810  23.501  22.635  1.00  0.00     0.292 C 
ATOM      4  O   UNL A   1      33.482  23.387  21.443  1.00  0.00    -0.267 OA
ATOM      5  H   UNL A   1      35.277  22.266  22.195  1.00  0.00     0.163 HD
BRANCH   3   6
ATOM      6  C   UNL A   1      32.748  24.013  23.735  1.00  0.00     0.248 C 
BRANCH   6   7
ATOM      7  C   UNL A   1      32.655  23.187  25.061  1.00  0.00     0.347 C 
BRANCH   7   8
ATOM      8  N   UNL A   1      31.505  22.310  25.215  1.00  0.00    -0.326 N 
ATOM      9  C   UNL A   1      30.568  22.831  26.212  1.00  0.00     0.333 C 
ATOM     10  H   UNL A   1      31.014  22.324  24.321  1.00  0.00     0.348 HD
BRANCH   8  11
ATOM     11  C   UNL A   1      31.831  20.882  25.365  1.00  0.00     0.327 C 
BRANCH  11  12
ATOM     12  C   UNL A   1      32.715  20.124  24.268  1.00  0.00     0.239 C 
ATOM     13  C   UNL A   1      34.100  19.906  24.907  1.00  0.00     0.077 C 
ATOM     14  N   UNL A   1      32.294  18.756  23.819  1.00  0.00    -0.330 N 
ATOM     15  C   UNL A   1      34.559  18.545  24.439  1.00  0.00     0.068 C 
ATOM     16  C   UNL A   1      33.255  17.784  24.375  1.00  0.00     0.262 C 
ATOM     17  C   UNL A   1      32.259  18.587  22.353  1.00  0.00     0.333 C 
ATOM     18  H   UNL A   1      31.341  18.612  24.153  1.00  0.00     0.348 HD
ENDBRANCH  11  12
ENDBRANCH   8  11
ENDBRANCH   7   8
ENDBRANCH   6   7
BRANCH   6  19
ATOM     19  C   UNL A   1      32.956  25.493  24.263  1.00  0.00     0.028 A 
ATOM     20  C   UNL A   1      32.750  25.779  25.639  1.00  0.00     0.011 A 
ATOM     21  C   UNL A   1      33.488  26.537  23.489  1.00  0.00     0.011 A 
ATOM     22  C   UNL A   1      33.090  27.018  26.203  1.00  0.00     0.001 A 
ATOM     23  C   UNL A   1      33.797  27.788  24.046  1.00  0.00     0.001 A 
ATOM     24  C   UNL A   1      33.617  28.024  25.405  1.00  0.00     0.000 A 
ENDBRANCH   6  19
BRANCH   6  25
ATOM     25  N   UNL A   1      31.435  23.991  23.005  1.00  0.00    -0.336 N 
ATOM     26  H   UNL A   1      31.004  24.915  23.054  1.00  0.00     0.345 HD
ATOM     27  H   UNL A   1      30.817  23.305  23.438  1.00  0.00     0.345 HD
ATOM     28  H   UNL A   1      31.592  23.739  22.030  1.00  0.00     0.345 HD
ENDBRANCH   6  25
ENDBRANCH   3   6
ENDBRANCH   1   2
BRANCH   1  29
ATOM     29  C   UNL A   1      37.022  21.870  24.019  1.00  0.00     0.042 C 
BRANCH  29  30
ATOM     30  C   UNL A   1      37.292  21.391  25.456  1.00  0.00     0.118 C 
BRANCH  30  31
ATOM     31  N   UNL A   1      38.401  20.455  25.649  1.00  0.00    -0.352 N 
ATOM     32  C   UNL A   1      39.618  20.685  26.269  1.00  0.00     0.251 C 
ATOM     33  H   UNL A   1      38.264  19.547  25.292  1.00  0.00     0.163 HD
ATOM     34  O   UNL A   1      40.451  19.786  26.365  1.00  0.00    -0.269 OA
BRANCH  32  35
ATOM     35  C   UNL A   1      39.938  22.043  26.776  1.00  0.00     0.039 A 
ATOM     36  C   UNL A   1      41.007  22.207  27.660  1.00  0.00     0.014 A 
ATOM     37  C   UNL A   1      39.242  23.160  26.308  1.00  0.00     0.014 A 
ATOM     38  C   UNL A   1      41.452  23.497  27.977  1.00  0.00     0.010 A 
ATOM     39  C   UNL A   1      39.742  24.439  26.553  1.00  0.00     0.010 A 
ATOM     40  C   UNL A   1      40.862  24.625  27.378  1.00  0.00    -0.014 A 
BRANCH  40  41
ATOM     41  C   UNL A   1      41.445  25.981  27.574  1.00  0.00     0.031 A 
ATOM     42  C   UNL A   1      40.718  27.032  28.372  1.00  0.00     0.074 A 
ATOM     43  C   UNL A   1      42.616  26.293  26.979  1.00  0.00     0.049 A 
ATOM     44  N   UNL A   1      41.113  28.237  28.699  1.00  0.00    -0.248 NA
ATOM     45  C   UNL A   1      39.362  26.703  28.840  1.00  0.00     0.031 C 
ATOM     46  C   UNL A   1      43.365  25.416  26.075  1.00  0.00     0.029 A 
ATOM     47  N   UNL A   1      43.380  27.434  27.034  1.00  0.00    -0.354 N 
ATOM     48  C   UNL A   1      40.051  28.812  29.388  1.00  0.00     0.074 A 
ATOM     49  C   UNL A   1      38.976  27.846  29.387  1.00  0.00     0.031 C 
ATOM     50  C   UNL A   1      44.492  26.036  25.688  1.00  0.00     0.029 A 
ATOM     51  C   UNL A   1      44.543  27.359  26.301  1.00  0.00     0.049 A 
ATOM     52  H   UNL A   1      43.120  28.231  27.549  1.00  0.00     0.167 HD
ATOM     53  C   UNL A   1      39.988  30.017  30.005  1.00  0.00     0.034 A 
ATOM     54  C   UNL A   1      45.549  28.245  26.155  1.00  0.00     0.034 A 
ATOM     55  C   UNL A   1      41.071  30.961  30.039  1.00  0.00     0.049 A 
ATOM     56  C   UNL A   1      45.491  29.542  26.915  1.00  0.00     0.074 A 
ATOM     57  C   UNL A   1      41.144  32.168  30.714  1.00  0.00     0.029 A 
ATOM     58  N   UNL A   1      42.272  30.811  29.362  1.00  0.00    -0.354 N 
ATOM     59  N   UNL A   1      44.559  29.985  27.724  1.00  0.00    -0.248 NA
ATOM     60  C   UNL A   1      46.646  30.443  26.781  1.00  0.00     0.031 C 
ATOM     61  C   UNL A   1      42.382  32.755  30.429  1.00  0.00     0.029 A 
ATOM     62  C   UNL A   1      43.090  31.904  29.597  1.00  0.00     0.049 A 
ATOM     63  H   UNL A   1      42.509  30.039  28.798  1.00  0.00     0.167 HD
ATOM     64  C   UNL A   1      45.023  31.201  28.214  1.00  0.00     0.074 A 
ATOM     65  C   UNL A   1      46.337  31.407  27.638  1.00  0.00     0.031 C 
ATOM     66  C   UNL A   1      44.411  32.077  29.048  1.00  0.00     0.034 A 
BRANCH  53  67
ATOM     67  C   UNL A   1      38.722  30.350  30.754  1.00  0.00     0.023 A 
ATOM     68  C   UNL A   1      38.582  29.934  32.094  1.00  0.00     0.012 A 
ATOM     69  C   UNL A   1      37.696  31.110  30.159  1.00  0.00     0.148 A 
ATOM     70  C   UNL A   1      37.428  30.229  32.817  1.00  0.00     0.002 A 
ATOM     71  C   UNL A   1      36.566  31.439  30.900  1.00  0.00     0.091 A 
ATOM     72  F   UNL A   1      37.835  31.481  28.878  1.00  0.00    -0.205 F 
ATOM     73  C   UNL A   1      36.425  30.990  32.224  1.00  0.00     0.022 A 
BRANCH  71  74
ATOM     74  S   UNL A   1      35.251  32.480  30.255  1.00  0.00     0.127 S 
ATOM     75  O   UNL A   1      34.347  32.555  31.401  1.00  0.00    -0.237 OA
ATOM     76  O   UNL A   1      35.961  33.724  29.957  1.00  0.00    -0.237 OA
ATOM     77  O   UNL A   1      34.725  31.787  29.088  1.00  0.00    -0.744 OA
ENDBRANCH  71  74
ENDBRANCH  53  67
BRANCH  54  78
ATOM     78  C   UNL A   1      46.741  27.894  25.328  1.00  0.00     0.023 A 
ATOM     79  C   UNL A   1      46.706  28.104  23.935  1.00  0.00     0.012 A 
ATOM     80  C   UNL A   1      47.915  27.383  25.914  1.00  0.00     0.148 A 
ATOM     81  C   UNL A   1      47.804  27.780  23.137  1.00  0.00     0.002 A 
ATOM     82  C   UNL A   1      49.026  27.118  25.120  1.00  0.00     0.091 A 
ATOM     83  F   UNL A   1      47.927  27.176  27.238  1.00  0.00    -0.205 F 
ATOM     84  C   UNL A   1      48.967  27.298  23.729  1.00  0.00     0.022 A 
BRANCH  82  85
ATOM     85  S   UNL A   1      50.608  26.626  25.815  1.00  0.00     0.127 S 
ATOM     86  O   UNL A   1      50.930  27.767  26.666  1.00  0.00    -0.237 OA
ATOM     87  O   UNL A   1      50.254  25.400  26.535  1.00  0.00    -0.237 OA
ATOM     88  O   UNL A   1      51.487  26.415  24.673  1.00  0.00    -0.744 OA
ENDBRANCH  82  85
ENDBRANCH  54  78
BRANCH  66  89
ATOM     89  C   UNL A   1      45.159  33.337  29.399  1.00  0.00     0.023 A 
ATOM     90  C   UNL A   1      46.014  33.352  30.520  1.00  0.00     0.012 A 
ATOM     91  C   UNL A   1      45.058  34.487  28.593  1.00  0.00     0.148 A 
ATOM     92  C   UNL A   1      46.721  34.504  30.858  1.00  0.00     0.002 A 
ATOM     93  C   UNL A   1      45.805  35.618  28.909  1.00  0.00     0.091 A 
ATOM     94  F   UNL A   1      44.226  34.464  27.542  1.00  0.00    -0.205 F 
ATOM     95  C   UNL A   1      46.626  35.633  30.048  1.00  0.00     0.022 A 
BRANCH  93  96
ATOM     96  S   UNL A   1      45.815  37.080  27.865  1.00  0.00     0.127 S 
ATOM     97  O   UNL A   1      46.200  36.520  26.571  1.00  0.00    -0.237 OA
ATOM     98  O   UNL A   1      44.426  37.532  27.945  1.00  0.00    -0.237 OA
ATOM     99  O   UNL A   1      46.778  37.991  28.469  1.00  0.00    -0.744 OA
ENDBRANCH  93  96
ENDBRANCH  66  89
ENDBRANCH  40  41
ENDBRANCH  32  35
ENDBRANCH  30  31
ENDBRANCH  29  30
ENDBRANCH   1  29
TORSDOF 19
ENDMDL
