MODEL 1
REMARK VINA RESULT:     -11.7      0.000      0.000
REMARK SMILES [NH3+][C@]1(C(=O)NCCCNC(=O)c2ccc(-c3c4nc(c(-c5cccc(S(=O)(=O)[O-])c5F)c5ccc([nH]5)c(-c5cccc(S(=O)(=O)[O-])c5F)c5nc(c(-c6cccc(S(=O)(=O)[O-])c6F)c6ccc3[nH]6)C=C5)C=C4)cc2)CC[C@@H](Sc2ccc(Cl)c(Cl)c2)C1
REMARK SMILES IDX 7 1 6 2 5 3 3 4 4 5 2 7 75 8 87 9 76 10 77 11 1 12 78 16
REMARK SMILES IDX 79 17 80 18 86 19 81 20 84 21 82 22 85 23 83 24 8 25 9 26
REMARK SMILES IDX 10 27 11 29 12 30 13 31 74 32 14 33 73 34 15 35 16 36 17 37
REMARK SMILES IDX 67 38 18 39 72 40 66 41 68 42 19 43 71 44 65 45 64 46 20 48
REMARK SMILES IDX 52 49 32 50 51 51 33 52 36 53 50 54 69 55 34 56 35 57 49 59
REMARK SMILES IDX 70 60 37 61 21 62 22 63 30 64 23 65 25 66 31 67 24 68 26 69
REMARK SMILES IDX 27 70 28 71 29 72 53 73 54 74 62 75 55 76 57 77 63 78 56 79
REMARK SMILES IDX 58 80 59 81 60 82 61 83 38 84 39 85 47 86 40 87 42 88 48 89
REMARK SMILES IDX 41 90 43 91 44 92 45 93 46 94
REMARK H PARENT 5 6 1 13 1 14 1 15 9 28 68 47 36 58
REMARK Flexibility Score: inf
ROOT
ATOM      1  C   UNL A   1      32.519  27.584  26.586  1.00  0.00     0.042 C 
ENDROOT
BRANCH   1   2
ATOM      2  C   UNL A   1      32.604  26.112  26.173  1.00  0.00     0.118 C 
BRANCH   2   3
ATOM      3  N   UNL A   1      31.456  25.342  26.617  1.00  0.00    -0.351 N 
ATOM      4  C   UNL A   1      31.220  24.013  26.727  1.00  0.00     0.281 C 
ATOM      5  O   UNL A   1      30.148  23.703  27.266  1.00  0.00    -0.268 OA
ATOM      6  H   UNL A   1      30.694  25.901  26.896  1.00  0.00     0.163 HD
BRANCH   4   7
ATOM      7  C   UNL A   1      32.241  22.893  26.352  1.00  0.00     0.175 C 
ATOM      8  C   UNL A   1      31.510  21.888  25.425  1.00  0.00     0.080 C 
ATOM      9  C   UNL A   1      33.501  23.281  25.559  1.00  0.00     0.094 C 
ATOM     10  C   UNL A   1      32.587  21.222  24.586  1.00  0.00     0.022 C 
ATOM     11  C   UNL A   1      33.657  22.286  24.406  1.00  0.00     0.058 C 
BRANCH   7  12
ATOM     12  N   UNL A   1      32.648  22.220  27.614  1.00  0.00    -0.345 N 
ATOM     13  H   UNL A   1      31.876  21.652  27.962  1.00  0.00     0.345 HD
ATOM     14  H   UNL A   1      32.892  22.924  28.311  1.00  0.00     0.345 HD
ATOM     15  H   UNL A   1      33.456  21.623  27.436  1.00  0.00     0.345 HD
ENDBRANCH   7  12
BRANCH  11  16
ATOM     16  S   UNL A   1      33.782  23.051  22.732  1.00  0.00    -0.122 SA
BRANCH  16  17
ATOM     17  C   UNL A   1      33.021  24.664  22.806  1.00  0.00     0.009 A 
ATOM     18  C   UNL A   1      31.624  24.718  22.878  1.00  0.00     0.017 A 
ATOM     19  C   UNL A   1      33.710  25.868  22.657  1.00  0.00     0.037 A 
ATOM     20  C   UNL A   1      30.944  25.943  22.846  1.00  0.00     0.023 A 
ATOM     21  C   UNL A   1      33.043  27.100  22.634  1.00  0.00     0.060 A 
ATOM     22  C   UNL A   1      31.653  27.139  22.734  1.00  0.00     0.059 A 
ATOM     23  Cl  UNL A   1      34.008  28.525  22.461  1.00  0.00    -0.083 Cl
ATOM     24  Cl  UNL A   1      30.764  28.617  22.715  1.00  0.00    -0.083 Cl
ENDBRANCH  16  17
ENDBRANCH  11  16
ENDBRANCH   4   7
ENDBRANCH   2   3
ENDBRANCH   1   2
BRANCH   1  25
ATOM     25  C   UNL A   1      33.860  28.315  26.602  1.00  0.00     0.118 C 
BRANCH  25  26
ATOM     26  N   UNL A   1      33.696  29.727  26.900  1.00  0.00    -0.352 N 
ATOM     27  C   UNL A   1      34.438  30.542  27.719  1.00  0.00     0.251 C 
ATOM     28  H   UNL A   1      32.940  30.166  26.448  1.00  0.00     0.163 HD
ATOM     29  O   UNL A   1      33.985  31.642  28.029  1.00  0.00    -0.269 OA
BRANCH  27  30
ATOM     30  C   UNL A   1      35.765  30.121  28.233  1.00  0.00     0.039 A 
ATOM     31  C   UNL A   1      36.870  30.224  27.382  1.00  0.00     0.014 A 
ATOM     32  C   UNL A   1      35.919  29.549  29.499  1.00  0.00     0.014 A 
ATOM     33  C   UNL A   1      38.125  29.775  27.803  1.00  0.00     0.010 A 
ATOM     34  C   UNL A   1      37.186  29.156  29.942  1.00  0.00     0.010 A 
ATOM     35  C   UNL A   1      38.298  29.243  29.091  1.00  0.00    -0.014 A 
BRANCH  35  36
ATOM     36  C   UNL A   1      39.634  28.765  29.542  1.00  0.00     0.031 A 
ATOM     37  C   UNL A   1      40.368  29.473  30.650  1.00  0.00     0.074 A 
ATOM     38  C   UNL A   1      40.208  27.713  28.926  1.00  0.00     0.049 A 
ATOM     39  N   UNL A   1      41.532  29.190  31.181  1.00  0.00    -0.248 NA
ATOM     40  C   UNL A   1      39.726  30.666  31.224  1.00  0.00     0.031 C 
ATOM     41  C   UNL A   1      39.637  26.984  27.791  1.00  0.00     0.029 A 
ATOM     42  N   UNL A   1      41.408  27.085  29.152  1.00  0.00    -0.354 N 
ATOM     43  C   UNL A   1      41.774  30.182  32.125  1.00  0.00     0.074 A 
ATOM     44  C   UNL A   1      40.651  31.093  32.073  1.00  0.00     0.031 C 
ATOM     45  C   UNL A   1      40.482  26.008  27.425  1.00  0.00     0.029 A 
ATOM     46  C   UNL A   1      41.664  26.051  28.282  1.00  0.00     0.049 A 
ATOM     47  H   UNL A   1      42.027  27.350  29.870  1.00  0.00     0.167 HD
ATOM     48  C   UNL A   1      42.817  30.309  32.979  1.00  0.00     0.034 A 
ATOM     49  C   UNL A   1      42.728  25.230  28.183  1.00  0.00     0.034 A 
ATOM     50  C   UNL A   1      43.913  29.379  33.061  1.00  0.00     0.049 A 
ATOM     51  C   UNL A   1      43.853  25.365  29.173  1.00  0.00     0.074 A 
ATOM     52  C   UNL A   1      44.969  29.370  33.955  1.00  0.00     0.029 A 
ATOM     53  N   UNL A   1      44.097  28.297  32.215  1.00  0.00    -0.354 N 
ATOM     54  N   UNL A   1      43.980  26.206  30.171  1.00  0.00    -0.248 NA
ATOM     55  C   UNL A   1      44.965  24.410  29.049  1.00  0.00     0.031 C 
ATOM     56  C   UNL A   1      45.805  28.295  33.634  1.00  0.00     0.029 A 
ATOM     57  C   UNL A   1      45.256  27.620  32.556  1.00  0.00     0.049 A 
ATOM     58  H   UNL A   1      43.492  28.046  31.479  1.00  0.00     0.167 HD
ATOM     59  C   UNL A   1      45.166  25.864  30.812  1.00  0.00     0.074 A 
ATOM     60  C   UNL A   1      45.707  24.721  30.104  1.00  0.00     0.031 C 
ATOM     61  C   UNL A   1      45.761  26.454  31.878  1.00  0.00     0.034 A 
BRANCH  48  62
ATOM     62  C   UNL A   1      42.801  31.471  33.941  1.00  0.00     0.023 A 
ATOM     63  C   UNL A   1      43.380  32.698  33.554  1.00  0.00     0.012 A 
ATOM     64  C   UNL A   1      42.162  31.374  35.192  1.00  0.00     0.148 A 
ATOM     65  C   UNL A   1      43.354  33.798  34.410  1.00  0.00     0.002 A 
ATOM     66  C   UNL A   1      42.104  32.488  36.023  1.00  0.00     0.091 A 
ATOM     67  F   UNL A   1      41.634  30.196  35.551  1.00  0.00    -0.205 F 
ATOM     68  C   UNL A   1      42.709  33.696  35.639  1.00  0.00     0.022 A 
BRANCH  66  69
ATOM     69  S   UNL A   1      41.227  32.483  37.592  1.00  0.00     0.127 S 
ATOM     70  O   UNL A   1      42.078  31.614  38.403  1.00  0.00    -0.237 OA
ATOM     71  O   UNL A   1      41.265  33.897  37.970  1.00  0.00    -0.237 OA
ATOM     72  O   UNL A   1      39.896  31.967  37.306  1.00  0.00    -0.744 OA
ENDBRANCH  66  69
ENDBRANCH  48  62
BRANCH  49  73
ATOM     73  C   UNL A   1      42.744  24.158  27.148  1.00  0.00     0.023 A 
ATOM     74  C   UNL A   1      43.454  24.364  25.949  1.00  0.00     0.012 A 
ATOM     75  C   UNL A   1      42.088  22.929  27.355  1.00  0.00     0.148 A 
ATOM     76  C   UNL A   1      43.486  23.377  24.962  1.00  0.00     0.002 A 
ATOM     77  C   UNL A   1      42.171  21.929  26.392  1.00  0.00     0.091 A 
ATOM     78  F   UNL A   1      41.407  22.757  28.496  1.00  0.00    -0.205 F 
ATOM     79  C   UNL A   1      42.855  22.157  25.188  1.00  0.00     0.022 A 
BRANCH  77  80
ATOM     80  S   UNL A   1      41.502  20.282  26.655  1.00  0.00     0.127 S 
ATOM     81  O   UNL A   1      41.906  19.596  25.433  1.00  0.00    -0.237 OA
ATOM     82  O   UNL A   1      42.208  19.857  27.864  1.00  0.00    -0.237 OA
ATOM     83  O   UNL A   1      40.067  20.467  26.836  1.00  0.00    -0.744 OA
ENDBRANCH  77  80
ENDBRANCH  49  73
BRANCH  61  84
ATOM     84  C   UNL A   1      47.057  25.864  32.369  1.00  0.00     0.023 A 
ATOM     85  C   UNL A   1      48.280  26.328  31.843  1.00  0.00     0.012 A 
ATOM     86  C   UNL A   1      47.070  24.903  33.399  1.00  0.00     0.148 A 
ATOM     87  C   UNL A   1      49.492  25.822  32.311  1.00  0.00     0.002 A 
ATOM     88  C   UNL A   1      48.282  24.438  33.894  1.00  0.00     0.091 A 
ATOM     89  F   UNL A   1      45.896  24.459  33.873  1.00  0.00    -0.205 F 
ATOM     90  C   UNL A   1      49.493  24.886  33.343  1.00  0.00     0.022 A 
BRANCH  88  91
ATOM     91  S   UNL A   1      48.382  23.305  35.285  1.00  0.00     0.127 S 
ATOM     92  O   UNL A   1      49.828  23.154  35.443  1.00  0.00    -0.237 OA
ATOM     93  O   UNL A   1      47.728  24.063  36.352  1.00  0.00    -0.237 OA
ATOM     94  O   UNL A   1      47.668  22.103  34.874  1.00  0.00    -0.744 OA
ENDBRANCH  88  91
ENDBRANCH  61  84
ENDBRANCH  35  36
ENDBRANCH  27  30
ENDBRANCH  25  26
ENDBRANCH   1  25
TORSDOF 16
ENDMDL
MODEL 2
REMARK VINA RESULT:     -11.6      2.724      3.773
REMARK SMILES [NH3+][C@]1(C(=O)NCCCNC(=O)c2ccc(-c3c4nc(c(-c5cccc(S(=O)(=O)[O-])c5F)c5ccc([nH]5)c(-c5cccc(S(=O)(=O)[O-])c5F)c5nc(c(-c6cccc(S(=O)(=O)[O-])c6F)c6ccc3[nH]6)C=C5)C=C4)cc2)CC[C@@H](Sc2ccc(Cl)c(Cl)c2)C1
REMARK SMILES IDX 7 1 6 2 5 3 3 4 4 5 2 7 75 8 87 9 76 10 77 11 1 12 78 16
REMARK SMILES IDX 79 17 80 18 86 19 81 20 84 21 82 22 85 23 83 24 8 25 9 26
REMARK SMILES IDX 10 27 11 29 12 30 13 31 74 32 14 33 73 34 15 35 16 36 17 37
REMARK SMILES IDX 67 38 18 39 72 40 66 41 68 42 19 43 71 44 65 45 64 46 20 48
REMARK SMILES IDX 52 49 32 50 51 51 33 52 36 53 50 54 69 55 34 56 35 57 49 59
REMARK SMILES IDX 70 60 37 61 21 62 22 63 30 64 23 65 25 66 31 67 24 68 26 69
REMARK SMILES IDX 27 70 28 71 29 72 53 73 54 74 62 75 55 76 57 77 63 78 56 79
REMARK SMILES IDX 58 80 59 81 60 82 61 83 38 84 39 85 47 86 40 87 42 88 48 89
REMARK SMILES IDX 41 90 43 91 44 92 45 93 46 94
REMARK H PARENT 5 6 1 13 1 14 1 15 9 28 68 47 36 58
REMARK Flexibility Score: inf
ROOT
ATOM      1  C   UNL A   1      33.364  29.175  23.619  1.00  0.00     0.042 C 
ENDROOT
BRANCH   1   2
ATOM      2  C   UNL A   1      32.682  27.998  22.916  1.00  0.00     0.118 C 
BRANCH   2   3
ATOM      3  N   UNL A   1      31.328  28.311  22.496  1.00  0.00    -0.351 N 
ATOM      4  C   UNL A   1      30.118  27.791  22.815  1.00  0.00     0.281 C 
ATOM      5  O   UNL A   1      29.139  28.392  22.348  1.00  0.00    -0.268 OA
ATOM      6  H   UNL A   1      31.279  29.051  21.848  1.00  0.00     0.163 HD
BRANCH   4   7
ATOM      7  C   UNL A   1      29.889  26.610  23.808  1.00  0.00     0.175 C 
ATOM      8  C   UNL A   1      30.612  25.366  23.228  1.00  0.00     0.080 C 
ATOM      9  C   UNL A   1      30.447  26.730  25.237  1.00  0.00     0.094 C 
ATOM     10  C   UNL A   1      30.937  24.472  24.411  1.00  0.00     0.022 C 
ATOM     11  C   UNL A   1      31.176  25.427  25.570  1.00  0.00     0.058 C 
BRANCH   7  12
ATOM     12  N   UNL A   1      28.424  26.362  23.878  1.00  0.00    -0.345 N 
ATOM     13  H   UNL A   1      27.939  27.239  24.067  1.00  0.00     0.345 HD
ATOM     14  H   UNL A   1      28.227  25.697  24.626  1.00  0.00     0.345 HD
ATOM     15  H   UNL A   1      28.102  25.979  22.989  1.00  0.00     0.345 HD
ENDBRANCH   7  12
BRANCH  11  16
ATOM     16  S   UNL A   1      32.927  25.633  26.115  1.00  0.00    -0.122 SA
BRANCH  16  17
ATOM     17  C   UNL A   1      33.819  24.152  25.671  1.00  0.00     0.009 A 
ATOM     18  C   UNL A   1      33.648  23.026  26.486  1.00  0.00     0.017 A 
ATOM     19  C   UNL A   1      34.776  24.082  24.660  1.00  0.00     0.037 A 
ATOM     20  C   UNL A   1      34.383  21.853  26.263  1.00  0.00     0.023 A 
ATOM     21  C   UNL A   1      35.509  22.912  24.419  1.00  0.00     0.060 A 
ATOM     22  C   UNL A   1      35.308  21.790  25.222  1.00  0.00     0.059 A 
ATOM     23  Cl  UNL A   1      36.655  22.942  23.124  1.00  0.00    -0.083 Cl
ATOM     24  Cl  UNL A   1      36.172  20.315  24.984  1.00  0.00    -0.083 Cl
ENDBRANCH  16  17
ENDBRANCH  11  16
ENDBRANCH   4   7
ENDBRANCH   2   3
ENDBRANCH   1   2
BRANCH   1  25
ATOM     25  C   UNL A   1      33.250  29.155  25.142  1.00  0.00     0.118 C 
BRANCH  25  26
ATOM     26  N   UNL A   1      32.783  30.429  25.660  1.00  0.00    -0.352 N 
ATOM     27  C   UNL A   1      33.199  31.131  26.764  1.00  0.00     0.251 C 
ATOM     28  H   UNL A   1      32.060  30.852  25.144  1.00  0.00     0.163 HD
ATOM     29  O   UNL A   1      32.507  32.063  27.169  1.00  0.00    -0.269 OA
BRANCH  27  30
ATOM     30  C   UNL A   1      34.459  30.788  27.469  1.00  0.00     0.039 A 
ATOM     31  C   UNL A   1      34.565  29.527  28.064  1.00  0.00     0.014 A 
ATOM     32  C   UNL A   1      35.493  31.716  27.627  1.00  0.00     0.014 A 
ATOM     33  C   UNL A   1      35.707  29.190  28.796  1.00  0.00     0.010 A 
ATOM     34  C   UNL A   1      36.660  31.357  28.308  1.00  0.00     0.010 A 
ATOM     35  C   UNL A   1      36.771  30.098  28.920  1.00  0.00    -0.014 A 
BRANCH  35  36
ATOM     36  C   UNL A   1      37.988  29.741  29.698  1.00  0.00     0.031 A 
ATOM     37  C   UNL A   1      38.222  30.325  31.068  1.00  0.00     0.074 A 
ATOM     38  C   UNL A   1      38.910  28.921  29.156  1.00  0.00     0.049 A 
ATOM     39  N   UNL A   1      39.217  30.117  31.893  1.00  0.00    -0.248 NA
ATOM     40  C   UNL A   1      37.221  31.280  31.568  1.00  0.00     0.031 C 
ATOM     41  C   UNL A   1      38.841  28.347  27.810  1.00  0.00     0.029 A 
ATOM     42  N   UNL A   1      40.094  28.442  29.660  1.00  0.00    -0.354 N 
ATOM     43  C   UNL A   1      38.979  30.935  32.992  1.00  0.00     0.074 A 
ATOM     44  C   UNL A   1      37.762  31.667  32.715  1.00  0.00     0.031 C 
ATOM     45  C   UNL A   1      39.929  27.591  27.599  1.00  0.00     0.029 A 
ATOM     46  C   UNL A   1      40.785  27.641  28.781  1.00  0.00     0.049 A 
ATOM     47  H   UNL A   1      40.417  28.652  30.566  1.00  0.00     0.167 HD
ATOM     48  C   UNL A   1      39.689  31.047  34.141  1.00  0.00     0.034 A 
ATOM     49  C   UNL A   1      41.972  27.016  28.910  1.00  0.00     0.034 A 
ATOM     50  C   UNL A   1      40.876  30.287  34.435  1.00  0.00     0.049 A 
ATOM     51  C   UNL A   1      42.718  27.122  30.214  1.00  0.00     0.074 A 
ATOM     52  C   UNL A   1      41.612  30.261  35.605  1.00  0.00     0.029 A 
ATOM     53  N   UNL A   1      41.502  29.425  33.550  1.00  0.00    -0.354 N 
ATOM     54  N   UNL A   1      42.387  27.767  31.306  1.00  0.00    -0.248 NA
ATOM     55  C   UNL A   1      43.984  26.380  30.316  1.00  0.00     0.031 C 
ATOM     56  C   UNL A   1      42.700  29.399  35.420  1.00  0.00     0.029 A 
ATOM     57  C   UNL A   1      42.625  28.869  34.142  1.00  0.00     0.049 A 
ATOM     58  H   UNL A   1      41.195  29.234  32.633  1.00  0.00     0.167 HD
ATOM     59  C   UNL A   1      43.383  27.485  32.234  1.00  0.00     0.074 A 
ATOM     60  C   UNL A   1      44.317  26.588  31.584  1.00  0.00     0.031 C 
ATOM     61  C   UNL A   1      43.521  27.940  33.504  1.00  0.00     0.034 A 
BRANCH  48  62
ATOM     62  C   UNL A   1      39.171  31.990  35.198  1.00  0.00     0.023 A 
ATOM     63  C   UNL A   1      38.168  31.549  36.087  1.00  0.00     0.012 A 
ATOM     64  C   UNL A   1      39.716  33.279  35.356  1.00  0.00     0.148 A 
ATOM     65  C   UNL A   1      37.691  32.389  37.093  1.00  0.00     0.002 A 
ATOM     66  C   UNL A   1      39.264  34.095  36.389  1.00  0.00     0.091 A 
ATOM     67  F   UNL A   1      40.655  33.688  34.492  1.00  0.00    -0.205 F 
ATOM     68  C   UNL A   1      38.245  33.656  37.250  1.00  0.00     0.022 A 
BRANCH  66  69
ATOM     69  S   UNL A   1      39.968  35.714  36.725  1.00  0.00     0.127 S 
ATOM     70  O   UNL A   1      41.386  35.394  36.876  1.00  0.00    -0.237 OA
ATOM     71  O   UNL A   1      39.637  36.453  35.505  1.00  0.00    -0.237 OA
ATOM     72  O   UNL A   1      39.303  36.198  37.926  1.00  0.00    -0.744 OA
ENDBRANCH  66  69
ENDBRANCH  48  62
BRANCH  49  73
ATOM     73  C   UNL A   1      42.493  26.175  27.796  1.00  0.00     0.023 A 
ATOM     74  C   UNL A   1      43.477  26.700  26.935  1.00  0.00     0.012 A 
ATOM     75  C   UNL A   1      42.045  24.854  27.603  1.00  0.00     0.148 A 
ATOM     76  C   UNL A   1      43.983  25.934  25.883  1.00  0.00     0.002 A 
ATOM     77  C   UNL A   1      42.593  24.079  26.588  1.00  0.00     0.091 A 
ATOM     78  F   UNL A   1      41.098  24.378  28.425  1.00  0.00    -0.205 F 
ATOM     79  C   UNL A   1      43.550  24.621  25.717  1.00  0.00     0.022 A 
BRANCH  77  80
ATOM     80  S   UNL A   1      42.193  22.339  26.384  1.00  0.00     0.127 S 
ATOM     81  O   UNL A   1      40.753  22.387  26.153  1.00  0.00    -0.237 OA
ATOM     82  O   UNL A   1      42.994  21.978  25.213  1.00  0.00    -0.237 OA
ATOM     83  O   UNL A   1      42.617  21.692  27.620  1.00  0.00    -0.744 OA
ENDBRANCH  77  80
ENDBRANCH  49  73
BRANCH  61  84
ATOM     84  C   UNL A   1      44.712  27.461  34.292  1.00  0.00     0.023 A 
ATOM     85  C   UNL A   1      45.903  28.216  34.287  1.00  0.00     0.012 A 
ATOM     86  C   UNL A   1      44.632  26.305  35.093  1.00  0.00     0.148 A 
ATOM     87  C   UNL A   1      47.003  27.810  35.040  1.00  0.00     0.002 A 
ATOM     88  C   UNL A   1      45.716  25.932  35.878  1.00  0.00     0.091 A 
ATOM     89  F   UNL A   1      43.498  25.589  35.070  1.00  0.00    -0.205 F 
ATOM     90  C   UNL A   1      46.907  26.676  35.844  1.00  0.00     0.022 A 
BRANCH  88  91
ATOM     91  S   UNL A   1      45.649  24.542  37.014  1.00  0.00     0.127 S 
ATOM     92  O   UNL A   1      47.000  24.547  37.571  1.00  0.00    -0.237 OA
ATOM     93  O   UNL A   1      44.603  24.955  37.950  1.00  0.00    -0.237 OA
ATOM     94  O   UNL A   1      45.309  23.380  36.204  1.00  0.00    -0.744 OA
ENDBRANCH  88  91
ENDBRANCH  61  84
ENDBRANCH  35  36
ENDBRANCH  27  30
ENDBRANCH  25  26
ENDBRANCH   1  25
TORSDOF 16
ENDMDL
MODEL 3
REMARK VINA RESULT:     -11.6      3.727      8.926
REMARK SMILES [NH3+][C@]1(C(=O)NCCCNC(=O)c2ccc(-c3c4nc(c(-c5cccc(S(=O)(=O)[O-])c5F)c5ccc([nH]5)c(-c5cccc(S(=O)(=O)[O-])c5F)c5nc(c(-c6cccc(S(=O)(=O)[O-])c6F)c6ccc3[nH]6)C=C5)C=C4)cc2)CC[C@@H](Sc2ccc(Cl)c(Cl)c2)C1
REMARK SMILES IDX 7 1 6 2 5 3 3 4 4 5 2 7 75 8 87 9 76 10 77 11 1 12 78 16
REMARK SMILES IDX 79 17 80 18 86 19 81 20 84 21 82 22 85 23 83 24 8 25 9 26
REMARK SMILES IDX 10 27 11 29 12 30 13 31 74 32 14 33 73 34 15 35 16 36 17 37
REMARK SMILES IDX 67 38 18 39 72 40 66 41 68 42 19 43 71 44 65 45 64 46 20 48
REMARK SMILES IDX 52 49 32 50 51 51 33 52 36 53 50 54 69 55 34 56 35 57 49 59
REMARK SMILES IDX 70 60 37 61 21 62 22 63 30 64 23 65 25 66 31 67 24 68 26 69
REMARK SMILES IDX 27 70 28 71 29 72 53 73 54 74 62 75 55 76 57 77 63 78 56 79
REMARK SMILES IDX 58 80 59 81 60 82 61 83 38 84 39 85 47 86 40 87 42 88 48 89
REMARK SMILES IDX 41 90 43 91 44 92 45 93 46 94
REMARK H PARENT 5 6 1 13 1 14 1 15 9 28 68 47 36 58
REMARK Flexibility Score: inf
ROOT
ATOM      1  C   UNL A   1      31.400  32.249  26.443  1.00  0.00     0.042 C 
ENDROOT
BRANCH   1   2
ATOM      2  C   UNL A   1      31.581  30.877  25.788  1.00  0.00     0.118 C 
BRANCH   2   3
ATOM      3  N   UNL A   1      31.275  29.784  26.694  1.00  0.00    -0.351 N 
ATOM      4  C   UNL A   1      31.885  28.603  26.958  1.00  0.00     0.281 C 
ATOM      5  O   UNL A   1      31.404  27.951  27.896  1.00  0.00    -0.268 OA
ATOM      6  H   UNL A   1      30.459  29.932  27.225  1.00  0.00     0.163 HD
BRANCH   4   7
ATOM      7  C   UNL A   1      33.191  28.100  26.266  1.00  0.00     0.175 C 
ATOM      8  C   UNL A   1      33.100  26.555  26.167  1.00  0.00     0.080 C 
ATOM      9  C   UNL A   1      33.478  28.548  24.822  1.00  0.00     0.094 C 
ATOM     10  C   UNL A   1      33.976  26.151  24.995  1.00  0.00     0.022 C 
ATOM     11  C   UNL A   1      33.880  27.311  24.016  1.00  0.00     0.058 C 
BRANCH   7  12
ATOM     12  N   UNL A   1      34.334  28.490  27.134  1.00  0.00    -0.345 N 
ATOM     13  H   UNL A   1      35.010  27.727  27.168  1.00  0.00     0.345 HD
ATOM     14  H   UNL A   1      33.995  28.685  28.076  1.00  0.00     0.345 HD
ATOM     15  H   UNL A   1      34.780  29.324  26.753  1.00  0.00     0.345 HD
ENDBRANCH   7  12
BRANCH  11  16
ATOM     16  S   UNL A   1      32.882  27.019  22.493  1.00  0.00    -0.122 SA
BRANCH  16  17
ATOM     17  C   UNL A   1      31.218  27.584  22.808  1.00  0.00     0.009 A 
ATOM     18  C   UNL A   1      30.348  26.701  23.459  1.00  0.00     0.017 A 
ATOM     19  C   UNL A   1      30.689  28.782  22.329  1.00  0.00     0.037 A 
ATOM     20  C   UNL A   1      29.001  27.031  23.661  1.00  0.00     0.023 A 
ATOM     21  C   UNL A   1      29.346  29.128  22.534  1.00  0.00     0.060 A 
ATOM     22  C   UNL A   1      28.499  28.250  23.208  1.00  0.00     0.059 A 
ATOM     23  Cl  UNL A   1      28.811  30.649  21.908  1.00  0.00    -0.083 Cl
ATOM     24  Cl  UNL A   1      26.836  28.609  23.499  1.00  0.00    -0.083 Cl
ENDBRANCH  16  17
ENDBRANCH  11  16
ENDBRANCH   4   7
ENDBRANCH   2   3
ENDBRANCH   1   2
BRANCH   1  25
ATOM     25  C   UNL A   1      32.542  32.663  27.370  1.00  0.00     0.118 C 
BRANCH  25  26
ATOM     26  N   UNL A   1      32.499  34.084  27.669  1.00  0.00    -0.352 N 
ATOM     27  C   UNL A   1      33.138  34.790  28.658  1.00  0.00     0.251 C 
ATOM     28  H   UNL A   1      31.926  34.620  27.076  1.00  0.00     0.163 HD
ATOM     29  O   UNL A   1      32.773  35.940  28.895  1.00  0.00    -0.269 OA
BRANCH  27  30
ATOM     30  C   UNL A   1      34.251  34.195  29.438  1.00  0.00     0.039 A 
ATOM     31  C   UNL A   1      35.557  34.365  28.968  1.00  0.00     0.014 A 
ATOM     32  C   UNL A   1      34.021  33.405  30.568  1.00  0.00     0.014 A 
ATOM     33  C   UNL A   1      36.628  33.763  29.636  1.00  0.00     0.010 A 
ATOM     34  C   UNL A   1      35.097  32.853  31.270  1.00  0.00     0.010 A 
ATOM     35  C   UNL A   1      36.410  33.007  30.799  1.00  0.00    -0.014 A 
BRANCH  35  36
ATOM     36  C   UNL A   1      37.548  32.365  31.512  1.00  0.00     0.031 A 
ATOM     37  C   UNL A   1      38.311  31.232  30.877  1.00  0.00     0.074 A 
ATOM     38  C   UNL A   1      37.874  32.776  32.754  1.00  0.00     0.049 A 
ATOM     39  N   UNL A   1      39.336  30.563  31.344  1.00  0.00    -0.248 NA
ATOM     40  C   UNL A   1      37.852  30.773  29.557  1.00  0.00     0.031 C 
ATOM     41  C   UNL A   1      37.169  33.813  33.511  1.00  0.00     0.029 A 
ATOM     42  N   UNL A   1      38.866  32.359  33.606  1.00  0.00    -0.354 N 
ATOM     43  C   UNL A   1      39.624  29.590  30.394  1.00  0.00     0.074 A 
ATOM     44  C   UNL A   1      38.646  29.734  29.337  1.00  0.00     0.031 C 
ATOM     45  C   UNL A   1      37.755  33.954  34.711  1.00  0.00     0.029 A 
ATOM     46  C   UNL A   1      38.860  33.007  34.819  1.00  0.00     0.049 A 
ATOM     47  H   UNL A   1      39.520  31.662  33.370  1.00  0.00     0.167 HD
ATOM     48  C   UNL A   1      40.627  28.680  30.383  1.00  0.00     0.034 A 
ATOM     49  C   UNL A   1      39.655  32.857  35.899  1.00  0.00     0.034 A 
ATOM     50  C   UNL A   1      41.626  28.566  31.413  1.00  0.00     0.049 A 
ATOM     51  C   UNL A   1      40.789  31.870  35.842  1.00  0.00     0.074 A 
ATOM     52  C   UNL A   1      42.735  27.740  31.449  1.00  0.00     0.029 A 
ATOM     53  N   UNL A   1      41.634  29.295  32.592  1.00  0.00    -0.354 N 
ATOM     54  N   UNL A   1      41.149  31.078  34.861  1.00  0.00    -0.248 NA
ATOM     55  C   UNL A   1      41.654  31.784  37.029  1.00  0.00     0.031 C 
ATOM     56  C   UNL A   1      43.401  27.952  32.661  1.00  0.00     0.029 A 
ATOM     57  C   UNL A   1      42.721  28.930  33.368  1.00  0.00     0.049 A 
ATOM     58  H   UNL A   1      40.965  29.974  32.841  1.00  0.00     0.167 HD
ATOM     59  C   UNL A   1      42.295  30.424  35.297  1.00  0.00     0.074 A 
ATOM     60  C   UNL A   1      42.587  30.932  36.622  1.00  0.00     0.031 C 
ATOM     61  C   UNL A   1      43.031  29.476  34.665  1.00  0.00     0.034 A 
BRANCH  48  62
ATOM     62  C   UNL A   1      40.733  27.765  29.189  1.00  0.00     0.023 A 
ATOM     63  C   UNL A   1      39.902  26.628  29.112  1.00  0.00     0.012 A 
ATOM     64  C   UNL A   1      41.601  28.059  28.119  1.00  0.00     0.148 A 
ATOM     65  C   UNL A   1      39.958  25.779  28.007  1.00  0.00     0.002 A 
ATOM     66  C   UNL A   1      41.619  27.231  27.001  1.00  0.00     0.091 A 
ATOM     67  F   UNL A   1      42.396  29.133  28.216  1.00  0.00    -0.205 F 
ATOM     68  C   UNL A   1      40.808  26.086  26.949  1.00  0.00     0.022 A 
BRANCH  66  69
ATOM     69  S   UNL A   1      42.621  27.582  25.551  1.00  0.00     0.127 S 
ATOM     70  O   UNL A   1      42.379  26.396  24.730  1.00  0.00    -0.237 OA
ATOM     71  O   UNL A   1      42.007  28.810  25.042  1.00  0.00    -0.237 OA
ATOM     72  O   UNL A   1      43.985  27.742  26.034  1.00  0.00    -0.744 OA
ENDBRANCH  66  69
ENDBRANCH  48  62
BRANCH  49  73
ATOM     73  C   UNL A   1      39.447  33.717  37.098  1.00  0.00     0.023 A 
ATOM     74  C   UNL A   1      39.896  35.052  37.078  1.00  0.00     0.012 A 
ATOM     75  C   UNL A   1      38.783  33.232  38.241  1.00  0.00     0.148 A 
ATOM     76  C   UNL A   1      39.714  35.879  38.187  1.00  0.00     0.002 A 
ATOM     77  C   UNL A   1      38.556  34.078  39.321  1.00  0.00     0.091 A 
ATOM     78  F   UNL A   1      38.375  31.955  38.246  1.00  0.00    -0.205 F 
ATOM     79  C   UNL A   1      39.035  35.397  39.303  1.00  0.00     0.022 A 
BRANCH  77  80
ATOM     80  S   UNL A   1      37.575  33.582  40.742  1.00  0.00     0.127 S 
ATOM     81  O   UNL A   1      38.425  32.567  41.354  1.00  0.00    -0.237 OA
ATOM     82  O   UNL A   1      37.472  34.835  41.492  1.00  0.00    -0.237 OA
ATOM     83  O   UNL A   1      36.308  33.107  40.197  1.00  0.00    -0.744 OA
ENDBRANCH  77  80
ENDBRANCH  49  73
BRANCH  61  84
ATOM     84  C   UNL A   1      44.241  28.937  35.382  1.00  0.00     0.023 A 
ATOM     85  C   UNL A   1      45.500  29.538  35.178  1.00  0.00     0.012 A 
ATOM     86  C   UNL A   1      44.121  27.884  36.310  1.00  0.00     0.148 A 
ATOM     87  C   UNL A   1      46.625  29.077  35.861  1.00  0.00     0.002 A 
ATOM     88  C   UNL A   1      45.237  27.463  37.023  1.00  0.00     0.091 A 
ATOM     89  F   UNL A   1      42.919  27.313  36.477  1.00  0.00    -0.205 F 
ATOM     90  C   UNL A   1      46.491  28.049  36.791  1.00  0.00     0.022 A 
BRANCH  88  91
ATOM     91  S   UNL A   1      45.141  26.210  38.308  1.00  0.00     0.127 S 
ATOM     92  O   UNL A   1      44.271  26.856  39.289  1.00  0.00    -0.237 OA
ATOM     93  O   UNL A   1      44.531  25.084  37.600  1.00  0.00    -0.237 OA
ATOM     94  O   UNL A   1      46.512  25.978  38.742  1.00  0.00    -0.744 OA
ENDBRANCH  88  91
ENDBRANCH  61  84
ENDBRANCH  35  36
ENDBRANCH  27  30
ENDBRANCH  25  26
ENDBRANCH   1  25
TORSDOF 16
ENDMDL
