MODEL 1
REMARK VINA RESULT:     -12.1      0.000      0.000
REMARK SMILES CC[C@@H]1CC[C@](C[C@@H]2CCCc3ccccc32)(C(=O)NCCCNC(=O)c2ccc(-c3c4nc(c(-c5cccc(S(=O)(=O)[O-])c5F)c5ccc([nH]5)c(-c5cccc(S(=O)(=O)[O-])c5F)c5nc(c(-c6cccc(S(=O)(=O)[O-])c6F)c6ccc3[nH]6)C=C5)C=C4)cc2)C1
REMARK SMILES IDX 22 1 21 2 20 3 18 4 19 5 6 7 3 8 4 9 90 10 5 11 2 12 1 13
REMARK SMILES IDX 7 14 8 15 9 16 17 17 10 18 12 19 16 20 11 21 13 22 15 23
REMARK SMILES IDX 14 24 23 25 24 26 25 27 26 29 27 30 28 31 89 32 29 33 88 34
REMARK SMILES IDX 30 35 31 36 32 37 82 38 33 39 87 40 81 41 83 42 34 43 86 44
REMARK SMILES IDX 80 45 79 46 35 48 67 49 47 50 66 51 48 52 51 53 65 54 84 55
REMARK SMILES IDX 49 56 50 57 64 59 85 60 52 61 36 62 37 63 45 64 38 65 40 66
REMARK SMILES IDX 46 67 39 68 41 69 42 70 43 71 44 72 68 73 69 74 77 75 70 76
REMARK SMILES IDX 72 77 78 78 71 79 73 80 74 81 75 82 76 83 53 84 54 85 62 86
REMARK SMILES IDX 55 87 57 88 63 89 56 90 58 91 59 92 60 93 61 94
REMARK H PARENT 20 6 24 28 83 47 51 58
REMARK Flexibility Score: inf
ROOT
ATOM      1  C   UNL A   1      33.567  28.996  24.852  1.00  0.00     0.042 C 
ENDROOT
BRANCH   1   2
ATOM      2  C   UNL A   1      32.762  27.818  24.350  1.00  0.00     0.117 C 
BRANCH   2   3
ATOM      3  N   UNL A   1      33.146  27.356  23.026  1.00  0.00    -0.356 N 
ATOM      4  C   UNL A   1      33.372  26.088  22.563  1.00  0.00     0.226 C 
ATOM      5  O   UNL A   1      33.550  25.965  21.350  1.00  0.00    -0.274 OA
ATOM      6  H   UNL A   1      33.262  28.068  22.356  1.00  0.00     0.163 HD
BRANCH   4   7
ATOM      7  C   UNL A   1      33.422  24.886  23.547  1.00  0.00     0.050 C 
ATOM      8  C   UNL A   1      32.494  22.634  23.283  1.00  0.00    -0.010 C 
ATOM      9  C   UNL A   1      31.330  23.552  23.615  1.00  0.00     0.005 C 
ATOM     10  C   UNL A   1      33.500  23.615  22.676  1.00  0.00     0.020 C 
ATOM     11  C   UNL A   1      32.039  24.735  24.272  1.00  0.00     0.017 C 
BRANCH   8  12
ATOM     12  C   UNL A   1      32.155  21.454  22.371  1.00  0.00     0.000 C 
ATOM     13  C   UNL A   1      32.263  20.123  23.108  1.00  0.00     0.004 C 
ENDBRANCH   8  12
BRANCH   7  14
ATOM     14  C   UNL A   1      34.528  25.194  24.610  1.00  0.00     0.025 C 
BRANCH  14  15
ATOM     15  C   UNL A   1      35.501  24.177  25.284  1.00  0.00     0.020 C 
ATOM     16  C   UNL A   1      36.794  23.717  24.596  1.00  0.00     0.009 C 
ATOM     17  C   UNL A   1      34.776  23.054  25.982  1.00  0.00    -0.042 A 
ATOM     18  C   UNL A   1      36.754  22.374  23.879  1.00  0.00     0.005 C 
ATOM     19  C   UNL A   1      34.906  21.724  25.574  1.00  0.00    -0.045 A 
ATOM     20  C   UNL A   1      33.968  23.361  27.094  1.00  0.00     0.004 A 
ATOM     21  C   UNL A   1      35.909  21.286  24.542  1.00  0.00     0.036 C 
ATOM     22  C   UNL A   1      34.131  20.743  26.214  1.00  0.00     0.004 A 
ATOM     23  C   UNL A   1      33.241  22.374  27.747  1.00  0.00     0.000 A 
ATOM     24  C   UNL A   1      33.300  21.066  27.288  1.00  0.00     0.000 A 
ENDBRANCH  14  15
ENDBRANCH   7  14
ENDBRANCH   4   7
ENDBRANCH   2   3
ENDBRANCH   1   2
BRANCH   1  25
ATOM     25  C   UNL A   1      33.672  29.077  26.364  1.00  0.00     0.118 C 
BRANCH  25  26
ATOM     26  N   UNL A   1      33.719  30.445  26.870  1.00  0.00    -0.352 N 
ATOM     27  C   UNL A   1      34.632  31.054  27.698  1.00  0.00     0.251 C 
ATOM     28  H   UNL A   1      32.980  31.023  26.571  1.00  0.00     0.163 HD
ATOM     29  O   UNL A   1      34.408  32.189  28.116  1.00  0.00    -0.269 OA
BRANCH  27  30
ATOM     30  C   UNL A   1      35.861  30.341  28.113  1.00  0.00     0.039 A 
ATOM     31  C   UNL A   1      36.980  30.373  27.279  1.00  0.00     0.014 A 
ATOM     32  C   UNL A   1      35.920  29.658  29.328  1.00  0.00     0.014 A 
ATOM     33  C   UNL A   1      38.179  29.794  27.705  1.00  0.00     0.010 A 
ATOM     34  C   UNL A   1      37.140  29.192  29.802  1.00  0.00     0.010 A 
ATOM     35  C   UNL A   1      38.282  29.240  28.992  1.00  0.00    -0.014 A 
BRANCH  35  36
ATOM     36  C   UNL A   1      39.568  28.704  29.511  1.00  0.00     0.031 A 
ATOM     37  C   UNL A   1      40.284  29.406  30.634  1.00  0.00     0.074 A 
ATOM     38  C   UNL A   1      40.144  27.644  28.907  1.00  0.00     0.049 A 
ATOM     39  N   UNL A   1      41.444  29.131  31.173  1.00  0.00    -0.248 NA
ATOM     40  C   UNL A   1      39.629  30.596  31.205  1.00  0.00     0.031 C 
ATOM     41  C   UNL A   1      39.599  26.927  27.751  1.00  0.00     0.029 A 
ATOM     42  N   UNL A   1      41.327  26.998  29.167  1.00  0.00    -0.354 N 
ATOM     43  C   UNL A   1      41.674  30.133  32.110  1.00  0.00     0.074 A 
ATOM     44  C   UNL A   1      40.557  31.047  32.035  1.00  0.00     0.031 C 
ATOM     45  C   UNL A   1      40.439  25.937  27.410  1.00  0.00     0.029 A 
ATOM     46  C   UNL A   1      41.598  25.968  28.295  1.00  0.00     0.049 A 
ATOM     47  H   UNL A   1      41.926  27.250  29.907  1.00  0.00     0.167 HD
ATOM     48  C   UNL A   1      42.706  30.266  32.978  1.00  0.00     0.034 A 
ATOM     49  C   UNL A   1      42.663  25.147  28.212  1.00  0.00     0.034 A 
ATOM     50  C   UNL A   1      43.793  29.332  33.080  1.00  0.00     0.049 A 
ATOM     51  C   UNL A   1      43.775  25.287  29.215  1.00  0.00     0.074 A 
ATOM     52  C   UNL A   1      44.834  29.322  33.992  1.00  0.00     0.029 A 
ATOM     53  N   UNL A   1      43.989  28.249  32.237  1.00  0.00    -0.354 N 
ATOM     54  N   UNL A   1      43.896  26.144  30.200  1.00  0.00    -0.248 NA
ATOM     55  C   UNL A   1      44.882  24.323  29.119  1.00  0.00     0.031 C 
ATOM     56  C   UNL A   1      45.679  28.252  33.677  1.00  0.00     0.029 A 
ATOM     57  C   UNL A   1      45.141  27.571  32.596  1.00  0.00     0.049 A 
ATOM     58  H   UNL A   1      43.394  27.999  31.493  1.00  0.00     0.167 HD
ATOM     59  C   UNL A   1      45.068  25.801  30.863  1.00  0.00     0.074 A 
ATOM     60  C   UNL A   1      45.611  24.645  30.180  1.00  0.00     0.031 C 
ATOM     61  C   UNL A   1      45.648  26.395  31.936  1.00  0.00     0.034 A 
BRANCH  48  62
ATOM     62  C   UNL A   1      42.682  31.447  33.915  1.00  0.00     0.023 A 
ATOM     63  C   UNL A   1      43.242  32.676  33.507  1.00  0.00     0.012 A 
ATOM     64  C   UNL A   1      42.068  31.356  35.179  1.00  0.00     0.148 A 
ATOM     65  C   UNL A   1      43.235  33.779  34.360  1.00  0.00     0.002 A 
ATOM     66  C   UNL A   1      42.019  32.474  36.003  1.00  0.00     0.091 A 
ATOM     67  F   UNL A   1      41.559  30.176  35.559  1.00  0.00    -0.205 F 
ATOM     68  C   UNL A   1      42.616  33.681  35.602  1.00  0.00     0.022 A 
BRANCH  66  69
ATOM     69  S   UNL A   1      41.169  32.475  37.585  1.00  0.00     0.127 S 
ATOM     70  O   UNL A   1      39.867  31.921  37.220  1.00  0.00    -0.237 OA
ATOM     71  O   UNL A   1      42.009  31.582  38.384  1.00  0.00    -0.237 OA
ATOM     72  O   UNL A   1      41.157  33.860  38.035  1.00  0.00    -0.744 OA
ENDBRANCH  66  69
ENDBRANCH  48  62
BRANCH  49  73
ATOM     73  C   UNL A   1      42.697  24.079  27.174  1.00  0.00     0.023 A 
ATOM     74  C   UNL A   1      43.399  24.300  25.973  1.00  0.00     0.012 A 
ATOM     75  C   UNL A   1      42.069  22.835  27.382  1.00  0.00     0.148 A 
ATOM     76  C   UNL A   1      43.448  23.317  24.985  1.00  0.00     0.002 A 
ATOM     77  C   UNL A   1      42.171  21.838  26.418  1.00  0.00     0.091 A 
ATOM     78  F   UNL A   1      41.401  22.646  28.528  1.00  0.00    -0.205 F 
ATOM     79  C   UNL A   1      42.844  22.083  25.211  1.00  0.00     0.022 A 
BRANCH  77  80
ATOM     80  S   UNL A   1      41.540  20.176  26.677  1.00  0.00     0.127 S 
ATOM     81  O   UNL A   1      41.927  19.513  25.434  1.00  0.00    -0.237 OA
ATOM     82  O   UNL A   1      42.287  19.754  27.862  1.00  0.00    -0.237 OA
ATOM     83  O   UNL A   1      40.107  20.327  26.892  1.00  0.00    -0.744 OA
ENDBRANCH  77  80
ENDBRANCH  49  73
BRANCH  61  84
ATOM     84  C   UNL A   1      46.916  25.786  32.474  1.00  0.00     0.023 A 
ATOM     85  C   UNL A   1      48.168  26.215  31.988  1.00  0.00     0.012 A 
ATOM     86  C   UNL A   1      46.867  24.839  33.515  1.00  0.00     0.148 A 
ATOM     87  C   UNL A   1      49.349  25.684  32.506  1.00  0.00     0.002 A 
ATOM     88  C   UNL A   1      48.048  24.354  34.063  1.00  0.00     0.091 A 
ATOM     89  F   UNL A   1      45.667  24.430  33.951  1.00  0.00    -0.205 F 
ATOM     90  C   UNL A   1      49.289  24.764  33.550  1.00  0.00     0.022 A 
BRANCH  88  91
ATOM     91  S   UNL A   1      48.070  23.245  35.476  1.00  0.00     0.127 S 
ATOM     92  O   UNL A   1      47.337  24.022  36.475  1.00  0.00    -0.237 OA
ATOM     93  O   UNL A   1      47.352  22.077  34.964  1.00  0.00    -0.237 OA
ATOM     94  O   UNL A   1      49.475  23.006  35.778  1.00  0.00    -0.744 OA
ENDBRANCH  88  91
ENDBRANCH  61  84
ENDBRANCH  35  36
ENDBRANCH  27  30
ENDBRANCH  25  26
ENDBRANCH   1  25
TORSDOF 16
ENDMDL
MODEL 2
REMARK VINA RESULT:     -12.0      0.661      2.033
REMARK SMILES CC[C@@H]1CC[C@](C[C@@H]2CCCc3ccccc32)(C(=O)NCCCNC(=O)c2ccc(-c3c4nc(c(-c5cccc(S(=O)(=O)[O-])c5F)c5ccc([nH]5)c(-c5cccc(S(=O)(=O)[O-])c5F)c5nc(c(-c6cccc(S(=O)(=O)[O-])c6F)c6ccc3[nH]6)C=C5)C=C4)cc2)C1
REMARK SMILES IDX 22 1 21 2 20 3 18 4 19 5 6 7 3 8 4 9 90 10 5 11 2 12 1 13
REMARK SMILES IDX 7 14 8 15 9 16 17 17 10 18 12 19 16 20 11 21 13 22 15 23
REMARK SMILES IDX 14 24 23 25 24 26 25 27 26 29 27 30 28 31 89 32 29 33 88 34
REMARK SMILES IDX 30 35 31 36 32 37 82 38 33 39 87 40 81 41 83 42 34 43 86 44
REMARK SMILES IDX 80 45 79 46 35 48 67 49 47 50 66 51 48 52 51 53 65 54 84 55
REMARK SMILES IDX 49 56 50 57 64 59 85 60 52 61 36 62 37 63 45 64 38 65 40 66
REMARK SMILES IDX 46 67 39 68 41 69 42 70 43 71 44 72 68 73 69 74 77 75 70 76
REMARK SMILES IDX 72 77 78 78 71 79 73 80 74 81 75 82 76 83 53 84 54 85 62 86
REMARK SMILES IDX 55 87 57 88 63 89 56 90 58 91 59 92 60 93 61 94
REMARK H PARENT 20 6 24 28 83 47 51 58
REMARK Flexibility Score: inf
ROOT
ATOM      1  C   UNL A   1      34.056  28.350  24.883  1.00  0.00     0.042 C 
ENDROOT
BRANCH   1   2
ATOM      2  C   UNL A   1      33.188  27.175  24.493  1.00  0.00     0.117 C 
BRANCH   2   3
ATOM      3  N   UNL A   1      33.412  26.692  23.139  1.00  0.00    -0.356 N 
ATOM      4  C   UNL A   1      33.589  25.418  22.673  1.00  0.00     0.226 C 
ATOM      5  O   UNL A   1      33.620  25.276  21.449  1.00  0.00    -0.274 OA
ATOM      6  H   UNL A   1      33.440  27.393  22.449  1.00  0.00     0.163 HD
BRANCH   4   7
ATOM      7  C   UNL A   1      33.768  24.233  23.662  1.00  0.00     0.050 C 
ATOM      8  C   UNL A   1      35.760  23.556  24.917  1.00  0.00    -0.010 C 
ATOM      9  C   UNL A   1      35.967  23.096  23.485  1.00  0.00     0.005 C 
ATOM     10  C   UNL A   1      34.771  24.710  24.733  1.00  0.00     0.020 C 
ATOM     11  C   UNL A   1      34.534  23.061  22.956  1.00  0.00     0.017 C 
BRANCH   8  12
ATOM     12  C   UNL A   1      37.035  23.949  25.667  1.00  0.00     0.000 C 
ATOM     13  C   UNL A   1      37.988  22.767  25.816  1.00  0.00     0.004 C 
ENDBRANCH   8  12
BRANCH   7  14
ATOM     14  C   UNL A   1      32.340  23.741  24.070  1.00  0.00     0.025 C 
BRANCH  14  15
ATOM     15  C   UNL A   1      31.975  22.734  25.204  1.00  0.00     0.020 C 
ATOM     16  C   UNL A   1      32.012  23.137  26.686  1.00  0.00     0.009 C 
ATOM     17  C   UNL A   1      32.529  21.354  24.958  1.00  0.00    -0.042 A 
ATOM     18  C   UNL A   1      33.250  22.743  27.478  1.00  0.00     0.005 C 
ATOM     19  C   UNL A   1      33.474  20.774  25.809  1.00  0.00    -0.045 A 
ATOM     20  C   UNL A   1      32.054  20.624  23.852  1.00  0.00     0.004 A 
ATOM     21  C   UNL A   1      33.870  21.391  27.123  1.00  0.00     0.036 C 
ATOM     22  C   UNL A   1      34.012  19.523  25.467  1.00  0.00     0.004 A 
ATOM     23  C   UNL A   1      32.563  19.367  23.549  1.00  0.00     0.000 A 
ATOM     24  C   UNL A   1      33.565  18.828  24.342  1.00  0.00     0.000 A 
ENDBRANCH  14  15
ENDBRANCH   7  14
ENDBRANCH   4   7
ENDBRANCH   2   3
ENDBRANCH   1   2
BRANCH   1  25
ATOM     25  C   UNL A   1      34.156  28.578  26.379  1.00  0.00     0.118 C 
BRANCH  25  26
ATOM     26  N   UNL A   1      33.821  29.940  26.782  1.00  0.00    -0.352 N 
ATOM     27  C   UNL A   1      34.460  30.791  27.653  1.00  0.00     0.251 C 
ATOM     28  H   UNL A   1      33.007  30.308  26.365  1.00  0.00     0.163 HD
ATOM     29  O   UNL A   1      33.927  31.857  27.958  1.00  0.00    -0.269 OA
BRANCH  27  30
ATOM     30  C   UNL A   1      35.763  30.417  28.247  1.00  0.00     0.039 A 
ATOM     31  C   UNL A   1      35.784  29.732  29.464  1.00  0.00     0.014 A 
ATOM     32  C   UNL A   1      36.961  30.721  27.601  1.00  0.00     0.014 A 
ATOM     33  C   UNL A   1      37.001  29.281  29.984  1.00  0.00     0.010 A 
ATOM     34  C   UNL A   1      38.152  30.167  28.053  1.00  0.00     0.010 A 
ATOM     35  C   UNL A   1      38.191  29.453  29.258  1.00  0.00    -0.014 A 
BRANCH  35  36
ATOM     36  C   UNL A   1      39.485  28.899  29.737  1.00  0.00     0.031 A 
ATOM     37  C   UNL A   1      40.230  29.577  30.856  1.00  0.00     0.074 A 
ATOM     38  C   UNL A   1      40.039  27.847  29.102  1.00  0.00     0.049 A 
ATOM     39  N   UNL A   1      41.400  29.285  31.364  1.00  0.00    -0.248 NA
ATOM     40  C   UNL A   1      39.596  30.760  31.463  1.00  0.00     0.031 C 
ATOM     41  C   UNL A   1      39.463  27.155  27.946  1.00  0.00     0.029 A 
ATOM     42  N   UNL A   1      41.224  27.190  29.323  1.00  0.00    -0.354 N 
ATOM     43  C   UNL A   1      41.659  30.269  32.312  1.00  0.00     0.074 A 
ATOM     44  C   UNL A   1      40.546  31.190  32.279  1.00  0.00     0.031 C 
ATOM     45  C   UNL A   1      40.290  26.166  27.568  1.00  0.00     0.029 A 
ATOM     46  C   UNL A   1      41.468  26.174  28.427  1.00  0.00     0.049 A 
ATOM     47  H   UNL A   1      41.842  27.424  30.053  1.00  0.00     0.167 HD
ATOM     48  C   UNL A   1      42.711  30.380  33.159  1.00  0.00     0.034 A 
ATOM     49  C   UNL A   1      42.526  25.348  28.304  1.00  0.00     0.034 A 
ATOM     50  C   UNL A   1      43.794  29.438  33.219  1.00  0.00     0.049 A 
ATOM     51  C   UNL A   1      43.662  25.463  29.284  1.00  0.00     0.074 A 
ATOM     52  C   UNL A   1      44.855  29.405  34.106  1.00  0.00     0.029 A 
ATOM     53  N   UNL A   1      43.963  28.369  32.353  1.00  0.00    -0.354 N 
ATOM     54  N   UNL A   1      43.810  26.302  30.281  1.00  0.00    -0.248 NA
ATOM     55  C   UNL A   1      44.760  24.495  29.145  1.00  0.00     0.031 C 
ATOM     56  C   UNL A   1      45.686  28.336  33.753  1.00  0.00     0.029 A 
ATOM     57  C   UNL A   1      45.119  27.678  32.673  1.00  0.00     0.049 A 
ATOM     58  H   UNL A   1      43.350  28.136  31.618  1.00  0.00     0.167 HD
ATOM     59  C   UNL A   1      44.995  25.940  30.910  1.00  0.00     0.074 A 
ATOM     60  C   UNL A   1      45.515  24.793  30.194  1.00  0.00     0.031 C 
ATOM     61  C   UNL A   1      45.603  26.511  31.981  1.00  0.00     0.034 A 
BRANCH  48  62
ATOM     62  C   UNL A   1      42.716  31.544  34.117  1.00  0.00     0.023 A 
ATOM     63  C   UNL A   1      43.316  32.763  33.736  1.00  0.00     0.012 A 
ATOM     64  C   UNL A   1      42.091  31.448  35.376  1.00  0.00     0.148 A 
ATOM     65  C   UNL A   1      43.335  33.850  34.609  1.00  0.00     0.002 A 
ATOM     66  C   UNL A   1      42.070  32.553  36.220  1.00  0.00     0.091 A 
ATOM     67  F   UNL A   1      41.544  30.278  35.731  1.00  0.00    -0.205 F 
ATOM     68  C   UNL A   1      42.705  33.748  35.844  1.00  0.00     0.022 A 
BRANCH  66  69
ATOM     69  S   UNL A   1      41.209  32.550  37.796  1.00  0.00     0.127 S 
ATOM     70  O   UNL A   1      39.887  32.063  37.409  1.00  0.00    -0.237 OA
ATOM     71  O   UNL A   1      42.004  31.602  38.577  1.00  0.00    -0.237 OA
ATOM     72  O   UNL A   1      41.254  33.923  38.281  1.00  0.00    -0.744 OA
ENDBRANCH  66  69
ENDBRANCH  48  62
BRANCH  49  73
ATOM     73  C   UNL A   1      42.529  24.298  27.246  1.00  0.00     0.023 A 
ATOM     74  C   UNL A   1      43.112  24.577  25.994  1.00  0.00     0.012 A 
ATOM     75  C   UNL A   1      41.992  23.019  27.483  1.00  0.00     0.148 A 
ATOM     76  C   UNL A   1      43.130  23.613  24.987  1.00  0.00     0.002 A 
ATOM     77  C   UNL A   1      42.065  22.043  26.495  1.00  0.00     0.091 A 
ATOM     78  F   UNL A   1      41.437  22.775  28.679  1.00  0.00    -0.205 F 
ATOM     79  C   UNL A   1      42.617  22.343  25.240  1.00  0.00     0.022 A 
BRANCH  77  80
ATOM     80  S   UNL A   1      41.552  20.344  26.775  1.00  0.00     0.127 S 
ATOM     81  O   UNL A   1      40.119  20.500  27.014  1.00  0.00    -0.237 OA
ATOM     82  O   UNL A   1      41.901  19.714  25.502  1.00  0.00    -0.237 OA
ATOM     83  O   UNL A   1      42.335  19.878  27.911  1.00  0.00    -0.744 OA
ENDBRANCH  77  80
ENDBRANCH  49  73
BRANCH  61  84
ATOM     84  C   UNL A   1      46.880  25.884  32.478  1.00  0.00     0.023 A 
ATOM     85  C   UNL A   1      48.123  26.323  31.980  1.00  0.00     0.012 A 
ATOM     86  C   UNL A   1      46.848  24.910  33.495  1.00  0.00     0.148 A 
ATOM     87  C   UNL A   1      49.312  25.776  32.461  1.00  0.00     0.002 A 
ATOM     88  C   UNL A   1      48.037  24.409  34.007  1.00  0.00     0.091 A 
ATOM     89  F   UNL A   1      45.655  24.494  33.943  1.00  0.00    -0.205 F 
ATOM     90  C   UNL A   1      49.270  24.829  33.482  1.00  0.00     0.022 A 
BRANCH  88  91
ATOM     91  S   UNL A   1      48.083  23.263  35.390  1.00  0.00     0.127 S 
ATOM     92  O   UNL A   1      47.425  22.086  34.823  1.00  0.00    -0.237 OA
ATOM     93  O   UNL A   1      49.521  23.108  35.616  1.00  0.00    -0.237 OA
ATOM     94  O   UNL A   1      47.366  23.916  36.478  1.00  0.00    -0.744 OA
ENDBRANCH  88  91
ENDBRANCH  61  84
ENDBRANCH  35  36
ENDBRANCH  27  30
ENDBRANCH  25  26
ENDBRANCH   1  25
TORSDOF 16
ENDMDL
MODEL 3
REMARK VINA RESULT:     -12.0      1.970      2.673
REMARK SMILES CC[C@@H]1CC[C@](C[C@@H]2CCCc3ccccc32)(C(=O)NCCCNC(=O)c2ccc(-c3c4nc(c(-c5cccc(S(=O)(=O)[O-])c5F)c5ccc([nH]5)c(-c5cccc(S(=O)(=O)[O-])c5F)c5nc(c(-c6cccc(S(=O)(=O)[O-])c6F)c6ccc3[nH]6)C=C5)C=C4)cc2)C1
REMARK SMILES IDX 22 1 21 2 20 3 18 4 19 5 6 7 3 8 4 9 90 10 5 11 2 12 1 13
REMARK SMILES IDX 7 14 8 15 9 16 17 17 10 18 12 19 16 20 11 21 13 22 15 23
REMARK SMILES IDX 14 24 23 25 24 26 25 27 26 29 27 30 28 31 89 32 29 33 88 34
REMARK SMILES IDX 30 35 31 36 32 37 82 38 33 39 87 40 81 41 83 42 34 43 86 44
REMARK SMILES IDX 80 45 79 46 35 48 67 49 47 50 66 51 48 52 51 53 65 54 84 55
REMARK SMILES IDX 49 56 50 57 64 59 85 60 52 61 36 62 37 63 45 64 38 65 40 66
REMARK SMILES IDX 46 67 39 68 41 69 42 70 43 71 44 72 68 73 69 74 77 75 70 76
REMARK SMILES IDX 72 77 78 78 71 79 73 80 74 81 75 82 76 83 53 84 54 85 62 86
REMARK SMILES IDX 55 87 57 88 63 89 56 90 58 91 59 92 60 93 61 94
REMARK H PARENT 20 6 24 28 83 47 51 58
REMARK Flexibility Score: inf
ROOT
ATOM      1  C   UNL A   1      32.755  29.024  24.688  1.00  0.00     0.042 C 
ENDROOT
BRANCH   1   2
ATOM      2  C   UNL A   1      32.313  27.644  24.253  1.00  0.00     0.117 C 
BRANCH   2   3
ATOM      3  N   UNL A   1      32.809  27.245  22.945  1.00  0.00    -0.356 N 
ATOM      4  C   UNL A   1      33.192  26.016  22.482  1.00  0.00     0.226 C 
ATOM      5  O   UNL A   1      33.441  25.931  21.278  1.00  0.00    -0.274 OA
ATOM      6  H   UNL A   1      32.881  27.975  22.289  1.00  0.00     0.163 HD
BRANCH   4   7
ATOM      7  C   UNL A   1      33.322  24.811  23.455  1.00  0.00     0.050 C 
ATOM      8  C   UNL A   1      32.477  22.526  23.206  1.00  0.00    -0.010 C 
ATOM      9  C   UNL A   1      31.288  23.393  23.580  1.00  0.00     0.005 C 
ATOM     10  C   UNL A   1      33.423  23.549  22.574  1.00  0.00     0.020 C 
ATOM     11  C   UNL A   1      31.970  24.600  24.223  1.00  0.00     0.017 C 
BRANCH   8  12
ATOM     12  C   UNL A   1      32.156  21.337  22.296  1.00  0.00     0.000 C 
ATOM     13  C   UNL A   1      32.171  20.020  23.065  1.00  0.00     0.004 C 
ENDBRANCH   8  12
BRANCH   7  14
ATOM     14  C   UNL A   1      34.449  25.157  24.484  1.00  0.00     0.025 C 
BRANCH  14  15
ATOM     15  C   UNL A   1      35.404  24.161  25.211  1.00  0.00     0.020 C 
ATOM     16  C   UNL A   1      36.714  23.683  24.569  1.00  0.00     0.009 C 
ATOM     17  C   UNL A   1      34.662  23.057  25.922  1.00  0.00    -0.042 A 
ATOM     18  C   UNL A   1      36.692  22.321  23.889  1.00  0.00     0.005 C 
ATOM     19  C   UNL A   1      34.803  21.716  25.555  1.00  0.00    -0.045 A 
ATOM     20  C   UNL A   1      33.827  23.394  27.004  1.00  0.00     0.004 A 
ATOM     21  C   UNL A   1      35.832  21.250  24.561  1.00  0.00     0.036 C 
ATOM     22  C   UNL A   1      34.013  20.753  26.203  1.00  0.00     0.004 A 
ATOM     23  C   UNL A   1      33.084  22.426  27.667  1.00  0.00     0.000 A 
ATOM     24  C   UNL A   1      33.155  21.105  27.246  1.00  0.00     0.000 A 
ENDBRANCH  14  15
ENDBRANCH   7  14
ENDBRANCH   4   7
ENDBRANCH   2   3
ENDBRANCH   1   2
BRANCH   1  25
ATOM     25  C   UNL A   1      32.379  29.373  26.116  1.00  0.00     0.118 C 
BRANCH  25  26
ATOM     26  N   UNL A   1      32.264  30.809  26.350  1.00  0.00    -0.352 N 
ATOM     27  C   UNL A   1      33.073  31.659  27.068  1.00  0.00     0.251 C 
ATOM     28  H   UNL A   1      31.483  31.237  25.929  1.00  0.00     0.163 HD
ATOM     29  O   UNL A   1      32.716  32.821  27.254  1.00  0.00    -0.269 OA
BRANCH  27  30
ATOM     30  C   UNL A   1      34.348  31.175  27.641  1.00  0.00     0.039 A 
ATOM     31  C   UNL A   1      35.360  32.096  27.924  1.00  0.00     0.014 A 
ATOM     32  C   UNL A   1      34.544  29.822  27.919  1.00  0.00     0.014 A 
ATOM     33  C   UNL A   1      36.528  31.668  28.562  1.00  0.00     0.010 A 
ATOM     34  C   UNL A   1      35.648  29.420  28.661  1.00  0.00     0.010 A 
ATOM     35  C   UNL A   1      36.661  30.333  28.980  1.00  0.00    -0.014 A 
BRANCH  35  36
ATOM     36  C   UNL A   1      37.848  29.869  29.745  1.00  0.00     0.031 A 
ATOM     37  C   UNL A   1      38.110  30.399  31.131  1.00  0.00     0.074 A 
ATOM     38  C   UNL A   1      38.743  29.048  29.160  1.00  0.00     0.049 A 
ATOM     39  N   UNL A   1      39.124  30.167  31.924  1.00  0.00    -0.248 NA
ATOM     40  C   UNL A   1      37.123  31.342  31.684  1.00  0.00     0.031 C 
ATOM     41  C   UNL A   1      38.654  28.534  27.791  1.00  0.00     0.029 A 
ATOM     42  N   UNL A   1      39.919  28.521  29.634  1.00  0.00    -0.354 N 
ATOM     43  C   UNL A   1      38.919  30.964  33.045  1.00  0.00     0.074 A 
ATOM     44  C   UNL A   1      37.709  31.720  32.810  1.00  0.00     0.031 C 
ATOM     45  C   UNL A   1      39.721  27.758  27.541  1.00  0.00     0.029 A 
ATOM     46  C   UNL A   1      40.588  27.748  28.713  1.00  0.00     0.049 A 
ATOM     47  H   UNL A   1      40.252  28.683  30.546  1.00  0.00     0.167 HD
ATOM     48  C   UNL A   1      39.651  31.040  34.182  1.00  0.00     0.034 A 
ATOM     49  C   UNL A   1      41.773  27.109  28.799  1.00  0.00     0.034 A 
ATOM     50  C   UNL A   1      40.829  30.255  34.430  1.00  0.00     0.049 A 
ATOM     51  C   UNL A   1      42.546  27.172  30.088  1.00  0.00     0.074 A 
ATOM     52  C   UNL A   1      41.586  30.183  35.586  1.00  0.00     0.029 A 
ATOM     53  N   UNL A   1      41.430  29.415  33.506  1.00  0.00    -0.354 N 
ATOM     54  N   UNL A   1      42.250  27.805  31.198  1.00  0.00    -0.248 NA
ATOM     55  C   UNL A   1      43.798  26.405  30.150  1.00  0.00     0.031 C 
ATOM     56  C   UNL A   1      42.666  29.326  35.348  1.00  0.00     0.029 A 
ATOM     57  C   UNL A   1      42.557  28.831  34.058  1.00  0.00     0.049 A 
ATOM     58  H   UNL A   1      41.102  29.256  32.591  1.00  0.00     0.167 HD
ATOM     59  C   UNL A   1      43.257  27.482  32.100  1.00  0.00     0.074 A 
ATOM     60  C   UNL A   1      44.160  26.582  31.413  1.00  0.00     0.031 C 
ATOM     61  C   UNL A   1      43.423  27.901  33.380  1.00  0.00     0.034 A 
BRANCH  48  62
ATOM     62  C   UNL A   1      39.172  31.977  35.261  1.00  0.00     0.023 A 
ATOM     63  C   UNL A   1      38.194  31.544  36.182  1.00  0.00     0.012 A 
ATOM     64  C   UNL A   1      39.717  33.269  35.393  1.00  0.00     0.148 A 
ATOM     65  C   UNL A   1      37.733  32.396  37.184  1.00  0.00     0.002 A 
ATOM     66  C   UNL A   1      39.289  34.095  36.426  1.00  0.00     0.091 A 
ATOM     67  F   UNL A   1      40.630  33.672  34.498  1.00  0.00    -0.205 F 
ATOM     68  C   UNL A   1      38.287  33.666  37.312  1.00  0.00     0.022 A 
BRANCH  66  69
ATOM     69  S   UNL A   1      40.002  35.715  36.729  1.00  0.00     0.127 S 
ATOM     70  O   UNL A   1      41.421  35.392  36.861  1.00  0.00    -0.237 OA
ATOM     71  O   UNL A   1      39.653  36.436  35.505  1.00  0.00    -0.237 OA
ATOM     72  O   UNL A   1      39.359  36.218  37.935  1.00  0.00    -0.744 OA
ENDBRANCH  66  69
ENDBRANCH  48  62
BRANCH  49  73
ATOM     73  C   UNL A   1      42.267  26.304  27.647  1.00  0.00     0.023 A 
ATOM     74  C   UNL A   1      43.148  26.891  26.718  1.00  0.00     0.012 A 
ATOM     75  C   UNL A   1      41.898  24.955  27.485  1.00  0.00     0.148 A 
ATOM     76  C   UNL A   1      43.628  26.159  25.632  1.00  0.00     0.002 A 
ATOM     77  C   UNL A   1      42.424  24.215  26.432  1.00  0.00     0.091 A 
ATOM     78  F   UNL A   1      41.053  24.417  28.375  1.00  0.00    -0.205 F 
ATOM     79  C   UNL A   1      43.274  24.820  25.494  1.00  0.00     0.022 A 
BRANCH  77  80
ATOM     80  S   UNL A   1      42.133  22.451  26.250  1.00  0.00     0.127 S 
ATOM     81  O   UNL A   1      40.675  22.396  26.168  1.00  0.00    -0.237 OA
ATOM     82  O   UNL A   1      42.834  22.160  25.000  1.00  0.00    -0.237 OA
ATOM     83  O   UNL A   1      42.723  21.830  27.429  1.00  0.00    -0.744 OA
ENDBRANCH  77  80
ENDBRANCH  49  73
BRANCH  61  84
ATOM     84  C   UNL A   1      44.602  27.360  34.146  1.00  0.00     0.023 A 
ATOM     85  C   UNL A   1      45.828  28.055  34.141  1.00  0.00     0.012 A 
ATOM     86  C   UNL A   1      44.470  26.198  34.932  1.00  0.00     0.148 A 
ATOM     87  C   UNL A   1      46.914  27.582  34.877  1.00  0.00     0.002 A 
ATOM     88  C   UNL A   1      45.539  25.763  35.705  1.00  0.00     0.091 A 
ATOM     89  F   UNL A   1      43.302  25.541  34.910  1.00  0.00    -0.205 F 
ATOM     90  C   UNL A   1      46.766  26.445  35.667  1.00  0.00     0.022 A 
BRANCH  88  91
ATOM     91  S   UNL A   1      45.410  24.369  36.830  1.00  0.00     0.127 S 
ATOM     92  O   UNL A   1      44.371  24.827  37.753  1.00  0.00    -0.237 OA
ATOM     93  O   UNL A   1      44.996  23.287  35.935  1.00  0.00    -0.237 OA
ATOM     94  O   UNL A   1      46.733  24.198  37.414  1.00  0.00    -0.744 OA
ENDBRANCH  88  91
ENDBRANCH  61  84
ENDBRANCH  35  36
ENDBRANCH  27  30
ENDBRANCH  25  26
ENDBRANCH   1  25
TORSDOF 16
ENDMDL
