MODEL 1
REMARK VINA RESULT:     -12.7      0.000      0.000
REMARK SMILES Cc1cccc(S(=O)(=O)Nc2cc(C(=O)NCCCNC(=O)c3ccc(-c4c5nc(c(-c6cccc(S(=O)(=O)[O-])c6F)c6ccc([nH]6)c(-c6cccc(S(=O)(=O)[O-])c6F)c6nc(c(-c7cccc(S(=O)(=O)[O-])c7F)c7ccc4[nH]7)C=C6)C=C5)cc3)cnc2N2CCC[C@H](C)C2)c1
REMARK SMILES IDX 18 1 17 2 16 3 14 4 15 5 13 7 11 8 12 9 88 10 87 11 86 12
REMARK SMILES IDX 10 13 7 15 8 16 9 17 6 18 1 19 2 20 3 21 96 22 4 23 5 24
REMARK SMILES IDX 89 25 90 26 95 27 91 28 93 29 92 30 94 31 19 32 20 33 21 34
REMARK SMILES IDX 22 36 23 37 24 38 85 39 25 40 84 41 26 42 27 43 28 44 78 45
REMARK SMILES IDX 29 46 83 47 77 48 79 49 30 50 82 51 76 52 75 53 31 55 63 56
REMARK SMILES IDX 43 57 62 58 44 59 47 60 61 61 80 62 45 63 46 64 60 66 81 67
REMARK SMILES IDX 48 68 32 69 33 70 41 71 34 72 36 73 42 74 35 75 37 76 38 77
REMARK SMILES IDX 39 78 40 79 64 80 65 81 73 82 66 83 68 84 74 85 67 86 69 87
REMARK SMILES IDX 70 88 71 89 72 90 49 91 50 92 58 93 51 94 53 95 59 96 52 97
REMARK SMILES IDX 54 98 55 99 56 100 57 101
REMARK H PARENT 16 6 10 14 20 35 79 54 47 65
REMARK Flexibility Score: inf
ROOT
ATOM      1  C   UNL A   1      33.243  30.114  26.200  1.00  0.00     0.042 C 
ENDROOT
BRANCH   1   2
ATOM      2  C   UNL A   1      31.776  29.854  25.884  1.00  0.00     0.118 C 
BRANCH   2   3
ATOM      3  N   UNL A   1      31.527  29.589  24.470  1.00  0.00    -0.352 N 
ATOM      4  C   UNL A   1      31.827  28.505  23.668  1.00  0.00     0.252 C 
ATOM      5  O   UNL A   1      31.359  28.457  22.533  1.00  0.00    -0.269 OA
ATOM      6  H   UNL A   1      31.059  30.317  24.001  1.00  0.00     0.163 HD
BRANCH   4   7
ATOM      7  C   UNL A   1      32.652  27.360  24.129  1.00  0.00     0.060 A 
ATOM      8  C   UNL A   1      33.058  25.451  25.535  1.00  0.00     0.092 A 
ATOM      9  C   UNL A   1      32.378  26.620  25.260  1.00  0.00     0.046 A 
ATOM     10  C   UNL A   1      34.198  25.126  24.788  1.00  0.00     0.153 A 
ATOM     11  N   UNL A   1      34.557  25.887  23.729  1.00  0.00    -0.236 NA
ATOM     12  C   UNL A   1      33.765  26.957  23.403  1.00  0.00     0.127 A 
BRANCH   8  13
ATOM     13  N   UNL A   1      32.573  24.675  26.631  1.00  0.00    -0.276 N 
ATOM     14  H   UNL A   1      32.967  24.812  27.523  1.00  0.00     0.180 HD
BRANCH  13  15
ATOM     15  S   UNL A   1      31.340  23.522  26.442  1.00  0.00     0.262 S 
ATOM     16  O   UNL A   1      30.186  24.322  26.018  1.00  0.00    -0.201 OA
ATOM     17  O   UNL A   1      31.279  22.782  27.664  1.00  0.00    -0.201 OA
BRANCH  15  18
ATOM     18  C   UNL A   1      31.617  22.337  25.132  1.00  0.00     0.088 A 
ATOM     19  C   UNL A   1      33.058  18.880  24.461  1.00  0.00     0.044 C 
ATOM     20  C   UNL A   1      32.366  20.199  24.252  1.00  0.00    -0.050 A 
ATOM     21  C   UNL A   1      32.228  20.690  22.946  1.00  0.00     0.003 A 
ATOM     22  C   UNL A   1      31.966  20.998  25.340  1.00  0.00     0.025 A 
ATOM     23  C   UNL A   1      31.759  21.982  22.729  1.00  0.00     0.002 A 
ATOM     24  C   UNL A   1      31.486  22.811  23.817  1.00  0.00     0.022 A 
ENDBRANCH  15  18
ENDBRANCH  13  15
ENDBRANCH   8  13
BRANCH  10  25
ATOM     25  N   UNL A   1      35.050  24.135  25.227  1.00  0.00    -0.355 N 
ATOM     26  C   UNL A   1      35.911  24.273  26.385  1.00  0.00     0.118 C 
ATOM     27  C   UNL A   1      34.869  22.795  24.692  1.00  0.00     0.121 C 
ATOM     28  C   UNL A   1      37.317  23.795  26.005  1.00  0.00     0.022 C 
ATOM     29  C   UNL A   1      36.239  22.290  24.205  1.00  0.00     0.005 C 
ATOM     30  C   UNL A   1      37.299  22.424  25.318  1.00  0.00     0.007 C 
ATOM     31  C   UNL A   1      36.664  22.999  22.912  1.00  0.00     0.009 C 
ENDBRANCH  10  25
ENDBRANCH   4   7
ENDBRANCH   2   3
ENDBRANCH   1   2
BRANCH   1  32
ATOM     32  C   UNL A   1      33.559  30.064  27.669  1.00  0.00     0.118 C 
BRANCH  32  33
ATOM     33  N   UNL A   1      34.330  31.200  28.147  1.00  0.00    -0.352 N 
ATOM     34  C   UNL A   1      35.579  31.185  28.751  1.00  0.00     0.251 C 
ATOM     35  H   UNL A   1      33.916  32.086  28.029  1.00  0.00     0.163 HD
ATOM     36  O   UNL A   1      36.041  32.213  29.230  1.00  0.00    -0.269 OA
BRANCH  34  37
ATOM     37  C   UNL A   1      36.385  29.941  28.651  1.00  0.00     0.039 A 
ATOM     38  C   UNL A   1      36.753  29.364  29.867  1.00  0.00     0.014 A 
ATOM     39  C   UNL A   1      37.126  29.695  27.501  1.00  0.00     0.014 A 
ATOM     40  C   UNL A   1      38.039  28.863  30.005  1.00  0.00     0.010 A 
ATOM     41  C   UNL A   1      38.444  29.335  27.663  1.00  0.00     0.010 A 
ATOM     42  C   UNL A   1      38.915  29.006  28.936  1.00  0.00    -0.014 A 
BRANCH  42  43
ATOM     43  C   UNL A   1      40.326  28.687  28.990  1.00  0.00     0.031 A 
ATOM     44  C   UNL A   1      40.672  27.258  28.860  1.00  0.00     0.074 A 
ATOM     45  C   UNL A   1      41.252  29.672  28.987  1.00  0.00     0.049 A 
ATOM     46  N   UNL A   1      41.828  26.758  29.105  1.00  0.00    -0.248 NA
ATOM     47  C   UNL A   1      39.681  26.260  28.464  1.00  0.00     0.031 C 
ATOM     48  C   UNL A   1      42.675  29.551  28.683  1.00  0.00     0.029 A 
ATOM     49  N   UNL A   1      41.150  31.014  29.348  1.00  0.00    -0.354 N 
ATOM     50  C   UNL A   1      41.822  25.460  28.636  1.00  0.00     0.074 A 
ATOM     51  C   UNL A   1      40.441  25.172  28.349  1.00  0.00     0.031 C 
ATOM     52  C   UNL A   1      43.319  30.627  29.171  1.00  0.00     0.029 A 
ATOM     53  C   UNL A   1      42.357  31.351  29.979  1.00  0.00     0.049 A 
ATOM     54  H   UNL A   1      40.381  31.609  29.191  1.00  0.00     0.167 HD
ATOM     55  C   UNL A   1      43.022  24.860  28.401  1.00  0.00     0.034 A 
ATOM     56  C   UNL A   1      42.493  31.584  31.327  1.00  0.00     0.034 A 
ATOM     57  C   UNL A   1      44.109  25.689  28.956  1.00  0.00     0.049 A 
ATOM     58  C   UNL A   1      43.445  30.590  32.000  1.00  0.00     0.074 A 
ATOM     59  C   UNL A   1      44.945  26.643  28.396  1.00  0.00     0.029 A 
ATOM     60  N   UNL A   1      44.182  25.875  30.337  1.00  0.00    -0.354 N 
ATOM     61  N   UNL A   1      43.879  29.499  31.427  1.00  0.00    -0.248 NA
ATOM     62  C   UNL A   1      43.967  30.734  33.358  1.00  0.00     0.031 C 
ATOM     63  C   UNL A   1      45.407  27.489  29.445  1.00  0.00     0.029 A 
ATOM     64  C   UNL A   1      44.895  27.026  30.648  1.00  0.00     0.049 A 
ATOM     65  H   UNL A   1      43.782  25.270  31.003  1.00  0.00     0.167 HD
ATOM     66  C   UNL A   1      44.604  28.752  32.313  1.00  0.00     0.074 A 
ATOM     67  C   UNL A   1      44.694  29.608  33.486  1.00  0.00     0.031 C 
ATOM     68  C   UNL A   1      45.020  27.476  32.036  1.00  0.00     0.034 A 
BRANCH  55  69
ATOM     69  C   UNL A   1      43.241  23.724  27.406  1.00  0.00     0.023 A 
ATOM     70  C   UNL A   1      44.049  24.012  26.283  1.00  0.00     0.012 A 
ATOM     71  C   UNL A   1      42.655  22.433  27.420  1.00  0.00     0.148 A 
ATOM     72  C   UNL A   1      44.203  23.119  25.212  1.00  0.00     0.002 A 
ATOM     73  C   UNL A   1      42.773  21.556  26.336  1.00  0.00     0.091 A 
ATOM     74  F   UNL A   1      42.024  21.995  28.506  1.00  0.00    -0.205 F 
ATOM     75  C   UNL A   1      43.546  21.900  25.226  1.00  0.00     0.022 A 
BRANCH  73  76
ATOM     76  S   UNL A   1      41.918  19.967  26.265  1.00  0.00     0.127 S 
ATOM     77  O   UNL A   1      42.508  19.352  25.075  1.00  0.00    -0.237 OA
ATOM     78  O   UNL A   1      42.313  19.345  27.529  1.00  0.00    -0.237 OA
ATOM     79  O   UNL A   1      40.497  20.268  26.140  1.00  0.00    -0.744 OA
ENDBRANCH  73  76
ENDBRANCH  55  69
BRANCH  56  80
ATOM     80  C   UNL A   1      41.251  32.142  31.955  1.00  0.00     0.023 A 
ATOM     81  C   UNL A   1      40.728  33.315  31.355  1.00  0.00     0.012 A 
ATOM     82  C   UNL A   1      40.395  31.334  32.718  1.00  0.00     0.148 A 
ATOM     83  C   UNL A   1      39.349  33.493  31.247  1.00  0.00     0.002 A 
ATOM     84  C   UNL A   1      39.020  31.556  32.655  1.00  0.00     0.091 A 
ATOM     85  F   UNL A   1      40.911  30.336  33.445  1.00  0.00    -0.205 F 
ATOM     86  C   UNL A   1      38.493  32.576  31.846  1.00  0.00     0.022 A 
BRANCH  84  87
ATOM     87  S   UNL A   1      37.889  30.482  33.547  1.00  0.00     0.127 S 
ATOM     88  O   UNL A   1      38.052  30.956  34.917  1.00  0.00    -0.237 OA
ATOM     89  O   UNL A   1      36.595  30.799  32.946  1.00  0.00    -0.237 OA
ATOM     90  O   UNL A   1      38.370  29.139  33.260  1.00  0.00    -0.744 OA
ENDBRANCH  84  87
ENDBRANCH  56  80
BRANCH  68  91
ATOM     91  C   UNL A   1      45.603  26.533  33.072  1.00  0.00     0.023 A 
ATOM     92  C   UNL A   1      46.971  26.547  33.408  1.00  0.00     0.012 A 
ATOM     93  C   UNL A   1      44.766  25.691  33.846  1.00  0.00     0.148 A 
ATOM     94  C   UNL A   1      47.504  25.693  34.377  1.00  0.00     0.002 A 
ATOM     95  C   UNL A   1      45.282  24.939  34.897  1.00  0.00     0.091 A 
ATOM     96  F   UNL A   1      43.461  25.597  33.553  1.00  0.00    -0.205 F 
ATOM     97  C   UNL A   1      46.656  24.901  35.136  1.00  0.00     0.022 A 
BRANCH  95  98
ATOM     98  S   UNL A   1      44.199  24.125  36.080  1.00  0.00     0.127 S 
ATOM     99  O   UNL A   1      45.128  23.776  37.152  1.00  0.00    -0.237 OA
ATOM    100  O   UNL A   1      43.250  25.189  36.417  1.00  0.00    -0.237 OA
ATOM    101  O   UNL A   1      43.607  23.009  35.354  1.00  0.00    -0.744 OA
ENDBRANCH  95  98
ENDBRANCH  68  91
ENDBRANCH  42  43
ENDBRANCH  34  37
ENDBRANCH  32  33
ENDBRANCH   1  32
TORSDOF 17
ENDMDL
MODEL 2
REMARK VINA RESULT:     -12.0      4.116      9.240
REMARK SMILES Cc1cccc(S(=O)(=O)Nc2cc(C(=O)NCCCNC(=O)c3ccc(-c4c5nc(c(-c6cccc(S(=O)(=O)[O-])c6F)c6ccc([nH]6)c(-c6cccc(S(=O)(=O)[O-])c6F)c6nc(c(-c7cccc(S(=O)(=O)[O-])c7F)c7ccc4[nH]7)C=C6)C=C5)cc3)cnc2N2CCC[C@H](C)C2)c1
REMARK SMILES IDX 18 1 17 2 16 3 14 4 15 5 13 7 11 8 12 9 88 10 87 11 86 12
REMARK SMILES IDX 10 13 7 15 8 16 9 17 6 18 1 19 2 20 3 21 96 22 4 23 5 24
REMARK SMILES IDX 89 25 90 26 95 27 91 28 93 29 92 30 94 31 19 32 20 33 21 34
REMARK SMILES IDX 22 36 23 37 24 38 85 39 25 40 84 41 26 42 27 43 28 44 78 45
REMARK SMILES IDX 29 46 83 47 77 48 79 49 30 50 82 51 76 52 75 53 31 55 63 56
REMARK SMILES IDX 43 57 62 58 44 59 47 60 61 61 80 62 45 63 46 64 60 66 81 67
REMARK SMILES IDX 48 68 32 69 33 70 41 71 34 72 36 73 42 74 35 75 37 76 38 77
REMARK SMILES IDX 39 78 40 79 64 80 65 81 73 82 66 83 68 84 74 85 67 86 69 87
REMARK SMILES IDX 70 88 71 89 72 90 49 91 50 92 58 93 51 94 53 95 59 96 52 97
REMARK SMILES IDX 54 98 55 99 56 100 57 101
REMARK H PARENT 16 6 10 14 20 35 79 54 47 65
REMARK Flexibility Score: inf
ROOT
ATOM      1  C   UNL A   1      39.742  25.083  27.959  1.00  0.00     0.042 C 
ENDROOT
BRANCH   1   2
ATOM      2  C   UNL A   1      39.519  24.603  26.531  1.00  0.00     0.118 C 
BRANCH   2   3
ATOM      3  N   UNL A   1      39.452  23.148  26.414  1.00  0.00    -0.352 N 
ATOM      4  C   UNL A   1      38.464  22.307  25.942  1.00  0.00     0.252 C 
ATOM      5  O   UNL A   1      38.720  21.113  25.795  1.00  0.00    -0.269 OA
ATOM      6  H   UNL A   1      40.259  22.682  26.730  1.00  0.00     0.163 HD
BRANCH   4   7
ATOM      7  C   UNL A   1      37.113  22.781  25.549  1.00  0.00     0.060 A 
ATOM      8  C   UNL A   1      34.861  22.417  24.790  1.00  0.00     0.092 A 
ATOM      9  C   UNL A   1      36.160  21.982  24.954  1.00  0.00     0.046 A 
ATOM     10  C   UNL A   1      34.552  23.765  25.013  1.00  0.00     0.153 A 
ATOM     11  N   UNL A   1      35.492  24.605  25.504  1.00  0.00    -0.236 NA
ATOM     12  C   UNL A   1      36.730  24.093  25.792  1.00  0.00     0.127 A 
BRANCH   8  13
ATOM     13  N   UNL A   1      33.919  21.448  24.328  1.00  0.00    -0.276 N 
ATOM     14  H   UNL A   1      33.716  21.402  23.365  1.00  0.00     0.180 HD
BRANCH  13  15
ATOM     15  S   UNL A   1      33.139  20.375  25.388  1.00  0.00     0.262 S 
ATOM     16  O   UNL A   1      31.718  20.558  25.076  1.00  0.00    -0.201 OA
ATOM     17  O   UNL A   1      33.620  20.672  26.702  1.00  0.00    -0.201 OA
BRANCH  15  18
ATOM     18  C   UNL A   1      33.483  18.646  25.092  1.00  0.00     0.088 A 
ATOM     19  C   UNL A   1      32.158  15.151  25.803  1.00  0.00     0.044 C 
ATOM     20  C   UNL A   1      33.000  16.269  25.253  1.00  0.00    -0.050 A 
ATOM     21  C   UNL A   1      34.286  15.976  24.779  1.00  0.00     0.003 A 
ATOM     22  C   UNL A   1      32.570  17.609  25.316  1.00  0.00     0.025 A 
ATOM     23  C   UNL A   1      35.157  17.006  24.434  1.00  0.00     0.002 A 
ATOM     24  C   UNL A   1      34.768  18.332  24.620  1.00  0.00     0.022 A 
ENDBRANCH  15  18
ENDBRANCH  13  15
ENDBRANCH   8  13
BRANCH  10  25
ATOM     25  N   UNL A   1      33.349  24.278  24.579  1.00  0.00    -0.355 N 
ATOM     26  C   UNL A   1      32.099  24.110  25.295  1.00  0.00     0.118 C 
ATOM     27  C   UNL A   1      33.376  25.273  23.519  1.00  0.00     0.121 C 
ATOM     28  C   UNL A   1      31.023  23.669  24.298  1.00  0.00     0.022 C 
ATOM     29  C   UNL A   1      32.374  24.839  22.434  1.00  0.00     0.005 C 
ATOM     30  C   UNL A   1      30.987  24.560  23.049  1.00  0.00     0.007 C 
ATOM     31  C   UNL A   1      32.906  23.640  21.637  1.00  0.00     0.009 C 
ENDBRANCH  10  25
ENDBRANCH   4   7
ENDBRANCH   2   3
ENDBRANCH   1   2
BRANCH   1  32
ATOM     32  C   UNL A   1      40.912  26.016  28.102  1.00  0.00     0.118 C 
BRANCH  32  33
ATOM     33  N   UNL A   1      41.663  26.216  26.874  1.00  0.00    -0.352 N 
ATOM     34  C   UNL A   1      41.705  27.354  26.079  1.00  0.00     0.251 C 
ATOM     35  H   UNL A   1      42.207  25.454  26.568  1.00  0.00     0.163 HD
ATOM     36  O   UNL A   1      42.274  27.323  24.995  1.00  0.00    -0.269 OA
BRANCH  34  37
ATOM     37  C   UNL A   1      41.189  28.622  26.653  1.00  0.00     0.039 A 
ATOM     38  C   UNL A   1      42.095  29.340  27.434  1.00  0.00     0.014 A 
ATOM     39  C   UNL A   1      39.820  28.789  26.829  1.00  0.00     0.014 A 
ATOM     40  C   UNL A   1      41.646  29.922  28.611  1.00  0.00     0.010 A 
ATOM     41  C   UNL A   1      39.389  29.235  28.056  1.00  0.00     0.010 A 
ATOM     42  C   UNL A   1      40.321  29.719  28.977  1.00  0.00    -0.014 A 
BRANCH  42  43
ATOM     43  C   UNL A   1      39.757  30.118  30.249  1.00  0.00     0.031 A 
ATOM     44  C   UNL A   1      38.999  31.384  30.252  1.00  0.00     0.074 A 
ATOM     45  C   UNL A   1      39.792  29.278  31.309  1.00  0.00     0.049 A 
ATOM     46  N   UNL A   1      38.621  32.011  31.306  1.00  0.00    -0.248 NA
ATOM     47  C   UNL A   1      38.638  32.067  29.011  1.00  0.00     0.031 C 
ATOM     48  C   UNL A   1      38.988  29.351  32.525  1.00  0.00     0.029 A 
ATOM     49  N   UNL A   1      40.632  28.201  31.585  1.00  0.00    -0.354 N 
ATOM     50  C   UNL A   1      37.742  32.996  30.906  1.00  0.00     0.074 A 
ATOM     51  C   UNL A   1      37.873  33.055  29.474  1.00  0.00     0.031 C 
ATOM     52  C   UNL A   1      39.579  28.614  33.484  1.00  0.00     0.029 A 
ATOM     53  C   UNL A   1      40.878  28.230  32.966  1.00  0.00     0.049 A 
ATOM     54  H   UNL A   1      40.985  27.548  30.938  1.00  0.00     0.167 HD
ATOM     55  C   UNL A   1      36.899  33.518  31.839  1.00  0.00     0.034 A 
ATOM     56  C   UNL A   1      42.077  28.583  33.537  1.00  0.00     0.034 A 
ATOM     57  C   UNL A   1      37.302  33.061  33.184  1.00  0.00     0.049 A 
ATOM     58  C   UNL A   1      41.958  29.823  34.429  1.00  0.00     0.074 A 
ATOM     59  C   UNL A   1      36.878  32.015  33.988  1.00  0.00     0.029 A 
ATOM     60  N   UNL A   1      38.535  33.467  33.696  1.00  0.00    -0.354 N 
ATOM     61  N   UNL A   1      40.912  30.605  34.451  1.00  0.00    -0.248 NA
ATOM     62  C   UNL A   1      42.999  30.285  35.348  1.00  0.00     0.031 C 
ATOM     63  C   UNL A   1      37.931  31.707  34.897  1.00  0.00     0.029 A 
ATOM     64  C   UNL A   1      38.976  32.593  34.682  1.00  0.00     0.049 A 
ATOM     65  H   UNL A   1      39.026  34.267  33.400  1.00  0.00     0.167 HD
ATOM     66  C   UNL A   1      41.147  31.694  35.243  1.00  0.00     0.074 A 
ATOM     67  C   UNL A   1      42.441  31.405  35.842  1.00  0.00     0.031 C 
ATOM     68  C   UNL A   1      40.294  32.765  35.298  1.00  0.00     0.034 A 
BRANCH  55  69
ATOM     69  C   UNL A   1      35.548  34.154  31.526  1.00  0.00     0.023 A 
ATOM     70  C   UNL A   1      34.954  33.804  30.292  1.00  0.00     0.012 A 
ATOM     71  C   UNL A   1      34.851  35.129  32.282  1.00  0.00     0.148 A 
ATOM     72  C   UNL A   1      33.798  34.430  29.804  1.00  0.00     0.002 A 
ATOM     73  C   UNL A   1      33.721  35.786  31.781  1.00  0.00     0.091 A 
ATOM     74  F   UNL A   1      35.224  35.403  33.530  1.00  0.00    -0.205 F 
ATOM     75  C   UNL A   1      33.194  35.439  30.536  1.00  0.00     0.022 A 
BRANCH  73  76
ATOM     76  S   UNL A   1      32.902  37.134  32.660  1.00  0.00     0.127 S 
ATOM     77  O   UNL A   1      31.569  36.579  32.903  1.00  0.00    -0.237 OA
ATOM     78  O   UNL A   1      33.730  37.273  33.857  1.00  0.00    -0.237 OA
ATOM     79  O   UNL A   1      32.915  38.282  31.760  1.00  0.00    -0.744 OA
ENDBRANCH  73  76
ENDBRANCH  55  69
BRANCH  56  80
ATOM     80  C   UNL A   1      43.258  28.258  32.673  1.00  0.00     0.023 A 
ATOM     81  C   UNL A   1      43.329  26.925  32.198  1.00  0.00     0.012 A 
ATOM     82  C   UNL A   1      43.947  29.261  31.975  1.00  0.00     0.148 A 
ATOM     83  C   UNL A   1      43.788  26.662  30.907  1.00  0.00     0.002 A 
ATOM     84  C   UNL A   1      44.460  28.976  30.710  1.00  0.00     0.091 A 
ATOM     85  F   UNL A   1      44.050  30.482  32.514  1.00  0.00    -0.205 F 
ATOM     86  C   UNL A   1      44.297  27.704  30.139  1.00  0.00     0.022 A 
BRANCH  84  87
ATOM     87  S   UNL A   1      45.267  30.263  29.750  1.00  0.00     0.127 S 
ATOM     88  O   UNL A   1      44.297  31.349  29.841  1.00  0.00    -0.237 OA
ATOM     89  O   UNL A   1      46.506  30.493  30.490  1.00  0.00    -0.237 OA
ATOM     90  O   UNL A   1      45.455  29.665  28.437  1.00  0.00    -0.744 OA
ENDBRANCH  84  87
ENDBRANCH  56  80
BRANCH  68  91
ATOM     91  C   UNL A   1      40.636  34.085  35.962  1.00  0.00     0.023 A 
ATOM     92  C   UNL A   1      40.219  34.391  37.273  1.00  0.00     0.012 A 
ATOM     93  C   UNL A   1      41.509  35.011  35.339  1.00  0.00     0.148 A 
ATOM     94  C   UNL A   1      40.553  35.598  37.893  1.00  0.00     0.002 A 
ATOM     95  C   UNL A   1      41.942  36.151  36.011  1.00  0.00     0.091 A 
ATOM     96  F   UNL A   1      41.910  34.805  34.077  1.00  0.00    -0.205 F 
ATOM     97  C   UNL A   1      41.430  36.472  37.269  1.00  0.00     0.022 A 
BRANCH  95  98
ATOM     98  S   UNL A   1      43.285  37.158  35.367  1.00  0.00     0.127 S 
ATOM     99  O   UNL A   1      44.244  36.145  34.933  1.00  0.00    -0.237 OA
ATOM    100  O   UNL A   1      42.633  37.887  34.277  1.00  0.00    -0.237 OA
ATOM    101  O   UNL A   1      43.700  38.001  36.480  1.00  0.00    -0.744 OA
ENDBRANCH  95  98
ENDBRANCH  68  91
ENDBRANCH  42  43
ENDBRANCH  34  37
ENDBRANCH  32  33
ENDBRANCH   1  32
TORSDOF 17
ENDMDL
MODEL 3
REMARK VINA RESULT:     -12.0      2.864      4.546
REMARK SMILES Cc1cccc(S(=O)(=O)Nc2cc(C(=O)NCCCNC(=O)c3ccc(-c4c5nc(c(-c6cccc(S(=O)(=O)[O-])c6F)c6ccc([nH]6)c(-c6cccc(S(=O)(=O)[O-])c6F)c6nc(c(-c7cccc(S(=O)(=O)[O-])c7F)c7ccc4[nH]7)C=C6)C=C5)cc3)cnc2N2CCC[C@H](C)C2)c1
REMARK SMILES IDX 18 1 17 2 16 3 14 4 15 5 13 7 11 8 12 9 88 10 87 11 86 12
REMARK SMILES IDX 10 13 7 15 8 16 9 17 6 18 1 19 2 20 3 21 96 22 4 23 5 24
REMARK SMILES IDX 89 25 90 26 95 27 91 28 93 29 92 30 94 31 19 32 20 33 21 34
REMARK SMILES IDX 22 36 23 37 24 38 85 39 25 40 84 41 26 42 27 43 28 44 78 45
REMARK SMILES IDX 29 46 83 47 77 48 79 49 30 50 82 51 76 52 75 53 31 55 63 56
REMARK SMILES IDX 43 57 62 58 44 59 47 60 61 61 80 62 45 63 46 64 60 66 81 67
REMARK SMILES IDX 48 68 32 69 33 70 41 71 34 72 36 73 42 74 35 75 37 76 38 77
REMARK SMILES IDX 39 78 40 79 64 80 65 81 73 82 66 83 68 84 74 85 67 86 69 87
REMARK SMILES IDX 70 88 71 89 72 90 49 91 50 92 58 93 51 94 53 95 59 96 52 97
REMARK SMILES IDX 54 98 55 99 56 100 57 101
REMARK H PARENT 16 6 10 14 20 35 79 54 47 65
REMARK Flexibility Score: inf
ROOT
ATOM      1  C   UNL A   1      35.534  30.386  27.616  1.00  0.00     0.042 C 
ENDROOT
BRANCH   1   2
ATOM      2  C   UNL A   1      34.883  29.016  27.477  1.00  0.00     0.118 C 
BRANCH   2   3
ATOM      3  N   UNL A   1      33.446  29.030  27.737  1.00  0.00    -0.352 N 
ATOM      4  C   UNL A   1      32.444  28.132  27.427  1.00  0.00     0.252 C 
ATOM      5  O   UNL A   1      31.325  28.299  27.908  1.00  0.00    -0.269 OA
ATOM      6  H   UNL A   1      33.134  29.827  28.224  1.00  0.00     0.163 HD
BRANCH   4   7
ATOM      7  C   UNL A   1      32.663  26.935  26.576  1.00  0.00     0.060 A 
ATOM      8  C   UNL A   1      33.467  25.849  24.587  1.00  0.00     0.092 A 
ATOM      9  C   UNL A   1      33.092  26.990  25.267  1.00  0.00     0.046 A 
ATOM     10  C   UNL A   1      33.190  24.593  25.143  1.00  0.00     0.153 A 
ATOM     11  N   UNL A   1      32.674  24.502  26.390  1.00  0.00    -0.236 NA
ATOM     12  C   UNL A   1      32.456  25.661  27.088  1.00  0.00     0.127 A 
BRANCH   8  13
ATOM     13  N   UNL A   1      34.062  26.040  23.304  1.00  0.00    -0.276 N 
ATOM     14  H   UNL A   1      34.966  25.684  23.139  1.00  0.00     0.180 HD
BRANCH  13  15
ATOM     15  S   UNL A   1      33.261  26.865  22.053  1.00  0.00     0.262 S 
ATOM     16  O   UNL A   1      33.142  25.854  20.997  1.00  0.00    -0.201 OA
ATOM     17  O   UNL A   1      34.004  28.062  21.808  1.00  0.00    -0.201 OA
BRANCH  15  18
ATOM     18  C   UNL A   1      31.588  27.365  22.437  1.00  0.00     0.088 A 
ATOM     19  C   UNL A   1      29.453  30.435  23.138  1.00  0.00     0.044 C 
ATOM     20  C   UNL A   1      29.854  29.007  22.888  1.00  0.00    -0.050 A 
ATOM     21  C   UNL A   1      28.990  27.982  23.296  1.00  0.00     0.003 A 
ATOM     22  C   UNL A   1      31.122  28.682  22.368  1.00  0.00     0.025 A 
ATOM     23  C   UNL A   1      29.406  26.655  23.248  1.00  0.00     0.002 A 
ATOM     24  C   UNL A   1      30.708  26.351  22.851  1.00  0.00     0.022 A 
ENDBRANCH  15  18
ENDBRANCH  13  15
ENDBRANCH   8  13
BRANCH  10  25
ATOM     25  N   UNL A   1      33.283  23.459  24.366  1.00  0.00    -0.355 N 
ATOM     26  C   UNL A   1      32.363  23.146  23.290  1.00  0.00     0.118 C 
ATOM     27  C   UNL A   1      34.517  22.692  24.426  1.00  0.00     0.121 C 
ATOM     28  C   UNL A   1      31.924  21.685  23.436  1.00  0.00     0.022 C 
ATOM     29  C   UNL A   1      34.147  21.216  24.664  1.00  0.00     0.005 C 
ATOM     30  C   UNL A   1      33.115  20.736  23.622  1.00  0.00     0.007 C 
ATOM     31  C   UNL A   1      33.664  20.991  26.103  1.00  0.00     0.009 C 
ENDBRANCH  10  25
ENDBRANCH   4   7
ENDBRANCH   2   3
ENDBRANCH   1   2
BRANCH   1  32
ATOM     32  C   UNL A   1      35.478  30.937  29.014  1.00  0.00     0.118 C 
BRANCH  32  33
ATOM     33  N   UNL A   1      34.554  32.048  29.175  1.00  0.00    -0.352 N 
ATOM     34  C   UNL A   1      34.705  33.168  29.982  1.00  0.00     0.251 C 
ATOM     35  H   UNL A   1      33.723  32.001  28.649  1.00  0.00     0.163 HD
ATOM     36  O   UNL A   1      33.774  33.952  30.121  1.00  0.00    -0.269 OA
BRANCH  34  37
ATOM     37  C   UNL A   1      36.056  33.457  30.526  1.00  0.00     0.039 A 
ATOM     38  C   UNL A   1      37.033  33.758  29.577  1.00  0.00     0.014 A 
ATOM     39  C   UNL A   1      36.415  32.959  31.773  1.00  0.00     0.014 A 
ATOM     40  C   UNL A   1      38.303  33.221  29.733  1.00  0.00     0.010 A 
ATOM     41  C   UNL A   1      37.621  32.304  31.870  1.00  0.00     0.010 A 
ATOM     42  C   UNL A   1      38.524  32.367  30.806  1.00  0.00    -0.014 A 
BRANCH  42  43
ATOM     43  C   UNL A   1      39.739  31.604  31.004  1.00  0.00     0.031 A 
ATOM     44  C   UNL A   1      39.780  30.276  30.362  1.00  0.00     0.074 A 
ATOM     45  C   UNL A   1      40.814  32.169  31.599  1.00  0.00     0.049 A 
ATOM     46  N   UNL A   1      40.659  29.372  30.602  1.00  0.00    -0.248 NA
ATOM     47  C   UNL A   1      38.767  29.857  29.396  1.00  0.00     0.031 C 
ATOM     48  C   UNL A   1      42.195  31.698  31.564  1.00  0.00     0.029 A 
ATOM     49  N   UNL A   1      40.905  33.262  32.458  1.00  0.00    -0.354 N 
ATOM     50  C   UNL A   1      40.512  28.391  29.644  1.00  0.00     0.074 A 
ATOM     51  C   UNL A   1      39.263  28.688  28.992  1.00  0.00     0.031 C 
ATOM     52  C   UNL A   1      42.876  32.268  32.575  1.00  0.00     0.029 A 
ATOM     53  C   UNL A   1      41.896  32.947  33.401  1.00  0.00     0.049 A 
ATOM     54  H   UNL A   1      40.378  34.092  32.414  1.00  0.00     0.167 HD
ATOM     55  C   UNL A   1      41.560  27.548  29.425  1.00  0.00     0.034 A 
ATOM     56  C   UNL A   1      41.650  32.648  34.720  1.00  0.00     0.034 A 
ATOM     57  C   UNL A   1      42.574  27.733  30.482  1.00  0.00     0.049 A 
ATOM     58  C   UNL A   1      42.097  31.231  35.092  1.00  0.00     0.074 A 
ATOM     59  C   UNL A   1      43.733  28.489  30.551  1.00  0.00     0.029 A 
ATOM     60  N   UNL A   1      42.249  27.402  31.798  1.00  0.00    -0.354 N 
ATOM     61  N   UNL A   1      42.434  30.322  34.216  1.00  0.00    -0.248 NA
ATOM     62  C   UNL A   1      42.185  30.724  36.461  1.00  0.00     0.031 C 
ATOM     63  C   UNL A   1      44.019  28.725  31.927  1.00  0.00     0.029 A 
ATOM     64  C   UNL A   1      43.065  28.076  32.697  1.00  0.00     0.049 A 
ATOM     65  H   UNL A   1      41.536  26.773  32.055  1.00  0.00     0.167 HD
ATOM     66  C   UNL A   1      42.659  29.124  34.835  1.00  0.00     0.074 A 
ATOM     67  C   UNL A   1      42.564  29.450  36.250  1.00  0.00     0.031 C 
ATOM     68  C   UNL A   1      42.845  27.958  34.140  1.00  0.00     0.034 A 
BRANCH  55  69
ATOM     69  C   UNL A   1      41.821  26.815  28.113  1.00  0.00     0.023 A 
ATOM     70  C   UNL A   1      41.611  27.548  26.924  1.00  0.00     0.012 A 
ATOM     71  C   UNL A   1      42.163  25.451  27.935  1.00  0.00     0.148 A 
ATOM     72  C   UNL A   1      41.656  26.959  25.653  1.00  0.00     0.002 A 
ATOM     73  C   UNL A   1      42.169  24.849  26.671  1.00  0.00     0.091 A 
ATOM     74  F   UNL A   1      42.552  24.715  28.973  1.00  0.00    -0.205 F 
ATOM     75  C   UNL A   1      41.911  25.603  25.525  1.00  0.00     0.022 A 
BRANCH  73  76
ATOM     76  S   UNL A   1      42.456  23.082  26.429  1.00  0.00     0.127 S 
ATOM     77  O   UNL A   1      41.241  22.492  26.995  1.00  0.00    -0.237 OA
ATOM     78  O   UNL A   1      42.560  22.980  24.974  1.00  0.00    -0.237 OA
ATOM     79  O   UNL A   1      43.674  22.758  27.163  1.00  0.00    -0.744 OA
ENDBRANCH  73  76
ENDBRANCH  55  69
BRANCH  56  80
ATOM     80  C   UNL A   1      40.432  33.334  35.260  1.00  0.00     0.023 A 
ATOM     81  C   UNL A   1      39.218  32.609  35.160  1.00  0.00     0.012 A 
ATOM     82  C   UNL A   1      40.534  34.350  36.222  1.00  0.00     0.148 A 
ATOM     83  C   UNL A   1      38.277  32.670  36.188  1.00  0.00     0.002 A 
ATOM     84  C   UNL A   1      39.558  34.447  37.212  1.00  0.00     0.091 A 
ATOM     85  F   UNL A   1      41.594  35.168  36.201  1.00  0.00    -0.205 F 
ATOM     86  C   UNL A   1      38.480  33.547  37.249  1.00  0.00     0.022 A 
BRANCH  84  87
ATOM     87  S   UNL A   1      39.707  35.677  38.513  1.00  0.00     0.127 S 
ATOM     88  O   UNL A   1      38.626  35.286  39.412  1.00  0.00    -0.237 OA
ATOM     89  O   UNL A   1      41.050  35.436  39.038  1.00  0.00    -0.237 OA
ATOM     90  O   UNL A   1      39.553  36.949  37.822  1.00  0.00    -0.744 OA
ENDBRANCH  84  87
ENDBRANCH  56  80
BRANCH  68  91
ATOM     91  C   UNL A   1      42.849  26.584  34.781  1.00  0.00     0.023 A 
ATOM     92  C   UNL A   1      41.670  25.981  35.262  1.00  0.00     0.012 A 
ATOM     93  C   UNL A   1      44.022  25.789  34.798  1.00  0.00     0.148 A 
ATOM     94  C   UNL A   1      41.670  24.705  35.833  1.00  0.00     0.002 A 
ATOM     95  C   UNL A   1      43.990  24.472  35.249  1.00  0.00     0.091 A 
ATOM     96  F   UNL A   1      45.189  26.313  34.395  1.00  0.00    -0.205 F 
ATOM     97  C   UNL A   1      42.827  23.943  35.810  1.00  0.00     0.022 A 
BRANCH  95  98
ATOM     98  S   UNL A   1      45.377  23.361  34.980  1.00  0.00     0.127 S 
ATOM     99  O   UNL A   1      45.536  23.420  33.529  1.00  0.00    -0.237 OA
ATOM    100  O   UNL A   1      46.448  24.010  35.738  1.00  0.00    -0.237 OA
ATOM    101  O   UNL A   1      44.953  22.079  35.528  1.00  0.00    -0.744 OA
ENDBRANCH  95  98
ENDBRANCH  68  91
ENDBRANCH  42  43
ENDBRANCH  34  37
ENDBRANCH  32  33
ENDBRANCH   1  32
TORSDOF 17
ENDMDL
