MODEL 1
REMARK VINA RESULT:     -11.8      0.000      0.000
REMARK SMILES CN(C)C(=O)c1cccc(NCc2cc(C(=O)NCCCNC(=O)c3ccc(-c4c5nc(c(-c6cccc(S(=O)(=O)[O-])c6F)c6ccc([nH]6)c(-c6cccc(S(=O)(=O)[O-])c6F)c6nc(c(-c7cccc(S(=O)(=O)[O-])c7F)c7ccc4[nH]7)C=C6)C=C5)cc3)cs2)c1
REMARK SMILES IDX 19 1 18 2 16 3 17 4 15 6 13 7 14 8 89 9 88 10 12 11 11 12
REMARK SMILES IDX 10 14 6 15 7 16 90 17 8 18 9 19 4 20 1 21 2 22 3 23 5 24
REMARK SMILES IDX 20 25 21 26 22 27 23 28 24 30 25 31 26 32 87 33 27 34 86 35
REMARK SMILES IDX 28 36 29 37 30 38 80 39 31 40 85 41 79 42 81 43 32 44 84 45
REMARK SMILES IDX 78 46 77 47 33 49 65 50 45 51 64 52 46 53 49 54 63 55 82 56
REMARK SMILES IDX 47 57 48 58 62 60 83 61 50 62 34 63 35 64 43 65 36 66 38 67
REMARK SMILES IDX 44 68 37 69 39 70 40 71 41 72 42 73 66 74 67 75 75 76 68 77
REMARK SMILES IDX 70 78 76 79 69 80 71 81 72 82 73 83 74 84 51 85 52 86 60 87
REMARK SMILES IDX 53 88 55 89 61 90 54 91 56 92 57 93 58 94 59 95
REMARK H PARENT 18 5 11 13 22 29 81 48 49 59
REMARK Flexibility Score: inf
ROOT
ATOM      1  C   UNL A   1      33.479  28.417  22.589  1.00  0.00     0.118 C 
ENDROOT
BRANCH   1   2
ATOM      2  N   UNL A   1      32.129  28.756  22.182  1.00  0.00    -0.352 N 
ATOM      3  C   UNL A   1      30.926  28.134  22.406  1.00  0.00     0.252 C 
ATOM      4  O   UNL A   1      29.912  28.724  22.038  1.00  0.00    -0.269 OA
ATOM      5  H   UNL A   1      32.064  29.581  21.649  1.00  0.00     0.163 HD
BRANCH   3   6
ATOM      6  C   UNL A   1      30.852  26.853  23.112  1.00  0.00     0.050 A 
ATOM      7  C   UNL A   1      30.551  25.242  24.809  1.00  0.00     0.024 A 
ATOM      8  C   UNL A   1      30.776  26.573  24.516  1.00  0.00     0.031 A 
ATOM      9  S   UNL A   1      30.683  24.282  23.405  1.00  0.00    -0.146 S 
ATOM     10  C   UNL A   1      30.895  25.657  22.414  1.00  0.00     0.079 A 
BRANCH   7  11
ATOM     11  C   UNL A   1      30.250  24.674  26.171  1.00  0.00     0.159 C 
BRANCH  11  12
ATOM     12  N   UNL A   1      31.363  24.070  26.878  1.00  0.00    -0.380 N 
ATOM     13  H   UNL A   1      31.356  24.135  27.861  1.00  0.00     0.160 HD
BRANCH  12  14
ATOM     14  C   UNL A   1      32.430  23.415  26.302  1.00  0.00     0.035 A 
ATOM     15  C   UNL A   1      33.272  21.390  25.224  1.00  0.00     0.042 A 
ATOM     16  C   UNL A   1      34.553  21.938  25.156  1.00  0.00     0.014 A 
ATOM     17  C   UNL A   1      32.234  22.109  25.830  1.00  0.00     0.039 A 
ATOM     18  C   UNL A   1      34.776  23.218  25.649  1.00  0.00     0.003 A 
ATOM     19  C   UNL A   1      33.720  23.947  26.207  1.00  0.00     0.026 A 
BRANCH  15  20
ATOM     20  C   UNL A   1      33.064  20.013  24.713  1.00  0.00     0.253 C 
ATOM     21  C   UNL A   1      32.155  18.447  23.096  1.00  0.00     0.146 C 
ATOM     22  N   UNL A   1      32.439  19.818  23.480  1.00  0.00    -0.345 N 
ATOM     23  C   UNL A   1      32.153  20.861  22.504  1.00  0.00     0.146 C 
ATOM     24  O   UNL A   1      33.468  19.078  25.403  1.00  0.00    -0.269 OA
ENDBRANCH  15  20
ENDBRANCH  12  14
ENDBRANCH  11  12
ENDBRANCH   7  11
ENDBRANCH   3   6
ENDBRANCH   1   2
BRANCH   1  25
ATOM     25  C   UNL A   1      33.980  29.341  23.697  1.00  0.00     0.042 C 
BRANCH  25  26
ATOM     26  C   UNL A   1      33.274  29.117  25.031  1.00  0.00     0.118 C 
BRANCH  26  27
ATOM     27  N   UNL A   1      32.741  30.360  25.574  1.00  0.00    -0.352 N 
ATOM     28  C   UNL A   1      33.075  31.052  26.707  1.00  0.00     0.251 C 
ATOM     29  H   UNL A   1      32.024  30.770  25.038  1.00  0.00     0.163 HD
ATOM     30  O   UNL A   1      32.324  31.944  27.098  1.00  0.00    -0.269 OA
BRANCH  28  31
ATOM     31  C   UNL A   1      34.314  30.747  27.454  1.00  0.00     0.039 A 
ATOM     32  C   UNL A   1      34.458  29.474  28.015  1.00  0.00     0.014 A 
ATOM     33  C   UNL A   1      35.297  31.718  27.667  1.00  0.00     0.014 A 
ATOM     34  C   UNL A   1      35.598  29.169  28.760  1.00  0.00     0.010 A 
ATOM     35  C   UNL A   1      36.472  31.385  28.338  1.00  0.00     0.010 A 
ATOM     36  C   UNL A   1      36.625  30.116  28.911  1.00  0.00    -0.014 A 
BRANCH  36  37
ATOM     37  C   UNL A   1      37.858  29.782  29.669  1.00  0.00     0.031 A 
ATOM     38  C   UNL A   1      38.089  30.344  31.046  1.00  0.00     0.074 A 
ATOM     39  C   UNL A   1      38.793  29.003  29.091  1.00  0.00     0.049 A 
ATOM     40  N   UNL A   1      39.092  30.140  31.860  1.00  0.00    -0.248 NA
ATOM     41  C   UNL A   1      37.076  31.276  31.569  1.00  0.00     0.031 C 
ATOM     42  C   UNL A   1      38.720  28.465  27.731  1.00  0.00     0.029 A 
ATOM     43  N   UNL A   1      39.991  28.536  29.569  1.00  0.00    -0.354 N 
ATOM     44  C   UNL A   1      38.845  30.934  32.976  1.00  0.00     0.074 A 
ATOM     45  C   UNL A   1      37.622  31.660  32.713  1.00  0.00     0.031 C 
ATOM     46  C   UNL A   1      39.809  27.718  27.494  1.00  0.00     0.029 A 
ATOM     47  C   UNL A   1      40.671  27.748  28.671  1.00  0.00     0.049 A 
ATOM     48  H   UNL A   1      40.330  28.744  30.469  1.00  0.00     0.167 HD
ATOM     49  C   UNL A   1      39.552  31.026  34.128  1.00  0.00     0.034 A 
ATOM     50  C   UNL A   1      41.854  27.115  28.786  1.00  0.00     0.034 A 
ATOM     51  C   UNL A   1      40.754  30.281  34.393  1.00  0.00     0.049 A 
ATOM     52  C   UNL A   1      42.603  27.205  30.087  1.00  0.00     0.074 A 
ATOM     53  C   UNL A   1      41.512  30.248  35.550  1.00  0.00     0.029 A 
ATOM     54  N   UNL A   1      41.381  29.442  33.483  1.00  0.00    -0.354 N 
ATOM     55  N   UNL A   1      42.277  27.843  31.185  1.00  0.00    -0.248 NA
ATOM     56  C   UNL A   1      43.860  26.452  30.179  1.00  0.00     0.031 C 
ATOM     57  C   UNL A   1      42.612  29.411  35.329  1.00  0.00     0.029 A 
ATOM     58  C   UNL A   1      42.519  28.892  34.049  1.00  0.00     0.049 A 
ATOM     59  H   UNL A   1      41.064  29.265  32.568  1.00  0.00     0.167 HD
ATOM     60  C   UNL A   1      43.266  27.535  32.112  1.00  0.00     0.074 A 
ATOM     61  C   UNL A   1      44.190  26.636  31.450  1.00  0.00     0.031 C 
ATOM     62  C   UNL A   1      43.404  27.963  33.391  1.00  0.00     0.034 A 
BRANCH  49  63
ATOM     63  C   UNL A   1      39.013  31.933  35.206  1.00  0.00     0.023 A 
ATOM     64  C   UNL A   1      39.083  33.333  35.038  1.00  0.00     0.012 A 
ATOM     65  C   UNL A   1      38.404  31.411  36.364  1.00  0.00     0.148 A 
ATOM     66  C   UNL A   1      38.601  34.195  36.023  1.00  0.00     0.002 A 
ATOM     67  C   UNL A   1      37.882  32.276  37.319  1.00  0.00     0.091 A 
ATOM     68  F   UNL A   1      38.362  30.080  36.520  1.00  0.00    -0.205 F 
ATOM     69  C   UNL A   1      37.993  33.666  37.157  1.00  0.00     0.022 A 
BRANCH  67  70
ATOM     70  S   UNL A   1      37.005  31.697  38.776  1.00  0.00     0.127 S 
ATOM     71  O   UNL A   1      38.008  31.894  39.821  1.00  0.00    -0.237 OA
ATOM     72  O   UNL A   1      35.871  32.619  38.840  1.00  0.00    -0.237 OA
ATOM     73  O   UNL A   1      36.647  30.312  38.505  1.00  0.00    -0.744 OA
ENDBRANCH  67  70
ENDBRANCH  49  63
BRANCH  50  74
ATOM     74  C   UNL A   1      42.357  26.269  27.667  1.00  0.00     0.023 A 
ATOM     75  C   UNL A   1      43.280  26.813  26.751  1.00  0.00     0.012 A 
ATOM     76  C   UNL A   1      41.956  24.928  27.524  1.00  0.00     0.148 A 
ATOM     77  C   UNL A   1      43.766  26.047  25.691  1.00  0.00     0.002 A 
ATOM     78  C   UNL A   1      42.488  24.153  26.500  1.00  0.00     0.091 A 
ATOM     79  F   UNL A   1      41.075  24.432  28.403  1.00  0.00    -0.205 F 
ATOM     80  C   UNL A   1      43.378  24.715  25.571  1.00  0.00     0.022 A 
BRANCH  78  81
ATOM     81  S   UNL A   1      42.151  22.395  26.345  1.00  0.00     0.127 S 
ATOM     82  O   UNL A   1      40.697  22.357  26.483  1.00  0.00    -0.237 OA
ATOM     83  O   UNL A   1      42.651  22.111  25.001  1.00  0.00    -0.237 OA
ATOM     84  O   UNL A   1      42.903  21.755  27.415  1.00  0.00    -0.744 OA
ENDBRANCH  78  81
ENDBRANCH  50  74
BRANCH  62  85
ATOM     85  C   UNL A   1      44.570  27.425  34.181  1.00  0.00     0.023 A 
ATOM     86  C   UNL A   1      45.801  28.111  34.182  1.00  0.00     0.012 A 
ATOM     87  C   UNL A   1      44.428  26.259  34.958  1.00  0.00     0.148 A 
ATOM     88  C   UNL A   1      46.886  27.619  34.905  1.00  0.00     0.002 A 
ATOM     89  C   UNL A   1      45.498  25.805  35.720  1.00  0.00     0.091 A 
ATOM     90  F   UNL A   1      43.257  25.608  34.930  1.00  0.00    -0.205 F 
ATOM     91  C   UNL A   1      46.732  26.474  35.683  1.00  0.00     0.022 A 
BRANCH  89  92
ATOM     92  S   UNL A   1      45.357  24.399  36.829  1.00  0.00     0.127 S 
ATOM     93  O   UNL A   1      46.712  24.311  37.372  1.00  0.00    -0.237 OA
ATOM     94  O   UNL A   1      44.345  24.854  37.782  1.00  0.00    -0.237 OA
ATOM     95  O   UNL A   1      44.941  23.276  35.998  1.00  0.00    -0.744 OA
ENDBRANCH  89  92
ENDBRANCH  62  85
ENDBRANCH  36  37
ENDBRANCH  28  31
ENDBRANCH  26  27
ENDBRANCH  25  26
ENDBRANCH   1  25
TORSDOF 17
ENDMDL
MODEL 2
REMARK VINA RESULT:     -11.8      2.020      2.787
REMARK SMILES CN(C)C(=O)c1cccc(NCc2cc(C(=O)NCCCNC(=O)c3ccc(-c4c5nc(c(-c6cccc(S(=O)(=O)[O-])c6F)c6ccc([nH]6)c(-c6cccc(S(=O)(=O)[O-])c6F)c6nc(c(-c7cccc(S(=O)(=O)[O-])c7F)c7ccc4[nH]7)C=C6)C=C5)cc3)cs2)c1
REMARK SMILES IDX 19 1 18 2 16 3 17 4 15 6 13 7 14 8 89 9 88 10 12 11 11 12
REMARK SMILES IDX 10 14 6 15 7 16 90 17 8 18 9 19 4 20 1 21 2 22 3 23 5 24
REMARK SMILES IDX 20 25 21 26 22 27 23 28 24 30 25 31 26 32 87 33 27 34 86 35
REMARK SMILES IDX 28 36 29 37 30 38 80 39 31 40 85 41 79 42 81 43 32 44 84 45
REMARK SMILES IDX 78 46 77 47 33 49 65 50 45 51 64 52 46 53 49 54 63 55 82 56
REMARK SMILES IDX 47 57 48 58 62 60 83 61 50 62 34 63 35 64 43 65 36 66 38 67
REMARK SMILES IDX 44 68 37 69 39 70 40 71 41 72 42 73 66 74 67 75 75 76 68 77
REMARK SMILES IDX 70 78 76 79 69 80 71 81 72 82 73 83 74 84 51 85 52 86 60 87
REMARK SMILES IDX 53 88 55 89 61 90 54 91 56 92 57 93 58 94 59 95
REMARK H PARENT 18 5 11 13 22 29 81 48 49 59
REMARK Flexibility Score: inf
ROOT
ATOM      1  C   UNL A   1      32.328  27.842  27.161  1.00  0.00     0.118 C 
ENDROOT
BRANCH   1   2
ATOM      2  N   UNL A   1      31.226  26.900  27.159  1.00  0.00    -0.352 N 
ATOM      3  C   UNL A   1      30.586  26.248  26.134  1.00  0.00     0.252 C 
ATOM      4  O   UNL A   1      29.752  25.399  26.443  1.00  0.00    -0.269 OA
ATOM      5  H   UNL A   1      30.873  26.690  28.053  1.00  0.00     0.163 HD
BRANCH   3   6
ATOM      6  C   UNL A   1      30.933  26.507  24.734  1.00  0.00     0.050 A 
ATOM      7  C   UNL A   1      31.868  26.293  22.579  1.00  0.00     0.024 A 
ATOM      8  C   UNL A   1      31.942  25.915  23.906  1.00  0.00     0.031 A 
ATOM      9  S   UNL A   1      30.740  27.556  22.370  1.00  0.00    -0.146 S 
ATOM     10  C   UNL A   1      30.269  27.485  24.011  1.00  0.00     0.079 A 
BRANCH   7  11
ATOM     11  C   UNL A   1      32.671  25.708  21.447  1.00  0.00     0.159 C 
BRANCH  11  12
ATOM     12  N   UNL A   1      32.640  24.264  21.313  1.00  0.00    -0.380 N 
ATOM     13  H   UNL A   1      32.346  23.903  20.446  1.00  0.00     0.160 HD
BRANCH  12  14
ATOM     14  C   UNL A   1      32.984  23.353  22.288  1.00  0.00     0.035 A 
ATOM     15  C   UNL A   1      34.684  22.529  23.838  1.00  0.00     0.042 A 
ATOM     16  C   UNL A   1      33.836  21.501  24.249  1.00  0.00     0.014 A 
ATOM     17  C   UNL A   1      34.272  23.418  22.837  1.00  0.00     0.039 A 
ATOM     18  C   UNL A   1      32.567  21.398  23.692  1.00  0.00     0.003 A 
ATOM     19  C   UNL A   1      32.148  22.322  22.729  1.00  0.00     0.026 A 
BRANCH  15  20
ATOM     20  C   UNL A   1      36.042  22.604  24.429  1.00  0.00     0.253 C 
ATOM     21  C   UNL A   1      37.580  23.305  26.172  1.00  0.00     0.146 C 
ATOM     22  N   UNL A   1      36.216  23.148  25.704  1.00  0.00    -0.345 N 
ATOM     23  C   UNL A   1      35.145  23.462  26.639  1.00  0.00     0.146 C 
ATOM     24  O   UNL A   1      36.981  22.165  23.766  1.00  0.00    -0.269 OA
ENDBRANCH  15  20
ENDBRANCH  12  14
ENDBRANCH  11  12
ENDBRANCH   7  11
ENDBRANCH   3   6
ENDBRANCH   1   2
BRANCH   1  25
ATOM     25  C   UNL A   1      31.837  29.281  27.010  1.00  0.00     0.042 C 
BRANCH  25  26
ATOM     26  C   UNL A   1      32.728  30.127  26.104  1.00  0.00     0.118 C 
BRANCH  26  27
ATOM     27  N   UNL A   1      32.585  31.549  26.385  1.00  0.00    -0.352 N 
ATOM     28  C   UNL A   1      33.243  32.351  27.279  1.00  0.00     0.251 C 
ATOM     29  H   UNL A   1      31.904  32.010  25.844  1.00  0.00     0.163 HD
ATOM     30  O   UNL A   1      32.786  33.467  27.520  1.00  0.00    -0.269 OA
BRANCH  28  31
ATOM     31  C   UNL A   1      34.483  31.899  27.946  1.00  0.00     0.039 A 
ATOM     32  C   UNL A   1      34.488  30.643  28.562  1.00  0.00     0.014 A 
ATOM     33  C   UNL A   1      35.609  32.723  28.033  1.00  0.00     0.014 A 
ATOM     34  C   UNL A   1      35.630  30.206  29.234  1.00  0.00     0.010 A 
ATOM     35  C   UNL A   1      36.775  32.249  28.630  1.00  0.00     0.010 A 
ATOM     36  C   UNL A   1      36.791  30.997  29.257  1.00  0.00    -0.014 A 
BRANCH  36  37
ATOM     37  C   UNL A   1      38.021  30.517  29.936  1.00  0.00     0.031 A 
ATOM     38  C   UNL A   1      38.350  30.965  31.335  1.00  0.00     0.074 A 
ATOM     39  C   UNL A   1      38.867  29.708  29.269  1.00  0.00     0.049 A 
ATOM     40  N   UNL A   1      39.364  30.629  32.090  1.00  0.00    -0.248 NA
ATOM     41  C   UNL A   1      37.437  31.936  31.961  1.00  0.00     0.031 C 
ATOM     42  C   UNL A   1      38.698  29.270  27.882  1.00  0.00     0.029 A 
ATOM     43  N   UNL A   1      40.041  29.118  29.663  1.00  0.00    -0.354 N 
ATOM     44  C   UNL A   1      39.226  31.362  33.264  1.00  0.00     0.074 A 
ATOM     45  C   UNL A   1      38.056  32.198  33.102  1.00  0.00     0.031 C 
ATOM     46  C   UNL A   1      39.714  28.459  27.550  1.00  0.00     0.029 A 
ATOM     47  C   UNL A   1      40.621  28.342  28.687  1.00  0.00     0.049 A 
ATOM     48  H   UNL A   1      40.431  29.238  30.559  1.00  0.00     0.167 HD
ATOM     49  C   UNL A   1      39.982  31.320  34.388  1.00  0.00     0.034 A 
ATOM     50  C   UNL A   1      41.752  27.612  28.709  1.00  0.00     0.034 A 
ATOM     51  C   UNL A   1      41.130  30.468  34.551  1.00  0.00     0.049 A 
ATOM     52  C   UNL A   1      42.555  27.556  29.979  1.00  0.00     0.074 A 
ATOM     53  C   UNL A   1      41.926  30.298  35.669  1.00  0.00     0.029 A 
ATOM     54  N   UNL A   1      41.651  29.646  33.562  1.00  0.00    -0.354 N 
ATOM     55  N   UNL A   1      42.325  28.141  31.129  1.00  0.00    -0.248 NA
ATOM     56  C   UNL A   1      43.750  26.702  29.967  1.00  0.00     0.031 C 
ATOM     57  C   UNL A   1      42.946  29.395  35.347  1.00  0.00     0.029 A 
ATOM     58  C   UNL A   1      42.762  28.972  34.041  1.00  0.00     0.049 A 
ATOM     59  H   UNL A   1      41.285  29.556  32.652  1.00  0.00     0.167 HD
ATOM     60  C   UNL A   1      43.321  27.695  31.990  1.00  0.00     0.074 A 
ATOM     61  C   UNL A   1      44.143  26.773  31.231  1.00  0.00     0.031 C 
ATOM     62  C   UNL A   1      43.542  28.023  33.287  1.00  0.00     0.034 A 
BRANCH  49  63
ATOM     63  C   UNL A   1      39.560  32.192  35.544  1.00  0.00     0.023 A 
ATOM     64  C   UNL A   1      38.746  31.653  36.563  1.00  0.00     0.012 A 
ATOM     65  C   UNL A   1      39.993  33.528  35.648  1.00  0.00     0.148 A 
ATOM     66  C   UNL A   1      38.332  32.439  37.639  1.00  0.00     0.002 A 
ATOM     67  C   UNL A   1      39.618  34.292  36.748  1.00  0.00     0.091 A 
ATOM     68  F   UNL A   1      40.750  34.034  34.664  1.00  0.00    -0.205 F 
ATOM     69  C   UNL A   1      38.776  33.754  37.735  1.00  0.00     0.022 A 
BRANCH  67  70
ATOM     70  S   UNL A   1      40.204  35.970  37.009  1.00  0.00     0.127 S 
ATOM     71  O   UNL A   1      39.720  36.642  35.803  1.00  0.00    -0.237 OA
ATOM     72  O   UNL A   1      39.507  36.352  38.238  1.00  0.00    -0.237 OA
ATOM     73  O   UNL A   1      41.650  35.876  37.135  1.00  0.00    -0.744 OA
ENDBRANCH  67  70
ENDBRANCH  49  63
BRANCH  50  74
ATOM     74  C   UNL A   1      42.142  26.807  27.517  1.00  0.00     0.023 A 
ATOM     75  C   UNL A   1      42.763  27.446  26.426  1.00  0.00     0.012 A 
ATOM     76  C   UNL A   1      41.932  25.416  27.470  1.00  0.00     0.148 A 
ATOM     77  C   UNL A   1      43.136  26.720  25.294  1.00  0.00     0.002 A 
ATOM     78  C   UNL A   1      42.357  24.690  26.365  1.00  0.00     0.091 A 
ATOM     79  F   UNL A   1      41.335  24.829  28.517  1.00  0.00    -0.205 F 
ATOM     80  C   UNL A   1      42.942  25.341  25.267  1.00  0.00     0.022 A 
BRANCH  78  81
ATOM     81  S   UNL A   1      42.271  22.896  26.298  1.00  0.00     0.127 S 
ATOM     82  O   UNL A   1      40.846  22.658  26.512  1.00  0.00    -0.237 OA
ATOM     83  O   UNL A   1      42.747  22.624  24.941  1.00  0.00    -0.237 OA
ATOM     84  O   UNL A   1      43.156  22.420  27.352  1.00  0.00    -0.744 OA
ENDBRANCH  78  81
ENDBRANCH  50  74
BRANCH  62  85
ATOM     85  C   UNL A   1      44.691  27.344  33.988  1.00  0.00     0.023 A 
ATOM     86  C   UNL A   1      45.992  27.880  33.899  1.00  0.00     0.012 A 
ATOM     87  C   UNL A   1      44.469  26.195  34.772  1.00  0.00     0.148 A 
ATOM     88  C   UNL A   1      47.060  27.256  34.540  1.00  0.00     0.002 A 
ATOM     89  C   UNL A   1      45.530  25.611  35.453  1.00  0.00     0.091 A 
ATOM     90  F   UNL A   1      43.230  25.687  34.830  1.00  0.00    -0.205 F 
ATOM     91  C   UNL A   1      46.829  26.130  35.326  1.00  0.00     0.022 A 
BRANCH  89  92
ATOM     92  S   UNL A   1      45.305  24.220  36.568  1.00  0.00     0.127 S 
ATOM     93  O   UNL A   1      44.397  24.783  37.567  1.00  0.00    -0.237 OA
ATOM     94  O   UNL A   1      44.701  23.215  35.692  1.00  0.00    -0.237 OA
ATOM     95  O   UNL A   1      46.635  23.876  37.052  1.00  0.00    -0.744 OA
ENDBRANCH  89  92
ENDBRANCH  62  85
ENDBRANCH  36  37
ENDBRANCH  28  31
ENDBRANCH  26  27
ENDBRANCH  25  26
ENDBRANCH   1  25
TORSDOF 17
ENDMDL
MODEL 3
REMARK VINA RESULT:     -11.6      2.402      8.130
REMARK SMILES CN(C)C(=O)c1cccc(NCc2cc(C(=O)NCCCNC(=O)c3ccc(-c4c5nc(c(-c6cccc(S(=O)(=O)[O-])c6F)c6ccc([nH]6)c(-c6cccc(S(=O)(=O)[O-])c6F)c6nc(c(-c7cccc(S(=O)(=O)[O-])c7F)c7ccc4[nH]7)C=C6)C=C5)cc3)cs2)c1
REMARK SMILES IDX 19 1 18 2 16 3 17 4 15 6 13 7 14 8 89 9 88 10 12 11 11 12
REMARK SMILES IDX 10 14 6 15 7 16 90 17 8 18 9 19 4 20 1 21 2 22 3 23 5 24
REMARK SMILES IDX 20 25 21 26 22 27 23 28 24 30 25 31 26 32 87 33 27 34 86 35
REMARK SMILES IDX 28 36 29 37 30 38 80 39 31 40 85 41 79 42 81 43 32 44 84 45
REMARK SMILES IDX 78 46 77 47 33 49 65 50 45 51 64 52 46 53 49 54 63 55 82 56
REMARK SMILES IDX 47 57 48 58 62 60 83 61 50 62 34 63 35 64 43 65 36 66 38 67
REMARK SMILES IDX 44 68 37 69 39 70 40 71 41 72 42 73 66 74 67 75 75 76 68 77
REMARK SMILES IDX 70 78 76 79 69 80 71 81 72 82 73 83 74 84 51 85 52 86 60 87
REMARK SMILES IDX 53 88 55 89 61 90 54 91 56 92 57 93 58 94 59 95
REMARK H PARENT 18 5 11 13 22 29 81 48 49 59
REMARK Flexibility Score: inf
ROOT
ATOM      1  C   UNL A   1      31.415  30.813  26.398  1.00  0.00     0.118 C 
ENDROOT
BRANCH   1   2
ATOM      2  N   UNL A   1      31.184  30.471  25.008  1.00  0.00    -0.352 N 
ATOM      3  C   UNL A   1      31.251  29.272  24.342  1.00  0.00     0.252 C 
ATOM      4  O   UNL A   1      30.876  29.260  23.170  1.00  0.00    -0.269 OA
ATOM      5  H   UNL A   1      30.933  31.235  24.441  1.00  0.00     0.163 HD
BRANCH   3   6
ATOM      6  C   UNL A   1      31.686  28.049  25.019  1.00  0.00     0.050 A 
ATOM      7  C   UNL A   1      31.655  25.972  26.136  1.00  0.00     0.024 A 
ATOM      8  C   UNL A   1      30.936  27.099  25.786  1.00  0.00     0.031 A 
ATOM      9  S   UNL A   1      33.308  26.165  25.759  1.00  0.00    -0.146 S 
ATOM     10  C   UNL A   1      33.021  27.675  25.014  1.00  0.00     0.079 A 
BRANCH   7  11
ATOM     11  C   UNL A   1      31.096  24.732  26.782  1.00  0.00     0.159 C 
BRANCH  11  12
ATOM     12  N   UNL A   1      30.566  23.721  25.887  1.00  0.00    -0.380 N 
ATOM     13  H   UNL A   1      29.620  23.472  26.004  1.00  0.00     0.160 HD
BRANCH  12  14
ATOM     14  C   UNL A   1      31.264  23.077  24.888  1.00  0.00     0.035 A 
ATOM     15  C   UNL A   1      33.088  21.566  24.288  1.00  0.00     0.042 A 
ATOM     16  C   UNL A   1      32.818  21.748  22.933  1.00  0.00     0.014 A 
ATOM     17  C   UNL A   1      32.343  22.258  25.251  1.00  0.00     0.039 A 
ATOM     18  C   UNL A   1      31.774  22.583  22.550  1.00  0.00     0.003 A 
ATOM     19  C   UNL A   1      31.003  23.231  23.523  1.00  0.00     0.026 A 
BRANCH  15  20
ATOM     20  C   UNL A   1      34.222  20.689  24.670  1.00  0.00     0.253 C 
ATOM     21  C   UNL A   1      36.593  20.279  24.995  1.00  0.00     0.146 C 
ATOM     22  N   UNL A   1      35.514  21.215  24.736  1.00  0.00    -0.345 N 
ATOM     23  C   UNL A   1      35.852  22.631  24.682  1.00  0.00     0.146 C 
ATOM     24  O   UNL A   1      33.975  19.512  24.929  1.00  0.00    -0.269 OA
ENDBRANCH  15  20
ENDBRANCH  12  14
ENDBRANCH  11  12
ENDBRANCH   7  11
ENDBRANCH   3   6
ENDBRANCH   1   2
BRANCH   1  25
ATOM     25  C   UNL A   1      31.404  32.325  26.614  1.00  0.00     0.042 C 
BRANCH  25  26
ATOM     26  C   UNL A   1      32.743  32.872  27.102  1.00  0.00     0.118 C 
BRANCH  26  27
ATOM     27  N   UNL A   1      32.610  34.218  27.642  1.00  0.00    -0.352 N 
ATOM     28  C   UNL A   1      33.177  34.795  28.747  1.00  0.00     0.251 C 
ATOM     29  H   UNL A   1      32.014  34.811  27.130  1.00  0.00     0.163 HD
ATOM     30  O   UNL A   1      32.729  35.866  29.152  1.00  0.00    -0.269 OA
BRANCH  28  31
ATOM     31  C   UNL A   1      34.313  34.155  29.447  1.00  0.00     0.039 A 
ATOM     32  C   UNL A   1      34.036  33.249  30.475  1.00  0.00     0.014 A 
ATOM     33  C   UNL A   1      35.637  34.492  29.151  1.00  0.00     0.014 A 
ATOM     34  C   UNL A   1      35.086  32.660  31.181  1.00  0.00     0.010 A 
ATOM     35  C   UNL A   1      36.683  33.840  29.799  1.00  0.00     0.010 A 
ATOM     36  C   UNL A   1      36.420  32.935  30.836  1.00  0.00    -0.014 A 
BRANCH  36  37
ATOM     37  C   UNL A   1      37.540  32.280  31.558  1.00  0.00     0.031 A 
ATOM     38  C   UNL A   1      38.309  31.153  30.921  1.00  0.00     0.074 A 
ATOM     39  C   UNL A   1      37.836  32.676  32.811  1.00  0.00     0.049 A 
ATOM     40  N   UNL A   1      39.329  30.483  31.392  1.00  0.00    -0.248 NA
ATOM     41  C   UNL A   1      37.859  30.700  29.594  1.00  0.00     0.031 C 
ATOM     42  C   UNL A   1      37.111  33.703  33.564  1.00  0.00     0.029 A 
ATOM     43  N   UNL A   1      38.815  32.259  33.676  1.00  0.00    -0.354 N 
ATOM     44  C   UNL A   1      39.626  29.517  30.436  1.00  0.00     0.074 A 
ATOM     45  C   UNL A   1      38.647  29.657  29.379  1.00  0.00     0.031 C 
ATOM     46  C   UNL A   1      37.688  33.855  34.766  1.00  0.00     0.029 A 
ATOM     47  C   UNL A   1      38.802  32.919  34.882  1.00  0.00     0.049 A 
ATOM     48  H   UNL A   1      39.465  31.554  33.454  1.00  0.00     0.167 HD
ATOM     49  C   UNL A   1      40.640  28.620  30.420  1.00  0.00     0.034 A 
ATOM     50  C   UNL A   1      39.603  32.791  35.957  1.00  0.00     0.034 A 
ATOM     51  C   UNL A   1      41.625  28.504  31.462  1.00  0.00     0.049 A 
ATOM     52  C   UNL A   1      40.741  31.811  35.901  1.00  0.00     0.074 A 
ATOM     53  C   UNL A   1      42.732  27.675  31.516  1.00  0.00     0.029 A 
ATOM     54  N   UNL A   1      41.618  29.234  32.642  1.00  0.00    -0.354 N 
ATOM     55  N   UNL A   1      41.095  31.010  34.925  1.00  0.00    -0.248 NA
ATOM     56  C   UNL A   1      41.617  31.748  37.078  1.00  0.00     0.031 C 
ATOM     57  C   UNL A   1      43.377  27.885  32.740  1.00  0.00     0.029 A 
ATOM     58  C   UNL A   1      42.695  28.872  33.433  1.00  0.00     0.049 A 
ATOM     59  H   UNL A   1      40.944  29.911  32.881  1.00  0.00     0.167 HD
ATOM     60  C   UNL A   1      42.258  30.379  35.353  1.00  0.00     0.074 A 
ATOM     61  C   UNL A   1      42.558  30.909  36.667  1.00  0.00     0.031 C 
ATOM     62  C   UNL A   1      43.006  29.442  34.720  1.00  0.00     0.034 A 
BRANCH  49  63
ATOM     63  C   UNL A   1      40.758  27.723  29.212  1.00  0.00     0.023 A 
ATOM     64  C   UNL A   1      39.996  26.537  29.148  1.00  0.00     0.012 A 
ATOM     65  C   UNL A   1      41.588  28.065  28.127  1.00  0.00     0.148 A 
ATOM     66  C   UNL A   1      40.093  25.684  28.048  1.00  0.00     0.002 A 
ATOM     67  C   UNL A   1      41.641  27.235  27.012  1.00  0.00     0.091 A 
ATOM     68  F   UNL A   1      42.321  29.184  28.209  1.00  0.00    -0.205 F 
ATOM     69  C   UNL A   1      40.908  26.039  26.978  1.00  0.00     0.022 A 
BRANCH  67  70
ATOM     70  S   UNL A   1      42.596  27.643  25.545  1.00  0.00     0.127 S 
ATOM     71  O   UNL A   1      43.945  27.766  26.096  1.00  0.00    -0.237 OA
ATOM     72  O   UNL A   1      42.388  26.463  24.705  1.00  0.00    -0.237 OA
ATOM     73  O   UNL A   1      42.020  28.872  25.020  1.00  0.00    -0.744 OA
ENDBRANCH  67  70
ENDBRANCH  49  63
BRANCH  50  74
ATOM     74  C   UNL A   1      39.407  33.675  37.140  1.00  0.00     0.023 A 
ATOM     75  C   UNL A   1      39.867  35.006  37.092  1.00  0.00     0.012 A 
ATOM     76  C   UNL A   1      38.743  33.219  38.294  1.00  0.00     0.148 A 
ATOM     77  C   UNL A   1      39.700  35.856  38.186  1.00  0.00     0.002 A 
ATOM     78  C   UNL A   1      38.530  34.087  39.358  1.00  0.00     0.091 A 
ATOM     79  F   UNL A   1      38.318  31.948  38.321  1.00  0.00    -0.205 F 
ATOM     80  C   UNL A   1      39.024  35.400  39.315  1.00  0.00     0.022 A 
BRANCH  78  81
ATOM     81  S   UNL A   1      37.554  33.630  40.796  1.00  0.00     0.127 S 
ATOM     82  O   UNL A   1      36.364  33.051  40.177  1.00  0.00    -0.237 OA
ATOM     83  O   UNL A   1      38.434  32.669  41.462  1.00  0.00    -0.237 OA
ATOM     84  O   UNL A   1      37.344  34.866  41.537  1.00  0.00    -0.744 OA
ENDBRANCH  78  81
ENDBRANCH  50  74
BRANCH  62  85
ATOM     85  C   UNL A   1      44.252  28.961  35.418  1.00  0.00     0.023 A 
ATOM     86  C   UNL A   1      45.491  29.582  35.163  1.00  0.00     0.012 A 
ATOM     87  C   UNL A   1      44.183  27.918  36.363  1.00  0.00     0.148 A 
ATOM     88  C   UNL A   1      46.649  29.141  35.801  1.00  0.00     0.002 A 
ATOM     89  C   UNL A   1      45.333  27.521  37.035  1.00  0.00     0.091 A 
ATOM     90  F   UNL A   1      43.000  27.325  36.578  1.00  0.00    -0.205 F 
ATOM     91  C   UNL A   1      46.569  28.119  36.744  1.00  0.00     0.022 A 
BRANCH  89  92
ATOM     92  S   UNL A   1      45.302  26.284  38.338  1.00  0.00     0.127 S 
ATOM     93  O   UNL A   1      44.272  26.816  39.230  1.00  0.00    -0.237 OA
ATOM     94  O   UNL A   1      44.914  25.075  37.610  1.00  0.00    -0.237 OA
ATOM     95  O   UNL A   1      46.651  26.250  38.888  1.00  0.00    -0.744 OA
ENDBRANCH  89  92
ENDBRANCH  62  85
ENDBRANCH  36  37
ENDBRANCH  28  31
ENDBRANCH  26  27
ENDBRANCH  25  26
ENDBRANCH   1  25
TORSDOF 17
ENDMDL
