MODEL 1
REMARK VINA RESULT:     -11.9      0.000      0.000
REMARK SMILES CC[C@H](C)[C@@H](Nc1ncnc2ccccc12)C(=O)NCCCNC(=O)c1ccc(-c2c3nc(c(-c4cccc(S(=O)(=O)[O-])c4F)c4ccc([nH]4)c(-c4cccc(S(=O)(=O)[O-])c4F)c4nc(c(-c5cccc(S(=O)(=O)[O-])c5F)c5ccc2[nH]5)C=C4)C=C3)cc1
REMARK SMILES IDX 21 1 20 2 19 3 17 4 18 5 5 7 3 8 4 9 2 10 1 11 6 12 7 14
REMARK SMILES IDX 8 15 16 16 9 17 11 18 15 19 10 20 12 21 14 22 13 23 22 24
REMARK SMILES IDX 23 25 24 26 25 28 26 29 27 30 88 31 28 32 87 33 29 34 30 35
REMARK SMILES IDX 31 36 81 37 32 38 86 39 80 40 82 41 33 42 85 43 79 44 78 45
REMARK SMILES IDX 34 47 66 48 46 49 65 50 47 51 50 52 64 53 83 54 48 55 49 56
REMARK SMILES IDX 63 58 84 59 51 60 35 61 36 62 44 63 37 64 39 65 45 66 38 67
REMARK SMILES IDX 40 68 41 69 42 70 43 71 67 72 68 73 76 74 69 75 71 76 77 77
REMARK SMILES IDX 70 78 72 79 73 80 74 81 75 82 52 83 53 84 61 85 54 86 56 87
REMARK SMILES IDX 62 88 55 89 57 90 58 91 59 92 60 93
REMARK H PARENT 19 6 6 13 23 27 82 46 50 57
REMARK Flexibility Score: inf
ROOT
ATOM      1  C   UNL A   1      33.475  28.905  23.963  1.00  0.00     0.042 C 
ENDROOT
BRANCH   1   2
ATOM      2  C   UNL A   1      32.287  28.310  23.231  1.00  0.00     0.117 C 
BRANCH   2   3
ATOM      3  N   UNL A   1      32.698  27.561  22.056  1.00  0.00    -0.354 N 
ATOM      4  C   UNL A   1      32.978  26.234  21.917  1.00  0.00     0.242 C 
ATOM      5  O   UNL A   1      33.309  25.836  20.794  1.00  0.00    -0.273 OA
ATOM      6  H   UNL A   1      32.789  28.093  21.233  1.00  0.00     0.163 HD
BRANCH   4   7
ATOM      7  C   UNL A   1      32.911  25.250  23.116  1.00  0.00     0.173 C 
BRANCH   7   8
ATOM      8  C   UNL A   1      31.658  25.597  23.992  1.00  0.00     0.018 C 
ATOM      9  C   UNL A   1      30.360  24.925  23.530  1.00  0.00     0.010 C 
BRANCH   8  10
ATOM     10  C   UNL A   1      31.928  25.360  25.506  1.00  0.00     0.002 C 
ATOM     11  C   UNL A   1      33.369  25.533  25.967  1.00  0.00     0.004 C 
ENDBRANCH   8  10
ENDBRANCH   7   8
BRANCH   7  12
ATOM     12  N   UNL A   1      32.974  23.814  22.728  1.00  0.00    -0.358 N 
ATOM     13  H   UNL A   1      32.709  23.595  21.806  1.00  0.00     0.162 HD
BRANCH  12  14
ATOM     14  C   UNL A   1      33.365  22.759  23.528  1.00  0.00     0.137 A 
ATOM     15  N   UNL A   1      32.360  21.885  23.719  1.00  0.00    -0.219 NA
ATOM     16  C   UNL A   1      34.658  22.517  24.021  1.00  0.00     0.043 A 
ATOM     17  C   UNL A   1      32.674  20.713  24.282  1.00  0.00     0.224 A 
ATOM     18  C   UNL A   1      34.868  21.230  24.541  1.00  0.00     0.076 A 
ATOM     19  C   UNL A   1      35.735  23.438  24.019  1.00  0.00     0.014 A 
ATOM     20  N   UNL A   1      33.891  20.327  24.668  1.00  0.00    -0.236 NA
ATOM     21  C   UNL A   1      36.151  20.864  24.928  1.00  0.00     0.029 A 
ATOM     22  C   UNL A   1      37.012  23.053  24.423  1.00  0.00     0.001 A 
ATOM     23  C   UNL A   1      37.225  21.753  24.859  1.00  0.00     0.002 A 
ENDBRANCH  12  14
ENDBRANCH   7  12
ENDBRANCH   4   7
ENDBRANCH   2   3
ENDBRANCH   1   2
BRANCH   1  24
ATOM     24  C   UNL A   1      33.284  28.933  25.469  1.00  0.00     0.118 C 
BRANCH  24  25
ATOM     25  N   UNL A   1      32.649  30.164  25.932  1.00  0.00    -0.352 N 
ATOM     26  C   UNL A   1      33.093  31.045  26.889  1.00  0.00     0.251 C 
ATOM     27  H   UNL A   1      31.793  30.392  25.502  1.00  0.00     0.163 HD
ATOM     28  O   UNL A   1      32.371  31.949  27.294  1.00  0.00    -0.269 OA
BRANCH  26  29
ATOM     29  C   UNL A   1      34.451  30.864  27.437  1.00  0.00     0.039 A 
ATOM     30  C   UNL A   1      35.275  31.978  27.616  1.00  0.00     0.014 A 
ATOM     31  C   UNL A   1      34.871  29.592  27.834  1.00  0.00     0.014 A 
ATOM     32  C   UNL A   1      36.501  31.824  28.267  1.00  0.00     0.010 A 
ATOM     33  C   UNL A   1      36.045  29.459  28.558  1.00  0.00     0.010 A 
ATOM     34  C   UNL A   1      36.877  30.570  28.773  1.00  0.00    -0.014 A 
BRANCH  34  35
ATOM     35  C   UNL A   1      38.142  30.356  29.515  1.00  0.00     0.031 A 
ATOM     36  C   UNL A   1      39.166  29.411  28.953  1.00  0.00     0.074 A 
ATOM     37  C   UNL A   1      38.297  30.877  30.748  1.00  0.00     0.049 A 
ATOM     38  N   UNL A   1      40.229  28.909  29.520  1.00  0.00    -0.248 NA
ATOM     39  C   UNL A   1      38.929  28.926  27.582  1.00  0.00     0.031 C 
ATOM     40  C   UNL A   1      37.336  31.743  31.431  1.00  0.00     0.029 A 
ATOM     41  N   UNL A   1      39.304  30.707  31.667  1.00  0.00    -0.354 N 
ATOM     42  C   UNL A   1      40.749  28.001  28.606  1.00  0.00     0.074 A 
ATOM     43  C   UNL A   1      39.869  28.002  27.458  1.00  0.00     0.031 C 
ATOM     44  C   UNL A   1      37.789  32.015  32.665  1.00  0.00     0.029 A 
ATOM     45  C   UNL A   1      39.054  31.316  32.874  1.00  0.00     0.049 A 
ATOM     46  H   UNL A   1      40.125  30.199  31.479  1.00  0.00     0.167 HD
ATOM     47  C   UNL A   1      41.873  27.254  28.701  1.00  0.00     0.034 A 
ATOM     48  C   UNL A   1      39.754  31.296  34.025  1.00  0.00     0.034 A 
ATOM     49  C   UNL A   1      42.780  27.319  29.812  1.00  0.00     0.049 A 
ATOM     50  C   UNL A   1      41.049  30.531  34.077  1.00  0.00     0.074 A 
ATOM     51  C   UNL A   1      44.001  26.689  29.965  1.00  0.00     0.029 A 
ATOM     52  N   UNL A   1      42.567  28.068  30.959  1.00  0.00    -0.354 N 
ATOM     53  N   UNL A   1      41.604  29.791  33.148  1.00  0.00    -0.248 NA
ATOM     54  C   UNL A   1      41.833  30.626  35.317  1.00  0.00     0.031 C 
ATOM     55  C   UNL A   1      44.526  27.055  31.209  1.00  0.00     0.029 A 
ATOM     56  C   UNL A   1      43.637  27.923  31.824  1.00  0.00     0.049 A 
ATOM     57  H   UNL A   1      41.772  28.622  31.133  1.00  0.00     0.167 HD
ATOM     58  C   UNL A   1      42.818  29.362  33.672  1.00  0.00     0.074 A 
ATOM     59  C   UNL A   1      42.922  29.935  35.001  1.00  0.00     0.031 C 
ATOM     60  C   UNL A   1      43.754  28.559  33.112  1.00  0.00     0.034 A 
BRANCH  47  61
ATOM     61  C   UNL A   1      42.207  26.354  27.542  1.00  0.00     0.023 A 
ATOM     62  C   UNL A   1      42.917  26.876  26.440  1.00  0.00     0.012 A 
ATOM     63  C   UNL A   1      41.840  24.995  27.545  1.00  0.00     0.148 A 
ATOM     64  C   UNL A   1      43.213  26.073  25.340  1.00  0.00     0.002 A 
ATOM     65  C   UNL A   1      42.180  24.189  26.464  1.00  0.00     0.091 A 
ATOM     66  F   UNL A   1      41.141  24.520  28.586  1.00  0.00    -0.205 F 
ATOM     67  C   UNL A   1      42.854  24.728  25.356  1.00  0.00     0.022 A 
BRANCH  65  68
ATOM     68  S   UNL A   1      41.825  22.428  26.439  1.00  0.00     0.127 S 
ATOM     69  O   UNL A   1      40.364  22.419  26.418  1.00  0.00    -0.237 OA
ATOM     70  O   UNL A   1      42.455  21.997  25.189  1.00  0.00    -0.237 OA
ATOM     71  O   UNL A   1      42.447  21.888  27.641  1.00  0.00    -0.744 OA
ENDBRANCH  65  68
ENDBRANCH  47  61
BRANCH  48  72
ATOM     72  C   UNL A   1      39.273  32.091  35.189  1.00  0.00     0.023 A 
ATOM     73  C   UNL A   1      38.416  31.484  36.128  1.00  0.00     0.012 A 
ATOM     74  C   UNL A   1      39.715  33.410  35.414  1.00  0.00     0.148 A 
ATOM     75  C   UNL A   1      37.992  32.181  37.259  1.00  0.00     0.002 A 
ATOM     76  C   UNL A   1      39.330  34.081  36.570  1.00  0.00     0.091 A 
ATOM     77  F   UNL A   1      40.525  33.971  34.506  1.00  0.00    -0.205 F 
ATOM     78  C   UNL A   1      38.458  33.473  37.487  1.00  0.00     0.022 A 
BRANCH  76  79
ATOM     79  S   UNL A   1      39.985  35.694  37.017  1.00  0.00     0.127 S 
ATOM     80  O   UNL A   1      39.542  36.518  35.896  1.00  0.00    -0.237 OA
ATOM     81  O   UNL A   1      39.300  35.957  38.283  1.00  0.00    -0.237 OA
ATOM     82  O   UNL A   1      41.425  35.514  37.140  1.00  0.00    -0.744 OA
ENDBRANCH  76  79
ENDBRANCH  48  72
BRANCH  60  83
ATOM     83  C   UNL A   1      45.006  28.278  33.897  1.00  0.00     0.023 A 
ATOM     84  C   UNL A   1      46.085  29.180  33.837  1.00  0.00     0.012 A 
ATOM     85  C   UNL A   1      45.059  27.188  34.788  1.00  0.00     0.148 A 
ATOM     86  C   UNL A   1      47.206  28.994  34.643  1.00  0.00     0.002 A 
ATOM     87  C   UNL A   1      46.161  27.033  35.620  1.00  0.00     0.091 A 
ATOM     88  F   UNL A   1      44.026  26.333  34.815  1.00  0.00    -0.205 F 
ATOM     89  C   UNL A   1      47.238  27.931  35.544  1.00  0.00     0.022 A 
BRANCH  87  90
ATOM     90  S   UNL A   1      46.245  25.751  36.877  1.00  0.00     0.127 S 
ATOM     91  O   UNL A   1      47.542  26.026  37.493  1.00  0.00    -0.237 OA
ATOM     92  O   UNL A   1      45.091  26.065  37.719  1.00  0.00    -0.237 OA
ATOM     93  O   UNL A   1      46.147  24.484  36.166  1.00  0.00    -0.744 OA
ENDBRANCH  87  90
ENDBRANCH  60  83
ENDBRANCH  34  35
ENDBRANCH  26  29
ENDBRANCH  24  25
ENDBRANCH   1  24
TORSDOF 17
ENDMDL
MODEL 2
REMARK VINA RESULT:     -11.7      1.619      7.794
REMARK SMILES CC[C@H](C)[C@@H](Nc1ncnc2ccccc12)C(=O)NCCCNC(=O)c1ccc(-c2c3nc(c(-c4cccc(S(=O)(=O)[O-])c4F)c4ccc([nH]4)c(-c4cccc(S(=O)(=O)[O-])c4F)c4nc(c(-c5cccc(S(=O)(=O)[O-])c5F)c5ccc2[nH]5)C=C4)C=C3)cc1
REMARK SMILES IDX 21 1 20 2 19 3 17 4 18 5 5 7 3 8 4 9 2 10 1 11 6 12 7 14
REMARK SMILES IDX 8 15 16 16 9 17 11 18 15 19 10 20 12 21 14 22 13 23 22 24
REMARK SMILES IDX 23 25 24 26 25 28 26 29 27 30 88 31 28 32 87 33 29 34 30 35
REMARK SMILES IDX 31 36 81 37 32 38 86 39 80 40 82 41 33 42 85 43 79 44 78 45
REMARK SMILES IDX 34 47 66 48 46 49 65 50 47 51 50 52 64 53 83 54 48 55 49 56
REMARK SMILES IDX 63 58 84 59 51 60 35 61 36 62 44 63 37 64 39 65 45 66 38 67
REMARK SMILES IDX 40 68 41 69 42 70 43 71 67 72 68 73 76 74 69 75 71 76 77 77
REMARK SMILES IDX 70 78 72 79 73 80 74 81 75 82 52 83 53 84 61 85 54 86 56 87
REMARK SMILES IDX 62 88 55 89 57 90 58 91 59 92 60 93
REMARK H PARENT 19 6 6 13 23 27 82 46 50 57
REMARK Flexibility Score: inf
ROOT
ATOM      1  C   UNL A   1      32.775  29.611  24.853  1.00  0.00     0.042 C 
ENDROOT
BRANCH   1   2
ATOM      2  C   UNL A   1      33.691  28.417  24.656  1.00  0.00     0.117 C 
BRANCH   2   3
ATOM      3  N   UNL A   1      33.757  28.012  23.263  1.00  0.00    -0.354 N 
ATOM      4  C   UNL A   1      33.370  26.846  22.670  1.00  0.00     0.242 C 
ATOM      5  O   UNL A   1      33.532  26.747  21.449  1.00  0.00    -0.273 OA
ATOM      6  H   UNL A   1      34.141  28.681  22.652  1.00  0.00     0.163 HD
BRANCH   4   7
ATOM      7  C   UNL A   1      32.767  25.671  23.485  1.00  0.00     0.173 C 
BRANCH   7   8
ATOM      8  C   UNL A   1      31.211  25.850  23.565  1.00  0.00     0.018 C 
ATOM      9  C   UNL A   1      30.413  24.584  23.238  1.00  0.00     0.010 C 
BRANCH   8  10
ATOM     10  C   UNL A   1      30.771  26.480  24.919  1.00  0.00     0.002 C 
ATOM     11  C   UNL A   1      31.500  25.982  26.160  1.00  0.00     0.004 C 
ENDBRANCH   8  10
ENDBRANCH   7   8
BRANCH   7  12
ATOM     12  N   UNL A   1      33.176  24.324  23.002  1.00  0.00    -0.358 N 
ATOM     13  H   UNL A   1      32.711  23.981  22.205  1.00  0.00     0.162 HD
BRANCH  12  14
ATOM     14  C   UNL A   1      34.141  23.505  23.555  1.00  0.00     0.137 A 
ATOM     15  N   UNL A   1      35.257  23.480  22.803  1.00  0.00    -0.219 NA
ATOM     16  C   UNL A   1      34.068  22.843  24.791  1.00  0.00     0.043 A 
ATOM     17  C   UNL A   1      36.339  22.909  23.343  1.00  0.00     0.224 A 
ATOM     18  C   UNL A   1      35.286  22.333  25.268  1.00  0.00     0.076 A 
ATOM     19  C   UNL A   1      32.900  22.670  25.576  1.00  0.00     0.014 A 
ATOM     20  N   UNL A   1      36.418  22.368  24.560  1.00  0.00    -0.236 NA
ATOM     21  C   UNL A   1      35.329  21.780  26.542  1.00  0.00     0.029 A 
ATOM     22  C   UNL A   1      32.964  22.102  26.846  1.00  0.00     0.001 A 
ATOM     23  C   UNL A   1      34.188  21.675  27.340  1.00  0.00     0.002 A 
ENDBRANCH  12  14
ENDBRANCH   7  12
ENDBRANCH   4   7
ENDBRANCH   2   3
ENDBRANCH   1   2
BRANCH   1  24
ATOM     24  C   UNL A   1      32.542  29.940  26.316  1.00  0.00     0.118 C 
BRANCH  24  25
ATOM     25  N   UNL A   1      32.441  31.376  26.559  1.00  0.00    -0.352 N 
ATOM     26  C   UNL A   1      33.261  32.172  27.324  1.00  0.00     0.251 C 
ATOM     27  H   UNL A   1      31.689  31.834  26.118  1.00  0.00     0.163 HD
ATOM     28  O   UNL A   1      32.956  33.333  27.572  1.00  0.00    -0.269 OA
BRANCH  26  29
ATOM     29  C   UNL A   1      34.507  31.589  27.858  1.00  0.00     0.039 A 
ATOM     30  C   UNL A   1      35.611  32.415  28.084  1.00  0.00     0.014 A 
ATOM     31  C   UNL A   1      34.545  30.235  28.197  1.00  0.00     0.014 A 
ATOM     32  C   UNL A   1      36.737  31.893  28.723  1.00  0.00     0.010 A 
ATOM     33  C   UNL A   1      35.627  29.744  28.911  1.00  0.00     0.010 A 
ATOM     34  C   UNL A   1      36.738  30.563  29.172  1.00  0.00    -0.014 A 
BRANCH  34  35
ATOM     35  C   UNL A   1      37.883  29.968  29.901  1.00  0.00     0.031 A 
ATOM     36  C   UNL A   1      38.171  30.425  31.303  1.00  0.00     0.074 A 
ATOM     37  C   UNL A   1      38.741  29.153  29.258  1.00  0.00     0.049 A 
ATOM     38  N   UNL A   1      39.224  30.211  32.044  1.00  0.00    -0.248 NA
ATOM     39  C   UNL A   1      37.153  31.282  31.937  1.00  0.00     0.031 C 
ATOM     40  C   UNL A   1      38.610  28.704  27.871  1.00  0.00     0.029 A 
ATOM     41  N   UNL A   1      39.927  28.598  29.677  1.00  0.00    -0.354 N 
ATOM     42  C   UNL A   1      39.029  30.959  33.198  1.00  0.00     0.074 A 
ATOM     43  C   UNL A   1      37.769  31.652  33.049  1.00  0.00     0.031 C 
ATOM     44  C   UNL A   1      39.679  27.959  27.548  1.00  0.00     0.029 A 
ATOM     45  C   UNL A   1      40.587  27.905  28.690  1.00  0.00     0.049 A 
ATOM     46  H   UNL A   1      40.270  28.688  30.595  1.00  0.00     0.167 HD
ATOM     47  C   UNL A   1      39.815  31.040  34.297  1.00  0.00     0.034 A 
ATOM     48  C   UNL A   1      41.797  27.312  28.698  1.00  0.00     0.034 A 
ATOM     49  C   UNL A   1      41.026  30.287  34.467  1.00  0.00     0.049 A 
ATOM     50  C   UNL A   1      42.613  27.339  29.962  1.00  0.00     0.074 A 
ATOM     51  C   UNL A   1      41.843  30.209  35.579  1.00  0.00     0.029 A 
ATOM     52  N   UNL A   1      41.589  29.472  33.496  1.00  0.00    -0.354 N 
ATOM     53  N   UNL A   1      42.345  27.931  31.101  1.00  0.00    -0.248 NA
ATOM     54  C   UNL A   1      43.876  26.586  29.960  1.00  0.00     0.031 C 
ATOM     55  C   UNL A   1      42.903  29.348  35.280  1.00  0.00     0.029 A 
ATOM     56  C   UNL A   1      42.739  28.881  33.985  1.00  0.00     0.049 A 
ATOM     57  H   UNL A   1      41.223  29.334  32.593  1.00  0.00     0.167 HD
ATOM     58  C   UNL A   1      43.383  27.595  31.962  1.00  0.00     0.074 A 
ATOM     59  C   UNL A   1      44.282  26.737  31.215  1.00  0.00     0.031 C 
ATOM     60  C   UNL A   1      43.582  27.972  33.249  1.00  0.00     0.034 A 
BRANCH  47  61
ATOM     61  C   UNL A   1      39.349  31.928  35.419  1.00  0.00     0.023 A 
ATOM     62  C   UNL A   1      39.649  33.306  35.384  1.00  0.00     0.012 A 
ATOM     63  C   UNL A   1      38.602  31.413  36.495  1.00  0.00     0.148 A 
ATOM     64  C   UNL A   1      39.256  34.146  36.425  1.00  0.00     0.002 A 
ATOM     65  C   UNL A   1      38.173  32.265  37.506  1.00  0.00     0.091 A 
ATOM     66  F   UNL A   1      38.348  30.096  36.528  1.00  0.00    -0.205 F 
ATOM     67  C   UNL A   1      38.510  33.629  37.479  1.00  0.00     0.022 A 
BRANCH  65  68
ATOM     68  S   UNL A   1      37.140  31.695  38.860  1.00  0.00     0.127 S 
ATOM     69  O   UNL A   1      38.038  31.847  40.003  1.00  0.00    -0.237 OA
ATOM     70  O   UNL A   1      36.028  32.647  38.830  1.00  0.00    -0.237 OA
ATOM     71  O   UNL A   1      36.769  30.329  38.519  1.00  0.00    -0.744 OA
ENDBRANCH  65  68
ENDBRANCH  47  61
BRANCH  48  72
ATOM     72  C   UNL A   1      42.262  26.580  27.487  1.00  0.00     0.023 A 
ATOM     73  C   UNL A   1      43.039  27.262  26.530  1.00  0.00     0.012 A 
ATOM     74  C   UNL A   1      42.010  25.205  27.314  1.00  0.00     0.148 A 
ATOM     75  C   UNL A   1      43.539  26.593  25.412  1.00  0.00     0.002 A 
ATOM     76  C   UNL A   1      42.554  24.533  26.225  1.00  0.00     0.091 A 
ATOM     77  F   UNL A   1      41.263  24.576  28.233  1.00  0.00    -0.205 F 
ATOM     78  C   UNL A   1      43.307  25.228  25.265  1.00  0.00     0.022 A 
BRANCH  76  79
ATOM     79  S   UNL A   1      42.425  22.751  26.023  1.00  0.00     0.127 S 
ATOM     80  O   UNL A   1      43.017  22.556  24.702  1.00  0.00    -0.237 OA
ATOM     81  O   UNL A   1      43.234  22.262  27.139  1.00  0.00    -0.237 OA
ATOM     82  O   UNL A   1      41.005  22.444  26.131  1.00  0.00    -0.744 OA
ENDBRANCH  76  79
ENDBRANCH  48  72
BRANCH  60  83
ATOM     83  C   UNL A   1      44.787  27.429  33.966  1.00  0.00     0.023 A 
ATOM     84  C   UNL A   1      45.983  28.172  33.981  1.00  0.00     0.012 A 
ATOM     85  C   UNL A   1      44.692  26.248  34.727  1.00  0.00     0.148 A 
ATOM     86  C   UNL A   1      47.073  27.739  34.734  1.00  0.00     0.002 A 
ATOM     87  C   UNL A   1      45.768  25.845  35.508  1.00  0.00     0.091 A 
ATOM     88  F   UNL A   1      43.549  25.548  34.682  1.00  0.00    -0.205 F 
ATOM     89  C   UNL A   1      46.961  26.585  35.508  1.00  0.00     0.022 A 
BRANCH  87  90
ATOM     90  S   UNL A   1      45.680  24.428  36.610  1.00  0.00     0.127 S 
ATOM     91  O   UNL A   1      47.024  24.415  37.184  1.00  0.00    -0.237 OA
ATOM     92  O   UNL A   1      44.622  24.823  37.541  1.00  0.00    -0.237 OA
ATOM     93  O   UNL A   1      45.348  23.285  35.769  1.00  0.00    -0.744 OA
ENDBRANCH  87  90
ENDBRANCH  60  83
ENDBRANCH  34  35
ENDBRANCH  26  29
ENDBRANCH  24  25
ENDBRANCH   1  24
TORSDOF 17
ENDMDL
MODEL 3
REMARK VINA RESULT:     -11.7      1.365      2.322
REMARK SMILES CC[C@H](C)[C@@H](Nc1ncnc2ccccc12)C(=O)NCCCNC(=O)c1ccc(-c2c3nc(c(-c4cccc(S(=O)(=O)[O-])c4F)c4ccc([nH]4)c(-c4cccc(S(=O)(=O)[O-])c4F)c4nc(c(-c5cccc(S(=O)(=O)[O-])c5F)c5ccc2[nH]5)C=C4)C=C3)cc1
REMARK SMILES IDX 21 1 20 2 19 3 17 4 18 5 5 7 3 8 4 9 2 10 1 11 6 12 7 14
REMARK SMILES IDX 8 15 16 16 9 17 11 18 15 19 10 20 12 21 14 22 13 23 22 24
REMARK SMILES IDX 23 25 24 26 25 28 26 29 27 30 88 31 28 32 87 33 29 34 30 35
REMARK SMILES IDX 31 36 81 37 32 38 86 39 80 40 82 41 33 42 85 43 79 44 78 45
REMARK SMILES IDX 34 47 66 48 46 49 65 50 47 51 50 52 64 53 83 54 48 55 49 56
REMARK SMILES IDX 63 58 84 59 51 60 35 61 36 62 44 63 37 64 39 65 45 66 38 67
REMARK SMILES IDX 40 68 41 69 42 70 43 71 67 72 68 73 76 74 69 75 71 76 77 77
REMARK SMILES IDX 70 78 72 79 73 80 74 81 75 82 52 83 53 84 61 85 54 86 56 87
REMARK SMILES IDX 62 88 55 89 57 90 58 91 59 92 60 93
REMARK H PARENT 19 6 6 13 23 27 82 46 50 57
REMARK Flexibility Score: inf
ROOT
ATOM      1  C   UNL A   1      32.276  27.708  25.263  1.00  0.00     0.042 C 
ENDROOT
BRANCH   1   2
ATOM      2  C   UNL A   1      32.854  26.324  25.492  1.00  0.00     0.117 C 
BRANCH   2   3
ATOM      3  N   UNL A   1      32.025  25.534  26.387  1.00  0.00    -0.354 N 
ATOM      4  C   UNL A   1      32.003  24.188  26.602  1.00  0.00     0.242 C 
ATOM      5  O   UNL A   1      31.193  23.757  27.429  1.00  0.00    -0.273 OA
ATOM      6  H   UNL A   1      31.378  26.051  26.919  1.00  0.00     0.163 HD
BRANCH   4   7
ATOM      7  C   UNL A   1      32.937  23.218  25.830  1.00  0.00     0.173 C 
BRANCH   7   8
ATOM      8  C   UNL A   1      34.390  23.339  26.410  1.00  0.00     0.018 C 
ATOM      9  C   UNL A   1      34.884  22.086  27.139  1.00  0.00     0.010 C 
BRANCH   8  10
ATOM     10  C   UNL A   1      35.404  23.822  25.332  1.00  0.00     0.002 C 
ATOM     11  C   UNL A   1      34.992  23.611  23.881  1.00  0.00     0.004 C 
ENDBRANCH   8  10
ENDBRANCH   7   8
BRANCH   7  12
ATOM     12  N   UNL A   1      32.445  21.814  25.777  1.00  0.00    -0.358 N 
ATOM     13  H   UNL A   1      32.240  21.386  26.639  1.00  0.00     0.162 HD
BRANCH  12  14
ATOM     14  C   UNL A   1      32.246  21.052  24.643  1.00  0.00     0.137 A 
ATOM     15  N   UNL A   1      31.905  21.814  23.588  1.00  0.00    -0.219 NA
ATOM     16  C   UNL A   1      32.461  19.669  24.516  1.00  0.00     0.043 A 
ATOM     17  C   UNL A   1      31.907  21.225  22.387  1.00  0.00     0.224 A 
ATOM     18  C   UNL A   1      32.489  19.188  23.198  1.00  0.00     0.076 A 
ATOM     19  C   UNL A   1      32.660  18.756  25.582  1.00  0.00     0.014 A 
ATOM     20  N   UNL A   1      32.222  19.953  22.136  1.00  0.00    -0.236 NA
ATOM     21  C   UNL A   1      32.826  17.858  22.976  1.00  0.00     0.029 A 
ATOM     22  C   UNL A   1      32.985  17.424  25.337  1.00  0.00     0.001 A 
ATOM     23  C   UNL A   1      33.090  16.978  24.028  1.00  0.00     0.002 A 
ENDBRANCH  12  14
ENDBRANCH   7  12
ENDBRANCH   4   7
ENDBRANCH   2   3
ENDBRANCH   1   2
BRANCH   1  24
ATOM     24  C   UNL A   1      33.279  28.817  25.526  1.00  0.00     0.118 C 
BRANCH  24  25
ATOM     25  N   UNL A   1      32.645  30.056  25.965  1.00  0.00    -0.352 N 
ATOM     26  C   UNL A   1      33.091  30.956  26.903  1.00  0.00     0.251 C 
ATOM     27  H   UNL A   1      31.787  30.275  25.534  1.00  0.00     0.163 HD
ATOM     28  O   UNL A   1      32.369  31.868  27.292  1.00  0.00    -0.269 OA
BRANCH  26  29
ATOM     29  C   UNL A   1      34.450  30.787  27.450  1.00  0.00     0.039 A 
ATOM     30  C   UNL A   1      35.264  31.909  27.630  1.00  0.00     0.014 A 
ATOM     31  C   UNL A   1      34.882  29.520  27.847  1.00  0.00     0.014 A 
ATOM     32  C   UNL A   1      36.491  31.766  28.280  1.00  0.00     0.010 A 
ATOM     33  C   UNL A   1      36.057  29.397  28.571  1.00  0.00     0.010 A 
ATOM     34  C   UNL A   1      36.879  30.516  28.785  1.00  0.00    -0.014 A 
BRANCH  34  35
ATOM     35  C   UNL A   1      38.146  30.313  29.528  1.00  0.00     0.031 A 
ATOM     36  C   UNL A   1      39.181  29.381  28.962  1.00  0.00     0.074 A 
ATOM     37  C   UNL A   1      38.296  30.831  30.762  1.00  0.00     0.049 A 
ATOM     38  N   UNL A   1      40.249  28.889  29.528  1.00  0.00    -0.248 NA
ATOM     39  C   UNL A   1      38.950  28.898  27.589  1.00  0.00     0.031 C 
ATOM     40  C   UNL A   1      37.325  31.684  31.448  1.00  0.00     0.029 A 
ATOM     41  N   UNL A   1      39.304  30.669  31.681  1.00  0.00    -0.354 N 
ATOM     42  C   UNL A   1      40.779  27.990  28.610  1.00  0.00     0.074 A 
ATOM     43  C   UNL A   1      39.900  27.986  27.462  1.00  0.00     0.031 C 
ATOM     44  C   UNL A   1      37.775  31.957  32.683  1.00  0.00     0.029 A 
ATOM     45  C   UNL A   1      39.047  31.271  32.890  1.00  0.00     0.049 A 
ATOM     46  H   UNL A   1      40.131  30.171  31.491  1.00  0.00     0.167 HD
ATOM     47  C   UNL A   1      41.911  27.255  28.703  1.00  0.00     0.034 A 
ATOM     48  C   UNL A   1      39.747  31.254  34.041  1.00  0.00     0.034 A 
ATOM     49  C   UNL A   1      42.818  27.326  29.814  1.00  0.00     0.049 A 
ATOM     50  C   UNL A   1      41.050  30.503  34.090  1.00  0.00     0.074 A 
ATOM     51  C   UNL A   1      44.045  26.709  29.966  1.00  0.00     0.029 A 
ATOM     52  N   UNL A   1      42.597  28.069  30.964  1.00  0.00    -0.354 N 
ATOM     53  N   UNL A   1      41.614  29.773  33.159  1.00  0.00    -0.248 NA
ATOM     54  C   UNL A   1      41.834  30.603  35.331  1.00  0.00     0.031 C 
ATOM     55  C   UNL A   1      44.566  27.077  31.210  1.00  0.00     0.029 A 
ATOM     56  C   UNL A   1      43.668  27.932  31.828  1.00  0.00     0.049 A 
ATOM     57  H   UNL A   1      41.796  28.614  31.140  1.00  0.00     0.167 HD
ATOM     58  C   UNL A   1      42.832  29.356  33.682  1.00  0.00     0.074 A 
ATOM     59  C   UNL A   1      42.930  29.925  35.012  1.00  0.00     0.031 C 
ATOM     60  C   UNL A   1      43.778  28.565  33.119  1.00  0.00     0.034 A 
BRANCH  47  61
ATOM     61  C   UNL A   1      42.256  26.363  27.541  1.00  0.00     0.023 A 
ATOM     62  C   UNL A   1      42.961  26.896  26.442  1.00  0.00     0.012 A 
ATOM     63  C   UNL A   1      41.903  25.000  27.538  1.00  0.00     0.148 A 
ATOM     64  C   UNL A   1      43.266  26.100  25.339  1.00  0.00     0.002 A 
ATOM     65  C   UNL A   1      42.252  24.202  26.455  1.00  0.00     0.091 A 
ATOM     66  F   UNL A   1      41.208  24.514  28.577  1.00  0.00    -0.205 F 
ATOM     67  C   UNL A   1      42.921  24.752  25.349  1.00  0.00     0.022 A 
BRANCH  65  68
ATOM     68  S   UNL A   1      41.915  22.437  26.423  1.00  0.00     0.127 S 
ATOM     69  O   UNL A   1      42.499  22.000  27.689  1.00  0.00    -0.237 OA
ATOM     70  O   UNL A   1      40.452  22.397  26.382  1.00  0.00    -0.237 OA
ATOM     71  O   UNL A   1      42.563  21.939  25.218  1.00  0.00    -0.744 OA
ENDBRANCH  65  68
ENDBRANCH  47  61
BRANCH  48  72
ATOM     72  C   UNL A   1      39.257  32.040  35.208  1.00  0.00     0.023 A 
ATOM     73  C   UNL A   1      38.398  31.424  36.138  1.00  0.00     0.012 A 
ATOM     74  C   UNL A   1      39.693  33.359  35.444  1.00  0.00     0.148 A 
ATOM     75  C   UNL A   1      37.966  32.111  37.272  1.00  0.00     0.002 A 
ATOM     76  C   UNL A   1      39.299  34.021  36.601  1.00  0.00     0.091 A 
ATOM     77  F   UNL A   1      40.505  33.930  34.543  1.00  0.00    -0.205 F 
ATOM     78  C   UNL A   1      38.425  33.404  37.511  1.00  0.00     0.022 A 
BRANCH  76  79
ATOM     79  S   UNL A   1      39.945  35.634  37.062  1.00  0.00     0.127 S 
ATOM     80  O   UNL A   1      39.241  35.892  38.315  1.00  0.00    -0.237 OA
ATOM     81  O   UNL A   1      41.375  35.357  37.205  1.00  0.00    -0.237 OA
ATOM     82  O   UNL A   1      39.614  36.522  35.956  1.00  0.00    -0.744 OA
ENDBRANCH  76  79
ENDBRANCH  48  72
BRANCH  60  83
ATOM     83  C   UNL A   1      45.032  28.295  33.904  1.00  0.00     0.023 A 
ATOM     84  C   UNL A   1      46.111  29.197  33.827  1.00  0.00     0.012 A 
ATOM     85  C   UNL A   1      45.089  27.217  34.809  1.00  0.00     0.148 A 
ATOM     86  C   UNL A   1      47.235  29.022  34.632  1.00  0.00     0.002 A 
ATOM     87  C   UNL A   1      46.194  27.074  35.638  1.00  0.00     0.091 A 
ATOM     88  F   UNL A   1      44.057  26.362  34.850  1.00  0.00    -0.205 F 
ATOM     89  C   UNL A   1      47.270  27.971  35.547  1.00  0.00     0.022 A 
BRANCH  87  90
ATOM     90  S   UNL A   1      46.283  25.809  36.912  1.00  0.00     0.127 S 
ATOM     91  O   UNL A   1      45.980  24.599  36.149  1.00  0.00    -0.237 OA
ATOM     92  O   UNL A   1      47.672  25.916  37.360  1.00  0.00    -0.237 OA
ATOM     93  O   UNL A   1      45.294  26.178  37.915  1.00  0.00    -0.744 OA
ENDBRANCH  87  90
ENDBRANCH  60  83
ENDBRANCH  34  35
ENDBRANCH  26  29
ENDBRANCH  24  25
ENDBRANCH   1  24
TORSDOF 17
ENDMDL
