MODEL 1
REMARK VINA RESULT:     -10.7      0.000      0.000
REMARK SMILES CC[C@](C)(Nc1ncnc(OC)c1[N+](=O)[O-])C(=O)NCCCNC(=O)c1ccc(-c2c3nc(c(-c4cccc(S(=O)(=O)[O-])c4F)c4ccc([nH]4)c(-c4cccc(S(=O)(=O)[O-])c4F)c4nc(c(-c5cccc(S(=O)(=O)[O-])c5F)c5ccc2[nH]5)C=C4)C=C3)cc1
REMARK SMILES IDX 21 1 20 2 19 3 17 4 18 5 3 7 4 8 2 9 1 10 5 11 6 13 7 14
REMARK SMILES IDX 13 15 8 16 10 17 9 18 14 19 15 20 16 21 11 22 12 23 22 24
REMARK SMILES IDX 23 25 24 26 25 28 26 29 27 30 88 31 28 32 87 33 29 34 30 35
REMARK SMILES IDX 31 36 81 37 32 38 86 39 80 40 82 41 33 42 85 43 79 44 78 45
REMARK SMILES IDX 34 47 66 48 46 49 65 50 47 51 50 52 64 53 83 54 48 55 49 56
REMARK SMILES IDX 63 58 84 59 51 60 35 61 36 62 44 63 37 64 39 65 45 66 38 67
REMARK SMILES IDX 40 68 41 69 42 70 43 71 67 72 68 73 76 74 69 75 71 76 77 77
REMARK SMILES IDX 70 78 72 79 73 80 74 81 75 82 52 83 53 84 61 85 54 86 56 87
REMARK SMILES IDX 62 88 55 89 57 90 58 91 59 92 60 93
REMARK H PARENT 19 6 5 12 23 27 82 46 50 57
REMARK Flexibility Score: inf
ROOT
ATOM      1  C   UNL A   1      37.646  19.637  24.740  1.00  0.00     0.042 C 
ENDROOT
BRANCH   1   2
ATOM      2  C   UNL A   1      36.186  20.092  24.840  1.00  0.00     0.117 C 
BRANCH   2   3
ATOM      3  N   UNL A   1      35.769  20.876  25.991  1.00  0.00    -0.354 N 
ATOM      4  C   UNL A   1      35.170  22.097  26.140  1.00  0.00     0.245 C 
ATOM      5  O   UNL A   1      34.507  22.256  27.173  1.00  0.00    -0.272 OA
ATOM      6  H   UNL A   1      35.959  20.433  26.850  1.00  0.00     0.163 HD
BRANCH   4   7
ATOM      7  C   UNL A   1      35.318  23.260  25.123  1.00  0.00     0.115 C 
ATOM      8  C   UNL A   1      34.708  22.903  23.748  1.00  0.00     0.045 C 
BRANCH   7   9
ATOM      9  C   UNL A   1      36.826  23.562  24.894  1.00  0.00     0.035 C 
ATOM     10  C   UNL A   1      37.615  23.883  26.165  1.00  0.00     0.007 C 
ENDBRANCH   7   9
BRANCH   7  11
ATOM     11  N   UNL A   1      34.653  24.489  25.581  1.00  0.00    -0.350 N 
ATOM     12  H   UNL A   1      35.101  24.868  26.372  1.00  0.00     0.163 HD
BRANCH  11  13
ATOM     13  C   UNL A   1      33.584  25.241  25.205  1.00  0.00     0.213 A 
ATOM     14  N   UNL A   1      34.032  26.265  24.445  1.00  0.00    -0.212 NA
ATOM     15  C   UNL A   1      32.233  25.171  25.494  1.00  0.00     0.372 A 
ATOM     16  C   UNL A   1      33.157  27.191  24.019  1.00  0.00     0.228 A 
ATOM     17  C   UNL A   1      31.406  26.202  25.074  1.00  0.00     0.299 A 
ATOM     18  N   UNL A   1      31.860  27.221  24.327  1.00  0.00    -0.196 NA
BRANCH  15  19
ATOM     19  N   UNL A   1      31.612  24.054  26.116  1.00  0.00     0.072 N 
ATOM     20  O   UNL A   1      31.391  24.134  27.329  1.00  0.00    -0.258 OA
ATOM     21  O   UNL A   1      31.411  23.053  25.412  1.00  0.00    -0.258 OA
ENDBRANCH  15  19
BRANCH  17  22
ATOM     22  O   UNL A   1      30.047  26.238  25.233  1.00  0.00    -0.476 OA
ATOM     23  C   UNL A   1      29.290  26.566  24.071  1.00  0.00     0.280 C 
ENDBRANCH  17  22
ENDBRANCH  11  13
ENDBRANCH   7  11
ENDBRANCH   4   7
ENDBRANCH   2   3
ENDBRANCH   1   2
BRANCH   1  24
ATOM     24  C   UNL A   1      38.658  20.173  25.762  1.00  0.00     0.118 C 
BRANCH  24  25
ATOM     25  N   UNL A   1      39.795  19.305  26.009  1.00  0.00    -0.352 N 
ATOM     26  C   UNL A   1      41.074  19.613  26.411  1.00  0.00     0.251 C 
ATOM     27  H   UNL A   1      39.624  18.346  25.865  1.00  0.00     0.163 HD
ATOM     28  O   UNL A   1      41.896  18.706  26.523  1.00  0.00    -0.269 OA
BRANCH  26  29
ATOM     29  C   UNL A   1      41.497  21.005  26.703  1.00  0.00     0.039 A 
ATOM     30  C   UNL A   1      41.620  21.906  25.640  1.00  0.00     0.014 A 
ATOM     31  C   UNL A   1      41.887  21.405  27.982  1.00  0.00     0.014 A 
ATOM     32  C   UNL A   1      42.085  23.209  25.868  1.00  0.00     0.010 A 
ATOM     33  C   UNL A   1      42.330  22.715  28.217  1.00  0.00     0.010 A 
ATOM     34  C   UNL A   1      42.430  23.636  27.162  1.00  0.00    -0.014 A 
BRANCH  34  35
ATOM     35  C   UNL A   1      42.810  25.055  27.419  1.00  0.00     0.031 A 
ATOM     36  C   UNL A   1      41.849  26.042  28.032  1.00  0.00     0.074 A 
ATOM     37  C   UNL A   1      44.032  25.479  27.035  1.00  0.00     0.049 A 
ATOM     38  N   UNL A   1      42.046  27.300  28.343  1.00  0.00    -0.248 NA
ATOM     39  C   UNL A   1      40.489  25.563  28.320  1.00  0.00     0.031 C 
ATOM     40  C   UNL A   1      45.030  24.652  26.356  1.00  0.00     0.029 A 
ATOM     41  N   UNL A   1      44.634  26.710  27.138  1.00  0.00    -0.354 N 
ATOM     42  C   UNL A   1      40.838  27.771  28.844  1.00  0.00     0.074 A 
ATOM     43  C   UNL A   1      39.903  26.665  28.773  1.00  0.00     0.031 C 
ATOM     44  C   UNL A   1      46.117  25.396  26.101  1.00  0.00     0.029 A 
ATOM     45  C   UNL A   1      45.890  26.757  26.579  1.00  0.00     0.049 A 
ATOM     46  H   UNL A   1      44.207  27.484  27.570  1.00  0.00     0.167 HD
ATOM     47  C   UNL A   1      40.537  28.999  29.337  1.00  0.00     0.034 A 
ATOM     48  C   UNL A   1      46.764  27.775  26.460  1.00  0.00     0.034 A 
ATOM     49  C   UNL A   1      41.472  30.093  29.424  1.00  0.00     0.049 A 
ATOM     50  C   UNL A   1      46.420  29.118  27.047  1.00  0.00     0.074 A 
ATOM     51  C   UNL A   1      41.283  31.344  29.990  1.00  0.00     0.029 A 
ATOM     52  N   UNL A   1      42.763  30.079  28.919  1.00  0.00    -0.354 N 
ATOM     53  N   UNL A   1      45.335  29.486  27.683  1.00  0.00    -0.248 NA
ATOM     54  C   UNL A   1      47.438  30.173  26.938  1.00  0.00     0.031 C 
ATOM     55  C   UNL A   1      42.449  32.094  29.801  1.00  0.00     0.029 A 
ATOM     56  C   UNL A   1      43.376  31.301  29.145  1.00  0.00     0.049 A 
ATOM     57  H   UNL A   1      43.182  29.313  28.465  1.00  0.00     0.167 HD
ATOM     58  C   UNL A   1      45.553  30.800  28.080  1.00  0.00     0.074 A 
ATOM     59  C   UNL A   1      46.883  31.157  27.633  1.00  0.00     0.031 C 
ATOM     60  C   UNL A   1      44.718  31.639  28.744  1.00  0.00     0.034 A 
BRANCH  47  61
ATOM     61  C   UNL A   1      39.144  29.224  29.877  1.00  0.00     0.023 A 
ATOM     62  C   UNL A   1      38.805  28.714  31.147  1.00  0.00     0.012 A 
ATOM     63  C   UNL A   1      38.203  30.006  29.178  1.00  0.00     0.148 A 
ATOM     64  C   UNL A   1      37.544  28.948  31.696  1.00  0.00     0.002 A 
ATOM     65  C   UNL A   1      36.963  30.271  29.749  1.00  0.00     0.091 A 
ATOM     66  F   UNL A   1      38.537  30.477  27.967  1.00  0.00    -0.205 F 
ATOM     67  C   UNL A   1      36.628  29.733  31.003  1.00  0.00     0.022 A 
BRANCH  65  68
ATOM     68  S   UNL A   1      35.740  31.338  28.975  1.00  0.00     0.127 S 
ATOM     69  O   UNL A   1      36.580  32.407  28.437  1.00  0.00    -0.237 OA
ATOM     70  O   UNL A   1      35.156  30.455  27.965  1.00  0.00    -0.237 OA
ATOM     71  O   UNL A   1      34.825  31.734  30.037  1.00  0.00    -0.744 OA
ENDBRANCH  65  68
ENDBRANCH  47  61
BRANCH  48  72
ATOM     72  C   UNL A   1      48.087  27.542  25.813  1.00  0.00     0.023 A 
ATOM     73  C   UNL A   1      49.174  27.105  26.595  1.00  0.00     0.012 A 
ATOM     74  C   UNL A   1      48.265  27.715  24.427  1.00  0.00     0.148 A 
ATOM     75  C   UNL A   1      50.421  26.875  26.014  1.00  0.00     0.002 A 
ATOM     76  C   UNL A   1      49.493  27.428  23.845  1.00  0.00     0.091 A 
ATOM     77  F   UNL A   1      47.221  28.142  23.701  1.00  0.00    -0.205 F 
ATOM     78  C   UNL A   1      50.577  27.025  24.639  1.00  0.00     0.022 A 
BRANCH  76  79
ATOM     79  S   UNL A   1      49.746  27.457  22.067  1.00  0.00     0.127 S 
ATOM     80  O   UNL A   1      50.950  26.644  21.922  1.00  0.00    -0.237 OA
ATOM     81  O   UNL A   1      48.517  26.833  21.576  1.00  0.00    -0.237 OA
ATOM     82  O   UNL A   1      49.883  28.864  21.712  1.00  0.00    -0.744 OA
ENDBRANCH  76  79
ENDBRANCH  48  72
BRANCH  60  83
ATOM     83  C   UNL A   1      45.224  33.023  29.062  1.00  0.00     0.023 A 
ATOM     84  C   UNL A   1      45.853  33.275  30.298  1.00  0.00     0.012 A 
ATOM     85  C   UNL A   1      45.135  34.059  28.110  1.00  0.00     0.148 A 
ATOM     86  C   UNL A   1      46.352  34.544  30.596  1.00  0.00     0.002 A 
ATOM     87  C   UNL A   1      45.678  35.307  28.394  1.00  0.00     0.091 A 
ATOM     88  F   UNL A   1      44.516  33.808  26.948  1.00  0.00    -0.205 F 
ATOM     89  C   UNL A   1      46.276  35.555  29.640  1.00  0.00     0.022 A 
BRANCH  87  90
ATOM     90  S   UNL A   1      45.709  36.642  27.192  1.00  0.00     0.127 S 
ATOM     91  O   UNL A   1      46.402  37.694  27.932  1.00  0.00    -0.237 OA
ATOM     92  O   UNL A   1      46.483  36.056  26.097  1.00  0.00    -0.237 OA
ATOM     93  O   UNL A   1      44.317  36.920  26.866  1.00  0.00    -0.744 OA
ENDBRANCH  87  90
ENDBRANCH  60  83
ENDBRANCH  34  35
ENDBRANCH  26  29
ENDBRANCH  24  25
ENDBRANCH   1  24
TORSDOF 18
ENDMDL
MODEL 2
REMARK VINA RESULT:     -10.6      6.246     11.451
REMARK SMILES CC[C@](C)(Nc1ncnc(OC)c1[N+](=O)[O-])C(=O)NCCCNC(=O)c1ccc(-c2c3nc(c(-c4cccc(S(=O)(=O)[O-])c4F)c4ccc([nH]4)c(-c4cccc(S(=O)(=O)[O-])c4F)c4nc(c(-c5cccc(S(=O)(=O)[O-])c5F)c5ccc2[nH]5)C=C4)C=C3)cc1
REMARK SMILES IDX 21 1 20 2 19 3 17 4 18 5 3 7 4 8 2 9 1 10 5 11 6 13 7 14
REMARK SMILES IDX 13 15 8 16 10 17 9 18 14 19 15 20 16 21 11 22 12 23 22 24
REMARK SMILES IDX 23 25 24 26 25 28 26 29 27 30 88 31 28 32 87 33 29 34 30 35
REMARK SMILES IDX 31 36 81 37 32 38 86 39 80 40 82 41 33 42 85 43 79 44 78 45
REMARK SMILES IDX 34 47 66 48 46 49 65 50 47 51 50 52 64 53 83 54 48 55 49 56
REMARK SMILES IDX 63 58 84 59 51 60 35 61 36 62 44 63 37 64 39 65 45 66 38 67
REMARK SMILES IDX 40 68 41 69 42 70 43 71 67 72 68 73 76 74 69 75 71 76 77 77
REMARK SMILES IDX 70 78 72 79 73 80 74 81 75 82 52 83 53 84 61 85 54 86 56 87
REMARK SMILES IDX 62 88 55 89 57 90 58 91 59 92 60 93
REMARK H PARENT 19 6 5 12 23 27 82 46 50 57
REMARK Flexibility Score: inf
ROOT
ATOM      1  C   UNL A   1      31.338  32.059  26.580  1.00  0.00     0.042 C 
ENDROOT
BRANCH   1   2
ATOM      2  C   UNL A   1      31.446  30.759  25.777  1.00  0.00     0.117 C 
BRANCH   2   3
ATOM      3  N   UNL A   1      32.444  29.773  26.161  1.00  0.00    -0.354 N 
ATOM      4  C   UNL A   1      33.223  28.891  25.463  1.00  0.00     0.245 C 
ATOM      5  O   UNL A   1      34.291  28.568  25.998  1.00  0.00    -0.272 OA
ATOM      6  H   UNL A   1      32.590  29.732  27.134  1.00  0.00     0.163 HD
BRANCH   4   7
ATOM      7  C   UNL A   1      32.815  28.273  24.100  1.00  0.00     0.115 C 
ATOM      8  C   UNL A   1      33.657  28.841  22.935  1.00  0.00     0.045 C 
BRANCH   7   9
ATOM      9  C   UNL A   1      31.327  28.610  23.800  1.00  0.00     0.035 C 
ATOM     10  C   UNL A   1      31.058  29.119  22.382  1.00  0.00     0.007 C 
ENDBRANCH   7   9
BRANCH   7  11
ATOM     11  N   UNL A   1      32.984  26.812  24.078  1.00  0.00    -0.350 N 
ATOM     12  H   UNL A   1      33.249  26.492  23.185  1.00  0.00     0.163 HD
BRANCH  11  13
ATOM     13  C   UNL A   1      32.872  25.785  24.963  1.00  0.00     0.213 A 
ATOM     14  N   UNL A   1      33.992  25.031  24.883  1.00  0.00    -0.212 NA
ATOM     15  C   UNL A   1      31.862  25.384  25.819  1.00  0.00     0.372 A 
ATOM     16  C   UNL A   1      34.074  23.908  25.615  1.00  0.00     0.228 A 
ATOM     17  C   UNL A   1      31.996  24.177  26.490  1.00  0.00     0.299 A 
ATOM     18  N   UNL A   1      33.108  23.430  26.398  1.00  0.00    -0.196 NA
BRANCH  15  19
ATOM     19  N   UNL A   1      30.728  26.179  26.136  1.00  0.00     0.072 N 
ATOM     20  O   UNL A   1      29.710  26.007  25.455  1.00  0.00    -0.258 OA
ATOM     21  O   UNL A   1      30.868  27.041  27.016  1.00  0.00    -0.258 OA
ENDBRANCH  15  19
BRANCH  17  22
ATOM     22  O   UNL A   1      31.112  23.684  27.411  1.00  0.00    -0.476 OA
ATOM     23  C   UNL A   1      30.097  22.822  26.903  1.00  0.00     0.280 C 
ENDBRANCH  17  22
ENDBRANCH  11  13
ENDBRANCH   7  11
ENDBRANCH   4   7
ENDBRANCH   2   3
ENDBRANCH   1   2
BRANCH   1  24
ATOM     24  C   UNL A   1      32.620  32.688  27.143  1.00  0.00     0.118 C 
BRANCH  24  25
ATOM     25  N   UNL A   1      32.464  34.038  27.654  1.00  0.00    -0.352 N 
ATOM     26  C   UNL A   1      33.185  34.710  28.615  1.00  0.00     0.251 C 
ATOM     27  H   UNL A   1      31.728  34.553  27.251  1.00  0.00     0.163 HD
ATOM     28  O   UNL A   1      32.847  35.852  28.919  1.00  0.00    -0.269 OA
BRANCH  26  29
ATOM     29  C   UNL A   1      34.347  34.097  29.304  1.00  0.00     0.039 A 
ATOM     30  C   UNL A   1      34.111  33.222  30.369  1.00  0.00     0.014 A 
ATOM     31  C   UNL A   1      35.661  34.458  28.998  1.00  0.00     0.014 A 
ATOM     32  C   UNL A   1      35.185  32.680  31.090  1.00  0.00     0.010 A 
ATOM     33  C   UNL A   1      36.737  33.897  29.701  1.00  0.00     0.010 A 
ATOM     34  C   UNL A   1      36.513  32.997  30.754  1.00  0.00    -0.014 A 
BRANCH  34  35
ATOM     35  C   UNL A   1      37.652  32.327  31.444  1.00  0.00     0.031 A 
ATOM     36  C   UNL A   1      38.402  31.178  30.818  1.00  0.00     0.074 A 
ATOM     37  C   UNL A   1      37.981  32.725  32.690  1.00  0.00     0.049 A 
ATOM     38  N   UNL A   1      39.433  30.515  31.284  1.00  0.00    -0.248 NA
ATOM     39  C   UNL A   1      37.926  30.700  29.512  1.00  0.00     0.031 C 
ATOM     40  C   UNL A   1      37.288  33.769  33.446  1.00  0.00     0.029 A 
ATOM     41  N   UNL A   1      38.962  32.290  33.548  1.00  0.00    -0.354 N 
ATOM     42  C   UNL A   1      39.720  29.533  30.343  1.00  0.00     0.074 A 
ATOM     43  C   UNL A   1      38.737  29.671  29.288  1.00  0.00     0.031 C 
ATOM     44  C   UNL A   1      37.860  33.891  34.654  1.00  0.00     0.029 A 
ATOM     45  C   UNL A   1      38.949  32.924  34.768  1.00  0.00     0.049 A 
ATOM     46  H   UNL A   1      39.612  31.589  33.312  1.00  0.00     0.167 HD
ATOM     47  C   UNL A   1      40.720  28.615  30.344  1.00  0.00     0.034 A 
ATOM     48  C   UNL A   1      39.721  32.754  35.859  1.00  0.00     0.034 A 
ATOM     49  C   UNL A   1      41.709  28.489  31.385  1.00  0.00     0.049 A 
ATOM     50  C   UNL A   1      40.845  31.754  35.820  1.00  0.00     0.074 A 
ATOM     51  C   UNL A   1      42.811  27.649  31.429  1.00  0.00     0.029 A 
ATOM     52  N   UNL A   1      41.711  29.205  32.572  1.00  0.00    -0.354 N 
ATOM     53  N   UNL A   1      41.211  30.962  34.843  1.00  0.00    -0.248 NA
ATOM     54  C   UNL A   1      41.689  31.654  37.021  1.00  0.00     0.031 C 
ATOM     55  C   UNL A   1      43.461  27.838  32.653  1.00  0.00     0.029 A 
ATOM     56  C   UNL A   1      42.783  28.817  33.360  1.00  0.00     0.049 A 
ATOM     57  H   UNL A   1      41.048  29.888  32.819  1.00  0.00     0.167 HD
ATOM     58  C   UNL A   1      42.346  30.298  35.294  1.00  0.00     0.074 A 
ATOM     59  C   UNL A   1      42.621  30.797  36.625  1.00  0.00     0.031 C 
ATOM     60  C   UNL A   1      43.085  29.350  34.665  1.00  0.00     0.034 A 
BRANCH  47  61
ATOM     61  C   UNL A   1      40.837  27.694  29.152  1.00  0.00     0.023 A 
ATOM     62  C   UNL A   1      40.019  26.548  29.081  1.00  0.00     0.012 A 
ATOM     63  C   UNL A   1      41.684  28.001  28.068  1.00  0.00     0.148 A 
ATOM     64  C   UNL A   1      40.067  25.705  27.971  1.00  0.00     0.002 A 
ATOM     65  C   UNL A   1      41.696  27.180  26.946  1.00  0.00     0.091 A 
ATOM     66  F   UNL A   1      42.463  29.090  28.153  1.00  0.00    -0.205 F 
ATOM     67  C   UNL A   1      40.897  26.025  26.901  1.00  0.00     0.022 A 
BRANCH  65  68
ATOM     68  S   UNL A   1      42.670  27.546  25.479  1.00  0.00     0.127 S 
ATOM     69  O   UNL A   1      42.404  26.373  24.649  1.00  0.00    -0.237 OA
ATOM     70  O   UNL A   1      42.054  28.784  25.001  1.00  0.00    -0.237 OA
ATOM     71  O   UNL A   1      44.045  27.690  25.938  1.00  0.00    -0.744 OA
ENDBRANCH  65  68
ENDBRANCH  47  61
BRANCH  48  72
ATOM     72  C   UNL A   1      39.497  33.604  37.064  1.00  0.00     0.023 A 
ATOM     73  C   UNL A   1      39.954  34.936  37.065  1.00  0.00     0.012 A 
ATOM     74  C   UNL A   1      38.805  33.114  38.188  1.00  0.00     0.148 A 
ATOM     75  C   UNL A   1      39.754  35.755  38.177  1.00  0.00     0.002 A 
ATOM     76  C   UNL A   1      38.557  33.952  39.268  1.00  0.00     0.091 A 
ATOM     77  F   UNL A   1      38.388  31.840  38.171  1.00  0.00    -0.205 F 
ATOM     78  C   UNL A   1      39.046  35.267  39.272  1.00  0.00     0.022 A 
BRANCH  76  79
ATOM     79  S   UNL A   1      37.535  33.453  40.658  1.00  0.00     0.127 S 
ATOM     80  O   UNL A   1      38.341  32.394  41.259  1.00  0.00    -0.237 OA
ATOM     81  O   UNL A   1      37.459  34.689  41.437  1.00  0.00    -0.237 OA
ATOM     82  O   UNL A   1      36.264  33.032  40.081  1.00  0.00    -0.744 OA
ENDBRANCH  76  79
ENDBRANCH  48  72
BRANCH  60  83
ATOM     83  C   UNL A   1      44.288  28.804  35.391  1.00  0.00     0.023 A 
ATOM     84  C   UNL A   1      45.561  29.367  35.165  1.00  0.00     0.012 A 
ATOM     85  C   UNL A   1      44.149  27.777  36.346  1.00  0.00     0.148 A 
ATOM     86  C   UNL A   1      46.680  28.892  35.850  1.00  0.00     0.002 A 
ATOM     87  C   UNL A   1      45.260  27.342  37.060  1.00  0.00     0.091 A 
ATOM     88  F   UNL A   1      42.935  27.238  36.533  1.00  0.00    -0.205 F 
ATOM     89  C   UNL A   1      46.527  27.890  36.805  1.00  0.00     0.022 A 
BRANCH  87  90
ATOM     90  S   UNL A   1      45.144  26.121  38.374  1.00  0.00     0.127 S 
ATOM     91  O   UNL A   1      44.210  26.764  39.296  1.00  0.00    -0.237 OA
ATOM     92  O   UNL A   1      44.604  24.958  37.670  1.00  0.00    -0.237 OA
ATOM     93  O   UNL A   1      46.500  25.946  38.878  1.00  0.00    -0.744 OA
ENDBRANCH  87  90
ENDBRANCH  60  83
ENDBRANCH  34  35
ENDBRANCH  26  29
ENDBRANCH  24  25
ENDBRANCH   1  24
TORSDOF 18
ENDMDL
MODEL 3
REMARK VINA RESULT:     -10.3      5.192      8.660
REMARK SMILES CC[C@](C)(Nc1ncnc(OC)c1[N+](=O)[O-])C(=O)NCCCNC(=O)c1ccc(-c2c3nc(c(-c4cccc(S(=O)(=O)[O-])c4F)c4ccc([nH]4)c(-c4cccc(S(=O)(=O)[O-])c4F)c4nc(c(-c5cccc(S(=O)(=O)[O-])c5F)c5ccc2[nH]5)C=C4)C=C3)cc1
REMARK SMILES IDX 21 1 20 2 19 3 17 4 18 5 3 7 4 8 2 9 1 10 5 11 6 13 7 14
REMARK SMILES IDX 13 15 8 16 10 17 9 18 14 19 15 20 16 21 11 22 12 23 22 24
REMARK SMILES IDX 23 25 24 26 25 28 26 29 27 30 88 31 28 32 87 33 29 34 30 35
REMARK SMILES IDX 31 36 81 37 32 38 86 39 80 40 82 41 33 42 85 43 79 44 78 45
REMARK SMILES IDX 34 47 66 48 46 49 65 50 47 51 50 52 64 53 83 54 48 55 49 56
REMARK SMILES IDX 63 58 84 59 51 60 35 61 36 62 44 63 37 64 39 65 45 66 38 67
REMARK SMILES IDX 40 68 41 69 42 70 43 71 67 72 68 73 76 74 69 75 71 76 77 77
REMARK SMILES IDX 70 78 72 79 73 80 74 81 75 82 52 83 53 84 61 85 54 86 56 87
REMARK SMILES IDX 62 88 55 89 57 90 58 91 59 92 60 93
REMARK H PARENT 19 6 5 12 23 27 82 46 50 57
REMARK Flexibility Score: inf
ROOT
ATOM      1  C   UNL A   1      32.499  28.212  27.477  1.00  0.00     0.042 C 
ENDROOT
BRANCH   1   2
ATOM      2  C   UNL A   1      31.384  27.619  26.610  1.00  0.00     0.117 C 
BRANCH   2   3
ATOM      3  N   UNL A   1      30.948  26.254  26.857  1.00  0.00    -0.354 N 
ATOM      4  C   UNL A   1      31.408  25.027  26.464  1.00  0.00     0.245 C 
ATOM      5  O   UNL A   1      31.149  24.082  27.220  1.00  0.00    -0.272 OA
ATOM      6  H   UNL A   1      30.150  26.202  27.431  1.00  0.00     0.163 HD
BRANCH   4   7
ATOM      7  C   UNL A   1      32.176  24.778  25.139  1.00  0.00     0.115 C 
ATOM      8  C   UNL A   1      32.517  23.283  24.944  1.00  0.00     0.045 C 
BRANCH   7   9
ATOM      9  C   UNL A   1      33.521  25.558  25.163  1.00  0.00     0.035 C 
ATOM     10  C   UNL A   1      34.723  24.779  24.623  1.00  0.00     0.007 C 
ENDBRANCH   7   9
BRANCH   7  11
ATOM     11  N   UNL A   1      31.404  25.199  23.961  1.00  0.00    -0.350 N 
ATOM     12  H   UNL A   1      31.368  24.489  23.280  1.00  0.00     0.163 HD
BRANCH  11  13
ATOM     13  C   UNL A   1      30.726  26.309  23.561  1.00  0.00     0.213 A 
ATOM     14  N   UNL A   1      29.445  26.197  23.978  1.00  0.00    -0.212 NA
ATOM     15  C   UNL A   1      31.086  27.413  22.810  1.00  0.00     0.372 A 
ATOM     16  C   UNL A   1      28.562  27.147  23.628  1.00  0.00     0.228 A 
ATOM     17  C   UNL A   1      30.101  28.315  22.435  1.00  0.00     0.299 A 
ATOM     18  N   UNL A   1      28.829  28.192  22.846  1.00  0.00    -0.196 NA
BRANCH  15  19
ATOM     19  N   UNL A   1      32.427  27.743  22.475  1.00  0.00     0.072 N 
ATOM     20  O   UNL A   1      33.094  26.876  21.898  1.00  0.00    -0.258 OA
ATOM     21  O   UNL A   1      32.854  28.842  22.858  1.00  0.00    -0.258 OA
ENDBRANCH  15  19
BRANCH  17  22
ATOM     22  O   UNL A   1      30.317  29.479  21.749  1.00  0.00    -0.476 OA
ATOM     23  C   UNL A   1      29.235  30.406  21.735  1.00  0.00     0.280 C 
ENDBRANCH  17  22
ENDBRANCH  11  13
ENDBRANCH   7  11
ENDBRANCH   4   7
ENDBRANCH   2   3
ENDBRANCH   1   2
BRANCH   1  24
ATOM     24  C   UNL A   1      33.602  29.037  26.800  1.00  0.00     0.118 C 
BRANCH  24  25
ATOM     25  N   UNL A   1      33.549  30.463  27.066  1.00  0.00    -0.352 N 
ATOM     26  C   UNL A   1      34.447  31.277  27.717  1.00  0.00     0.251 C 
ATOM     27  H   UNL A   1      32.745  30.919  26.727  1.00  0.00     0.163 HD
ATOM     28  O   UNL A   1      34.175  32.467  27.860  1.00  0.00    -0.269 OA
BRANCH  26  29
ATOM     29  C   UNL A   1      35.728  30.762  28.264  1.00  0.00     0.039 A 
ATOM     30  C   UNL A   1      35.686  29.775  29.253  1.00  0.00     0.014 A 
ATOM     31  C   UNL A   1      36.958  31.316  27.907  1.00  0.00     0.014 A 
ATOM     32  C   UNL A   1      36.872  29.316  29.844  1.00  0.00     0.010 A 
ATOM     33  C   UNL A   1      38.148  30.842  28.479  1.00  0.00     0.010 A 
ATOM     34  C   UNL A   1      38.120  29.831  29.452  1.00  0.00    -0.014 A 
BRANCH  34  35
ATOM     35  C   UNL A   1      39.385  29.258  29.995  1.00  0.00     0.031 A 
ATOM     36  C   UNL A   1      40.055  29.818  31.224  1.00  0.00     0.074 A 
ATOM     37  C   UNL A   1      39.975  28.244  29.329  1.00  0.00     0.049 A 
ATOM     38  N   UNL A   1      41.141  29.405  31.831  1.00  0.00    -0.248 NA
ATOM     39  C   UNL A   1      39.438  31.000  31.843  1.00  0.00     0.031 C 
ATOM     40  C   UNL A   1      39.480  27.660  28.082  1.00  0.00     0.029 A 
ATOM     41  N   UNL A   1      41.127  27.541  29.590  1.00  0.00    -0.354 N 
ATOM     42  C   UNL A   1      41.351  30.283  32.889  1.00  0.00     0.074 A 
ATOM     43  C   UNL A   1      40.290  31.267  32.826  1.00  0.00     0.031 C 
ATOM     44  C   UNL A   1      40.320  26.692  27.685  1.00  0.00     0.029 A 
ATOM     45  C   UNL A   1      41.425  26.597  28.636  1.00  0.00     0.049 A 
ATOM     46  H   UNL A   1      41.686  27.700  30.385  1.00  0.00     0.167 HD
ATOM     47  C   UNL A   1      42.322  30.261  33.837  1.00  0.00     0.034 A 
ATOM     48  C   UNL A   1      42.466  25.748  28.530  1.00  0.00     0.034 A 
ATOM     49  C   UNL A   1      43.367  29.271  33.910  1.00  0.00     0.049 A 
ATOM     50  C   UNL A   1      43.510  25.721  29.614  1.00  0.00     0.074 A 
ATOM     51  C   UNL A   1      44.341  29.116  34.885  1.00  0.00     0.029 A 
ATOM     52  N   UNL A   1      43.592  28.279  32.968  1.00  0.00    -0.354 N 
ATOM     53  N   UNL A   1      43.585  26.441  30.706  1.00  0.00    -0.248 NA
ATOM     54  C   UNL A   1      44.591  24.732  29.473  1.00  0.00     0.031 C 
ATOM     55  C   UNL A   1      45.169  28.051  34.516  1.00  0.00     0.029 A 
ATOM     56  C   UNL A   1      44.694  27.520  33.328  1.00  0.00     0.049 A 
ATOM     57  H   UNL A   1      43.048  28.136  32.161  1.00  0.00     0.167 HD
ATOM     58  C   UNL A   1      44.696  25.972  31.397  1.00  0.00     0.074 A 
ATOM     59  C   UNL A   1      45.250  24.889  30.613  1.00  0.00     0.031 C 
ATOM     60  C   UNL A   1      45.216  26.410  32.572  1.00  0.00     0.034 A 
BRANCH  47  61
ATOM     61  C   UNL A   1      42.279  31.315  34.920  1.00  0.00     0.023 A 
ATOM     62  C   UNL A   1      41.629  31.028  36.137  1.00  0.00     0.012 A 
ATOM     63  C   UNL A   1      42.950  32.545  34.773  1.00  0.00     0.148 A 
ATOM     64  C   UNL A   1      41.615  31.959  37.175  1.00  0.00     0.002 A 
ATOM     65  C   UNL A   1      42.969  33.453  35.827  1.00  0.00     0.091 A 
ATOM     66  F   UNL A   1      43.557  32.808  33.606  1.00  0.00    -0.205 F 
ATOM     67  C   UNL A   1      42.292  33.166  37.024  1.00  0.00     0.022 A 
BRANCH  65  68
ATOM     68  S   UNL A   1      43.879  35.002  35.764  1.00  0.00     0.127 S 
ATOM     69  O   UNL A   1      43.256  35.663  34.619  1.00  0.00    -0.237 OA
ATOM     70  O   UNL A   1      43.560  35.599  37.061  1.00  0.00    -0.237 OA
ATOM     71  O   UNL A   1      45.279  34.637  35.592  1.00  0.00    -0.744 OA
ENDBRANCH  65  68
ENDBRANCH  47  61
BRANCH  48  72
ATOM     72  C   UNL A   1      42.534  24.801  27.381  1.00  0.00     0.023 A 
ATOM     73  C   UNL A   1      43.184  25.197  26.195  1.00  0.00     0.012 A 
ATOM     74  C   UNL A   1      41.994  23.504  27.467  1.00  0.00     0.148 A 
ATOM     75  C   UNL A   1      43.266  24.329  25.106  1.00  0.00     0.002 A 
ATOM     76  C   UNL A   1      42.130  22.624  26.401  1.00  0.00     0.091 A 
ATOM     77  F   UNL A   1      41.370  23.151  28.600  1.00  0.00    -0.205 F 
ATOM     78  C   UNL A   1      42.750  23.041  25.213  1.00  0.00     0.022 A 
BRANCH  76  79
ATOM     79  S   UNL A   1      41.622  20.905  26.501  1.00  0.00     0.127 S 
ATOM     80  O   UNL A   1      42.317  20.319  25.358  1.00  0.00    -0.237 OA
ATOM     81  O   UNL A   1      42.144  20.510  27.810  1.00  0.00    -0.237 OA
ATOM     82  O   UNL A   1      40.167  20.919  26.419  1.00  0.00    -0.744 OA
ENDBRANCH  76  79
ENDBRANCH  48  72
BRANCH  60  83
ATOM     83  C   UNL A   1      46.434  25.700  33.106  1.00  0.00     0.023 A 
ATOM     84  C   UNL A   1      47.721  26.198  32.820  1.00  0.00     0.012 A 
ATOM     85  C   UNL A   1      46.301  24.576  33.946  1.00  0.00     0.148 A 
ATOM     86  C   UNL A   1      48.856  25.568  33.331  1.00  0.00     0.002 A 
ATOM     87  C   UNL A   1      47.434  23.983  34.491  1.00  0.00     0.091 A 
ATOM     88  F   UNL A   1      45.071  24.102  34.191  1.00  0.00    -0.205 F 
ATOM     89  C   UNL A   1      48.712  24.470  34.175  1.00  0.00     0.022 A 
BRANCH  87  90
ATOM     90  S   UNL A   1      47.343  22.622  35.661  1.00  0.00     0.127 S 
ATOM     91  O   UNL A   1      46.805  21.549  34.828  1.00  0.00    -0.237 OA
ATOM     92  O   UNL A   1      48.743  22.451  36.049  1.00  0.00    -0.237 OA
ATOM     93  O   UNL A   1      46.470  23.076  36.736  1.00  0.00    -0.744 OA
ENDBRANCH  87  90
ENDBRANCH  60  83
ENDBRANCH  34  35
ENDBRANCH  26  29
ENDBRANCH  24  25
ENDBRANCH   1  24
TORSDOF 18
ENDMDL
