MODEL 1
REMARK VINA RESULT:     -11.1      0.000      0.000
REMARK SMILES COc1cc(/C=C/C(=O)NCCCNC(=O)c2ccc(-c3c4nc(c(-c5cccc(S(=O)(=O)[O-])c5F)c5ccc([nH]5)c(-c5cccc(S(=O)(=O)[O-])c5F)c5nc(c(-c6cccc(S(=O)(=O)[O-])c6F)c6ccc3[nH]6)C=C5)C=C4)cc2)cc(OC)c1O
REMARK SMILES IDX 12 1 11 2 10 3 8 4 9 5 7 7 6 8 5 9 3 10 4 11 84 12 81 13
REMARK SMILES IDX 80 14 2 15 1 16 85 17 82 19 83 20 13 21 14 22 15 23 16 25
REMARK SMILES IDX 17 26 18 27 79 28 19 29 78 30 20 31 21 32 22 33 72 34 23 35
REMARK SMILES IDX 77 36 71 37 73 38 24 39 76 40 70 41 69 42 25 44 57 45 37 46
REMARK SMILES IDX 56 47 38 48 41 49 55 50 74 51 39 52 40 53 54 55 75 56 42 57
REMARK SMILES IDX 26 58 27 59 35 60 28 61 30 62 36 63 29 64 31 65 32 66 33 67
REMARK SMILES IDX 34 68 58 69 59 70 67 71 60 72 62 73 68 74 61 75 63 76 64 77
REMARK SMILES IDX 65 78 66 79 43 80 44 81 52 82 45 83 47 84 53 85 46 86 48 87
REMARK SMILES IDX 49 88 50 89 51 90
REMARK H PARENT 10 6 85 18 14 24 73 43 41 54
REMARK Flexibility Score: inf
ROOT
ATOM      1  C   UNL A   1      35.140  22.624  26.403  1.00  0.00     0.042 C 
ENDROOT
BRANCH   1   2
ATOM      2  C   UNL A   1      33.951  23.227  25.659  1.00  0.00     0.118 C 
BRANCH   2   3
ATOM      3  N   UNL A   1      32.767  23.297  26.498  1.00  0.00    -0.352 N 
ATOM      4  C   UNL A   1      31.746  24.192  26.524  1.00  0.00     0.244 C 
ATOM      5  O   UNL A   1      30.765  23.971  27.231  1.00  0.00    -0.270 OA
ATOM      6  H   UNL A   1      32.692  22.571  27.160  1.00  0.00     0.163 HD
BRANCH   4   7
ATOM      7  C   UNL A   1      31.742  25.385  25.647  1.00  0.00     0.072 C 
ATOM      8  C   UNL A   1      30.638  26.000  25.201  1.00  0.00     0.014 C 
BRANCH   8   9
ATOM      9  C   UNL A   1      30.652  27.149  24.285  1.00  0.00    -0.018 A 
ATOM     10  C   UNL A   1      31.808  28.705  22.824  1.00  0.00     0.165 A 
ATOM     11  C   UNL A   1      31.840  27.687  23.781  1.00  0.00     0.058 A 
ATOM     12  C   UNL A   1      30.577  29.165  22.326  1.00  0.00     0.200 A 
ATOM     13  C   UNL A   1      29.378  28.674  22.855  1.00  0.00     0.165 A 
ATOM     14  C   UNL A   1      29.433  27.663  23.825  1.00  0.00     0.058 A 
BRANCH  10  15
ATOM     15  O   UNL A   1      33.033  29.109  22.357  1.00  0.00    -0.493 OA
ATOM     16  C   UNL A   1      34.143  28.821  23.207  1.00  0.00     0.278 C 
ENDBRANCH  10  15
BRANCH  12  17
ATOM     17  O   UNL A   1      30.576  30.029  21.265  1.00  0.00    -0.502 OA
ATOM     18  H   UNL A   1      31.317  30.067  20.691  1.00  0.00     0.293 HD
ENDBRANCH  12  17
BRANCH  13  19
ATOM     19  O   UNL A   1      28.095  29.015  22.523  1.00  0.00    -0.493 OA
ATOM     20  C   UNL A   1      27.562  30.230  23.027  1.00  0.00     0.278 C 
ENDBRANCH  13  19
ENDBRANCH   8   9
ENDBRANCH   4   7
ENDBRANCH   2   3
ENDBRANCH   1   2
BRANCH   1  21
ATOM     21  C   UNL A   1      36.463  23.341  26.133  1.00  0.00     0.118 C 
BRANCH  21  22
ATOM     22  N   UNL A   1      37.593  22.421  26.120  1.00  0.00    -0.352 N 
ATOM     23  C   UNL A   1      38.935  22.666  26.277  1.00  0.00     0.251 C 
ATOM     24  H   UNL A   1      37.358  21.476  25.976  1.00  0.00     0.163 HD
ATOM     25  O   UNL A   1      39.740  21.776  26.011  1.00  0.00    -0.269 OA
BRANCH  23  26
ATOM     26  C   UNL A   1      39.417  23.980  26.756  1.00  0.00     0.039 A 
ATOM     27  C   UNL A   1      40.033  24.845  25.846  1.00  0.00     0.014 A 
ATOM     28  C   UNL A   1      39.313  24.343  28.102  1.00  0.00     0.014 A 
ATOM     29  C   UNL A   1      40.500  26.091  26.275  1.00  0.00     0.010 A 
ATOM     30  C   UNL A   1      39.717  25.611  28.513  1.00  0.00     0.010 A 
ATOM     31  C   UNL A   1      40.323  26.494  27.607  1.00  0.00    -0.014 A 
BRANCH  31  32
ATOM     32  C   UNL A   1      40.757  27.836  28.074  1.00  0.00     0.031 A 
ATOM     33  C   UNL A   1      42.220  28.188  28.128  1.00  0.00     0.074 A 
ATOM     34  C   UNL A   1      39.837  28.707  28.535  1.00  0.00     0.049 A 
ATOM     35  N   UNL A   1      42.791  29.278  28.572  1.00  0.00    -0.248 NA
ATOM     36  C   UNL A   1      43.168  27.169  27.647  1.00  0.00     0.031 C 
ATOM     37  C   UNL A   1      38.397  28.454  28.609  1.00  0.00     0.029 A 
ATOM     38  N   UNL A   1      39.979  29.967  29.061  1.00  0.00    -0.354 N 
ATOM     39  C   UNL A   1      44.159  29.064  28.462  1.00  0.00     0.074 A 
ATOM     40  C   UNL A   1      44.335  27.728  27.935  1.00  0.00     0.031 C 
ATOM     41  C   UNL A   1      37.789  29.522  29.150  1.00  0.00     0.029 A 
ATOM     42  C   UNL A   1      38.795  30.523  29.485  1.00  0.00     0.049 A 
ATOM     43  H   UNL A   1      40.846  30.428  29.128  1.00  0.00     0.167 HD
ATOM     44  C   UNL A   1      45.177  29.911  28.744  1.00  0.00     0.034 A 
ATOM     45  C   UNL A   1      38.548  31.705  30.085  1.00  0.00     0.034 A 
ATOM     46  C   UNL A   1      44.996  31.257  29.219  1.00  0.00     0.049 A 
ATOM     47  C   UNL A   1      39.692  32.649  30.338  1.00  0.00     0.074 A 
ATOM     48  C   UNL A   1      45.957  32.226  29.447  1.00  0.00     0.029 A 
ATOM     49  N   UNL A   1      43.773  31.823  29.543  1.00  0.00    -0.354 N 
ATOM     50  N   UNL A   1      40.966  32.489  30.075  1.00  0.00    -0.248 NA
ATOM     51  C   UNL A   1      39.359  33.951  30.934  1.00  0.00     0.031 C 
ATOM     52  C   UNL A   1      45.316  33.374  29.923  1.00  0.00     0.029 A 
ATOM     53  C   UNL A   1      43.953  33.126  29.973  1.00  0.00     0.049 A 
ATOM     54  H   UNL A   1      42.904  31.365  29.475  1.00  0.00     0.167 HD
ATOM     55  C   UNL A   1      41.583  33.680  30.441  1.00  0.00     0.074 A 
ATOM     56  C   UNL A   1      40.538  34.560  30.924  1.00  0.00     0.031 C 
ATOM     57  C   UNL A   1      42.897  34.010  30.397  1.00  0.00     0.034 A 
BRANCH  44  58
ATOM     58  C   UNL A   1      46.583  29.429  28.487  1.00  0.00     0.023 A 
ATOM     59  C   UNL A   1      47.195  29.710  27.248  1.00  0.00     0.012 A 
ATOM     60  C   UNL A   1      47.318  28.758  29.484  1.00  0.00     0.148 A 
ATOM     61  C   UNL A   1      48.502  29.297  26.991  1.00  0.00     0.002 A 
ATOM     62  C   UNL A   1      48.635  28.388  29.235  1.00  0.00     0.091 A 
ATOM     63  F   UNL A   1      46.714  28.483  30.649  1.00  0.00    -0.205 F 
ATOM     64  C   UNL A   1      49.224  28.647  27.986  1.00  0.00     0.022 A 
BRANCH  62  65
ATOM     65  S   UNL A   1      49.676  27.615  30.479  1.00  0.00     0.127 S 
ATOM     66  O   UNL A   1      50.930  27.439  29.746  1.00  0.00    -0.237 OA
ATOM     67  O   UNL A   1      49.721  28.638  31.524  1.00  0.00    -0.237 OA
ATOM     68  O   UNL A   1      48.997  26.386  30.862  1.00  0.00    -0.744 OA
ENDBRANCH  62  65
ENDBRANCH  44  58
BRANCH  45  69
ATOM     69  C   UNL A   1      37.147  32.089  30.418  1.00  0.00     0.023 A 
ATOM     70  C   UNL A   1      36.655  31.845  31.715  1.00  0.00     0.012 A 
ATOM     71  C   UNL A   1      36.314  32.726  29.476  1.00  0.00     0.148 A 
ATOM     72  C   UNL A   1      35.350  32.199  32.060  1.00  0.00     0.002 A 
ATOM     73  C   UNL A   1      35.034  33.125  29.844  1.00  0.00     0.091 A 
ATOM     74  F   UNL A   1      36.796  32.938  28.243  1.00  0.00    -0.205 F 
ATOM     75  C   UNL A   1      34.544  32.849  31.129  1.00  0.00     0.022 A 
BRANCH  73  76
ATOM     76  S   UNL A   1      33.979  34.085  28.751  1.00  0.00     0.127 S 
ATOM     77  O   UNL A   1      33.569  33.079  27.772  1.00  0.00    -0.237 OA
ATOM     78  O   UNL A   1      32.918  34.524  29.662  1.00  0.00    -0.237 OA
ATOM     79  O   UNL A   1      34.814  35.162  28.245  1.00  0.00    -0.744 OA
ENDBRANCH  73  76
ENDBRANCH  45  69
BRANCH  57  80
ATOM     80  C   UNL A   1      43.287  35.392  30.852  1.00  0.00     0.023 A 
ATOM     81  C   UNL A   1      43.650  35.609  32.195  1.00  0.00     0.012 A 
ATOM     82  C   UNL A   1      43.367  36.456  29.932  1.00  0.00     0.148 A 
ATOM     83  C   UNL A   1      44.059  36.871  32.625  1.00  0.00     0.002 A 
ATOM     84  C   UNL A   1      43.821  37.699  30.357  1.00  0.00     0.091 A 
ATOM     85  F   UNL A   1      42.999  36.234  28.662  1.00  0.00    -0.205 F 
ATOM     86  C   UNL A   1      44.156  37.911  31.704  1.00  0.00     0.022 A 
BRANCH  84  87
ATOM     87  S   UNL A   1      44.068  39.070  29.222  1.00  0.00     0.127 S 
ATOM     88  O   UNL A   1      44.589  40.105  30.113  1.00  0.00    -0.237 OA
ATOM     89  O   UNL A   1      45.049  38.524  28.283  1.00  0.00    -0.237 OA
ATOM     90  O   UNL A   1      42.763  39.345  28.636  1.00  0.00    -0.744 OA
ENDBRANCH  84  87
ENDBRANCH  57  80
ENDBRANCH  31  32
ENDBRANCH  23  26
ENDBRANCH  21  22
ENDBRANCH   1  21
TORSDOF 17
ENDMDL
MODEL 2
REMARK VINA RESULT:     -11.1      3.345      8.456
REMARK SMILES COc1cc(/C=C/C(=O)NCCCNC(=O)c2ccc(-c3c4nc(c(-c5cccc(S(=O)(=O)[O-])c5F)c5ccc([nH]5)c(-c5cccc(S(=O)(=O)[O-])c5F)c5nc(c(-c6cccc(S(=O)(=O)[O-])c6F)c6ccc3[nH]6)C=C5)C=C4)cc2)cc(OC)c1O
REMARK SMILES IDX 12 1 11 2 10 3 8 4 9 5 7 7 6 8 5 9 3 10 4 11 84 12 81 13
REMARK SMILES IDX 80 14 2 15 1 16 85 17 82 19 83 20 13 21 14 22 15 23 16 25
REMARK SMILES IDX 17 26 18 27 79 28 19 29 78 30 20 31 21 32 22 33 72 34 23 35
REMARK SMILES IDX 77 36 71 37 73 38 24 39 76 40 70 41 69 42 25 44 57 45 37 46
REMARK SMILES IDX 56 47 38 48 41 49 55 50 74 51 39 52 40 53 54 55 75 56 42 57
REMARK SMILES IDX 26 58 27 59 35 60 28 61 30 62 36 63 29 64 31 65 32 66 33 67
REMARK SMILES IDX 34 68 58 69 59 70 67 71 60 72 62 73 68 74 61 75 63 76 64 77
REMARK SMILES IDX 65 78 66 79 43 80 44 81 52 82 45 83 47 84 53 85 46 86 48 87
REMARK SMILES IDX 49 88 50 89 51 90
REMARK H PARENT 10 6 85 18 14 24 73 43 41 54
REMARK Flexibility Score: inf
ROOT
ATOM      1  C   UNL A   1      37.150  19.870  24.992  1.00  0.00     0.042 C 
ENDROOT
BRANCH   1   2
ATOM      2  C   UNL A   1      35.947  20.802  24.867  1.00  0.00     0.118 C 
BRANCH   2   3
ATOM      3  N   UNL A   1      35.285  21.003  26.145  1.00  0.00    -0.352 N 
ATOM      4  C   UNL A   1      34.661  22.094  26.662  1.00  0.00     0.244 C 
ATOM      5  O   UNL A   1      34.039  21.991  27.717  1.00  0.00    -0.270 OA
ATOM      6  H   UNL A   1      35.289  20.215  26.736  1.00  0.00     0.163 HD
BRANCH   4   7
ATOM      7  C   UNL A   1      34.631  23.383  25.936  1.00  0.00     0.072 C 
ATOM      8  C   UNL A   1      33.644  24.285  26.023  1.00  0.00     0.014 C 
BRANCH   8   9
ATOM      9  C   UNL A   1      33.604  25.534  25.250  1.00  0.00    -0.018 A 
ATOM     10  C   UNL A   1      33.688  27.955  25.092  1.00  0.00     0.165 A 
ATOM     11  C   UNL A   1      33.613  26.791  25.863  1.00  0.00     0.058 A 
ATOM     12  C   UNL A   1      33.803  27.868  23.694  1.00  0.00     0.200 A 
ATOM     13  C   UNL A   1      33.745  26.622  23.061  1.00  0.00     0.165 A 
ATOM     14  C   UNL A   1      33.654  25.467  23.852  1.00  0.00     0.058 A 
BRANCH  10  15
ATOM     15  O   UNL A   1      33.755  29.125  25.804  1.00  0.00    -0.493 OA
ATOM     16  C   UNL A   1      32.518  29.817  25.972  1.00  0.00     0.278 C 
ENDBRANCH  10  15
BRANCH  12  17
ATOM     17  O   UNL A   1      34.058  29.008  22.981  1.00  0.00    -0.502 OA
ATOM     18  H   UNL A   1      34.783  29.038  22.389  1.00  0.00     0.293 HD
ENDBRANCH  12  17
BRANCH  13  19
ATOM     19  O   UNL A   1      33.811  26.339  21.723  1.00  0.00    -0.493 OA
ATOM     20  C   UNL A   1      32.706  25.693  21.110  1.00  0.00     0.278 C 
ENDBRANCH  13  19
ENDBRANCH   8   9
ENDBRANCH   4   7
ENDBRANCH   2   3
ENDBRANCH   1   2
BRANCH   1  21
ATOM     21  C   UNL A   1      38.443  20.583  25.388  1.00  0.00     0.118 C 
BRANCH  21  22
ATOM     22  N   UNL A   1      39.477  19.649  25.815  1.00  0.00    -0.352 N 
ATOM     23  C   UNL A   1      40.766  19.884  26.227  1.00  0.00     0.251 C 
ATOM     24  H   UNL A   1      39.210  18.701  25.807  1.00  0.00     0.163 HD
ATOM     25  O   UNL A   1      41.541  18.936  26.332  1.00  0.00    -0.269 OA
BRANCH  23  26
ATOM     26  C   UNL A   1      41.226  21.255  26.539  1.00  0.00     0.039 A 
ATOM     27  C   UNL A   1      41.350  21.635  27.879  1.00  0.00     0.014 A 
ATOM     28  C   UNL A   1      41.483  22.181  25.525  1.00  0.00     0.014 A 
ATOM     29  C   UNL A   1      41.779  22.926  28.200  1.00  0.00     0.010 A 
ATOM     30  C   UNL A   1      41.975  23.444  25.846  1.00  0.00     0.010 A 
ATOM     31  C   UNL A   1      42.120  23.834  27.185  1.00  0.00    -0.014 A 
BRANCH  31  32
ATOM     32  C   UNL A   1      42.635  25.191  27.501  1.00  0.00     0.031 A 
ATOM     33  C   UNL A   1      41.749  26.203  28.178  1.00  0.00     0.074 A 
ATOM     34  C   UNL A   1      43.871  25.541  27.096  1.00  0.00     0.049 A 
ATOM     35  N   UNL A   1      41.997  27.454  28.468  1.00  0.00    -0.248 NA
ATOM     36  C   UNL A   1      40.395  25.759  28.553  1.00  0.00     0.031 C 
ATOM     37  C   UNL A   1      44.796  24.676  26.361  1.00  0.00     0.029 A 
ATOM     38  N   UNL A   1      44.551  26.728  27.213  1.00  0.00    -0.354 N 
ATOM     39  C   UNL A   1      40.827  27.958  29.020  1.00  0.00     0.074 A 
ATOM     40  C   UNL A   1      39.856  26.885  28.999  1.00  0.00     0.031 C 
ATOM     41  C   UNL A   1      45.920  25.360  26.091  1.00  0.00     0.029 A 
ATOM     42  C   UNL A   1      45.786  26.717  26.610  1.00  0.00     0.049 A 
ATOM     43  H   UNL A   1      44.188  27.512  27.686  1.00  0.00     0.167 HD
ATOM     44  C   UNL A   1      40.587  29.191  29.526  1.00  0.00     0.034 A 
ATOM     45  C   UNL A   1      46.707  27.694  26.480  1.00  0.00     0.034 A 
ATOM     46  C   UNL A   1      41.571  30.239  29.591  1.00  0.00     0.049 A 
ATOM     47  C   UNL A   1      46.436  29.039  27.098  1.00  0.00     0.074 A 
ATOM     48  C   UNL A   1      41.457  31.492  30.167  1.00  0.00     0.029 A 
ATOM     49  N   UNL A   1      42.848  30.158  29.058  1.00  0.00    -0.354 N 
ATOM     50  N   UNL A   1      45.380  29.444  27.761  1.00  0.00    -0.248 NA
ATOM     51  C   UNL A   1      47.500  30.048  26.986  1.00  0.00     0.031 C 
ATOM     52  C   UNL A   1      42.662  32.174  29.969  1.00  0.00     0.029 A 
ATOM     53  C   UNL A   1      43.532  31.339  29.288  1.00  0.00     0.049 A 
ATOM     54  H   UNL A   1      43.215  29.375  28.588  1.00  0.00     0.167 HD
ATOM     55  C   UNL A   1      45.664  30.741  28.174  1.00  0.00     0.074 A 
ATOM     56  C   UNL A   1      47.001  31.045  27.704  1.00  0.00     0.031 C 
ATOM     57  C   UNL A   1      44.883  31.608  28.864  1.00  0.00     0.034 A 
BRANCH  44  58
ATOM     58  C   UNL A   1      39.223  29.458  30.109  1.00  0.00     0.023 A 
ATOM     59  C   UNL A   1      38.922  28.995  31.407  1.00  0.00     0.012 A 
ATOM     60  C   UNL A   1      38.263  30.213  29.406  1.00  0.00     0.148 A 
ATOM     61  C   UNL A   1      37.676  29.247  31.981  1.00  0.00     0.002 A 
ATOM     62  C   UNL A   1      37.040  30.497  30.002  1.00  0.00     0.091 A 
ATOM     63  F   UNL A   1      38.558  30.628  28.166  1.00  0.00    -0.205 F 
ATOM     64  C   UNL A   1      36.741  30.005  31.285  1.00  0.00     0.022 A 
BRANCH  62  65
ATOM     65  S   UNL A   1      35.797  31.531  29.220  1.00  0.00     0.127 S 
ATOM     66  O   UNL A   1      35.179  30.593  28.284  1.00  0.00    -0.237 OA
ATOM     67  O   UNL A   1      34.949  31.907  30.352  1.00  0.00    -0.237 OA
ATOM     68  O   UNL A   1      36.521  32.637  28.611  1.00  0.00    -0.744 OA
ENDBRANCH  62  65
ENDBRANCH  44  58
BRANCH  45  69
ATOM     69  C   UNL A   1      48.001  27.408  25.798  1.00  0.00     0.023 A 
ATOM     70  C   UNL A   1      49.079  26.904  26.550  1.00  0.00     0.012 A 
ATOM     71  C   UNL A   1      48.158  27.594  24.410  1.00  0.00     0.148 A 
ATOM     72  C   UNL A   1      50.301  26.619  25.940  1.00  0.00     0.002 A 
ATOM     73  C   UNL A   1      49.362  27.256  23.800  1.00  0.00     0.091 A 
ATOM     74  F   UNL A   1      47.125  28.087  23.714  1.00  0.00    -0.205 F 
ATOM     75  C   UNL A   1      50.439  26.785  24.565  1.00  0.00     0.022 A 
BRANCH  73  76
ATOM     76  S   UNL A   1      49.580  27.311  22.017  1.00  0.00     0.127 S 
ATOM     77  O   UNL A   1      49.345  28.726  21.731  1.00  0.00    -0.237 OA
ATOM     78  O   UNL A   1      50.972  26.878  21.869  1.00  0.00    -0.237 OA
ATOM     79  O   UNL A   1      48.604  26.382  21.473  1.00  0.00    -0.744 OA
ENDBRANCH  73  76
ENDBRANCH  45  69
BRANCH  57  80
ATOM     80  C   UNL A   1      45.458  32.962  29.187  1.00  0.00     0.023 A 
ATOM     81  C   UNL A   1      46.249  33.128  30.340  1.00  0.00     0.012 A 
ATOM     82  C   UNL A   1      45.277  34.048  28.308  1.00  0.00     0.148 A 
ATOM     83  C   UNL A   1      46.829  34.363  30.630  1.00  0.00     0.002 A 
ATOM     84  C   UNL A   1      45.897  35.262  28.578  1.00  0.00     0.091 A 
ATOM     85  F   UNL A   1      44.504  33.875  27.226  1.00  0.00    -0.205 F 
ATOM     86  C   UNL A   1      46.663  35.425  29.743  1.00  0.00     0.022 A 
BRANCH  84  87
ATOM     87  S   UNL A   1      45.815  36.655  27.446  1.00  0.00     0.127 S 
ATOM     88  O   UNL A   1      46.448  37.714  28.230  1.00  0.00    -0.237 OA
ATOM     89  O   UNL A   1      46.608  36.180  26.311  1.00  0.00    -0.237 OA
ATOM     90  O   UNL A   1      44.402  36.850  27.152  1.00  0.00    -0.744 OA
ENDBRANCH  84  87
ENDBRANCH  57  80
ENDBRANCH  31  32
ENDBRANCH  23  26
ENDBRANCH  21  22
ENDBRANCH   1  21
TORSDOF 17
ENDMDL
MODEL 3
REMARK VINA RESULT:     -11.1      1.941      8.166
REMARK SMILES COc1cc(/C=C/C(=O)NCCCNC(=O)c2ccc(-c3c4nc(c(-c5cccc(S(=O)(=O)[O-])c5F)c5ccc([nH]5)c(-c5cccc(S(=O)(=O)[O-])c5F)c5nc(c(-c6cccc(S(=O)(=O)[O-])c6F)c6ccc3[nH]6)C=C5)C=C4)cc2)cc(OC)c1O
REMARK SMILES IDX 12 1 11 2 10 3 8 4 9 5 7 7 6 8 5 9 3 10 4 11 84 12 81 13
REMARK SMILES IDX 80 14 2 15 1 16 85 17 82 19 83 20 13 21 14 22 15 23 16 25
REMARK SMILES IDX 17 26 18 27 79 28 19 29 78 30 20 31 21 32 22 33 72 34 23 35
REMARK SMILES IDX 77 36 71 37 73 38 24 39 76 40 70 41 69 42 25 44 57 45 37 46
REMARK SMILES IDX 56 47 38 48 41 49 55 50 74 51 39 52 40 53 54 55 75 56 42 57
REMARK SMILES IDX 26 58 27 59 35 60 28 61 30 62 36 63 29 64 31 65 32 66 33 67
REMARK SMILES IDX 34 68 58 69 59 70 67 71 60 72 62 73 68 74 61 75 63 76 64 77
REMARK SMILES IDX 65 78 66 79 43 80 44 81 52 82 45 83 47 84 53 85 46 86 48 87
REMARK SMILES IDX 49 88 50 89 51 90
REMARK H PARENT 10 6 85 18 14 24 73 43 41 54
REMARK Flexibility Score: inf
ROOT
ATOM      1  C   UNL A   1      34.326  21.866  25.901  1.00  0.00     0.042 C 
ENDROOT
BRANCH   1   2
ATOM      2  C   UNL A   1      33.318  22.945  25.516  1.00  0.00     0.118 C 
BRANCH   2   3
ATOM      3  N   UNL A   1      32.152  22.929  26.384  1.00  0.00    -0.352 N 
ATOM      4  C   UNL A   1      31.166  23.846  26.566  1.00  0.00     0.244 C 
ATOM      5  O   UNL A   1      30.191  23.556  27.256  1.00  0.00    -0.270 OA
ATOM      6  H   UNL A   1      32.063  22.117  26.933  1.00  0.00     0.163 HD
BRANCH   4   7
ATOM      7  C   UNL A   1      31.191  25.155  25.876  1.00  0.00     0.072 C 
ATOM      8  C   UNL A   1      30.509  25.441  24.758  1.00  0.00     0.014 C 
BRANCH   8   9
ATOM      9  C   UNL A   1      30.591  26.728  24.054  1.00  0.00    -0.018 A 
ATOM     10  C   UNL A   1      31.852  28.505  22.984  1.00  0.00     0.165 A 
ATOM     11  C   UNL A   1      31.812  27.339  23.754  1.00  0.00     0.058 A 
ATOM     12  C   UNL A   1      30.663  29.047  22.466  1.00  0.00     0.200 A 
ATOM     13  C   UNL A   1      29.429  28.479  22.797  1.00  0.00     0.165 A 
ATOM     14  C   UNL A   1      29.410  27.317  23.583  1.00  0.00     0.058 A 
BRANCH  10  15
ATOM     15  O   UNL A   1      33.108  28.977  22.701  1.00  0.00    -0.493 OA
ATOM     16  C   UNL A   1      34.013  28.026  22.141  1.00  0.00     0.278 C 
ENDBRANCH  10  15
BRANCH  12  17
ATOM     17  O   UNL A   1      30.746  30.079  21.570  1.00  0.00    -0.502 OA
ATOM     18  H   UNL A   1      30.613  29.917  20.657  1.00  0.00     0.293 HD
ENDBRANCH  12  17
BRANCH  13  19
ATOM     19  O   UNL A   1      28.175  28.876  22.417  1.00  0.00    -0.493 OA
ATOM     20  C   UNL A   1      27.654  30.085  22.949  1.00  0.00     0.278 C 
ENDBRANCH  13  19
ENDBRANCH   8   9
ENDBRANCH   4   7
ENDBRANCH   2   3
ENDBRANCH   1   2
BRANCH   1  21
ATOM     21  C   UNL A   1      35.761  22.380  26.026  1.00  0.00     0.118 C 
BRANCH  21  22
ATOM     22  N   UNL A   1      36.742  21.323  25.815  1.00  0.00    -0.352 N 
ATOM     23  C   UNL A   1      38.114  21.384  25.788  1.00  0.00     0.251 C 
ATOM     24  H   UNL A   1      36.364  20.426  25.670  1.00  0.00     0.163 HD
ATOM     25  O   UNL A   1      38.747  20.414  25.376  1.00  0.00    -0.269 OA
BRANCH  23  26
ATOM     26  C   UNL A   1      38.831  22.595  26.243  1.00  0.00     0.039 A 
ATOM     27  C   UNL A   1      39.917  22.449  27.112  1.00  0.00     0.014 A 
ATOM     28  C   UNL A   1      38.408  23.872  25.864  1.00  0.00     0.014 A 
ATOM     29  C   UNL A   1      40.608  23.579  27.560  1.00  0.00     0.010 A 
ATOM     30  C   UNL A   1      39.139  24.992  26.257  1.00  0.00     0.010 A 
ATOM     31  C   UNL A   1      40.240  24.858  27.115  1.00  0.00    -0.014 A 
BRANCH  31  32
ATOM     32  C   UNL A   1      40.995  26.069  27.529  1.00  0.00     0.031 A 
ATOM     33  C   UNL A   1      40.313  27.165  28.303  1.00  0.00     0.074 A 
ATOM     34  C   UNL A   1      42.273  26.222  27.129  1.00  0.00     0.049 A 
ATOM     35  N   UNL A   1      40.786  28.322  28.688  1.00  0.00    -0.248 NA
ATOM     36  C   UNL A   1      38.902  26.945  28.667  1.00  0.00     0.031 C 
ATOM     37  C   UNL A   1      43.021  25.267  26.309  1.00  0.00     0.029 A 
ATOM     38  N   UNL A   1      43.158  27.251  27.329  1.00  0.00    -0.354 N 
ATOM     39  C   UNL A   1      39.729  28.982  29.301  1.00  0.00     0.074 A 
ATOM     40  C   UNL A   1      38.579  28.109  29.213  1.00  0.00     0.031 C 
ATOM     41  C   UNL A   1      44.250  25.755  26.073  1.00  0.00     0.029 A 
ATOM     42  C   UNL A   1      44.368  27.067  26.702  1.00  0.00     0.049 A 
ATOM     43  H   UNL A   1      42.947  28.046  27.870  1.00  0.00     0.167 HD
ATOM     44  C   UNL A   1      39.721  30.192  29.910  1.00  0.00     0.034 A 
ATOM     45  C   UNL A   1      45.451  27.868  26.634  1.00  0.00     0.034 A 
ATOM     46  C   UNL A   1      40.880  31.035  30.040  1.00  0.00     0.049 A 
ATOM     47  C   UNL A   1      45.433  29.183  27.363  1.00  0.00     0.074 A 
ATOM     48  C   UNL A   1      40.999  32.236  30.717  1.00  0.00     0.029 A 
ATOM     49  N   UNL A   1      42.119  30.769  29.477  1.00  0.00    -0.354 N 
ATOM     50  N   UNL A   1      44.472  29.717  28.077  1.00  0.00    -0.248 NA
ATOM     51  C   UNL A   1      46.662  29.988  27.311  1.00  0.00     0.031 C 
ATOM     52  C   UNL A   1      42.307  32.703  30.551  1.00  0.00     0.029 A 
ATOM     53  C   UNL A   1      43.008  31.783  29.787  1.00  0.00     0.049 A 
ATOM     54  H   UNL A   1      42.334  29.974  28.938  1.00  0.00     0.167 HD
ATOM     55  C   UNL A   1      44.990  30.902  28.588  1.00  0.00     0.074 A 
ATOM     56  C   UNL A   1      46.357  30.996  28.118  1.00  0.00     0.031 C 
ATOM     57  C   UNL A   1      44.383  31.836  29.361  1.00  0.00     0.034 A 
BRANCH  44  58
ATOM     58  C   UNL A   1      38.431  30.653  30.539  1.00  0.00     0.023 A 
ATOM     59  C   UNL A   1      38.183  30.368  31.898  1.00  0.00     0.012 A 
ATOM     60  C   UNL A   1      37.495  31.415  29.812  1.00  0.00     0.148 A 
ATOM     61  C   UNL A   1      37.009  30.802  32.513  1.00  0.00     0.002 A 
ATOM     62  C   UNL A   1      36.348  31.880  30.444  1.00  0.00     0.091 A 
ATOM     63  F   UNL A   1      37.737  31.660  28.516  1.00  0.00    -0.205 F 
ATOM     64  C   UNL A   1      36.098  31.565  31.791  1.00  0.00     0.022 A 
BRANCH  62  65
ATOM     65  S   UNL A   1      35.150  32.937  29.623  1.00  0.00     0.127 S 
ATOM     66  O   UNL A   1      35.998  34.026  29.140  1.00  0.00    -0.237 OA
ATOM     67  O   UNL A   1      34.631  32.060  28.572  1.00  0.00    -0.237 OA
ATOM     68  O   UNL A   1      34.176  33.305  30.640  1.00  0.00    -0.744 OA
ENDBRANCH  62  65
ENDBRANCH  44  58
BRANCH  45  69
ATOM     69  C   UNL A   1      46.668  27.409  25.905  1.00  0.00     0.023 A 
ATOM     70  C   UNL A   1      46.782  27.668  24.525  1.00  0.00     0.012 A 
ATOM     71  C   UNL A   1      47.723  26.757  26.572  1.00  0.00     0.148 A 
ATOM     72  C   UNL A   1      47.912  27.258  23.816  1.00  0.00     0.002 A 
ATOM     73  C   UNL A   1      48.869  26.400  25.869  1.00  0.00     0.091 A 
ATOM     74  F   UNL A   1      47.590  26.507  27.882  1.00  0.00    -0.205 F 
ATOM     75  C   UNL A   1      48.959  26.635  24.489  1.00  0.00     0.022 A 
BRANCH  73  76
ATOM     76  S   UNL A   1      50.318  25.716  26.683  1.00  0.00     0.127 S 
ATOM     77  O   UNL A   1      51.266  25.620  25.574  1.00  0.00    -0.237 OA
ATOM     78  O   UNL A   1      50.630  26.754  27.669  1.00  0.00    -0.237 OA
ATOM     79  O   UNL A   1      49.884  24.455  27.260  1.00  0.00    -0.744 OA
ENDBRANCH  73  76
ENDBRANCH  45  69
BRANCH  57  80
ATOM     80  C   UNL A   1      45.197  33.032  29.780  1.00  0.00     0.023 A 
ATOM     81  C   UNL A   1      45.952  32.981  30.967  1.00  0.00     0.012 A 
ATOM     82  C   UNL A   1      45.272  34.174  28.959  1.00  0.00     0.148 A 
ATOM     83  C   UNL A   1      46.748  34.061  31.347  1.00  0.00     0.002 A 
ATOM     84  C   UNL A   1      46.104  35.227  29.319  1.00  0.00     0.091 A 
ATOM     85  F   UNL A   1      44.529  34.211  27.843  1.00  0.00    -0.205 F 
ATOM     86  C   UNL A   1      46.834  35.177  30.518  1.00  0.00     0.022 A 
BRANCH  84  87
ATOM     87  S   UNL A   1      46.349  36.662  28.267  1.00  0.00     0.127 S 
ATOM     88  O   UNL A   1      45.014  37.259  28.262  1.00  0.00    -0.237 OA
ATOM     89  O   UNL A   1      47.354  37.424  29.008  1.00  0.00    -0.237 OA
ATOM     90  O   UNL A   1      46.810  36.145  26.985  1.00  0.00    -0.744 OA
ENDBRANCH  84  87
ENDBRANCH  57  80
ENDBRANCH  31  32
ENDBRANCH  23  26
ENDBRANCH  21  22
ENDBRANCH   1  21
TORSDOF 17
ENDMDL
