MODEL 1
REMARK VINA RESULT:     -12.4      0.000      0.000
REMARK SMILES CCc1cc(/C=C/C(=O)NCCCNC(=O)c2ccc(-c3c4nc(c(-c5cccc(S(=O)(=O)[O-])c5F)c5ccc([nH]5)c(-c5cccc(S(=O)(=O)[O-])c5F)c5nc(c(-c6cccc(S(=O)(=O)[O-])c6F)c6ccc3[nH]6)C=C5)C=C4)cc2)cc(C(=O)c2ccccc2)c1
REMARK SMILES IDX 12 1 11 2 10 3 8 4 9 5 7 7 6 8 5 9 3 10 4 11 90 12 81 13
REMARK SMILES IDX 80 14 2 15 1 16 82 17 83 18 84 19 85 20 89 21 86 22 88 23
REMARK SMILES IDX 87 24 13 25 14 26 15 27 16 29 17 30 18 31 79 32 19 33 78 34
REMARK SMILES IDX 20 35 21 36 22 37 72 38 23 39 77 40 71 41 73 42 24 43 76 44
REMARK SMILES IDX 70 45 69 46 25 48 57 49 37 50 56 51 38 52 41 53 55 54 74 55
REMARK SMILES IDX 39 56 40 57 54 59 75 60 42 61 26 62 27 63 35 64 28 65 30 66
REMARK SMILES IDX 36 67 29 68 31 69 32 70 33 71 34 72 58 73 59 74 67 75 60 76
REMARK SMILES IDX 62 77 68 78 61 79 63 80 64 81 65 82 66 83 43 84 44 85 52 86
REMARK SMILES IDX 45 87 47 88 53 89 46 90 48 91 49 92 50 93 51 94
REMARK H PARENT 10 6 14 28 73 47 41 58
REMARK Flexibility Score: inf
ROOT
ATOM      1  C   UNL A   1      33.186  28.172  24.950  1.00  0.00     0.042 C 
ENDROOT
BRANCH   1   2
ATOM      2  C   UNL A   1      33.872  28.502  23.628  1.00  0.00     0.118 C 
BRANCH   2   3
ATOM      3  N   UNL A   1      33.126  27.986  22.492  1.00  0.00    -0.352 N 
ATOM      4  C   UNL A   1      32.912  26.709  22.084  1.00  0.00     0.244 C 
ATOM      5  O   UNL A   1      32.125  26.490  21.165  1.00  0.00    -0.270 OA
ATOM      6  H   UNL A   1      32.709  28.676  21.927  1.00  0.00     0.163 HD
BRANCH   4   7
ATOM      7  C   UNL A   1      33.538  25.563  22.778  1.00  0.00     0.072 C 
ATOM      8  C   UNL A   1      33.451  24.284  22.382  1.00  0.00     0.014 C 
BRANCH   8   9
ATOM      9  C   UNL A   1      33.995  23.146  23.134  1.00  0.00    -0.024 A 
ATOM     10  C   UNL A   1      35.850  22.059  24.291  1.00  0.00    -0.047 A 
ATOM     11  C   UNL A   1      35.352  23.079  23.468  1.00  0.00     0.011 A 
ATOM     12  C   UNL A   1      34.973  21.067  24.746  1.00  0.00     0.016 A 
ATOM     13  C   UNL A   1      33.608  21.124  24.429  1.00  0.00     0.023 A 
ATOM     14  C   UNL A   1      33.126  22.164  23.623  1.00  0.00     0.020 A 
BRANCH  10  15
ATOM     15  C   UNL A   1      37.306  22.038  24.688  1.00  0.00     0.032 C 
ATOM     16  C   UNL A   1      37.680  23.197  25.607  1.00  0.00     0.009 C 
ENDBRANCH  10  15
BRANCH  13  17
ATOM     17  C   UNL A   1      32.650  20.081  24.887  1.00  0.00     0.193 C 
ATOM     18  O   UNL A   1      31.557  20.416  25.337  1.00  0.00    -0.289 OA
BRANCH  17  19
ATOM     19  C   UNL A   1      32.959  18.636  24.755  1.00  0.00     0.022 A 
ATOM     20  C   UNL A   1      33.448  18.172  23.528  1.00  0.00     0.012 A 
ATOM     21  C   UNL A   1      32.767  17.744  25.816  1.00  0.00     0.012 A 
ATOM     22  C   UNL A   1      33.795  16.829  23.380  1.00  0.00     0.001 A 
ATOM     23  C   UNL A   1      33.115  16.400  25.662  1.00  0.00     0.001 A 
ATOM     24  C   UNL A   1      33.637  15.946  24.449  1.00  0.00     0.000 A 
ENDBRANCH  17  19
ENDBRANCH  13  17
ENDBRANCH   8   9
ENDBRANCH   4   7
ENDBRANCH   2   3
ENDBRANCH   1   2
BRANCH   1  25
ATOM     25  C   UNL A   1      34.029  28.508  26.176  1.00  0.00     0.118 C 
BRANCH  25  26
ATOM     26  N   UNL A   1      33.857  29.893  26.593  1.00  0.00    -0.352 N 
ATOM     27  C   UNL A   1      34.563  30.633  27.507  1.00  0.00     0.251 C 
ATOM     28  H   UNL A   1      33.118  30.372  26.151  1.00  0.00     0.163 HD
ATOM     29  O   UNL A   1      34.109  31.708  27.889  1.00  0.00    -0.269 OA
BRANCH  27  30
ATOM     30  C   UNL A   1      35.861  30.151  28.025  1.00  0.00     0.039 A 
ATOM     31  C   UNL A   1      35.904  29.556  29.289  1.00  0.00     0.014 A 
ATOM     32  C   UNL A   1      37.040  30.330  27.297  1.00  0.00     0.014 A 
ATOM     33  C   UNL A   1      37.122  29.104  29.804  1.00  0.00     0.010 A 
ATOM     34  C   UNL A   1      38.240  29.815  27.779  1.00  0.00     0.010 A 
ATOM     35  C   UNL A   1      38.296  29.210  29.043  1.00  0.00    -0.014 A 
BRANCH  35  36
ATOM     36  C   UNL A   1      39.593  28.693  29.548  1.00  0.00     0.031 A 
ATOM     37  C   UNL A   1      40.319  29.415  30.651  1.00  0.00     0.074 A 
ATOM     38  C   UNL A   1      40.160  27.630  28.947  1.00  0.00     0.049 A 
ATOM     39  N   UNL A   1      41.489  29.157  31.176  1.00  0.00    -0.248 NA
ATOM     40  C   UNL A   1      39.658  30.600  31.222  1.00  0.00     0.031 C 
ATOM     41  C   UNL A   1      39.593  26.900  27.811  1.00  0.00     0.029 A 
ATOM     42  N   UNL A   1      41.355  26.998  29.185  1.00  0.00    -0.354 N 
ATOM     43  C   UNL A   1      41.723  30.165  32.102  1.00  0.00     0.074 A 
ATOM     44  C   UNL A   1      40.586  31.059  32.049  1.00  0.00     0.031 C 
ATOM     45  C   UNL A   1      40.440  25.924  27.447  1.00  0.00     0.029 A 
ATOM     46  C   UNL A   1      41.621  25.974  28.305  1.00  0.00     0.049 A 
ATOM     47  H   UNL A   1      41.964  27.253  29.916  1.00  0.00     0.167 HD
ATOM     48  C   UNL A   1      42.775  30.320  32.941  1.00  0.00     0.034 A 
ATOM     49  C   UNL A   1      42.697  25.173  28.195  1.00  0.00     0.034 A 
ATOM     50  C   UNL A   1      43.876  29.400  33.025  1.00  0.00     0.049 A 
ATOM     51  C   UNL A   1      43.824  25.326  29.180  1.00  0.00     0.074 A 
ATOM     52  C   UNL A   1      44.940  29.408  33.910  1.00  0.00     0.029 A 
ATOM     53  N   UNL A   1      44.062  28.309  32.188  1.00  0.00    -0.354 N 
ATOM     54  N   UNL A   1      43.948  26.185  30.163  1.00  0.00    -0.248 NA
ATOM     55  C   UNL A   1      44.940  24.376  29.068  1.00  0.00     0.031 C 
ATOM     56  C   UNL A   1      45.778  28.332  33.595  1.00  0.00     0.029 A 
ATOM     57  C   UNL A   1      45.225  27.642  32.529  1.00  0.00     0.049 A 
ATOM     58  H   UNL A   1      43.453  28.048  31.459  1.00  0.00     0.167 HD
ATOM     59  C   UNL A   1      45.136  25.860  30.806  1.00  0.00     0.074 A 
ATOM     60  C   UNL A   1      45.683  24.710  30.115  1.00  0.00     0.031 C 
ATOM     61  C   UNL A   1      45.729  26.467  31.864  1.00  0.00     0.034 A 
BRANCH  48  62
ATOM     62  C   UNL A   1      42.757  31.499  33.880  1.00  0.00     0.023 A 
ATOM     63  C   UNL A   1      43.288  32.734  33.455  1.00  0.00     0.012 A 
ATOM     64  C   UNL A   1      42.170  31.404  35.158  1.00  0.00     0.148 A 
ATOM     65  C   UNL A   1      43.268  33.845  34.299  1.00  0.00     0.002 A 
ATOM     66  C   UNL A   1      42.114  32.526  35.975  1.00  0.00     0.091 A 
ATOM     67  F   UNL A   1      41.689  30.216  35.554  1.00  0.00    -0.205 F 
ATOM     68  C   UNL A   1      42.674  33.744  35.553  1.00  0.00     0.022 A 
BRANCH  66  69
ATOM     69  S   UNL A   1      41.298  32.521  37.576  1.00  0.00     0.127 S 
ATOM     70  O   UNL A   1      41.425  33.920  37.977  1.00  0.00    -0.237 OA
ATOM     71  O   UNL A   1      39.938  32.106  37.229  1.00  0.00    -0.237 OA
ATOM     72  O   UNL A   1      42.032  31.565  38.395  1.00  0.00    -0.744 OA
ENDBRANCH  66  69
ENDBRANCH  48  62
BRANCH  49  73
ATOM     73  C   UNL A   1      42.724  24.109  27.153  1.00  0.00     0.023 A 
ATOM     74  C   UNL A   1      43.448  24.324  25.964  1.00  0.00     0.012 A 
ATOM     75  C   UNL A   1      42.077  22.874  27.348  1.00  0.00     0.148 A 
ATOM     76  C   UNL A   1      43.503  23.340  24.976  1.00  0.00     0.002 A 
ATOM     77  C   UNL A   1      42.179  21.877  26.383  1.00  0.00     0.091 A 
ATOM     78  F   UNL A   1      41.383  22.692  28.480  1.00  0.00    -0.205 F 
ATOM     79  C   UNL A   1      42.878  22.115  25.190  1.00  0.00     0.022 A 
BRANCH  77  80
ATOM     80  S   UNL A   1      41.520  20.225  26.632  1.00  0.00     0.127 S 
ATOM     81  O   UNL A   1      42.194  19.816  27.861  1.00  0.00    -0.237 OA
ATOM     82  O   UNL A   1      40.087  20.487  26.773  1.00  0.00    -0.237 OA
ATOM     83  O   UNL A   1      41.877  19.476  25.434  1.00  0.00    -0.744 OA
ENDBRANCH  77  80
ENDBRANCH  49  73
BRANCH  61  84
ATOM     84  C   UNL A   1      47.026  25.888  32.363  1.00  0.00     0.023 A 
ATOM     85  C   UNL A   1      48.248  26.345  31.832  1.00  0.00     0.012 A 
ATOM     86  C   UNL A   1      47.036  24.948  33.413  1.00  0.00     0.148 A 
ATOM     87  C   UNL A   1      49.460  25.854  32.316  1.00  0.00     0.002 A 
ATOM     88  C   UNL A   1      48.249  24.499  33.923  1.00  0.00     0.091 A 
ATOM     89  F   UNL A   1      45.863  24.510  33.893  1.00  0.00    -0.205 F 
ATOM     90  C   UNL A   1      49.460  24.941  33.369  1.00  0.00     0.022 A 
BRANCH  88  91
ATOM     91  S   UNL A   1      48.347  23.399  35.340  1.00  0.00     0.127 S 
ATOM     92  O   UNL A   1      49.785  23.154  35.429  1.00  0.00    -0.237 OA
ATOM     93  O   UNL A   1      47.802  24.228  36.416  1.00  0.00    -0.237 OA
ATOM     94  O   UNL A   1      47.534  22.238  35.004  1.00  0.00    -0.744 OA
ENDBRANCH  88  91
ENDBRANCH  61  84
ENDBRANCH  35  36
ENDBRANCH  27  30
ENDBRANCH  25  26
ENDBRANCH   1  25
TORSDOF 17
ENDMDL
MODEL 2
REMARK VINA RESULT:     -12.1      1.974      7.930
REMARK SMILES CCc1cc(/C=C/C(=O)NCCCNC(=O)c2ccc(-c3c4nc(c(-c5cccc(S(=O)(=O)[O-])c5F)c5ccc([nH]5)c(-c5cccc(S(=O)(=O)[O-])c5F)c5nc(c(-c6cccc(S(=O)(=O)[O-])c6F)c6ccc3[nH]6)C=C5)C=C4)cc2)cc(C(=O)c2ccccc2)c1
REMARK SMILES IDX 12 1 11 2 10 3 8 4 9 5 7 7 6 8 5 9 3 10 4 11 90 12 81 13
REMARK SMILES IDX 80 14 2 15 1 16 82 17 83 18 84 19 85 20 89 21 86 22 88 23
REMARK SMILES IDX 87 24 13 25 14 26 15 27 16 29 17 30 18 31 79 32 19 33 78 34
REMARK SMILES IDX 20 35 21 36 22 37 72 38 23 39 77 40 71 41 73 42 24 43 76 44
REMARK SMILES IDX 70 45 69 46 25 48 57 49 37 50 56 51 38 52 41 53 55 54 74 55
REMARK SMILES IDX 39 56 40 57 54 59 75 60 42 61 26 62 27 63 35 64 28 65 30 66
REMARK SMILES IDX 36 67 29 68 31 69 32 70 33 71 34 72 58 73 59 74 67 75 60 76
REMARK SMILES IDX 62 77 68 78 61 79 63 80 64 81 65 82 66 83 43 84 44 85 52 86
REMARK SMILES IDX 45 87 47 88 53 89 46 90 48 91 49 92 50 93 51 94
REMARK H PARENT 10 6 14 28 73 47 41 58
REMARK Flexibility Score: inf
ROOT
ATOM      1  C   UNL A   1      32.676  28.771  24.070  1.00  0.00     0.042 C 
ENDROOT
BRANCH   1   2
ATOM      2  C   UNL A   1      33.730  28.292  23.076  1.00  0.00     0.118 C 
BRANCH   2   3
ATOM      3  N   UNL A   1      33.127  27.645  21.924  1.00  0.00    -0.352 N 
ATOM      4  C   UNL A   1      33.000  26.328  21.617  1.00  0.00     0.244 C 
ATOM      5  O   UNL A   1      32.324  25.993  20.647  1.00  0.00    -0.270 OA
ATOM      6  H   UNL A   1      32.749  28.262  21.257  1.00  0.00     0.163 HD
BRANCH   4   7
ATOM      7  C   UNL A   1      33.588  25.277  22.475  1.00  0.00     0.072 C 
ATOM      8  C   UNL A   1      33.639  23.972  22.167  1.00  0.00     0.014 C 
BRANCH   8   9
ATOM      9  C   UNL A   1      34.137  22.927  23.071  1.00  0.00    -0.024 A 
ATOM     10  C   UNL A   1      35.891  22.024  24.509  1.00  0.00    -0.047 A 
ATOM     11  C   UNL A   1      35.451  22.947  23.551  1.00  0.00     0.011 A 
ATOM     12  C   UNL A   1      35.004  21.037  24.956  1.00  0.00     0.016 A 
ATOM     13  C   UNL A   1      33.681  21.008  24.493  1.00  0.00     0.023 A 
ATOM     14  C   UNL A   1      33.254  21.953  23.551  1.00  0.00     0.020 A 
BRANCH  10  15
ATOM     15  C   UNL A   1      37.296  22.100  25.057  1.00  0.00     0.032 C 
ATOM     16  C   UNL A   1      38.020  20.758  25.001  1.00  0.00     0.009 C 
ENDBRANCH  10  15
BRANCH  13  17
ATOM     17  C   UNL A   1      32.715  19.967  24.939  1.00  0.00     0.193 C 
ATOM     18  O   UNL A   1      31.618  20.305  25.377  1.00  0.00    -0.289 OA
BRANCH  17  19
ATOM     19  C   UNL A   1      33.021  18.521  24.808  1.00  0.00     0.022 A 
ATOM     20  C   UNL A   1      32.652  17.668  25.854  1.00  0.00     0.012 A 
ATOM     21  C   UNL A   1      33.664  18.006  23.677  1.00  0.00     0.012 A 
ATOM     22  C   UNL A   1      32.880  16.295  25.747  1.00  0.00     0.001 A 
ATOM     23  C   UNL A   1      33.891  16.632  23.574  1.00  0.00     0.001 A 
ATOM     24  C   UNL A   1      33.490  15.778  24.604  1.00  0.00     0.000 A 
ENDBRANCH  17  19
ENDBRANCH  13  17
ENDBRANCH   8   9
ENDBRANCH   4   7
ENDBRANCH   2   3
ENDBRANCH   1   2
BRANCH   1  25
ATOM     25  C   UNL A   1      33.250  29.160  25.429  1.00  0.00     0.118 C 
BRANCH  25  26
ATOM     26  N   UNL A   1      32.783  30.470  25.863  1.00  0.00    -0.352 N 
ATOM     27  C   UNL A   1      33.196  31.250  26.912  1.00  0.00     0.251 C 
ATOM     28  H   UNL A   1      32.057  30.854  25.318  1.00  0.00     0.163 HD
ATOM     29  O   UNL A   1      32.512  32.212  27.251  1.00  0.00    -0.269 OA
BRANCH  27  30
ATOM     30  C   UNL A   1      34.454  30.946  27.628  1.00  0.00     0.039 A 
ATOM     31  C   UNL A   1      35.436  31.937  27.716  1.00  0.00     0.014 A 
ATOM     32  C   UNL A   1      34.690  29.677  28.163  1.00  0.00     0.014 A 
ATOM     33  C   UNL A   1      36.638  31.667  28.377  1.00  0.00     0.010 A 
ATOM     34  C   UNL A   1      35.856  29.433  28.883  1.00  0.00     0.010 A 
ATOM     35  C   UNL A   1      36.848  30.420  28.984  1.00  0.00    -0.014 A 
BRANCH  35  36
ATOM     36  C   UNL A   1      38.096  30.126  29.734  1.00  0.00     0.031 A 
ATOM     37  C   UNL A   1      39.115  29.175  29.166  1.00  0.00     0.074 A 
ATOM     38  C   UNL A   1      38.263  30.641  30.967  1.00  0.00     0.049 A 
ATOM     39  N   UNL A   1      40.228  28.743  29.700  1.00  0.00    -0.248 NA
ATOM     40  C   UNL A   1      38.835  28.613  27.834  1.00  0.00     0.031 C 
ATOM     41  C   UNL A   1      37.304  31.505  31.659  1.00  0.00     0.029 A 
ATOM     42  N   UNL A   1      39.283  30.486  31.872  1.00  0.00    -0.354 N 
ATOM     43  C   UNL A   1      40.757  27.831  28.796  1.00  0.00     0.074 A 
ATOM     44  C   UNL A   1      39.828  27.748  27.689  1.00  0.00     0.031 C 
ATOM     45  C   UNL A   1      37.778  31.800  32.879  1.00  0.00     0.029 A 
ATOM     46  C   UNL A   1      39.060  31.127  33.068  1.00  0.00     0.049 A 
ATOM     47  H   UNL A   1      40.098  29.966  31.682  1.00  0.00     0.167 HD
ATOM     48  C   UNL A   1      41.923  27.145  28.865  1.00  0.00     0.034 A 
ATOM     49  C   UNL A   1      39.799  31.161  34.193  1.00  0.00     0.034 A 
ATOM     50  C   UNL A   1      42.865  27.272  29.943  1.00  0.00     0.049 A 
ATOM     51  C   UNL A   1      41.119  30.441  34.220  1.00  0.00     0.074 A 
ATOM     52  C   UNL A   1      44.120  26.702  30.062  1.00  0.00     0.029 A 
ATOM     53  N   UNL A   1      42.654  28.016  31.095  1.00  0.00    -0.354 N 
ATOM     54  N   UNL A   1      41.683  29.716  33.283  1.00  0.00    -0.248 NA
ATOM     55  C   UNL A   1      41.925  30.574  35.443  1.00  0.00     0.031 C 
ATOM     56  C   UNL A   1      44.660  27.086  31.295  1.00  0.00     0.029 A 
ATOM     57  C   UNL A   1      43.750  27.914  31.933  1.00  0.00     0.049 A 
ATOM     58  H   UNL A   1      41.844  28.541  31.287  1.00  0.00     0.167 HD
ATOM     59  C   UNL A   1      42.920  29.335  33.788  1.00  0.00     0.074 A 
ATOM     60  C   UNL A   1      43.034  29.928  35.105  1.00  0.00     0.031 C 
ATOM     61  C   UNL A   1      43.871  28.552  33.219  1.00  0.00     0.034 A 
BRANCH  48  62
ATOM     62  C   UNL A   1      42.273  26.238  27.714  1.00  0.00     0.023 A 
ATOM     63  C   UNL A   1      43.032  26.742  26.637  1.00  0.00     0.012 A 
ATOM     64  C   UNL A   1      41.902  24.879  27.718  1.00  0.00     0.148 A 
ATOM     65  C   UNL A   1      43.384  25.920  25.568  1.00  0.00     0.002 A 
ATOM     66  C   UNL A   1      42.295  24.054  26.670  1.00  0.00     0.091 A 
ATOM     67  F   UNL A   1      41.162  24.421  28.739  1.00  0.00    -0.205 F 
ATOM     68  C   UNL A   1      43.024  24.576  25.588  1.00  0.00     0.022 A 
BRANCH  66  69
ATOM     69  S   UNL A   1      41.950  22.291  26.641  1.00  0.00     0.127 S 
ATOM     70  O   UNL A   1      42.547  21.894  25.368  1.00  0.00    -0.237 OA
ATOM     71  O   UNL A   1      42.667  21.817  27.826  1.00  0.00    -0.237 OA
ATOM     72  O   UNL A   1      40.501  22.166  26.720  1.00  0.00    -0.744 OA
ENDBRANCH  66  69
ENDBRANCH  48  62
BRANCH  49  73
ATOM     73  C   UNL A   1      39.335  31.964  35.359  1.00  0.00     0.023 A 
ATOM     74  C   UNL A   1      38.510  31.360  36.329  1.00  0.00     0.012 A 
ATOM     75  C   UNL A   1      39.737  33.301  35.537  1.00  0.00     0.148 A 
ATOM     76  C   UNL A   1      38.071  32.083  37.439  1.00  0.00     0.002 A 
ATOM     77  C   UNL A   1      39.340  34.000  36.672  1.00  0.00     0.091 A 
ATOM     78  F   UNL A   1      40.512  33.861  34.597  1.00  0.00    -0.205 F 
ATOM     79  C   UNL A   1      38.494  33.397  37.616  1.00  0.00     0.022 A 
BRANCH  77  80
ATOM     80  S   UNL A   1      39.944  35.649  37.047  1.00  0.00     0.127 S 
ATOM     81  O   UNL A   1      39.173  35.986  38.240  1.00  0.00    -0.237 OA
ATOM     82  O   UNL A   1      41.368  35.407  37.281  1.00  0.00    -0.237 OA
ATOM     83  O   UNL A   1      39.661  36.449  35.862  1.00  0.00    -0.744 OA
ENDBRANCH  77  80
ENDBRANCH  49  73
BRANCH  61  84
ATOM     84  C   UNL A   1      45.134  28.309  34.002  1.00  0.00     0.023 A 
ATOM     85  C   UNL A   1      46.218  29.201  33.876  1.00  0.00     0.012 A 
ATOM     86  C   UNL A   1      45.216  27.243  34.919  1.00  0.00     0.148 A 
ATOM     87  C   UNL A   1      47.377  29.016  34.630  1.00  0.00     0.002 A 
ATOM     88  C   UNL A   1      46.356  27.094  35.701  1.00  0.00     0.091 A 
ATOM     89  F   UNL A   1      44.182  26.394  35.010  1.00  0.00    -0.205 F 
ATOM     90  C   UNL A   1      47.441  27.972  35.549  1.00  0.00     0.022 A 
BRANCH  88  91
ATOM     91  S   UNL A   1      46.487  25.838  36.978  1.00  0.00     0.127 S 
ATOM     92  O   UNL A   1      47.775  26.166  37.587  1.00  0.00    -0.237 OA
ATOM     93  O   UNL A   1      45.325  26.125  37.818  1.00  0.00    -0.237 OA
ATOM     94  O   UNL A   1      46.430  24.556  36.288  1.00  0.00    -0.744 OA
ENDBRANCH  88  91
ENDBRANCH  61  84
ENDBRANCH  35  36
ENDBRANCH  27  30
ENDBRANCH  25  26
ENDBRANCH   1  25
TORSDOF 17
ENDMDL
MODEL 3
REMARK VINA RESULT:     -12.1      2.100      2.847
REMARK SMILES CCc1cc(/C=C/C(=O)NCCCNC(=O)c2ccc(-c3c4nc(c(-c5cccc(S(=O)(=O)[O-])c5F)c5ccc([nH]5)c(-c5cccc(S(=O)(=O)[O-])c5F)c5nc(c(-c6cccc(S(=O)(=O)[O-])c6F)c6ccc3[nH]6)C=C5)C=C4)cc2)cc(C(=O)c2ccccc2)c1
REMARK SMILES IDX 12 1 11 2 10 3 8 4 9 5 7 7 6 8 5 9 3 10 4 11 90 12 81 13
REMARK SMILES IDX 80 14 2 15 1 16 82 17 83 18 84 19 85 20 89 21 86 22 88 23
REMARK SMILES IDX 87 24 13 25 14 26 15 27 16 29 17 30 18 31 79 32 19 33 78 34
REMARK SMILES IDX 20 35 21 36 22 37 72 38 23 39 77 40 71 41 73 42 24 43 76 44
REMARK SMILES IDX 70 45 69 46 25 48 57 49 37 50 56 51 38 52 41 53 55 54 74 55
REMARK SMILES IDX 39 56 40 57 54 59 75 60 42 61 26 62 27 63 35 64 28 65 30 66
REMARK SMILES IDX 36 67 29 68 31 69 32 70 33 71 34 72 58 73 59 74 67 75 60 76
REMARK SMILES IDX 62 77 68 78 61 79 63 80 64 81 65 82 66 83 43 84 44 85 52 86
REMARK SMILES IDX 45 87 47 88 53 89 46 90 48 91 49 92 50 93 51 94
REMARK H PARENT 10 6 14 28 73 47 41 58
REMARK Flexibility Score: inf
ROOT
ATOM      1  C   UNL A   1      31.643  28.907  25.702  1.00  0.00     0.042 C 
ENDROOT
BRANCH   1   2
ATOM      2  C   UNL A   1      31.611  27.796  24.657  1.00  0.00     0.118 C 
BRANCH   2   3
ATOM      3  N   UNL A   1      32.393  28.141  23.482  1.00  0.00    -0.352 N 
ATOM      4  C   UNL A   1      33.440  27.501  22.899  1.00  0.00     0.244 C 
ATOM      5  O   UNL A   1      33.869  27.899  21.818  1.00  0.00    -0.270 OA
ATOM      6  H   UNL A   1      32.119  28.974  23.035  1.00  0.00     0.163 HD
BRANCH   4   7
ATOM      7  C   UNL A   1      34.025  26.280  23.494  1.00  0.00     0.072 C 
ATOM      8  C   UNL A   1      33.671  25.025  23.178  1.00  0.00     0.014 C 
BRANCH   8   9
ATOM      9  C   UNL A   1      34.190  23.825  23.847  1.00  0.00    -0.024 A 
ATOM     10  C   UNL A   1      35.910  22.713  25.176  1.00  0.00    -0.047 A 
ATOM     11  C   UNL A   1      35.461  23.812  24.431  1.00  0.00     0.011 A 
ATOM     12  C   UNL A   1      35.079  21.592  25.296  1.00  0.00     0.016 A 
ATOM     13  C   UNL A   1      33.798  21.592  24.726  1.00  0.00     0.023 A 
ATOM     14  C   UNL A   1      33.360  22.709  24.003  1.00  0.00     0.020 A 
BRANCH  10  15
ATOM     15  C   UNL A   1      37.262  22.743  25.847  1.00  0.00     0.032 C 
ATOM     16  C   UNL A   1      37.763  24.163  26.092  1.00  0.00     0.009 C 
ENDBRANCH  10  15
BRANCH  13  17
ATOM     17  C   UNL A   1      32.893  20.414  24.826  1.00  0.00     0.193 C 
ATOM     18  O   UNL A   1      31.779  20.546  25.325  1.00  0.00    -0.289 OA
BRANCH  17  19
ATOM     19  C   UNL A   1      33.282  19.092  24.276  1.00  0.00     0.022 A 
ATOM     20  C   UNL A   1      32.539  18.573  23.210  1.00  0.00     0.012 A 
ATOM     21  C   UNL A   1      34.357  18.366  24.801  1.00  0.00     0.012 A 
ATOM     22  C   UNL A   1      32.904  17.355  22.636  1.00  0.00     0.001 A 
ATOM     23  C   UNL A   1      34.717  17.147  24.224  1.00  0.00     0.001 A 
ATOM     24  C   UNL A   1      33.997  16.647  23.136  1.00  0.00     0.000 A 
ENDBRANCH  17  19
ENDBRANCH  13  17
ENDBRANCH   8   9
ENDBRANCH   4   7
ENDBRANCH   2   3
ENDBRANCH   1   2
BRANCH   1  25
ATOM     25  C   UNL A   1      32.907  29.759  25.650  1.00  0.00     0.118 C 
BRANCH  25  26
ATOM     26  N   UNL A   1      32.659  31.130  26.075  1.00  0.00    -0.352 N 
ATOM     27  C   UNL A   1      33.196  31.840  27.118  1.00  0.00     0.251 C 
ATOM     28  H   UNL A   1      32.003  31.623  25.530  1.00  0.00     0.163 HD
ATOM     29  O   UNL A   1      32.677  32.902  27.452  1.00  0.00    -0.269 OA
BRANCH  27  30
ATOM     30  C   UNL A   1      34.390  31.342  27.834  1.00  0.00     0.039 A 
ATOM     31  C   UNL A   1      35.483  32.198  28.001  1.00  0.00     0.014 A 
ATOM     32  C   UNL A   1      34.458  30.023  28.291  1.00  0.00     0.014 A 
ATOM     33  C   UNL A   1      36.626  31.743  28.663  1.00  0.00     0.010 A 
ATOM     34  C   UNL A   1      35.569  29.594  29.013  1.00  0.00     0.010 A 
ATOM     35  C   UNL A   1      36.669  30.445  29.193  1.00  0.00    -0.014 A 
BRANCH  35  36
ATOM     36  C   UNL A   1      37.854  29.955  29.943  1.00  0.00     0.031 A 
ATOM     37  C   UNL A   1      38.130  30.454  31.336  1.00  0.00     0.074 A 
ATOM     38  C   UNL A   1      38.731  29.136  29.332  1.00  0.00     0.049 A 
ATOM     39  N   UNL A   1      39.144  30.197  32.119  1.00  0.00    -0.248 NA
ATOM     40  C   UNL A   1      37.150  31.389  31.916  1.00  0.00     0.031 C 
ATOM     41  C   UNL A   1      38.617  28.653  27.954  1.00  0.00     0.029 A 
ATOM     42  N   UNL A   1      39.909  28.590  29.778  1.00  0.00    -0.354 N 
ATOM     43  C   UNL A   1      38.951  30.965  33.260  1.00  0.00     0.074 A 
ATOM     44  C   UNL A   1      37.736  31.724  33.057  1.00  0.00     0.031 C 
ATOM     45  C   UNL A   1      39.681  27.888  27.666  1.00  0.00     0.029 A 
ATOM     46  C   UNL A   1      40.566  27.847  28.826  1.00  0.00     0.049 A 
ATOM     47  H   UNL A   1      40.250  28.719  30.693  1.00  0.00     0.167 HD
ATOM     48  C   UNL A   1      39.701  31.016  34.387  1.00  0.00     0.034 A 
ATOM     49  C   UNL A   1      41.752  27.211  28.878  1.00  0.00     0.034 A 
ATOM     50  C   UNL A   1      40.880  30.221  34.603  1.00  0.00     0.049 A 
ATOM     51  C   UNL A   1      42.535  27.233  30.163  1.00  0.00     0.074 A 
ATOM     52  C   UNL A   1      41.653  30.120  35.745  1.00  0.00     0.029 A 
ATOM     53  N   UNL A   1      41.461  29.394  33.652  1.00  0.00    -0.354 N 
ATOM     54  N   UNL A   1      42.247  27.832  31.294  1.00  0.00    -0.248 NA
ATOM     55  C   UNL A   1      43.784  26.458  30.194  1.00  0.00     0.031 C 
ATOM     56  C   UNL A   1      42.714  29.247  35.479  1.00  0.00     0.029 A 
ATOM     57  C   UNL A   1      42.587  28.786  34.178  1.00  0.00     0.049 A 
ATOM     58  H   UNL A   1      41.121  29.259  32.739  1.00  0.00     0.167 HD
ATOM     59  C   UNL A   1      43.259  27.482  32.179  1.00  0.00     0.074 A 
ATOM     60  C   UNL A   1      44.156  26.600  31.460  1.00  0.00     0.031 C 
ATOM     61  C   UNL A   1      43.440  27.869  33.467  1.00  0.00     0.034 A 
BRANCH  48  62
ATOM     62  C   UNL A   1      39.237  31.920  35.499  1.00  0.00     0.023 A 
ATOM     63  C   UNL A   1      38.325  31.432  36.458  1.00  0.00     0.012 A 
ATOM     64  C   UNL A   1      39.738  33.231  35.630  1.00  0.00     0.148 A 
ATOM     65  C   UNL A   1      37.893  32.243  37.507  1.00  0.00     0.002 A 
ATOM     66  C   UNL A   1      39.337  34.018  36.704  1.00  0.00     0.091 A 
ATOM     67  F   UNL A   1      40.588  33.687  34.698  1.00  0.00    -0.205 F 
ATOM     68  C   UNL A   1      38.405  33.530  37.635  1.00  0.00     0.022 A 
BRANCH  66  69
ATOM     69  S   UNL A   1      39.999  35.661  37.003  1.00  0.00     0.127 S 
ATOM     70  O   UNL A   1      39.313  36.035  38.238  1.00  0.00    -0.237 OA
ATOM     71  O   UNL A   1      41.430  35.394  37.156  1.00  0.00    -0.237 OA
ATOM     72  O   UNL A   1      39.653  36.451  35.829  1.00  0.00    -0.744 OA
ENDBRANCH  66  69
ENDBRANCH  48  62
BRANCH  49  73
ATOM     73  C   UNL A   1      42.234  26.444  27.696  1.00  0.00     0.023 A 
ATOM     74  C   UNL A   1      43.024  27.092  26.727  1.00  0.00     0.012 A 
ATOM     75  C   UNL A   1      41.952  25.073  27.546  1.00  0.00     0.148 A 
ATOM     76  C   UNL A   1      43.500  26.396  25.615  1.00  0.00     0.002 A 
ATOM     77  C   UNL A   1      42.474  24.372  26.464  1.00  0.00     0.091 A 
ATOM     78  F   UNL A   1      41.189  24.477  28.473  1.00  0.00    -0.205 F 
ATOM     79  C   UNL A   1      43.235  25.035  25.489  1.00  0.00     0.022 A 
BRANCH  77  80
ATOM     80  S   UNL A   1      42.294  22.593  26.293  1.00  0.00     0.127 S 
ATOM     81  O   UNL A   1      40.842  22.442  26.248  1.00  0.00    -0.237 OA
ATOM     82  O   UNL A   1      42.980  22.337  25.027  1.00  0.00    -0.237 OA
ATOM     83  O   UNL A   1      42.955  22.018  27.459  1.00  0.00    -0.744 OA
ENDBRANCH  77  80
ENDBRANCH  49  73
BRANCH  61  84
ATOM     84  C   UNL A   1      44.636  27.321  34.198  1.00  0.00     0.023 A 
ATOM     85  C   UNL A   1      45.840  28.053  34.221  1.00  0.00     0.012 A 
ATOM     86  C   UNL A   1      44.544  26.118  34.927  1.00  0.00     0.148 A 
ATOM     87  C   UNL A   1      46.942  27.582  34.933  1.00  0.00     0.002 A 
ATOM     88  C   UNL A   1      45.632  25.680  35.673  1.00  0.00     0.091 A 
ATOM     89  F   UNL A   1      43.397  25.425  34.877  1.00  0.00    -0.205 F 
ATOM     90  C   UNL A   1      46.834  26.404  35.668  1.00  0.00     0.022 A 
BRANCH  88  91
ATOM     91  S   UNL A   1      45.552  24.227  36.726  1.00  0.00     0.127 S 
ATOM     92  O   UNL A   1      46.968  23.924  36.924  1.00  0.00    -0.237 OA
ATOM     93  O   UNL A   1      44.867  24.739  37.913  1.00  0.00    -0.237 OA
ATOM     94  O   UNL A   1      44.797  23.230  35.978  1.00  0.00    -0.744 OA
ENDBRANCH  88  91
ENDBRANCH  61  84
ENDBRANCH  35  36
ENDBRANCH  27  30
ENDBRANCH  25  26
ENDBRANCH   1  25
TORSDOF 17
ENDMDL
