MODEL 1
REMARK VINA RESULT:     -12.6      0.000      0.000
REMARK SMILES O=C(NCCCNC(=O)c1c(F)cccc1N1CC[C@@H]([NH+]2CCCCC2)C1)c1ccc(-c2c3nc(c(-c4cccc(S(=O)(=O)[O-])c4F)c4ccc([nH]4)c(-c4cccc(S(=O)(=O)[O-])c4F)c4nc(c(-c5cccc(S(=O)(=O)[O-])c5F)c5ccc2[nH]5)C=C4)C=C3)cc1
REMARK SMILES IDX 4 1 3 2 1 3 2 4 28 6 29 7 90 8 30 9 89 10 31 11 32 12 33 13
REMARK SMILES IDX 83 14 34 15 88 16 82 17 84 18 35 19 87 20 81 21 80 22 36 24
REMARK SMILES IDX 68 25 48 26 67 27 49 28 52 29 66 30 85 31 50 32 51 33 65 35
REMARK SMILES IDX 86 36 53 37 37 38 38 39 46 40 39 41 41 42 47 43 40 44 42 45
REMARK SMILES IDX 43 46 44 47 45 48 69 49 70 50 78 51 71 52 73 53 79 54 72 55
REMARK SMILES IDX 74 56 75 57 76 58 77 59 54 60 55 61 63 62 56 63 58 64 64 65
REMARK SMILES IDX 57 66 59 67 60 68 61 69 62 70 5 71 6 72 7 73 8 74 9 76 10 77
REMARK SMILES IDX 11 78 16 79 12 80 13 81 15 82 14 83 17 84 18 85 27 86 19 87
REMARK SMILES IDX 20 88 21 89 22 90 26 91 23 93 25 94 24 95
REMARK H PARENT 3 5 84 23 52 34 7 75 21 92
REMARK Flexibility Score: inf
ROOT
ATOM      1  C   UNL A   1      32.586  32.343  27.224  1.00  0.00     0.118 C 
ENDROOT
BRANCH   1   2
ATOM      2  N   UNL A   1      32.483  33.745  27.601  1.00  0.00    -0.352 N 
ATOM      3  O   UNL A   1      32.784  35.616  28.803  1.00  0.00    -0.269 OA
ATOM      4  C   UNL A   1      33.167  34.474  28.540  1.00  0.00     0.251 C 
ATOM      5  H   UNL A   1      31.809  34.256  27.096  1.00  0.00     0.163 HD
BRANCH   4   6
ATOM      6  C   UNL A   1      34.332  33.905  29.257  1.00  0.00     0.039 A 
ATOM      7  C   UNL A   1      34.173  32.942  30.257  1.00  0.00     0.014 A 
ATOM      8  C   UNL A   1      35.617  34.307  28.881  1.00  0.00     0.014 A 
ATOM      9  C   UNL A   1      35.281  32.488  30.973  1.00  0.00     0.010 A 
ATOM     10  C   UNL A   1      36.734  33.788  29.544  1.00  0.00     0.010 A 
ATOM     11  C   UNL A   1      36.576  32.893  30.614  1.00  0.00    -0.014 A 
BRANCH  11  12
ATOM     12  C   UNL A   1      37.762  32.321  31.303  1.00  0.00     0.031 A 
ATOM     13  C   UNL A   1      38.535  31.179  30.697  1.00  0.00     0.074 A 
ATOM     14  C   UNL A   1      38.125  32.820  32.503  1.00  0.00     0.049 A 
ATOM     15  N   UNL A   1      39.535  30.503  31.203  1.00  0.00    -0.248 NA
ATOM     16  C   UNL A   1      38.136  30.735  29.351  1.00  0.00     0.031 C 
ATOM     17  C   UNL A   1      37.452  33.920  33.197  1.00  0.00     0.029 A 
ATOM     18  N   UNL A   1      39.135  32.459  33.358  1.00  0.00    -0.354 N 
ATOM     19  C   UNL A   1      39.867  29.540  30.257  1.00  0.00     0.074 A 
ATOM     20  C   UNL A   1      38.956  29.712  29.145  1.00  0.00     0.031 C 
ATOM     21  C   UNL A   1      38.069  34.149  34.365  1.00  0.00     0.029 A 
ATOM     22  C   UNL A   1      39.140  33.174  34.534  1.00  0.00     0.049 A 
ATOM     23  H   UNL A   1      39.793  31.756  33.152  1.00  0.00     0.167 HD
ATOM     24  C   UNL A   1      40.851  28.611  30.306  1.00  0.00     0.034 A 
ATOM     25  C   UNL A   1      39.898  33.043  35.639  1.00  0.00     0.034 A 
ATOM     26  C   UNL A   1      41.770  28.460  31.406  1.00  0.00     0.049 A 
ATOM     27  C   UNL A   1      40.957  31.975  35.673  1.00  0.00     0.074 A 
ATOM     28  C   UNL A   1      42.813  27.557  31.532  1.00  0.00     0.029 A 
ATOM     29  N   UNL A   1      41.762  29.223  32.563  1.00  0.00    -0.354 N 
ATOM     30  N   UNL A   1      41.307  31.130  34.735  1.00  0.00    -0.248 NA
ATOM     31  C   UNL A   1      41.745  31.862  36.908  1.00  0.00     0.031 C 
ATOM     32  C   UNL A   1      43.421  27.760  32.775  1.00  0.00     0.029 A 
ATOM     33  C   UNL A   1      42.779  28.812  33.408  1.00  0.00     0.049 A 
ATOM     34  H   UNL A   1      41.126  29.950  32.755  1.00  0.00     0.167 HD
ATOM     35  C   UNL A   1      42.378  30.410  35.254  1.00  0.00     0.074 A 
ATOM     36  C   UNL A   1      42.638  30.943  36.575  1.00  0.00     0.031 C 
ATOM     37  C   UNL A   1      43.069  29.386  34.696  1.00  0.00     0.034 A 
BRANCH  24  38
ATOM     38  C   UNL A   1      41.041  27.699  29.122  1.00  0.00     0.023 A 
ATOM     39  C   UNL A   1      40.251  26.537  29.015  1.00  0.00     0.012 A 
ATOM     40  C   UNL A   1      41.880  28.067  28.050  1.00  0.00     0.148 A 
ATOM     41  C   UNL A   1      40.296  25.752  27.862  1.00  0.00     0.002 A 
ATOM     42  C   UNL A   1      41.886  27.304  26.888  1.00  0.00     0.091 A 
ATOM     43  F   UNL A   1      42.629  29.170  28.178  1.00  0.00    -0.205 F 
ATOM     44  C   UNL A   1      41.100  26.144  26.795  1.00  0.00     0.022 A 
BRANCH  42  45
ATOM     45  S   UNL A   1      42.818  27.764  25.422  1.00  0.00     0.127 S 
ATOM     46  O   UNL A   1      42.697  26.557  24.605  1.00  0.00    -0.237 OA
ATOM     47  O   UNL A   1      42.061  28.913  24.927  1.00  0.00    -0.237 OA
ATOM     48  O   UNL A   1      44.168  28.066  25.878  1.00  0.00    -0.744 OA
ENDBRANCH  42  45
ENDBRANCH  24  38
BRANCH  25  49
ATOM     49  C   UNL A   1      39.708  33.963  36.798  1.00  0.00     0.023 A 
ATOM     50  C   UNL A   1      40.085  35.314  36.673  1.00  0.00     0.012 A 
ATOM     51  C   UNL A   1      39.155  33.515  38.013  1.00  0.00     0.148 A 
ATOM     52  C   UNL A   1      39.954  36.193  37.749  1.00  0.00     0.002 A 
ATOM     53  C   UNL A   1      38.966  34.410  39.060  1.00  0.00     0.091 A 
ATOM     54  F   UNL A   1      38.815  32.223  38.121  1.00  0.00    -0.205 F 
ATOM     55  C   UNL A   1      39.385  35.744  38.938  1.00  0.00     0.022 A 
BRANCH  53  56
ATOM     56  S   UNL A   1      38.114  33.955  40.574  1.00  0.00     0.127 S 
ATOM     57  O   UNL A   1      37.921  35.256  41.210  1.00  0.00    -0.237 OA
ATOM     58  O   UNL A   1      36.894  33.333  40.059  1.00  0.00    -0.237 OA
ATOM     59  O   UNL A   1      39.009  33.037  41.265  1.00  0.00    -0.744 OA
ENDBRANCH  53  56
ENDBRANCH  25  49
BRANCH  37  60
ATOM     60  C   UNL A   1      44.205  28.796  35.490  1.00  0.00     0.023 A 
ATOM     61  C   UNL A   1      45.500  29.341  35.377  1.00  0.00     0.012 A 
ATOM     62  C   UNL A   1      43.978  27.740  36.396  1.00  0.00     0.148 A 
ATOM     63  C   UNL A   1      46.558  28.817  36.118  1.00  0.00     0.002 A 
ATOM     64  C   UNL A   1      45.025  27.261  37.174  1.00  0.00     0.091 A 
ATOM     65  F   UNL A   1      42.744  27.221  36.479  1.00  0.00    -0.205 F 
ATOM     66  C   UNL A   1      46.319  27.786  37.025  1.00  0.00     0.022 A 
BRANCH  64  67
ATOM     67  S   UNL A   1      44.790  26.011  38.443  1.00  0.00     0.127 S 
ATOM     68  O   UNL A   1      43.800  26.648  39.309  1.00  0.00    -0.237 OA
ATOM     69  O   UNL A   1      44.285  24.875  37.670  1.00  0.00    -0.237 OA
ATOM     70  O   UNL A   1      46.100  25.799  39.043  1.00  0.00    -0.744 OA
ENDBRANCH  64  67
ENDBRANCH  37  60
ENDBRANCH  11  12
ENDBRANCH   4   6
ENDBRANCH   1   2
BRANCH   1  71
ATOM     71  C   UNL A   1      31.400  31.855  26.402  1.00  0.00     0.042 C 
BRANCH  71  72
ATOM     72  C   UNL A   1      31.421  30.373  26.051  1.00  0.00     0.118 C 
BRANCH  72  73
ATOM     73  N   UNL A   1      32.219  30.065  24.874  1.00  0.00    -0.352 N 
ATOM     74  C   UNL A   1      31.945  29.216  23.825  1.00  0.00     0.256 C 
ATOM     75  H   UNL A   1      33.083  30.534  24.819  1.00  0.00     0.163 HD
ATOM     76  O   UNL A   1      32.737  29.148  22.887  1.00  0.00    -0.269 OA
BRANCH  74  77
ATOM     77  C   UNL A   1      30.734  28.369  23.842  1.00  0.00     0.098 A 
ATOM     78  C   UNL A   1      29.543  28.934  23.369  1.00  0.00     0.138 A 
ATOM     79  C   UNL A   1      30.784  27.007  24.221  1.00  0.00     0.053 A 
ATOM     80  F   UNL A   1      29.501  30.215  22.970  1.00  0.00    -0.206 F 
ATOM     81  C   UNL A   1      28.369  28.196  23.323  1.00  0.00     0.040 A 
ATOM     82  C   UNL A   1      29.592  26.268  24.108  1.00  0.00     0.027 A 
ATOM     83  C   UNL A   1      28.393  26.857  23.691  1.00  0.00     0.005 A 
BRANCH  79  84
ATOM     84  N   UNL A   1      31.897  26.387  24.737  1.00  0.00    -0.365 N 
ATOM     85  C   UNL A   1      32.245  26.426  26.140  1.00  0.00     0.123 C 
ATOM     86  C   UNL A   1      32.925  25.716  23.938  1.00  0.00     0.181 C 
ATOM     87  C   UNL A   1      33.759  26.345  26.127  1.00  0.00     0.088 C 
ATOM     88  C   UNL A   1      34.109  25.447  24.933  1.00  0.00     0.205 C 
BRANCH  88  89
ATOM     89  N   UNL A   1      34.417  24.023  25.183  1.00  0.00    -0.331 N 
ATOM     90  C   UNL A   1      35.601  23.698  25.974  1.00  0.00     0.262 C 
ATOM     91  C   UNL A   1      34.294  23.147  24.011  1.00  0.00     0.262 C 
ATOM     92  H   UNL A   1      33.646  23.807  25.815  1.00  0.00     0.348 HD
ATOM     93  C   UNL A   1      36.910  23.620  25.188  1.00  0.00     0.062 C 
ATOM     94  C   UNL A   1      35.535  23.063  23.124  1.00  0.00     0.062 C 
ATOM     95  C   UNL A   1      36.803  22.779  23.921  1.00  0.00     0.012 C 
ENDBRANCH  88  89
ENDBRANCH  79  84
ENDBRANCH  74  77
ENDBRANCH  72  73
ENDBRANCH  71  72
ENDBRANCH   1  71
TORSDOF 15
ENDMDL
MODEL 2
REMARK VINA RESULT:     -12.4      5.839     11.862
REMARK SMILES O=C(NCCCNC(=O)c1c(F)cccc1N1CC[C@@H]([NH+]2CCCCC2)C1)c1ccc(-c2c3nc(c(-c4cccc(S(=O)(=O)[O-])c4F)c4ccc([nH]4)c(-c4cccc(S(=O)(=O)[O-])c4F)c4nc(c(-c5cccc(S(=O)(=O)[O-])c5F)c5ccc2[nH]5)C=C4)C=C3)cc1
REMARK SMILES IDX 4 1 3 2 1 3 2 4 28 6 29 7 90 8 30 9 89 10 31 11 32 12 33 13
REMARK SMILES IDX 83 14 34 15 88 16 82 17 84 18 35 19 87 20 81 21 80 22 36 24
REMARK SMILES IDX 68 25 48 26 67 27 49 28 52 29 66 30 85 31 50 32 51 33 65 35
REMARK SMILES IDX 86 36 53 37 37 38 38 39 46 40 39 41 41 42 47 43 40 44 42 45
REMARK SMILES IDX 43 46 44 47 45 48 69 49 70 50 78 51 71 52 73 53 79 54 72 55
REMARK SMILES IDX 74 56 75 57 76 58 77 59 54 60 55 61 63 62 56 63 58 64 64 65
REMARK SMILES IDX 57 66 59 67 60 68 61 69 62 70 5 71 6 72 7 73 8 74 9 76 10 77
REMARK SMILES IDX 11 78 16 79 12 80 13 81 15 82 14 83 17 84 18 85 27 86 19 87
REMARK SMILES IDX 20 88 21 89 22 90 26 91 23 93 25 94 24 95
REMARK H PARENT 3 5 84 23 52 34 7 75 21 92
REMARK Flexibility Score: inf
ROOT
ATOM      1  C   UNL A   1      39.025  20.347  25.861  1.00  0.00     0.118 C 
ENDROOT
BRANCH   1   2
ATOM      2  N   UNL A   1      40.124  19.394  25.910  1.00  0.00    -0.352 N 
ATOM      3  O   UNL A   1      42.233  18.631  25.880  1.00  0.00    -0.269 OA
ATOM      4  C   UNL A   1      41.475  19.590  26.038  1.00  0.00     0.251 C 
ATOM      5  H   UNL A   1      39.851  18.451  25.841  1.00  0.00     0.163 HD
BRANCH   4   6
ATOM      6  C   UNL A   1      42.034  20.930  26.332  1.00  0.00     0.039 A 
ATOM      7  C   UNL A   1      42.265  21.863  25.318  1.00  0.00     0.014 A 
ATOM      8  C   UNL A   1      42.284  21.279  27.663  1.00  0.00     0.014 A 
ATOM      9  C   UNL A   1      42.871  23.083  25.615  1.00  0.00     0.010 A 
ATOM     10  C   UNL A   1      42.815  22.536  27.968  1.00  0.00     0.010 A 
ATOM     11  C   UNL A   1      43.139  23.441  26.945  1.00  0.00    -0.014 A 
BRANCH  11  12
ATOM     12  C   UNL A   1      43.679  24.788  27.268  1.00  0.00     0.031 A 
ATOM     13  C   UNL A   1      42.786  25.872  27.811  1.00  0.00     0.074 A 
ATOM     14  C   UNL A   1      44.985  25.039  27.041  1.00  0.00     0.049 A 
ATOM     15  N   UNL A   1      43.073  27.124  28.061  1.00  0.00    -0.248 NA
ATOM     16  C   UNL A   1      41.391  25.508  28.111  1.00  0.00     0.031 C 
ATOM     17  C   UNL A   1      45.950  24.074  26.511  1.00  0.00     0.029 A 
ATOM     18  N   UNL A   1      45.722  26.185  27.209  1.00  0.00    -0.354 N 
ATOM     19  C   UNL A   1      41.895  27.705  28.518  1.00  0.00     0.074 A 
ATOM     20  C   UNL A   1      40.884  26.669  28.505  1.00  0.00     0.031 C 
ATOM     21  C   UNL A   1      47.151  24.662  26.404  1.00  0.00     0.029 A 
ATOM     22  C   UNL A   1      47.029  26.061  26.795  1.00  0.00     0.049 A 
ATOM     23  H   UNL A   1      45.353  27.014  27.588  1.00  0.00     0.167 HD
ATOM     24  C   UNL A   1      41.684  28.980  28.926  1.00  0.00     0.034 A 
ATOM     25  C   UNL A   1      48.014  26.976  26.710  1.00  0.00     0.034 A 
ATOM     26  C   UNL A   1      42.701  29.999  28.958  1.00  0.00     0.049 A 
ATOM     27  C   UNL A   1      47.732  28.390  27.137  1.00  0.00     0.074 A 
ATOM     28  C   UNL A   1      42.581  31.314  29.377  1.00  0.00     0.029 A 
ATOM     29  N   UNL A   1      44.017  29.827  28.562  1.00  0.00    -0.354 N 
ATOM     30  N   UNL A   1      46.635  28.897  27.643  1.00  0.00    -0.248 NA
ATOM     31  C   UNL A   1      48.835  29.353  27.007  1.00  0.00     0.031 C 
ATOM     32  C   UNL A   1      43.819  31.942  29.212  1.00  0.00     0.029 A 
ATOM     33  C   UNL A   1      44.719  31.009  28.725  1.00  0.00     0.049 A 
ATOM     34  H   UNL A   1      44.397  28.987  28.216  1.00  0.00     0.167 HD
ATOM     35  C   UNL A   1      46.926  30.227  27.924  1.00  0.00     0.074 A 
ATOM     36  C   UNL A   1      48.313  30.436  27.563  1.00  0.00     0.031 C 
ATOM     37  C   UNL A   1      46.114  31.193  28.417  1.00  0.00     0.034 A 
BRANCH  24  38
ATOM     38  C   UNL A   1      40.314  29.358  29.426  1.00  0.00     0.023 A 
ATOM     39  C   UNL A   1      39.348  29.814  28.507  1.00  0.00     0.012 A 
ATOM     40  C   UNL A   1      39.938  29.119  30.763  1.00  0.00     0.148 A 
ATOM     41  C   UNL A   1      38.030  30.030  28.911  1.00  0.00     0.002 A 
ATOM     42  C   UNL A   1      38.614  29.295  31.148  1.00  0.00     0.091 A 
ATOM     43  F   UNL A   1      40.875  28.696  31.622  1.00  0.00    -0.205 F 
ATOM     44  C   UNL A   1      37.661  29.756  30.225  1.00  0.00     0.022 A 
BRANCH  42  45
ATOM     45  S   UNL A   1      38.011  28.891  32.792  1.00  0.00     0.127 S 
ATOM     46  O   UNL A   1      36.651  29.427  32.748  1.00  0.00    -0.237 OA
ATOM     47  O   UNL A   1      38.091  27.431  32.796  1.00  0.00    -0.237 OA
ATOM     48  O   UNL A   1      38.906  29.559  33.727  1.00  0.00    -0.744 OA
ENDBRANCH  42  45
ENDBRANCH  24  38
BRANCH  25  49
ATOM     49  C   UNL A   1      49.369  26.582  26.226  1.00  0.00     0.023 A 
ATOM     50  C   UNL A   1      50.156  25.719  27.014  1.00  0.00     0.012 A 
ATOM     51  C   UNL A   1      49.879  27.047  24.999  1.00  0.00     0.148 A 
ATOM     52  C   UNL A   1      51.442  25.360  26.608  1.00  0.00     0.002 A 
ATOM     53  C   UNL A   1      51.135  26.634  24.570  1.00  0.00     0.091 A 
ATOM     54  F   UNL A   1      49.124  27.880  24.270  1.00  0.00    -0.205 F 
ATOM     55  C   UNL A   1      51.927  25.808  25.382  1.00  0.00     0.022 A 
BRANCH  53  56
ATOM     56  S   UNL A   1      51.781  27.046  22.945  1.00  0.00     0.127 S 
ATOM     57  O   UNL A   1      52.930  26.150  22.845  1.00  0.00    -0.237 OA
ATOM     58  O   UNL A   1      50.654  26.705  22.077  1.00  0.00    -0.237 OA
ATOM     59  O   UNL A   1      52.088  28.469  22.997  1.00  0.00    -0.744 OA
ENDBRANCH  53  56
ENDBRANCH  25  49
BRANCH  37  60
ATOM     60  C   UNL A   1      46.709  32.560  28.638  1.00  0.00     0.023 A 
ATOM     61  C   UNL A   1      47.273  32.888  29.887  1.00  0.00     0.012 A 
ATOM     62  C   UNL A   1      46.765  33.499  27.588  1.00  0.00     0.148 A 
ATOM     63  C   UNL A   1      47.842  34.142  30.102  1.00  0.00     0.002 A 
ATOM     64  C   UNL A   1      47.386  34.726  27.793  1.00  0.00     0.091 A 
ATOM     65  F   UNL A   1      46.209  33.178  26.411  1.00  0.00    -0.205 F 
ATOM     66  C   UNL A   1      47.910  35.056  29.053  1.00  0.00     0.022 A 
BRANCH  64  67
ATOM     67  S   UNL A   1      47.615  35.921  26.471  1.00  0.00     0.127 S 
ATOM     68  O   UNL A   1      46.245  36.371  26.235  1.00  0.00    -0.237 OA
ATOM     69  O   UNL A   1      48.485  36.915  27.099  1.00  0.00    -0.237 OA
ATOM     70  O   UNL A   1      48.230  35.188  25.372  1.00  0.00    -0.744 OA
ENDBRANCH  64  67
ENDBRANCH  37  60
ENDBRANCH  11  12
ENDBRANCH   4   6
ENDBRANCH   1   2
BRANCH   1  71
ATOM     71  C   UNL A   1      37.829  19.842  25.064  1.00  0.00     0.042 C 
BRANCH  71  72
ATOM     72  C   UNL A   1      36.733  20.870  24.817  1.00  0.00     0.118 C 
BRANCH  72  73
ATOM     73  N   UNL A   1      35.875  21.095  25.971  1.00  0.00    -0.352 N 
ATOM     74  C   UNL A   1      34.500  21.106  26.053  1.00  0.00     0.256 C 
ATOM     75  H   UNL A   1      36.347  21.262  26.818  1.00  0.00     0.163 HD
ATOM     76  O   UNL A   1      33.967  21.254  27.151  1.00  0.00    -0.269 OA
BRANCH  74  77
ATOM     77  C   UNL A   1      33.675  20.980  24.833  1.00  0.00     0.098 A 
ATOM     78  C   UNL A   1      33.437  19.689  24.345  1.00  0.00     0.138 A 
ATOM     79  C   UNL A   1      33.057  22.102  24.233  1.00  0.00     0.053 A 
ATOM     80  F   UNL A   1      33.988  18.617  24.936  1.00  0.00    -0.206 F 
ATOM     81  C   UNL A   1      32.647  19.482  23.223  1.00  0.00     0.040 A 
ATOM     82  C   UNL A   1      32.214  21.856  23.134  1.00  0.00     0.027 A 
ATOM     83  C   UNL A   1      32.030  20.569  22.616  1.00  0.00     0.005 A 
BRANCH  79  84
ATOM     84  N   UNL A   1      33.271  23.402  24.621  1.00  0.00    -0.365 N 
ATOM     85  C   UNL A   1      34.446  24.157  24.242  1.00  0.00     0.123 C 
ATOM     86  C   UNL A   1      32.418  24.150  25.546  1.00  0.00     0.181 C 
ATOM     87  C   UNL A   1      34.642  25.106  25.409  1.00  0.00     0.088 C 
ATOM     88  C   UNL A   1      33.229  25.447  25.900  1.00  0.00     0.205 C 
BRANCH  88  89
ATOM     89  N   UNL A   1      32.614  26.719  25.465  1.00  0.00    -0.331 N 
ATOM     90  C   UNL A   1      33.495  27.816  25.073  1.00  0.00     0.262 C 
ATOM     91  C   UNL A   1      31.504  27.190  26.303  1.00  0.00     0.262 C 
ATOM     92  H   UNL A   1      32.222  26.404  24.577  1.00  0.00     0.348 HD
ATOM     93  C   UNL A   1      33.989  28.698  26.221  1.00  0.00     0.062 C 
ATOM     94  C   UNL A   1      31.910  28.022  27.518  1.00  0.00     0.062 C 
ATOM     95  C   UNL A   1      32.874  29.147  27.158  1.00  0.00     0.012 C 
ENDBRANCH  88  89
ENDBRANCH  79  84
ENDBRANCH  74  77
ENDBRANCH  72  73
ENDBRANCH  71  72
ENDBRANCH   1  71
TORSDOF 15
ENDMDL
MODEL 3
REMARK VINA RESULT:     -12.3      2.323      3.086
REMARK SMILES O=C(NCCCNC(=O)c1c(F)cccc1N1CC[C@@H]([NH+]2CCCCC2)C1)c1ccc(-c2c3nc(c(-c4cccc(S(=O)(=O)[O-])c4F)c4ccc([nH]4)c(-c4cccc(S(=O)(=O)[O-])c4F)c4nc(c(-c5cccc(S(=O)(=O)[O-])c5F)c5ccc2[nH]5)C=C4)C=C3)cc1
REMARK SMILES IDX 4 1 3 2 1 3 2 4 28 6 29 7 90 8 30 9 89 10 31 11 32 12 33 13
REMARK SMILES IDX 83 14 34 15 88 16 82 17 84 18 35 19 87 20 81 21 80 22 36 24
REMARK SMILES IDX 68 25 48 26 67 27 49 28 52 29 66 30 85 31 50 32 51 33 65 35
REMARK SMILES IDX 86 36 53 37 37 38 38 39 46 40 39 41 41 42 47 43 40 44 42 45
REMARK SMILES IDX 43 46 44 47 45 48 69 49 70 50 78 51 71 52 73 53 79 54 72 55
REMARK SMILES IDX 74 56 75 57 76 58 77 59 54 60 55 61 63 62 56 63 58 64 64 65
REMARK SMILES IDX 57 66 59 67 60 68 61 69 62 70 5 71 6 72 7 73 8 74 9 76 10 77
REMARK SMILES IDX 11 78 16 79 12 80 13 81 15 82 14 83 17 84 18 85 27 86 19 87
REMARK SMILES IDX 20 88 21 89 22 90 26 91 23 93 25 94 24 95
REMARK H PARENT 3 5 84 23 52 34 7 75 21 92
REMARK Flexibility Score: inf
ROOT
ATOM      1  C   UNL A   1      32.605  30.199  25.828  1.00  0.00     0.118 C 
ENDROOT
BRANCH   1   2
ATOM      2  N   UNL A   1      32.310  31.566  26.229  1.00  0.00    -0.352 N 
ATOM      3  O   UNL A   1      32.376  33.450  27.446  1.00  0.00    -0.269 OA
ATOM      4  C   UNL A   1      32.915  32.380  27.153  1.00  0.00     0.251 C 
ATOM      5  H   UNL A   1      31.549  31.976  25.757  1.00  0.00     0.163 HD
BRANCH   4   6
ATOM      6  C   UNL A   1      34.177  31.984  27.818  1.00  0.00     0.039 A 
ATOM      7  C   UNL A   1      35.231  32.887  27.979  1.00  0.00     0.014 A 
ATOM      8  C   UNL A   1      34.289  30.691  28.339  1.00  0.00     0.014 A 
ATOM      9  C   UNL A   1      36.439  32.462  28.532  1.00  0.00     0.010 A 
ATOM     10  C   UNL A   1      35.471  30.290  28.968  1.00  0.00     0.010 A 
ATOM     11  C   UNL A   1      36.568  31.163  29.048  1.00  0.00    -0.014 A 
BRANCH  11  12
ATOM     12  C   UNL A   1      37.817  30.748  29.739  1.00  0.00     0.031 A 
ATOM     13  C   UNL A   1      38.769  29.772  29.100  1.00  0.00     0.074 A 
ATOM     14  C   UNL A   1      38.076  31.238  30.969  1.00  0.00     0.049 A 
ATOM     15  N   UNL A   1      39.854  29.236  29.598  1.00  0.00    -0.248 NA
ATOM     16  C   UNL A   1      38.467  29.338  27.726  1.00  0.00     0.031 C 
ATOM     17  C   UNL A   1      37.228  32.184  31.697  1.00  0.00     0.029 A 
ATOM     18  N   UNL A   1      39.117  30.996  31.831  1.00  0.00    -0.354 N 
ATOM     19  C   UNL A   1      40.349  28.384  28.617  1.00  0.00     0.074 A 
ATOM     20  C   UNL A   1      39.440  28.467  27.493  1.00  0.00     0.031 C 
ATOM     21  C   UNL A   1      37.782  32.449  32.889  1.00  0.00     0.029 A 
ATOM     22  C   UNL A   1      38.989  31.645  33.039  1.00  0.00     0.049 A 
ATOM     23  H   UNL A   1      39.879  30.415  31.609  1.00  0.00     0.167 HD
ATOM     24  C   UNL A   1      41.465  27.617  28.648  1.00  0.00     0.034 A 
ATOM     25  C   UNL A   1      39.740  31.578  34.155  1.00  0.00     0.034 A 
ATOM     26  C   UNL A   1      42.377  27.557  29.762  1.00  0.00     0.049 A 
ATOM     27  C   UNL A   1      40.952  30.688  34.165  1.00  0.00     0.074 A 
ATOM     28  C   UNL A   1      43.546  26.822  29.871  1.00  0.00     0.029 A 
ATOM     29  N   UNL A   1      42.230  28.251  30.952  1.00  0.00    -0.354 N 
ATOM     30  N   UNL A   1      41.446  29.954  33.198  1.00  0.00    -0.248 NA
ATOM     31  C   UNL A   1      41.726  30.638  35.413  1.00  0.00     0.031 C 
ATOM     32  C   UNL A   1      44.093  27.056  31.136  1.00  0.00     0.029 A 
ATOM     33  C   UNL A   1      43.285  27.962  31.801  1.00  0.00     0.049 A 
ATOM     34  H   UNL A   1      41.486  28.860  31.162  1.00  0.00     0.167 HD
ATOM     35  C   UNL A   1      42.607  29.385  33.709  1.00  0.00     0.074 A 
ATOM     36  C   UNL A   1      42.759  29.886  35.059  1.00  0.00     0.031 C 
ATOM     37  C   UNL A   1      43.459  28.510  33.121  1.00  0.00     0.034 A 
BRANCH  24  38
ATOM     38  C   UNL A   1      41.815  26.805  27.428  1.00  0.00     0.023 A 
ATOM     39  C   UNL A   1      42.493  27.426  26.359  1.00  0.00     0.012 A 
ATOM     40  C   UNL A   1      41.615  25.410  27.403  1.00  0.00     0.148 A 
ATOM     41  C   UNL A   1      42.963  26.672  25.283  1.00  0.00     0.002 A 
ATOM     42  C   UNL A   1      42.124  24.660  26.349  1.00  0.00     0.091 A 
ATOM     43  F   UNL A   1      40.960  24.842  28.425  1.00  0.00    -0.205 F 
ATOM     44  C   UNL A   1      42.792  25.291  25.286  1.00  0.00     0.022 A 
BRANCH  42  45
ATOM     45  S   UNL A   1      42.036  22.866  26.293  1.00  0.00     0.127 S 
ATOM     46  O   UNL A   1      42.780  22.496  27.496  1.00  0.00    -0.237 OA
ATOM     47  O   UNL A   1      40.595  22.629  26.370  1.00  0.00    -0.237 OA
ATOM     48  O   UNL A   1      42.658  22.470  25.037  1.00  0.00    -0.744 OA
ENDBRANCH  42  45
ENDBRANCH  24  38
BRANCH  25  49
ATOM     49  C   UNL A   1      39.388  32.399  35.350  1.00  0.00     0.023 A 
ATOM     50  C   UNL A   1      38.604  31.827  36.371  1.00  0.00     0.012 A 
ATOM     51  C   UNL A   1      39.826  33.731  35.486  1.00  0.00     0.148 A 
ATOM     52  C   UNL A   1      38.228  32.578  37.485  1.00  0.00     0.002 A 
ATOM     53  C   UNL A   1      39.502  34.453  36.628  1.00  0.00     0.091 A 
ATOM     54  F   UNL A   1      40.558  34.265  34.498  1.00  0.00    -0.205 F 
ATOM     55  C   UNL A   1      38.685  33.886  37.619  1.00  0.00     0.022 A 
BRANCH  53  56
ATOM     56  S   UNL A   1      40.163  36.092  36.951  1.00  0.00     0.127 S 
ATOM     57  O   UNL A   1      39.387  36.502  38.118  1.00  0.00    -0.237 OA
ATOM     58  O   UNL A   1      41.572  35.802  37.218  1.00  0.00    -0.237 OA
ATOM     59  O   UNL A   1      39.928  36.854  35.732  1.00  0.00    -0.744 OA
ENDBRANCH  53  56
ENDBRANCH  25  49
BRANCH  37  60
ATOM     60  C   UNL A   1      44.660  28.065  33.915  1.00  0.00     0.023 A 
ATOM     61  C   UNL A   1      45.843  28.830  33.889  1.00  0.00     0.012 A 
ATOM     62  C   UNL A   1      44.596  26.922  34.737  1.00  0.00     0.148 A 
ATOM     63  C   UNL A   1      46.957  28.441  34.631  1.00  0.00     0.002 A 
ATOM     64  C   UNL A   1      45.691  26.572  35.518  1.00  0.00     0.091 A 
ATOM     65  F   UNL A   1      43.469  26.194  34.738  1.00  0.00    -0.205 F 
ATOM     66  C   UNL A   1      46.877  27.320  35.455  1.00  0.00     0.022 A 
BRANCH  64  67
ATOM     67  S   UNL A   1      45.644  25.210  36.688  1.00  0.00     0.127 S 
ATOM     68  O   UNL A   1      45.493  24.059  35.800  1.00  0.00    -0.237 OA
ATOM     69  O   UNL A   1      46.950  25.313  37.339  1.00  0.00    -0.237 OA
ATOM     70  O   UNL A   1      44.510  25.475  37.565  1.00  0.00    -0.744 OA
ENDBRANCH  64  67
ENDBRANCH  37  60
ENDBRANCH  11  12
ENDBRANCH   4   6
ENDBRANCH   1   2
BRANCH   1  71
ATOM     71  C   UNL A   1      31.579  29.192  26.332  1.00  0.00     0.042 C 
BRANCH  71  72
ATOM     72  C   UNL A   1      32.145  27.835  26.729  1.00  0.00     0.118 C 
BRANCH  72  73
ATOM     73  N   UNL A   1      31.129  26.807  26.896  1.00  0.00    -0.352 N 
ATOM     74  C   UNL A   1      30.679  25.863  25.999  1.00  0.00     0.256 C 
ATOM     75  H   UNL A   1      30.699  26.782  27.781  1.00  0.00     0.163 HD
ATOM     76  O   UNL A   1      29.846  25.036  26.368  1.00  0.00    -0.269 OA
BRANCH  74  77
ATOM     77  C   UNL A   1      31.161  25.866  24.602  1.00  0.00     0.098 A 
ATOM     78  C   UNL A   1      30.497  26.696  23.691  1.00  0.00     0.138 A 
ATOM     79  C   UNL A   1      32.312  25.142  24.211  1.00  0.00     0.053 A 
ATOM     80  F   UNL A   1      29.429  27.416  24.069  1.00  0.00    -0.206 F 
ATOM     81  C   UNL A   1      30.907  26.779  22.368  1.00  0.00     0.040 A 
ATOM     82  C   UNL A   1      32.739  25.292  22.879  1.00  0.00     0.027 A 
ATOM     83  C   UNL A   1      32.034  26.078  21.960  1.00  0.00     0.005 A 
BRANCH  79  84
ATOM     84  N   UNL A   1      32.995  24.273  25.027  1.00  0.00    -0.365 N 
ATOM     85  C   UNL A   1      32.574  22.908  25.257  1.00  0.00     0.123 C 
ATOM     86  C   UNL A   1      34.150  24.633  25.852  1.00  0.00     0.181 C 
ATOM     87  C   UNL A   1      33.062  22.624  26.665  1.00  0.00     0.088 C 
ATOM     88  C   UNL A   1      34.372  23.408  26.809  1.00  0.00     0.205 C 
BRANCH  88  89
ATOM     89  N   UNL A   1      35.652  22.690  26.632  1.00  0.00    -0.331 N 
ATOM     90  C   UNL A   1      36.808  23.443  26.153  1.00  0.00     0.262 C 
ATOM     91  C   UNL A   1      35.544  21.385  25.968  1.00  0.00     0.262 C 
ATOM     92  H   UNL A   1      35.871  22.522  27.614  1.00  0.00     0.348 HD
ATOM     93  C   UNL A   1      36.920  23.572  24.633  1.00  0.00     0.062 C 
ATOM     94  C   UNL A   1      35.574  21.424  24.440  1.00  0.00     0.062 C 
ATOM     95  C   UNL A   1      36.738  22.248  23.901  1.00  0.00     0.012 C 
ENDBRANCH  88  89
ENDBRANCH  79  84
ENDBRANCH  74  77
ENDBRANCH  72  73
ENDBRANCH  71  72
ENDBRANCH   1  71
TORSDOF 15
ENDMDL
