MODEL 1
REMARK VINA RESULT:     -10.5      0.000      0.000
REMARK SMILES COc1ccc([C@H]2[C@H](C(=O)NCCCNC(=O)c3ccc(-c4c5nc(c(-c6cccc(S(=O)(=O)[O-])c6F)c6ccc([nH]6)c(-c6cccc(S(=O)(=O)[O-])c6F)c6nc(c(-c7cccc(S(=O)(=O)[O-])c7F)c7ccc4[nH]7)C=C6)C=C5)cc3)CCN2c2ccc(F)cc2)cc1
REMARK SMILES IDX 13 1 12 2 11 3 9 4 10 5 8 7 7 8 83 9 81 10 82 11 6 12 3 13
REMARK SMILES IDX 4 14 92 15 5 16 91 17 2 18 1 19 84 20 85 21 90 22 86 23
REMARK SMILES IDX 89 24 87 25 88 26 14 27 15 28 16 29 17 31 18 32 19 33 80 34
REMARK SMILES IDX 20 35 79 36 21 37 22 38 23 39 73 40 24 41 78 42 72 43 74 44
REMARK SMILES IDX 25 45 77 46 71 47 70 48 26 50 58 51 38 52 57 53 39 54 42 55
REMARK SMILES IDX 56 56 75 57 40 58 41 59 55 61 76 62 43 63 27 64 28 65 36 66
REMARK SMILES IDX 29 67 31 68 37 69 30 70 32 71 33 72 34 73 35 74 59 75 60 76
REMARK SMILES IDX 68 77 61 78 63 79 69 80 62 81 64 82 65 83 66 84 67 85 44 86
REMARK SMILES IDX 45 87 53 88 46 89 48 90 54 91 47 92 49 93 50 94 51 95 52 96
REMARK H PARENT 11 6 15 30 74 49 42 60
REMARK Flexibility Score: inf
ROOT
ATOM      1  C   UNL A   1      42.192  21.208  25.751  1.00  0.00     0.042 C 
ENDROOT
BRANCH   1   2
ATOM      2  C   UNL A   1      43.308  20.246  26.138  1.00  0.00     0.117 C 
BRANCH   2   3
ATOM      3  N   UNL A   1      44.601  20.678  25.631  1.00  0.00    -0.356 N 
ATOM      4  C   UNL A   1      45.301  21.837  25.713  1.00  0.00     0.225 C 
ATOM      5  O   UNL A   1      46.353  21.865  25.057  1.00  0.00    -0.275 OA
ATOM      6  H   UNL A   1      45.069  19.979  25.120  1.00  0.00     0.163 HD
BRANCH   4   7
ATOM      7  C   UNL A   1      44.915  23.087  26.505  1.00  0.00     0.107 C 
ATOM      8  C   UNL A   1      46.107  23.697  27.271  1.00  0.00     0.125 C 
ATOM      9  N   UNL A   1      46.522  24.766  26.347  1.00  0.00    -0.364 N 
ATOM     10  C   UNL A   1      44.282  24.248  25.746  1.00  0.00     0.037 C 
ATOM     11  C   UNL A   1      45.353  25.341  25.683  1.00  0.00     0.118 C 
BRANCH   8  12
ATOM     12  C   UNL A   1      45.695  24.292  28.632  1.00  0.00    -0.024 A 
ATOM     13  C   UNL A   1      44.999  25.301  31.198  1.00  0.00     0.118 A 
ATOM     14  C   UNL A   1      46.098  25.810  30.502  1.00  0.00     0.047 A 
ATOM     15  C   UNL A   1      44.216  24.328  30.592  1.00  0.00     0.047 A 
ATOM     16  C   UNL A   1      46.442  25.316  29.233  1.00  0.00     0.010 A 
ATOM     17  C   UNL A   1      44.554  23.845  29.325  1.00  0.00     0.010 A 
BRANCH  13  18
ATOM     18  O   UNL A   1      44.778  25.837  32.437  1.00  0.00    -0.497 OA
ATOM     19  C   UNL A   1      44.146  24.982  33.387  1.00  0.00     0.278 C 
ENDBRANCH  13  18
ENDBRANCH   8  12
BRANCH   9  20
ATOM     20  C   UNL A   1      47.806  25.241  26.189  1.00  0.00     0.037 A 
ATOM     21  C   UNL A   1      48.179  25.969  25.045  1.00  0.00     0.029 A 
ATOM     22  C   UNL A   1      48.828  24.975  27.120  1.00  0.00     0.029 A 
ATOM     23  C   UNL A   1      49.506  26.336  24.799  1.00  0.00     0.041 A 
ATOM     24  C   UNL A   1      50.165  25.310  26.868  1.00  0.00     0.041 A 
ATOM     25  C   UNL A   1      50.493  25.975  25.701  1.00  0.00     0.123 A 
ATOM     26  F   UNL A   1      51.772  26.256  25.427  1.00  0.00    -0.207 F 
ENDBRANCH   9  20
ENDBRANCH   4   7
ENDBRANCH   2   3
ENDBRANCH   1   2
BRANCH   1  27
ATOM     27  C   UNL A   1      41.168  21.473  26.843  1.00  0.00     0.118 C 
BRANCH  27  28
ATOM     28  N   UNL A   1      39.826  21.654  26.309  1.00  0.00    -0.352 N 
ATOM     29  C   UNL A   1      38.956  22.716  26.387  1.00  0.00     0.251 C 
ATOM     30  H   UNL A   1      39.482  20.882  25.804  1.00  0.00     0.163 HD
ATOM     31  O   UNL A   1      37.789  22.534  26.037  1.00  0.00    -0.269 OA
BRANCH  29  32
ATOM     32  C   UNL A   1      39.372  24.056  26.874  1.00  0.00     0.039 A 
ATOM     33  C   UNL A   1      39.988  24.936  25.973  1.00  0.00     0.014 A 
ATOM     34  C   UNL A   1      39.247  24.440  28.211  1.00  0.00     0.014 A 
ATOM     35  C   UNL A   1      40.434  26.192  26.399  1.00  0.00     0.010 A 
ATOM     36  C   UNL A   1      39.602  25.729  28.614  1.00  0.00     0.010 A 
ATOM     37  C   UNL A   1      40.223  26.614  27.721  1.00  0.00    -0.014 A 
BRANCH  37  38
ATOM     38  C   UNL A   1      40.667  27.957  28.193  1.00  0.00     0.031 A 
ATOM     39  C   UNL A   1      42.136  28.306  28.230  1.00  0.00     0.074 A 
ATOM     40  C   UNL A   1      39.760  28.841  28.655  1.00  0.00     0.049 A 
ATOM     41  N   UNL A   1      42.717  29.393  28.670  1.00  0.00    -0.248 NA
ATOM     42  C   UNL A   1      43.079  27.290  27.730  1.00  0.00     0.031 C 
ATOM     43  C   UNL A   1      38.318  28.606  28.744  1.00  0.00     0.029 A 
ATOM     44  N   UNL A   1      39.920  30.108  29.164  1.00  0.00    -0.354 N 
ATOM     45  C   UNL A   1      44.085  29.176  28.540  1.00  0.00     0.074 A 
ATOM     46  C   UNL A   1      44.251  27.841  28.011  1.00  0.00     0.031 C 
ATOM     47  C   UNL A   1      37.724  29.694  29.264  1.00  0.00     0.029 A 
ATOM     48  C   UNL A   1      38.743  30.689  29.579  1.00  0.00     0.049 A 
ATOM     49  H   UNL A   1      40.794  30.558  29.224  1.00  0.00     0.167 HD
ATOM     50  C   UNL A   1      45.112  30.021  28.802  1.00  0.00     0.034 A 
ATOM     51  C   UNL A   1      38.512  31.885  30.157  1.00  0.00     0.034 A 
ATOM     52  C   UNL A   1      44.947  31.369  29.274  1.00  0.00     0.049 A 
ATOM     53  C   UNL A   1      39.668  32.817  30.403  1.00  0.00     0.074 A 
ATOM     54  C   UNL A   1      45.920  32.329  29.494  1.00  0.00     0.029 A 
ATOM     55  N   UNL A   1      43.732  31.951  29.600  1.00  0.00    -0.354 N 
ATOM     56  N   UNL A   1      40.940  32.647  30.134  1.00  0.00    -0.248 NA
ATOM     57  C   UNL A   1      39.353  34.125  30.999  1.00  0.00     0.031 C 
ATOM     58  C   UNL A   1      45.294  33.485  29.971  1.00  0.00     0.029 A 
ATOM     59  C   UNL A   1      43.930  33.254  30.023  1.00  0.00     0.049 A 
ATOM     60  H   UNL A   1      42.857  31.503  29.540  1.00  0.00     0.167 HD
ATOM     61  C   UNL A   1      41.568  33.834  30.492  1.00  0.00     0.074 A 
ATOM     62  C   UNL A   1      40.534  34.726  30.974  1.00  0.00     0.031 C 
ATOM     63  C   UNL A   1      42.885  34.152  30.442  1.00  0.00     0.034 A 
BRANCH  50  64
ATOM     64  C   UNL A   1      46.513  29.536  28.522  1.00  0.00     0.023 A 
ATOM     65  C   UNL A   1      47.017  29.595  27.206  1.00  0.00     0.012 A 
ATOM     66  C   UNL A   1      47.354  29.096  29.564  1.00  0.00     0.148 A 
ATOM     67  C   UNL A   1      48.322  29.193  26.925  1.00  0.00     0.002 A 
ATOM     68  C   UNL A   1      48.668  28.738  29.283  1.00  0.00     0.091 A 
ATOM     69  F   UNL A   1      46.854  29.032  30.806  1.00  0.00    -0.205 F 
ATOM     70  C   UNL A   1      49.149  28.775  27.963  1.00  0.00     0.022 A 
BRANCH  68  71
ATOM     71  S   UNL A   1      49.842  28.263  30.557  1.00  0.00     0.127 S 
ATOM     72  O   UNL A   1      49.250  27.022  31.055  1.00  0.00    -0.237 OA
ATOM     73  O   UNL A   1      51.074  28.084  29.788  1.00  0.00    -0.237 OA
ATOM     74  O   UNL A   1      49.872  29.364  31.509  1.00  0.00    -0.744 OA
ENDBRANCH  68  71
ENDBRANCH  50  64
BRANCH  51  75
ATOM     75  C   UNL A   1      37.118  32.300  30.489  1.00  0.00     0.023 A 
ATOM     76  C   UNL A   1      36.623  32.077  31.790  1.00  0.00     0.012 A 
ATOM     77  C   UNL A   1      36.284  32.915  29.535  1.00  0.00     0.148 A 
ATOM     78  C   UNL A   1      35.312  32.421  32.123  1.00  0.00     0.002 A 
ATOM     79  C   UNL A   1      34.997  33.306  29.890  1.00  0.00     0.091 A 
ATOM     80  F   UNL A   1      36.765  33.106  28.299  1.00  0.00    -0.205 F 
ATOM     81  C   UNL A   1      34.503  33.042  31.177  1.00  0.00     0.022 A 
BRANCH  79  82
ATOM     82  S   UNL A   1      33.928  34.223  28.774  1.00  0.00     0.127 S 
ATOM     83  O   UNL A   1      33.516  33.181  27.833  1.00  0.00    -0.237 OA
ATOM     84  O   UNL A   1      32.872  34.685  29.678  1.00  0.00    -0.237 OA
ATOM     85  O   UNL A   1      34.754  35.284  28.223  1.00  0.00    -0.744 OA
ENDBRANCH  79  82
ENDBRANCH  51  75
BRANCH  63  86
ATOM     86  C   UNL A   1      43.289  35.537  30.878  1.00  0.00     0.023 A 
ATOM     87  C   UNL A   1      43.665  35.770  32.216  1.00  0.00     0.012 A 
ATOM     88  C   UNL A   1      43.366  36.590  29.944  1.00  0.00     0.148 A 
ATOM     89  C   UNL A   1      44.079  37.037  32.625  1.00  0.00     0.002 A 
ATOM     90  C   UNL A   1      43.828  37.837  30.349  1.00  0.00     0.091 A 
ATOM     91  F   UNL A   1      42.988  36.353  28.679  1.00  0.00    -0.205 F 
ATOM     92  C   UNL A   1      44.172  38.066  31.690  1.00  0.00     0.022 A 
BRANCH  90  93
ATOM     93  S   UNL A   1      44.073  39.194  29.197  1.00  0.00     0.127 S 
ATOM     94  O   UNL A   1      42.697  39.586  28.900  1.00  0.00    -0.237 OA
ATOM     95  O   UNL A   1      44.821  40.156  30.006  1.00  0.00    -0.237 OA
ATOM     96  O   UNL A   1      44.820  38.639  28.075  1.00  0.00    -0.744 OA
ENDBRANCH  90  93
ENDBRANCH  63  86
ENDBRANCH  37  38
ENDBRANCH  29  32
ENDBRANCH  27  28
ENDBRANCH   1  27
TORSDOF 16
ENDMDL
MODEL 2
REMARK VINA RESULT:     -10.4      6.512     12.008
REMARK SMILES COc1ccc([C@H]2[C@H](C(=O)NCCCNC(=O)c3ccc(-c4c5nc(c(-c6cccc(S(=O)(=O)[O-])c6F)c6ccc([nH]6)c(-c6cccc(S(=O)(=O)[O-])c6F)c6nc(c(-c7cccc(S(=O)(=O)[O-])c7F)c7ccc4[nH]7)C=C6)C=C5)cc3)CCN2c2ccc(F)cc2)cc1
REMARK SMILES IDX 13 1 12 2 11 3 9 4 10 5 8 7 7 8 83 9 81 10 82 11 6 12 3 13
REMARK SMILES IDX 4 14 92 15 5 16 91 17 2 18 1 19 84 20 85 21 90 22 86 23
REMARK SMILES IDX 89 24 87 25 88 26 14 27 15 28 16 29 17 31 18 32 19 33 80 34
REMARK SMILES IDX 20 35 79 36 21 37 22 38 23 39 73 40 24 41 78 42 72 43 74 44
REMARK SMILES IDX 25 45 77 46 71 47 70 48 26 50 58 51 38 52 57 53 39 54 42 55
REMARK SMILES IDX 56 56 75 57 40 58 41 59 55 61 76 62 43 63 27 64 28 65 36 66
REMARK SMILES IDX 29 67 31 68 37 69 30 70 32 71 33 72 34 73 35 74 59 75 60 76
REMARK SMILES IDX 68 77 61 78 63 79 69 80 62 81 64 82 65 83 66 84 67 85 44 86
REMARK SMILES IDX 45 87 53 88 46 89 48 90 54 91 47 92 49 93 50 94 51 95 52 96
REMARK H PARENT 11 6 15 30 74 49 42 60
REMARK Flexibility Score: inf
ROOT
ATOM      1  C   UNL A   1      31.536  32.099  26.733  1.00  0.00     0.042 C 
ENDROOT
BRANCH   1   2
ATOM      2  C   UNL A   1      31.732  30.681  26.214  1.00  0.00     0.117 C 
BRANCH   2   3
ATOM      3  N   UNL A   1      31.573  29.688  27.265  1.00  0.00    -0.356 N 
ATOM      4  C   UNL A   1      31.721  28.340  27.312  1.00  0.00     0.225 C 
ATOM      5  O   UNL A   1      31.395  27.813  28.386  1.00  0.00    -0.275 OA
ATOM      6  H   UNL A   1      31.299  30.077  28.127  1.00  0.00     0.163 HD
BRANCH   4   7
ATOM      7  C   UNL A   1      32.223  27.433  26.189  1.00  0.00     0.107 C 
ATOM      8  C   UNL A   1      31.113  27.059  25.186  1.00  0.00     0.125 C 
ATOM      9  N   UNL A   1      31.360  28.035  24.111  1.00  0.00    -0.364 N 
ATOM     10  C   UNL A   1      33.391  27.924  25.340  1.00  0.00     0.037 C 
ATOM     11  C   UNL A   1      32.794  28.286  23.977  1.00  0.00     0.118 C 
BRANCH   8  12
ATOM     12  C   UNL A   1      31.258  25.621  24.650  1.00  0.00    -0.024 A 
ATOM     13  C   UNL A   1      31.648  22.983  23.661  1.00  0.00     0.118 A 
ATOM     14  C   UNL A   1      31.543  23.226  25.032  1.00  0.00     0.047 A 
ATOM     15  C   UNL A   1      31.504  24.047  22.781  1.00  0.00     0.047 A 
ATOM     16  C   UNL A   1      31.347  24.527  25.524  1.00  0.00     0.010 A 
ATOM     17  C   UNL A   1      31.299  25.340  23.272  1.00  0.00     0.010 A 
BRANCH  13  18
ATOM     18  O   UNL A   1      31.868  21.682  23.300  1.00  0.00    -0.497 OA
ATOM     19  C   UNL A   1      32.922  21.011  23.986  1.00  0.00     0.278 C 
ENDBRANCH  13  18
ENDBRANCH   8  12
BRANCH   9  20
ATOM     20  C   UNL A   1      30.405  28.571  23.274  1.00  0.00     0.037 A 
ATOM     21  C   UNL A   1      30.741  29.537  22.308  1.00  0.00     0.029 A 
ATOM     22  C   UNL A   1      29.041  28.239  23.377  1.00  0.00     0.029 A 
ATOM     23  C   UNL A   1      29.768  30.195  21.549  1.00  0.00     0.041 A 
ATOM     24  C   UNL A   1      28.056  28.915  22.644  1.00  0.00     0.041 A 
ATOM     25  C   UNL A   1      28.430  29.899  21.747  1.00  0.00     0.123 A 
ATOM     26  F   UNL A   1      27.496  30.585  21.078  1.00  0.00    -0.207 F 
ENDBRANCH   9  20
ENDBRANCH   4   7
ENDBRANCH   2   3
ENDBRANCH   1   2
BRANCH   1  27
ATOM     27  C   UNL A   1      32.819  32.892  26.929  1.00  0.00     0.118 C 
BRANCH  27  28
ATOM     28  N   UNL A   1      32.585  34.163  27.599  1.00  0.00    -0.352 N 
ATOM     29  C   UNL A   1      33.119  34.692  28.751  1.00  0.00     0.251 C 
ATOM     30  H   UNL A   1      31.931  34.745  27.149  1.00  0.00     0.163 HD
ATOM     31  O   UNL A   1      32.589  35.697  29.226  1.00  0.00    -0.269 OA
BRANCH  29  32
ATOM     32  C   UNL A   1      34.298  34.096  29.432  1.00  0.00     0.039 A 
ATOM     33  C   UNL A   1      34.079  33.160  30.453  1.00  0.00     0.014 A 
ATOM     34  C   UNL A   1      35.606  34.493  29.152  1.00  0.00     0.014 A 
ATOM     35  C   UNL A   1      35.158  32.605  31.151  1.00  0.00     0.010 A 
ATOM     36  C   UNL A   1      36.686  33.868  29.779  1.00  0.00     0.010 A 
ATOM     37  C   UNL A   1      36.477  32.934  30.804  1.00  0.00    -0.014 A 
BRANCH  37  38
ATOM     38  C   UNL A   1      37.644  32.338  31.516  1.00  0.00     0.031 A 
ATOM     39  C   UNL A   1      38.420  31.202  30.892  1.00  0.00     0.074 A 
ATOM     40  C   UNL A   1      37.968  32.766  32.752  1.00  0.00     0.049 A 
ATOM     41  N   UNL A   1      39.417  30.512  31.386  1.00  0.00    -0.248 NA
ATOM     42  C   UNL A   1      38.006  30.766  29.548  1.00  0.00     0.031 C 
ATOM     43  C   UNL A   1      37.258  33.805  33.501  1.00  0.00     0.029 A 
ATOM     44  N   UNL A   1      38.962  32.362  33.611  1.00  0.00    -0.354 N 
ATOM     45  C   UNL A   1      39.719  29.541  30.437  1.00  0.00     0.074 A 
ATOM     46  C   UNL A   1      38.778  29.707  29.352  1.00  0.00     0.031 C 
ATOM     47  C   UNL A   1      37.844  33.963  34.700  1.00  0.00     0.029 A 
ATOM     48  C   UNL A   1      38.946  33.016  34.822  1.00  0.00     0.049 A 
ATOM     49  H   UNL A   1      39.624  31.670  33.381  1.00  0.00     0.167 HD
ATOM     50  C   UNL A   1      40.710  28.616  30.447  1.00  0.00     0.034 A 
ATOM     51  C   UNL A   1      39.726  32.864  35.912  1.00  0.00     0.034 A 
ATOM     52  C   UNL A   1      41.682  28.487  31.498  1.00  0.00     0.049 A 
ATOM     53  C   UNL A   1      40.842  31.853  35.880  1.00  0.00     0.074 A 
ATOM     54  C   UNL A   1      42.771  27.634  31.564  1.00  0.00     0.029 A 
ATOM     55  N   UNL A   1      41.685  29.228  32.669  1.00  0.00    -0.354 N 
ATOM     56  N   UNL A   1      41.200  31.047  34.911  1.00  0.00    -0.248 NA
ATOM     57  C   UNL A   1      41.687  31.758  37.080  1.00  0.00     0.031 C 
ATOM     58  C   UNL A   1      43.421  27.848  32.783  1.00  0.00     0.029 A 
ATOM     59  C   UNL A   1      42.753  28.851  33.466  1.00  0.00     0.049 A 
ATOM     60  H   UNL A   1      41.024  29.920  32.902  1.00  0.00     0.167 HD
ATOM     61  C   UNL A   1      42.329  30.378  35.369  1.00  0.00     0.074 A 
ATOM     62  C   UNL A   1      42.611  30.891  36.694  1.00  0.00     0.031 C 
ATOM     63  C   UNL A   1      43.058  29.413  34.756  1.00  0.00     0.034 A 
BRANCH  50  64
ATOM     64  C   UNL A   1      40.837  27.707  29.250  1.00  0.00     0.023 A 
ATOM     65  C   UNL A   1      40.036  26.549  29.171  1.00  0.00     0.012 A 
ATOM     66  C   UNL A   1      41.688  28.033  28.174  1.00  0.00     0.148 A 
ATOM     67  C   UNL A   1      40.103  25.712  28.057  1.00  0.00     0.002 A 
ATOM     68  C   UNL A   1      41.715  27.217  27.047  1.00  0.00     0.091 A 
ATOM     69  F   UNL A   1      42.453  29.128  28.272  1.00  0.00    -0.205 F 
ATOM     70  C   UNL A   1      40.933  26.051  26.993  1.00  0.00     0.022 A 
BRANCH  68  71
ATOM     71  S   UNL A   1      42.688  27.605  25.588  1.00  0.00     0.127 S 
ATOM     72  O   UNL A   1      42.044  28.831  25.122  1.00  0.00    -0.237 OA
ATOM     73  O   UNL A   1      44.024  27.796  26.153  1.00  0.00    -0.237 OA
ATOM     74  O   UNL A   1      42.560  26.457  24.701  1.00  0.00    -0.744 OA
ENDBRANCH  68  71
ENDBRANCH  50  64
BRANCH  51  75
ATOM     75  C   UNL A   1      39.522  33.732  37.107  1.00  0.00     0.023 A 
ATOM     76  C   UNL A   1      40.028  35.048  37.099  1.00  0.00     0.012 A 
ATOM     77  C   UNL A   1      38.831  33.271  38.245  1.00  0.00     0.148 A 
ATOM     78  C   UNL A   1      39.886  35.873  38.215  1.00  0.00     0.002 A 
ATOM     79  C   UNL A   1      38.644  34.118  39.332  1.00  0.00     0.091 A 
ATOM     80  F   UNL A   1      38.370  32.012  38.242  1.00  0.00    -0.205 F 
ATOM     81  C   UNL A   1      39.187  35.413  39.327  1.00  0.00     0.022 A 
BRANCH  79  82
ATOM     82  S   UNL A   1      37.652  33.651  40.756  1.00  0.00     0.127 S 
ATOM     83  O   UNL A   1      36.458  33.097  40.119  1.00  0.00    -0.237 OA
ATOM     84  O   UNL A   1      38.512  32.663  41.412  1.00  0.00    -0.237 OA
ATOM     85  O   UNL A   1      37.455  34.875  41.516  1.00  0.00    -0.744 OA
ENDBRANCH  79  82
ENDBRANCH  51  75
BRANCH  63  86
ATOM     86  C   UNL A   1      44.261  28.872  35.485  1.00  0.00     0.023 A 
ATOM     87  C   UNL A   1      45.527  29.458  35.282  1.00  0.00     0.012 A 
ATOM     88  C   UNL A   1      44.123  27.833  36.427  1.00  0.00     0.148 A 
ATOM     89  C   UNL A   1      46.641  28.994  35.980  1.00  0.00     0.002 A 
ATOM     90  C   UNL A   1      45.228  27.410  37.154  1.00  0.00     0.091 A 
ATOM     91  F   UNL A   1      42.913  27.277  36.594  1.00  0.00    -0.205 F 
ATOM     92  C   UNL A   1      46.490  27.980  36.923  1.00  0.00     0.022 A 
BRANCH  90  93
ATOM     93  S   UNL A   1      45.112  26.180  38.458  1.00  0.00     0.127 S 
ATOM     94  O   UNL A   1      44.134  26.789  39.357  1.00  0.00    -0.237 OA
ATOM     95  O   UNL A   1      44.625  25.006  37.733  1.00  0.00    -0.237 OA
ATOM     96  O   UNL A   1      46.457  26.039  39.000  1.00  0.00    -0.744 OA
ENDBRANCH  90  93
ENDBRANCH  63  86
ENDBRANCH  37  38
ENDBRANCH  29  32
ENDBRANCH  27  28
ENDBRANCH   1  27
TORSDOF 16
ENDMDL
MODEL 3
REMARK VINA RESULT:     -10.3      4.987      9.095
REMARK SMILES COc1ccc([C@H]2[C@H](C(=O)NCCCNC(=O)c3ccc(-c4c5nc(c(-c6cccc(S(=O)(=O)[O-])c6F)c6ccc([nH]6)c(-c6cccc(S(=O)(=O)[O-])c6F)c6nc(c(-c7cccc(S(=O)(=O)[O-])c7F)c7ccc4[nH]7)C=C6)C=C5)cc3)CCN2c2ccc(F)cc2)cc1
REMARK SMILES IDX 13 1 12 2 11 3 9 4 10 5 8 7 7 8 83 9 81 10 82 11 6 12 3 13
REMARK SMILES IDX 4 14 92 15 5 16 91 17 2 18 1 19 84 20 85 21 90 22 86 23
REMARK SMILES IDX 89 24 87 25 88 26 14 27 15 28 16 29 17 31 18 32 19 33 80 34
REMARK SMILES IDX 20 35 79 36 21 37 22 38 23 39 73 40 24 41 78 42 72 43 74 44
REMARK SMILES IDX 25 45 77 46 71 47 70 48 26 50 58 51 38 52 57 53 39 54 42 55
REMARK SMILES IDX 56 56 75 57 40 58 41 59 55 61 76 62 43 63 27 64 28 65 36 66
REMARK SMILES IDX 29 67 31 68 37 69 30 70 32 71 33 72 34 73 35 74 59 75 60 76
REMARK SMILES IDX 68 77 61 78 63 79 69 80 62 81 64 82 65 83 66 84 67 85 44 86
REMARK SMILES IDX 45 87 53 88 46 89 48 90 54 91 47 92 49 93 50 94 51 95 52 96
REMARK H PARENT 11 6 15 30 74 49 42 60
REMARK Flexibility Score: inf
ROOT
ATOM      1  C   UNL A   1      35.818  23.338  24.691  1.00  0.00     0.042 C 
ENDROOT
BRANCH   1   2
ATOM      2  C   UNL A   1      34.351  23.127  24.340  1.00  0.00     0.117 C 
BRANCH   2   3
ATOM      3  N   UNL A   1      33.902  24.040  23.300  1.00  0.00    -0.356 N 
ATOM      4  C   UNL A   1      33.229  25.217  23.314  1.00  0.00     0.225 C 
ATOM      5  O   UNL A   1      32.933  25.667  22.196  1.00  0.00    -0.275 OA
ATOM      6  H   UNL A   1      34.138  23.740  22.393  1.00  0.00     0.163 HD
BRANCH   4   7
ATOM      7  C   UNL A   1      32.795  26.012  24.545  1.00  0.00     0.107 C 
ATOM      8  C   UNL A   1      32.387  27.461  24.205  1.00  0.00     0.125 C 
ATOM      9  N   UNL A   1      30.922  27.333  24.133  1.00  0.00    -0.364 N 
ATOM     10  C   UNL A   1      31.655  25.456  25.392  1.00  0.00     0.037 C 
ATOM     11  C   UNL A   1      30.450  26.361  25.117  1.00  0.00     0.118 C 
BRANCH   8  12
ATOM     12  C   UNL A   1      32.787  28.463  25.306  1.00  0.00    -0.024 A 
ATOM     13  C   UNL A   1      33.583  30.378  27.252  1.00  0.00     0.118 A 
ATOM     14  C   UNL A   1      32.349  30.481  26.608  1.00  0.00     0.047 A 
ATOM     15  C   UNL A   1      34.397  29.290  26.965  1.00  0.00     0.047 A 
ATOM     16  C   UNL A   1      31.950  29.535  25.649  1.00  0.00     0.010 A 
ATOM     17  C   UNL A   1      33.995  28.344  26.018  1.00  0.00     0.010 A 
BRANCH  13  18
ATOM     18  O   UNL A   1      33.877  31.372  28.144  1.00  0.00    -0.497 OA
ATOM     19  C   UNL A   1      35.261  31.602  28.395  1.00  0.00     0.278 C 
ENDBRANCH  13  18
ENDBRANCH   8  12
BRANCH   9  20
ATOM     20  C   UNL A   1      30.086  28.084  23.334  1.00  0.00     0.037 A 
ATOM     21  C   UNL A   1      30.600  28.982  22.381  1.00  0.00     0.029 A 
ATOM     22  C   UNL A   1      28.685  28.047  23.465  1.00  0.00     0.029 A 
ATOM     23  C   UNL A   1      29.775  29.853  21.663  1.00  0.00     0.041 A 
ATOM     24  C   UNL A   1      27.853  28.938  22.774  1.00  0.00     0.041 A 
ATOM     25  C   UNL A   1      28.409  29.844  21.890  1.00  0.00     0.123 A 
ATOM     26  F   UNL A   1      27.630  30.731  21.262  1.00  0.00    -0.207 F 
ENDBRANCH   9  20
ENDBRANCH   4   7
ENDBRANCH   2   3
ENDBRANCH   1   2
BRANCH   1  27
ATOM     27  C   UNL A   1      36.200  22.941  26.108  1.00  0.00     0.118 C 
BRANCH  27  28
ATOM     28  N   UNL A   1      37.180  21.865  26.134  1.00  0.00    -0.352 N 
ATOM     29  C   UNL A   1      38.552  21.891  26.215  1.00  0.00     0.251 C 
ATOM     30  H   UNL A   1      36.792  20.961  26.087  1.00  0.00     0.163 HD
ATOM     31  O   UNL A   1      39.165  20.845  25.996  1.00  0.00    -0.269 OA
BRANCH  29  32
ATOM     32  C   UNL A   1      39.310  23.124  26.551  1.00  0.00     0.039 A 
ATOM     33  C   UNL A   1      39.071  24.283  25.799  1.00  0.00     0.014 A 
ATOM     34  C   UNL A   1      40.307  23.149  27.528  1.00  0.00     0.014 A 
ATOM     35  C   UNL A   1      39.793  25.455  26.053  1.00  0.00     0.010 A 
ATOM     36  C   UNL A   1      40.956  24.343  27.848  1.00  0.00     0.010 A 
ATOM     37  C   UNL A   1      40.727  25.507  27.099  1.00  0.00    -0.014 A 
BRANCH  37  38
ATOM     38  C   UNL A   1      41.490  26.750  27.404  1.00  0.00     0.031 A 
ATOM     39  C   UNL A   1      42.902  26.924  26.897  1.00  0.00     0.074 A 
ATOM     40  C   UNL A   1      40.946  27.696  28.196  1.00  0.00     0.049 A 
ATOM     41  N   UNL A   1      43.746  27.900  27.116  1.00  0.00    -0.248 NA
ATOM     42  C   UNL A   1      43.448  25.846  26.054  1.00  0.00     0.031 C 
ATOM     43  C   UNL A   1      39.620  27.624  28.812  1.00  0.00     0.029 A 
ATOM     44  N   UNL A   1      41.451  28.895  28.640  1.00  0.00    -0.354 N 
ATOM     45  C   UNL A   1      44.927  27.538  26.476  1.00  0.00     0.074 A 
ATOM     46  C   UNL A   1      44.705  26.235  25.889  1.00  0.00     0.031 C 
ATOM     47  C   UNL A   1      39.412  28.731  29.545  1.00  0.00     0.029 A 
ATOM     48  C   UNL A   1      40.600  29.576  29.481  1.00  0.00     0.049 A 
ATOM     49  H   UNL A   1      42.338  29.235  28.380  1.00  0.00     0.167 HD
ATOM     50  C   UNL A   1      46.082  28.237  26.356  1.00  0.00     0.034 A 
ATOM     51  C   UNL A   1      40.761  30.744  30.135  1.00  0.00     0.034 A 
ATOM     52  C   UNL A   1      46.286  29.556  26.890  1.00  0.00     0.049 A 
ATOM     53  C   UNL A   1      42.041  31.516  29.953  1.00  0.00     0.074 A 
ATOM     54  C   UNL A   1      47.392  30.378  26.754  1.00  0.00     0.029 A 
ATOM     55  N   UNL A   1      45.367  30.248  27.662  1.00  0.00    -0.354 N 
ATOM     56  N   UNL A   1      43.089  31.220  29.222  1.00  0.00    -0.248 NA
ATOM     57  C   UNL A   1      42.148  32.803  30.657  1.00  0.00     0.031 C 
ATOM     58  C   UNL A   1      47.147  31.560  27.460  1.00  0.00     0.029 A 
ATOM     59  C   UNL A   1      45.880  31.485  28.014  1.00  0.00     0.049 A 
ATOM     60  H   UNL A   1      44.480  29.910  27.924  1.00  0.00     0.167 HD
ATOM     61  C   UNL A   1      43.959  32.297  29.349  1.00  0.00     0.074 A 
ATOM     62  C   UNL A   1      43.306  33.264  30.207  1.00  0.00     0.031 C 
ATOM     63  C   UNL A   1      45.195  32.464  28.817  1.00  0.00     0.034 A 
BRANCH  50  64
ATOM     64  C   UNL A   1      47.202  27.615  25.558  1.00  0.00     0.023 A 
ATOM     65  C   UNL A   1      48.047  26.668  26.172  1.00  0.00     0.012 A 
ATOM     66  C   UNL A   1      47.372  27.908  24.190  1.00  0.00     0.148 A 
ATOM     67  C   UNL A   1      49.065  26.047  25.449  1.00  0.00     0.002 A 
ATOM     68  C   UNL A   1      48.360  27.251  23.464  1.00  0.00     0.091 A 
ATOM     69  F   UNL A   1      46.570  28.822  23.627  1.00  0.00    -0.205 F 
ATOM     70  C   UNL A   1      49.214  26.330  24.095  1.00  0.00     0.022 A 
BRANCH  68  71
ATOM     71  S   UNL A   1      48.586  27.482  21.697  1.00  0.00     0.127 S 
ATOM     72  O   UNL A   1      49.565  28.567  21.664  1.00  0.00    -0.237 OA
ATOM     73  O   UNL A   1      49.106  26.179  21.281  1.00  0.00    -0.237 OA
ATOM     74  O   UNL A   1      47.273  27.812  21.163  1.00  0.00    -0.744 OA
ENDBRANCH  68  71
ENDBRANCH  50  64
BRANCH  51  75
ATOM     75  C   UNL A   1      39.658  31.291  30.976  1.00  0.00     0.023 A 
ATOM     76  C   UNL A   1      38.595  31.981  30.356  1.00  0.00     0.012 A 
ATOM     77  C   UNL A   1      39.648  31.134  32.375  1.00  0.00     0.148 A 
ATOM     78  C   UNL A   1      37.566  32.536  31.117  1.00  0.00     0.002 A 
ATOM     79  C   UNL A   1      38.590  31.642  33.122  1.00  0.00     0.091 A 
ATOM     80  F   UNL A   1      40.674  30.490  32.950  1.00  0.00    -0.205 F 
ATOM     81  C   UNL A   1      37.559  32.360  32.497  1.00  0.00     0.022 A 
BRANCH  79  82
ATOM     82  S   UNL A   1      38.436  31.355  34.889  1.00  0.00     0.127 S 
ATOM     83  O   UNL A   1      38.516  29.897  34.963  1.00  0.00    -0.237 OA
ATOM     84  O   UNL A   1      39.609  32.060  35.413  1.00  0.00    -0.237 OA
ATOM     85  O   UNL A   1      37.163  31.941  35.272  1.00  0.00    -0.744 OA
ENDBRANCH  79  82
ENDBRANCH  51  75
BRANCH  63  86
ATOM     86  C   UNL A   1      45.913  33.756  29.106  1.00  0.00     0.023 A 
ATOM     87  C   UNL A   1      46.781  33.845  30.213  1.00  0.00     0.012 A 
ATOM     88  C   UNL A   1      45.786  34.859  28.237  1.00  0.00     0.148 A 
ATOM     89  C   UNL A   1      47.483  35.022  30.470  1.00  0.00     0.002 A 
ATOM     90  C   UNL A   1      46.528  36.010  28.471  1.00  0.00     0.091 A 
ATOM     91  F   UNL A   1      44.943  34.761  27.198  1.00  0.00    -0.205 F 
ATOM     92  C   UNL A   1      47.366  36.099  29.594  1.00  0.00     0.022 A 
BRANCH  90  93
ATOM     93  S   UNL A   1      46.515  37.410  27.345  1.00  0.00     0.127 S 
ATOM     94  O   UNL A   1      47.500  38.297  27.960  1.00  0.00    -0.237 OA
ATOM     95  O   UNL A   1      46.947  36.799  26.087  1.00  0.00    -0.237 OA
ATOM     96  O   UNL A   1      45.146  37.907  27.336  1.00  0.00    -0.744 OA
ENDBRANCH  90  93
ENDBRANCH  63  86
ENDBRANCH  37  38
ENDBRANCH  29  32
ENDBRANCH  27  28
ENDBRANCH   1  27
TORSDOF 16
ENDMDL
