MODEL 1
REMARK VINA RESULT:     -12.1      0.000      0.000
REMARK SMILES O=C(NCCCNC(=O)[C@]1(NC(=O)c2nc(C3CC3)n[nH]2)CCSC1)c1ccc(-c2c3nc(c(-c4cccc(S(=O)(=O)[O-])c4F)c4ccc([nH]4)c(-c4cccc(S(=O)(=O)[O-])c4F)c4nc(c(-c5cccc(S(=O)(=O)[O-])c5F)c5ccc2[nH]5)C=C4)C=C3)cc1
REMARK SMILES IDX 5 1 4 2 3 3 1 4 2 5 26 7 27 8 88 9 28 10 87 11 29 12 30 13
REMARK SMILES IDX 31 14 81 15 32 16 86 17 80 18 82 19 33 20 85 21 79 22 78 23
REMARK SMILES IDX 34 25 66 26 46 27 65 28 47 29 50 30 64 31 83 32 48 33 49 34
REMARK SMILES IDX 63 36 84 37 51 38 35 39 36 40 44 41 37 42 39 43 45 44 38 45
REMARK SMILES IDX 40 46 41 47 42 48 43 49 67 50 68 51 76 52 69 53 71 54 77 55
REMARK SMILES IDX 70 56 72 57 73 58 74 59 75 60 52 61 53 62 61 63 54 64 56 65
REMARK SMILES IDX 62 66 55 67 57 68 58 69 59 70 60 71 6 72 7 73 8 74 9 76
REMARK SMILES IDX 10 77 22 78 25 79 23 80 24 81 11 82 12 83 13 85 14 86 15 87
REMARK SMILES IDX 21 88 16 89 20 90 17 92 18 93 19 94
REMARK H PARENT 3 6 82 24 50 35 7 75 11 84 21 91
REMARK Flexibility Score: inf
ROOT
ATOM      1  C   UNL A   1      37.131  20.458  24.981  1.00  0.00     0.042 C 
ENDROOT
BRANCH   1   2
ATOM      2  C   UNL A   1      38.458  20.931  25.567  1.00  0.00     0.118 C 
BRANCH   2   3
ATOM      3  N   UNL A   1      39.436  19.888  25.805  1.00  0.00    -0.352 N 
ATOM      4  O   UNL A   1      41.444  19.020  26.320  1.00  0.00    -0.269 OA
ATOM      5  C   UNL A   1      40.727  20.006  26.264  1.00  0.00     0.251 C 
ATOM      6  H   UNL A   1      39.135  18.971  25.612  1.00  0.00     0.163 HD
BRANCH   5   7
ATOM      7  C   UNL A   1      41.235  21.335  26.665  1.00  0.00     0.039 A 
ATOM      8  C   UNL A   1      41.469  21.635  28.012  1.00  0.00     0.014 A 
ATOM      9  C   UNL A   1      41.486  22.282  25.671  1.00  0.00     0.014 A 
ATOM     10  C   UNL A   1      41.868  22.919  28.373  1.00  0.00     0.010 A 
ATOM     11  C   UNL A   1      41.933  23.552  26.032  1.00  0.00     0.010 A 
ATOM     12  C   UNL A   1      42.106  23.886  27.385  1.00  0.00    -0.014 A 
BRANCH  12  13
ATOM     13  C   UNL A   1      42.600  25.233  27.750  1.00  0.00     0.031 A 
ATOM     14  C   UNL A   1      41.676  26.243  28.364  1.00  0.00     0.074 A 
ATOM     15  C   UNL A   1      43.869  25.563  27.446  1.00  0.00     0.049 A 
ATOM     16  N   UNL A   1      41.899  27.501  28.642  1.00  0.00    -0.248 NA
ATOM     17  C   UNL A   1      40.319  25.784  28.701  1.00  0.00     0.031 C 
ATOM     18  C   UNL A   1      44.838  24.668  26.811  1.00  0.00     0.029 A 
ATOM     19  N   UNL A   1      44.546  26.747  27.586  1.00  0.00    -0.354 N 
ATOM     20  C   UNL A   1      40.702  27.998  29.142  1.00  0.00     0.074 A 
ATOM     21  C   UNL A   1      39.753  26.904  29.132  1.00  0.00     0.031 C 
ATOM     22  C   UNL A   1      45.976  25.341  26.592  1.00  0.00     0.029 A 
ATOM     23  C   UNL A   1      45.802  26.722  27.029  1.00  0.00     0.049 A 
ATOM     24  H   UNL A   1      44.170  27.535  28.041  1.00  0.00     0.167 HD
ATOM     25  C   UNL A   1      40.425  29.249  29.577  1.00  0.00     0.034 A 
ATOM     26  C   UNL A   1      46.702  27.709  26.854  1.00  0.00     0.034 A 
ATOM     27  C   UNL A   1      41.386  30.319  29.612  1.00  0.00     0.049 A 
ATOM     28  C   UNL A   1      46.381  29.084  27.365  1.00  0.00     0.074 A 
ATOM     29  C   UNL A   1      41.229  31.603  30.103  1.00  0.00     0.029 A 
ATOM     30  N   UNL A   1      42.682  30.234  29.123  1.00  0.00    -0.354 N 
ATOM     31  N   UNL A   1      45.289  29.505  27.957  1.00  0.00    -0.248 NA
ATOM     32  C   UNL A   1      47.420  30.112  27.215  1.00  0.00     0.031 C 
ATOM     33  C   UNL A   1      42.426  32.298  29.898  1.00  0.00     0.029 A 
ATOM     34  C   UNL A   1      43.334  31.443  29.294  1.00  0.00     0.049 A 
ATOM     35  H   UNL A   1      43.079  29.431  28.715  1.00  0.00     0.167 HD
ATOM     36  C   UNL A   1      45.518  30.836  28.280  1.00  0.00     0.074 A 
ATOM     37  C   UNL A   1      46.859  31.149  27.826  1.00  0.00     0.031 C 
ATOM     38  C   UNL A   1      44.689  31.720  28.887  1.00  0.00     0.034 A 
BRANCH  25  39
ATOM     39  C   UNL A   1      39.034  29.521  30.086  1.00  0.00     0.023 A 
ATOM     40  C   UNL A   1      38.679  29.115  31.389  1.00  0.00     0.012 A 
ATOM     41  C   UNL A   1      38.094  30.215  29.300  1.00  0.00     0.148 A 
ATOM     42  C   UNL A   1      37.401  29.365  31.887  1.00  0.00     0.002 A 
ATOM     43  C   UNL A   1      36.834  30.494  29.818  1.00  0.00     0.091 A 
ATOM     44  F   UNL A   1      38.437  30.571  28.053  1.00  0.00    -0.205 F 
ATOM     45  C   UNL A   1      36.482  30.061  31.107  1.00  0.00     0.022 A 
BRANCH  43  46
ATOM     46  S   UNL A   1      35.618  31.448  28.901  1.00  0.00     0.127 S 
ATOM     47  O   UNL A   1      35.049  30.433  28.017  1.00  0.00    -0.237 OA
ATOM     48  O   UNL A   1      34.716  31.910  29.958  1.00  0.00    -0.237 OA
ATOM     49  O   UNL A   1      36.370  32.512  28.249  1.00  0.00    -0.744 OA
ENDBRANCH  43  46
ENDBRANCH  25  39
BRANCH  26  50
ATOM     50  C   UNL A   1      48.001  27.393  26.201  1.00  0.00     0.023 A 
ATOM     51  C   UNL A   1      49.023  26.788  26.955  1.00  0.00     0.012 A 
ATOM     52  C   UNL A   1      48.186  27.589  24.817  1.00  0.00     0.148 A 
ATOM     53  C   UNL A   1      50.212  26.388  26.342  1.00  0.00     0.002 A 
ATOM     54  C   UNL A   1      49.348  27.138  24.205  1.00  0.00     0.091 A 
ATOM     55  F   UNL A   1      47.200  28.176  24.122  1.00  0.00    -0.205 F 
ATOM     56  C   UNL A   1      50.369  26.548  24.968  1.00  0.00     0.022 A 
BRANCH  54  57
ATOM     57  S   UNL A   1      49.575  27.169  22.422  1.00  0.00     0.127 S 
ATOM     58  O   UNL A   1      48.481  26.315  21.968  1.00  0.00    -0.237 OA
ATOM     59  O   UNL A   1      49.413  28.591  22.122  1.00  0.00    -0.237 OA
ATOM     60  O   UNL A   1      50.917  26.653  22.187  1.00  0.00    -0.744 OA
ENDBRANCH  54  57
ENDBRANCH  26  50
BRANCH  38  61
ATOM     61  C   UNL A   1      45.208  33.110  29.135  1.00  0.00     0.023 A 
ATOM     62  C   UNL A   1      45.958  33.377  30.297  1.00  0.00     0.012 A 
ATOM     63  C   UNL A   1      45.046  34.119  28.165  1.00  0.00     0.148 A 
ATOM     64  C   UNL A   1      46.526  34.634  30.497  1.00  0.00     0.002 A 
ATOM     65  C   UNL A   1      45.650  35.356  28.352  1.00  0.00     0.091 A 
ATOM     66  F   UNL A   1      44.311  33.846  27.077  1.00  0.00    -0.205 F 
ATOM     67  C   UNL A   1      46.385  35.618  29.520  1.00  0.00     0.022 A 
BRANCH  65  68
ATOM     68  S   UNL A   1      45.598  36.650  27.107  1.00  0.00     0.127 S 
ATOM     69  O   UNL A   1      46.384  37.706  27.743  1.00  0.00    -0.237 OA
ATOM     70  O   UNL A   1      46.250  36.008  25.965  1.00  0.00    -0.237 OA
ATOM     71  O   UNL A   1      44.189  36.956  26.903  1.00  0.00    -0.744 OA
ENDBRANCH  65  68
ENDBRANCH  38  61
ENDBRANCH  12  13
ENDBRANCH   5   7
ENDBRANCH   2   3
ENDBRANCH   1   2
BRANCH   1  72
ATOM     72  C   UNL A   1      35.867  21.229  25.357  1.00  0.00     0.117 C 
BRANCH  72  73
ATOM     73  N   UNL A   1      34.695  20.423  25.646  1.00  0.00    -0.354 N 
ATOM     74  C   UNL A   1      33.355  20.645  25.594  1.00  0.00     0.246 C 
ATOM     75  H   UNL A   1      34.921  19.514  25.946  1.00  0.00     0.163 HD
ATOM     76  O   UNL A   1      32.655  19.620  25.576  1.00  0.00    -0.272 OA
BRANCH  74  77
ATOM     77  C   UNL A   1      32.655  22.036  25.458  1.00  0.00     0.129 C 
ATOM     78  C   UNL A   1      31.908  21.968  24.089  1.00  0.00     0.050 C 
ATOM     79  C   UNL A   1      33.478  23.331  25.396  1.00  0.00     0.108 C 
ATOM     80  C   UNL A   1      32.888  22.312  22.990  1.00  0.00     0.072 C 
ATOM     81  S   UNL A   1      33.699  23.789  23.637  1.00  0.00    -0.159 SA
BRANCH  77  82
ATOM     82  N   UNL A   1      31.566  22.231  26.469  1.00  0.00    -0.334 N 
ATOM     83  C   UNL A   1      30.623  23.186  26.736  1.00  0.00     0.289 C 
ATOM     84  H   UNL A   1      31.516  21.479  27.103  1.00  0.00     0.165 HD
ATOM     85  O   UNL A   1      29.752  22.846  27.543  1.00  0.00    -0.266 OA
BRANCH  83  86
ATOM     86  C   UNL A   1      30.730  24.551  26.299  1.00  0.00     0.214 A 
ATOM     87  N   UNL A   1      31.295  25.601  26.867  1.00  0.00    -0.207 NA
ATOM     88  N   UNL A   1      30.212  24.928  25.093  1.00  0.00    -0.255 N 
ATOM     89  C   UNL A   1      30.997  26.620  25.978  1.00  0.00     0.154 A 
ATOM     90  N   UNL A   1      30.338  26.240  24.879  1.00  0.00    -0.158 NA
ATOM     91  H   UNL A   1      29.794  24.305  24.456  1.00  0.00     0.192 HD
BRANCH  89  92
ATOM     92  C   UNL A   1      31.344  28.087  26.179  1.00  0.00     0.060 C 
ATOM     93  C   UNL A   1      32.167  28.479  27.382  1.00  0.00     0.012 C 
ATOM     94  C   UNL A   1      32.779  28.537  26.024  1.00  0.00     0.012 C 
ENDBRANCH  89  92
ENDBRANCH  83  86
ENDBRANCH  77  82
ENDBRANCH  74  77
ENDBRANCH  72  73
ENDBRANCH   1  72
TORSDOF 16
ENDMDL
MODEL 2
REMARK VINA RESULT:     -12.0      5.434     10.062
REMARK SMILES O=C(NCCCNC(=O)[C@]1(NC(=O)c2nc(C3CC3)n[nH]2)CCSC1)c1ccc(-c2c3nc(c(-c4cccc(S(=O)(=O)[O-])c4F)c4ccc([nH]4)c(-c4cccc(S(=O)(=O)[O-])c4F)c4nc(c(-c5cccc(S(=O)(=O)[O-])c5F)c5ccc2[nH]5)C=C4)C=C3)cc1
REMARK SMILES IDX 5 1 4 2 3 3 1 4 2 5 26 7 27 8 88 9 28 10 87 11 29 12 30 13
REMARK SMILES IDX 31 14 81 15 32 16 86 17 80 18 82 19 33 20 85 21 79 22 78 23
REMARK SMILES IDX 34 25 66 26 46 27 65 28 47 29 50 30 64 31 83 32 48 33 49 34
REMARK SMILES IDX 63 36 84 37 51 38 35 39 36 40 44 41 37 42 39 43 45 44 38 45
REMARK SMILES IDX 40 46 41 47 42 48 43 49 67 50 68 51 76 52 69 53 71 54 77 55
REMARK SMILES IDX 70 56 72 57 73 58 74 59 75 60 52 61 53 62 61 63 54 64 56 65
REMARK SMILES IDX 62 66 55 67 57 68 58 69 59 70 60 71 6 72 7 73 8 74 9 76
REMARK SMILES IDX 10 77 22 78 25 79 23 80 24 81 11 82 12 83 13 85 14 86 15 87
REMARK SMILES IDX 21 88 16 89 20 90 17 92 18 93 19 94
REMARK H PARENT 3 6 82 24 50 35 7 75 11 84 21 91
REMARK Flexibility Score: inf
ROOT
ATOM      1  C   UNL A   1      33.655  29.071  23.470  1.00  0.00     0.042 C 
ENDROOT
BRANCH   1   2
ATOM      2  C   UNL A   1      33.709  29.157  24.992  1.00  0.00     0.118 C 
BRANCH   2   3
ATOM      3  N   UNL A   1      32.889  30.198  25.582  1.00  0.00    -0.352 N 
ATOM      4  O   UNL A   1      32.268  31.709  27.125  1.00  0.00    -0.269 OA
ATOM      5  C   UNL A   1      33.116  30.929  26.725  1.00  0.00     0.251 C 
ATOM      6  H   UNL A   1      32.058  30.409  25.099  1.00  0.00     0.163 HD
BRANCH   5   7
ATOM      7  C   UNL A   1      34.381  30.741  27.465  1.00  0.00     0.039 A 
ATOM      8  C   UNL A   1      35.280  31.802  27.626  1.00  0.00     0.014 A 
ATOM      9  C   UNL A   1      34.657  29.487  28.011  1.00  0.00     0.014 A 
ATOM     10  C   UNL A   1      36.502  31.581  28.255  1.00  0.00     0.010 A 
ATOM     11  C   UNL A   1      35.860  29.281  28.683  1.00  0.00     0.010 A 
ATOM     12  C   UNL A   1      36.800  30.320  28.791  1.00  0.00    -0.014 A 
BRANCH  12  13
ATOM     13  C   UNL A   1      38.065  30.091  29.525  1.00  0.00     0.031 A 
ATOM     14  C   UNL A   1      39.100  29.149  28.986  1.00  0.00     0.074 A 
ATOM     15  C   UNL A   1      38.234  30.677  30.725  1.00  0.00     0.049 A 
ATOM     16  N   UNL A   1      40.210  28.738  29.542  1.00  0.00    -0.248 NA
ATOM     17  C   UNL A   1      38.852  28.584  27.650  1.00  0.00     0.031 C 
ATOM     18  C   UNL A   1      37.270  31.580  31.359  1.00  0.00     0.029 A 
ATOM     19  N   UNL A   1      39.248  30.570  31.641  1.00  0.00    -0.354 N 
ATOM     20  C   UNL A   1      40.770  27.833  28.649  1.00  0.00     0.074 A 
ATOM     21  C   UNL A   1      39.879  27.756  27.511  1.00  0.00     0.031 C 
ATOM     22  C   UNL A   1      37.727  31.922  32.573  1.00  0.00     0.029 A 
ATOM     23  C   UNL A   1      38.988  31.231  32.818  1.00  0.00     0.049 A 
ATOM     24  H   UNL A   1      40.078  30.069  31.473  1.00  0.00     0.167 HD
ATOM     25  C   UNL A   1      41.927  27.140  28.766  1.00  0.00     0.034 A 
ATOM     26  C   UNL A   1      39.669  31.252  33.980  1.00  0.00     0.034 A 
ATOM     27  C   UNL A   1      42.820  27.250  29.890  1.00  0.00     0.049 A 
ATOM     28  C   UNL A   1      40.960  30.493  34.079  1.00  0.00     0.074 A 
ATOM     29  C   UNL A   1      44.053  26.649  30.073  1.00  0.00     0.029 A 
ATOM     30  N   UNL A   1      42.569  28.004  31.027  1.00  0.00    -0.354 N 
ATOM     31  N   UNL A   1      41.544  29.746  33.173  1.00  0.00    -0.248 NA
ATOM     32  C   UNL A   1      41.704  30.600  35.341  1.00  0.00     0.031 C 
ATOM     33  C   UNL A   1      44.540  27.028  31.328  1.00  0.00     0.029 A 
ATOM     34  C   UNL A   1      43.619  27.878  31.921  1.00  0.00     0.049 A 
ATOM     35  H   UNL A   1      41.763  28.548  31.178  1.00  0.00     0.167 HD
ATOM     36  C   UNL A   1      42.737  29.319  33.741  1.00  0.00     0.074 A 
ATOM     37  C   UNL A   1      42.798  29.899  35.067  1.00  0.00     0.031 C 
ATOM     38  C   UNL A   1      43.689  28.510  33.214  1.00  0.00     0.034 A 
BRANCH  25  39
ATOM     39  C   UNL A   1      42.312  26.226  27.634  1.00  0.00     0.023 A 
ATOM     40  C   UNL A   1      43.108  26.721  26.581  1.00  0.00     0.012 A 
ATOM     41  C   UNL A   1      41.930  24.870  27.631  1.00  0.00     0.148 A 
ATOM     42  C   UNL A   1      43.487  25.891  25.526  1.00  0.00     0.002 A 
ATOM     43  C   UNL A   1      42.344  24.039  26.594  1.00  0.00     0.091 A 
ATOM     44  F   UNL A   1      41.151  24.420  28.625  1.00  0.00    -0.205 F 
ATOM     45  C   UNL A   1      43.113  24.550  25.537  1.00  0.00     0.022 A 
BRANCH  43  46
ATOM     46  S   UNL A   1      41.963  22.284  26.573  1.00  0.00     0.127 S 
ATOM     47  O   UNL A   1      42.530  21.841  27.845  1.00  0.00    -0.237 OA
ATOM     48  O   UNL A   1      40.500  22.279  26.524  1.00  0.00    -0.237 OA
ATOM     49  O   UNL A   1      42.603  21.761  25.373  1.00  0.00    -0.744 OA
ENDBRANCH  43  46
ENDBRANCH  25  39
BRANCH  26  50
ATOM     50  C   UNL A   1      39.140  32.062  35.111  1.00  0.00     0.023 A 
ATOM     51  C   UNL A   1      38.217  31.485  36.001  1.00  0.00     0.012 A 
ATOM     52  C   UNL A   1      39.630  33.359  35.367  1.00  0.00     0.148 A 
ATOM     53  C   UNL A   1      37.785  32.188  37.126  1.00  0.00     0.002 A 
ATOM     54  C   UNL A   1      39.238  34.031  36.518  1.00  0.00     0.091 A 
ATOM     55  F   UNL A   1      40.503  33.891  34.499  1.00  0.00    -0.205 F 
ATOM     56  C   UNL A   1      38.305  33.452  37.394  1.00  0.00     0.022 A 
BRANCH  54  57
ATOM     57  S   UNL A   1      39.966  35.596  37.019  1.00  0.00     0.127 S 
ATOM     58  O   UNL A   1      41.376  35.239  37.154  1.00  0.00    -0.237 OA
ATOM     59  O   UNL A   1      39.654  36.453  35.875  1.00  0.00    -0.237 OA
ATOM     60  O   UNL A   1      39.288  35.969  38.253  1.00  0.00    -0.744 OA
ENDBRANCH  54  57
ENDBRANCH  26  50
BRANCH  38  61
ATOM     61  C   UNL A   1      44.906  28.224  34.052  1.00  0.00     0.023 A 
ATOM     62  C   UNL A   1      45.994  29.117  34.027  1.00  0.00     0.012 A 
ATOM     63  C   UNL A   1      44.922  27.131  34.941  1.00  0.00     0.148 A 
ATOM     64  C   UNL A   1      47.089  28.919  34.867  1.00  0.00     0.002 A 
ATOM     65  C   UNL A   1      45.998  26.963  35.804  1.00  0.00     0.091 A 
ATOM     66  F   UNL A   1      43.883  26.284  34.931  1.00  0.00    -0.205 F 
ATOM     67  C   UNL A   1      47.086  27.851  35.764  1.00  0.00     0.022 A 
BRANCH  65  68
ATOM     68  S   UNL A   1      46.038  25.673  37.054  1.00  0.00     0.127 S 
ATOM     69  O   UNL A   1      47.317  25.933  37.710  1.00  0.00    -0.237 OA
ATOM     70  O   UNL A   1      44.861  25.991  37.864  1.00  0.00    -0.237 OA
ATOM     71  O   UNL A   1      45.950  24.411  36.332  1.00  0.00    -0.744 OA
ENDBRANCH  65  68
ENDBRANCH  38  61
ENDBRANCH  12  13
ENDBRANCH   5   7
ENDBRANCH   2   3
ENDBRANCH   1   2
BRANCH   1  72
ATOM     72  C   UNL A   1      34.100  27.767  22.811  1.00  0.00     0.117 C 
BRANCH  72  73
ATOM     73  N   UNL A   1      33.129  27.133  21.937  1.00  0.00    -0.354 N 
ATOM     74  C   UNL A   1      32.201  26.154  22.103  1.00  0.00     0.246 C 
ATOM     75  H   UNL A   1      33.147  27.493  21.021  1.00  0.00     0.163 HD
ATOM     76  O   UNL A   1      31.316  26.120  21.232  1.00  0.00    -0.272 OA
BRANCH  74  77
ATOM     77  C   UNL A   1      32.104  25.169  23.312  1.00  0.00     0.129 C 
ATOM     78  C   UNL A   1      33.539  24.572  23.449  1.00  0.00     0.050 C 
ATOM     79  C   UNL A   1      31.171  23.951  23.265  1.00  0.00     0.108 C 
ATOM     80  C   UNL A   1      33.675  23.423  22.476  1.00  0.00     0.072 C 
ATOM     81  S   UNL A   1      32.153  22.493  22.754  1.00  0.00    -0.159 SA
BRANCH  77  82
ATOM     82  N   UNL A   1      31.869  25.879  24.611  1.00  0.00    -0.334 N 
ATOM     83  C   UNL A   1      30.991  26.816  25.081  1.00  0.00     0.289 C 
ATOM     84  H   UNL A   1      32.511  25.598  25.303  1.00  0.00     0.165 HD
ATOM     85  O   UNL A   1      30.999  26.968  26.308  1.00  0.00    -0.266 OA
BRANCH  83  86
ATOM     86  C   UNL A   1      30.261  27.717  24.232  1.00  0.00     0.214 A 
ATOM     87  N   UNL A   1      30.437  29.001  23.978  1.00  0.00    -0.207 NA
ATOM     88  N   UNL A   1      29.201  27.265  23.500  1.00  0.00    -0.255 N 
ATOM     89  C   UNL A   1      29.373  29.290  23.140  1.00  0.00     0.154 A 
ATOM     90  N   UNL A   1      28.600  28.246  22.825  1.00  0.00    -0.158 NA
ATOM     91  H   UNL A   1      28.913  26.323  23.474  1.00  0.00     0.192 HD
BRANCH  89  92
ATOM     92  C   UNL A   1      29.036  30.669  22.596  1.00  0.00     0.060 C 
ATOM     93  C   UNL A   1      27.655  30.912  22.039  1.00  0.00     0.012 C 
ATOM     94  C   UNL A   1      28.043  31.536  23.336  1.00  0.00     0.012 C 
ENDBRANCH  89  92
ENDBRANCH  83  86
ENDBRANCH  77  82
ENDBRANCH  74  77
ENDBRANCH  72  73
ENDBRANCH   1  72
TORSDOF 16
ENDMDL
MODEL 3
REMARK VINA RESULT:     -12.0      5.738     11.057
REMARK SMILES O=C(NCCCNC(=O)[C@]1(NC(=O)c2nc(C3CC3)n[nH]2)CCSC1)c1ccc(-c2c3nc(c(-c4cccc(S(=O)(=O)[O-])c4F)c4ccc([nH]4)c(-c4cccc(S(=O)(=O)[O-])c4F)c4nc(c(-c5cccc(S(=O)(=O)[O-])c5F)c5ccc2[nH]5)C=C4)C=C3)cc1
REMARK SMILES IDX 5 1 4 2 3 3 1 4 2 5 26 7 27 8 88 9 28 10 87 11 29 12 30 13
REMARK SMILES IDX 31 14 81 15 32 16 86 17 80 18 82 19 33 20 85 21 79 22 78 23
REMARK SMILES IDX 34 25 66 26 46 27 65 28 47 29 50 30 64 31 83 32 48 33 49 34
REMARK SMILES IDX 63 36 84 37 51 38 35 39 36 40 44 41 37 42 39 43 45 44 38 45
REMARK SMILES IDX 40 46 41 47 42 48 43 49 67 50 68 51 76 52 69 53 71 54 77 55
REMARK SMILES IDX 70 56 72 57 73 58 74 59 75 60 52 61 53 62 61 63 54 64 56 65
REMARK SMILES IDX 62 66 55 67 57 68 58 69 59 70 60 71 6 72 7 73 8 74 9 76
REMARK SMILES IDX 10 77 22 78 25 79 23 80 24 81 11 82 12 83 13 85 14 86 15 87
REMARK SMILES IDX 21 88 16 89 20 90 17 92 18 93 19 94
REMARK H PARENT 3 6 82 24 50 35 7 75 11 84 21 91
REMARK Flexibility Score: inf
ROOT
ATOM      1  C   UNL A   1      31.474  30.929  26.100  1.00  0.00     0.042 C 
ENDROOT
BRANCH   1   2
ATOM      2  C   UNL A   1      32.593  31.588  26.899  1.00  0.00     0.118 C 
BRANCH   2   3
ATOM      3  N   UNL A   1      32.399  32.995  27.193  1.00  0.00    -0.352 N 
ATOM      4  O   UNL A   1      32.777  34.962  28.211  1.00  0.00    -0.269 OA
ATOM      5  C   UNL A   1      33.142  33.816  28.009  1.00  0.00     0.251 C 
ATOM      6  H   UNL A   1      31.630  33.420  26.748  1.00  0.00     0.163 HD
BRANCH   5   7
ATOM      7  C   UNL A   1      34.365  33.287  28.647  1.00  0.00     0.039 A 
ATOM      8  C   UNL A   1      35.631  33.731  28.247  1.00  0.00     0.014 A 
ATOM      9  C   UNL A   1      34.233  32.342  29.666  1.00  0.00     0.014 A 
ATOM     10  C   UNL A   1      36.771  33.159  28.805  1.00  0.00     0.010 A 
ATOM     11  C   UNL A   1      35.376  31.806  30.257  1.00  0.00     0.010 A 
ATOM     12  C   UNL A   1      36.652  32.194  29.816  1.00  0.00    -0.014 A 
BRANCH  12  13
ATOM     13  C   UNL A   1      37.856  31.630  30.467  1.00  0.00     0.031 A 
ATOM     14  C   UNL A   1      38.679  30.585  29.774  1.00  0.00     0.074 A 
ATOM     15  C   UNL A   1      38.151  32.010  31.724  1.00  0.00     0.049 A 
ATOM     16  N   UNL A   1      39.692  29.897  30.232  1.00  0.00    -0.248 NA
ATOM     17  C   UNL A   1      38.308  30.259  28.388  1.00  0.00     0.031 C 
ATOM     18  C   UNL A   1      37.391  32.991  32.503  1.00  0.00     0.029 A 
ATOM     19  N   UNL A   1      39.135  31.589  32.581  1.00  0.00    -0.354 N 
ATOM     20  C   UNL A   1      40.053  29.027  29.212  1.00  0.00     0.074 A 
ATOM     21  C   UNL A   1      39.150  29.274  28.107  1.00  0.00     0.031 C 
ATOM     22  C   UNL A   1      37.921  33.076  33.732  1.00  0.00     0.029 A 
ATOM     23  C   UNL A   1      39.024  32.128  33.841  1.00  0.00     0.049 A 
ATOM     24  H   UNL A   1      39.848  30.964  32.320  1.00  0.00     0.167 HD
ATOM     25  C   UNL A   1      41.052  28.113  29.197  1.00  0.00     0.034 A 
ATOM     26  C   UNL A   1      39.710  31.863  34.969  1.00  0.00     0.034 A 
ATOM     27  C   UNL A   1      41.962  27.900  30.291  1.00  0.00     0.049 A 
ATOM     28  C   UNL A   1      40.827  30.862  34.923  1.00  0.00     0.074 A 
ATOM     29  C   UNL A   1      43.055  27.053  30.350  1.00  0.00     0.029 A 
ATOM     30  N   UNL A   1      41.879  28.532  31.523  1.00  0.00    -0.354 N 
ATOM     31  N   UNL A   1      41.242  30.142  33.909  1.00  0.00    -0.248 NA
ATOM     32  C   UNL A   1      41.592  30.657  36.160  1.00  0.00     0.031 C 
ATOM     33  C   UNL A   1      43.622  27.162  31.624  1.00  0.00     0.029 A 
ATOM     34  C   UNL A   1      42.894  28.089  32.353  1.00  0.00     0.049 A 
ATOM     35  H   UNL A   1      41.197  29.197  31.771  1.00  0.00     0.167 HD
ATOM     36  C   UNL A   1      42.334  29.421  34.373  1.00  0.00     0.074 A 
ATOM     37  C   UNL A   1      42.524  29.800  35.759  1.00  0.00     0.031 C 
ATOM     38  C   UNL A   1      43.102  28.520  33.713  1.00  0.00     0.034 A 
BRANCH  25  39
ATOM     39  C   UNL A   1      41.236  27.299  27.944  1.00  0.00     0.023 A 
ATOM     40  C   UNL A   1      41.697  27.926  26.769  1.00  0.00     0.012 A 
ATOM     41  C   UNL A   1      41.000  25.910  27.938  1.00  0.00     0.148 A 
ATOM     42  C   UNL A   1      41.886  27.191  25.599  1.00  0.00     0.002 A 
ATOM     43  C   UNL A   1      41.228  25.177  26.777  1.00  0.00     0.091 A 
ATOM     44  F   UNL A   1      40.536  25.332  29.056  1.00  0.00    -0.205 F 
ATOM     45  C   UNL A   1      41.660  25.817  25.605  1.00  0.00     0.022 A 
BRANCH  43  46
ATOM     46  S   UNL A   1      41.027  23.393  26.725  1.00  0.00     0.127 S 
ATOM     47  O   UNL A   1      41.534  22.999  28.038  1.00  0.00    -0.237 OA
ATOM     48  O   UNL A   1      39.581  23.242  26.560  1.00  0.00    -0.237 OA
ATOM     49  O   UNL A   1      41.810  22.946  25.580  1.00  0.00    -0.744 OA
ENDBRANCH  43  46
ENDBRANCH  25  39
BRANCH  26  50
ATOM     50  C   UNL A   1      39.365  32.605  36.213  1.00  0.00     0.023 A 
ATOM     51  C   UNL A   1      39.836  33.919  36.386  1.00  0.00     0.012 A 
ATOM     52  C   UNL A   1      38.486  32.053  37.168  1.00  0.00     0.148 A 
ATOM     53  C   UNL A   1      39.443  34.671  37.493  1.00  0.00     0.002 A 
ATOM     54  C   UNL A   1      38.056  32.828  38.238  1.00  0.00     0.091 A 
ATOM     55  F   UNL A   1      38.058  30.796  36.985  1.00  0.00    -0.205 F 
ATOM     56  C   UNL A   1      38.543  34.133  38.410  1.00  0.00     0.022 A 
BRANCH  54  57
ATOM     57  S   UNL A   1      36.788  32.272  39.384  1.00  0.00     0.127 S 
ATOM     58  O   UNL A   1      37.015  30.829  39.403  1.00  0.00    -0.237 OA
ATOM     59  O   UNL A   1      37.165  32.971  40.613  1.00  0.00    -0.237 OA
ATOM     60  O   UNL A   1      35.521  32.704  38.810  1.00  0.00    -0.744 OA
ENDBRANCH  54  57
ENDBRANCH  26  50
BRANCH  38  61
ATOM     61  C   UNL A   1      44.249  27.896  34.461  1.00  0.00     0.023 A 
ATOM     62  C   UNL A   1      45.501  28.539  34.480  1.00  0.00     0.012 A 
ATOM     63  C   UNL A   1      44.053  26.733  35.233  1.00  0.00     0.148 A 
ATOM     64  C   UNL A   1      46.548  28.026  35.244  1.00  0.00     0.002 A 
ATOM     65  C   UNL A   1      45.087  26.251  36.025  1.00  0.00     0.091 A 
ATOM     66  F   UNL A   1      42.857  26.128  35.183  1.00  0.00    -0.205 F 
ATOM     67  C   UNL A   1      46.337  26.892  36.027  1.00  0.00     0.022 A 
BRANCH  65  68
ATOM     68  S   UNL A   1      44.879  24.853  37.134  1.00  0.00     0.127 S 
ATOM     69  O   UNL A   1      43.784  25.309  37.987  1.00  0.00    -0.237 OA
ATOM     70  O   UNL A   1      44.524  23.775  36.209  1.00  0.00    -0.237 OA
ATOM     71  O   UNL A   1      46.161  24.676  37.802  1.00  0.00    -0.744 OA
ENDBRANCH  65  68
ENDBRANCH  38  61
ENDBRANCH  12  13
ENDBRANCH   5   7
ENDBRANCH   2   3
ENDBRANCH   1   2
BRANCH   1  72
ATOM     72  C   UNL A   1      31.809  29.673  25.300  1.00  0.00     0.117 C 
BRANCH  72  73
ATOM     73  N   UNL A   1      31.285  29.623  23.947  1.00  0.00    -0.354 N 
ATOM     74  C   UNL A   1      31.098  28.629  23.038  1.00  0.00     0.246 C 
ATOM     75  H   UNL A   1      31.004  30.505  23.614  1.00  0.00     0.163 HD
ATOM     76  O   UNL A   1      30.305  28.902  22.121  1.00  0.00    -0.272 OA
BRANCH  74  77
ATOM     77  C   UNL A   1      31.699  27.188  23.109  1.00  0.00     0.129 C 
ATOM     78  C   UNL A   1      30.467  26.259  23.341  1.00  0.00     0.050 C 
ATOM     79  C   UNL A   1      32.697  26.804  24.211  1.00  0.00     0.108 C 
ATOM     80  C   UNL A   1      30.150  26.241  24.819  1.00  0.00     0.072 C 
ATOM     81  S   UNL A   1      31.774  25.984  25.563  1.00  0.00    -0.159 SA
BRANCH  77  82
ATOM     82  N   UNL A   1      32.266  26.739  21.797  1.00  0.00    -0.334 N 
ATOM     83  C   UNL A   1      32.747  25.569  21.276  1.00  0.00     0.289 C 
ATOM     84  H   UNL A   1      32.300  27.473  21.142  1.00  0.00     0.165 HD
ATOM     85  O   UNL A   1      32.913  25.573  20.052  1.00  0.00    -0.266 OA
BRANCH  83  86
ATOM     86  C   UNL A   1      33.234  24.483  22.082  1.00  0.00     0.214 A 
ATOM     87  N   UNL A   1      34.395  24.303  22.684  1.00  0.00    -0.207 NA
ATOM     88  N   UNL A   1      32.429  23.413  22.350  1.00  0.00    -0.255 N 
ATOM     89  C   UNL A   1      34.257  23.040  23.234  1.00  0.00     0.154 A 
ATOM     90  N   UNL A   1      33.062  22.469  23.050  1.00  0.00    -0.158 NA
ATOM     91  H   UNL A   1      31.490  23.345  22.061  1.00  0.00     0.192 HD
BRANCH  89  92
ATOM     92  C   UNL A   1      35.344  22.287  23.985  1.00  0.00     0.060 C 
ATOM     93  C   UNL A   1      36.405  23.078  24.710  1.00  0.00     0.012 C 
ATOM     94  C   UNL A   1      35.375  22.341  25.495  1.00  0.00     0.012 C 
ENDBRANCH  89  92
ENDBRANCH  83  86
ENDBRANCH  77  82
ENDBRANCH  74  77
ENDBRANCH  72  73
ENDBRANCH   1  72
TORSDOF 16
ENDMDL
