MODEL 1
REMARK VINA RESULT:     -12.4      0.000      0.000
REMARK SMILES [NH3+]C1CC[NH+](CC(=O)Nc2cc(Cl)ccc2C(=O)NCCCNC(=O)c2ccc(-c3c4nc(c(-c5cccc(S(=O)(=O)[O-])c5F)c5ccc([nH]5)c(-c5cccc(S(=O)(=O)[O-])c5F)c5nc(c(-c6cccc(S(=O)(=O)[O-])c6F)c6ccc3[nH]6)C=C5)C=C4)cc2)CC1
REMARK SMILES IDX 20 1 19 2 17 3 18 4 16 6 10 7 11 8 12 9 15 10 13 11 14 12
REMARK SMILES IDX 9 13 7 14 8 15 6 17 5 18 2 19 3 20 90 21 4 22 89 23 1 25
REMARK SMILES IDX 21 29 22 30 23 31 24 32 25 34 26 35 27 36 88 37 28 38 87 39
REMARK SMILES IDX 29 40 30 41 31 42 81 43 32 44 86 45 80 46 82 47 33 48 85 49
REMARK SMILES IDX 79 50 78 51 34 53 66 54 46 55 65 56 47 57 50 58 64 59 83 60
REMARK SMILES IDX 48 61 49 62 63 64 84 65 51 66 35 67 36 68 44 69 37 70 39 71
REMARK SMILES IDX 45 72 38 73 40 74 41 75 42 76 43 77 67 78 68 79 76 80 69 81
REMARK SMILES IDX 71 82 77 83 70 84 72 85 73 86 74 87 75 88 52 89 53 90 61 91
REMARK SMILES IDX 54 92 56 93 62 94 55 95 57 96 58 97 59 98 60 99
REMARK H PARENT 19 5 9 16 5 24 1 26 1 27 1 28 23 33 82 52 50 63
REMARK Flexibility Score: inf
ROOT
ATOM      1  C   UNL A   1      35.561  23.262  24.044  1.00  0.00     0.118 C 
ENDROOT
BRANCH   1   2
ATOM      2  N   UNL A   1      34.784  23.446  22.831  1.00  0.00    -0.352 N 
ATOM      3  C   UNL A   1      33.452  23.746  22.625  1.00  0.00     0.253 C 
ATOM      4  O   UNL A   1      33.141  24.069  21.474  1.00  0.00    -0.269 OA
ATOM      5  H   UNL A   1      35.304  23.337  22.002  1.00  0.00     0.163 HD
BRANCH   3   6
ATOM      6  C   UNL A   1      32.349  23.616  23.648  1.00  0.00     0.063 A 
ATOM      7  C   UNL A   1      31.368  24.573  23.998  1.00  0.00     0.055 A 
ATOM      8  C   UNL A   1      30.643  24.388  25.178  1.00  0.00     0.047 A 
ATOM      9  C   UNL A   1      30.688  23.175  25.865  1.00  0.00     0.043 A 
ATOM     10  C   UNL A   1      32.355  22.384  24.342  1.00  0.00     0.017 A 
ATOM     11  Cl  UNL A   1      29.671  22.931  27.231  1.00  0.00    -0.084 Cl
ATOM     12  C   UNL A   1      31.501  22.148  25.419  1.00  0.00     0.021 A 
BRANCH   7  13
ATOM     13  N   UNL A   1      31.065  25.595  23.084  1.00  0.00    -0.320 N 
ATOM     14  C   UNL A   1      30.914  26.946  23.078  1.00  0.00     0.279 C 
ATOM     15  O   UNL A   1      30.874  27.450  21.946  1.00  0.00    -0.268 OA
ATOM     16  H   UNL A   1      30.921  25.225  22.182  1.00  0.00     0.170 HD
BRANCH  14  17
ATOM     17  C   UNL A   1      30.806  27.833  24.304  1.00  0.00     0.363 C 
BRANCH  17  18
ATOM     18  N   UNL A   1      31.976  28.701  24.539  1.00  0.00    -0.327 N 
ATOM     19  C   UNL A   1      33.199  28.504  27.250  1.00  0.00     0.192 C 
ATOM     20  C   UNL A   1      31.976  29.390  26.975  1.00  0.00     0.126 C 
ATOM     21  C   UNL A   1      33.523  27.520  26.125  1.00  0.00     0.126 C 
ATOM     22  C   UNL A   1      31.774  29.781  25.508  1.00  0.00     0.268 C 
ATOM     23  C   UNL A   1      33.277  28.078  24.726  1.00  0.00     0.268 C 
ATOM     24  H   UNL A   1      32.027  29.116  23.608  1.00  0.00     0.348 HD
BRANCH  19  25
ATOM     25  N   UNL A   1      34.381  29.321  27.543  1.00  0.00    -0.355 N 
ATOM     26  H   UNL A   1      34.267  29.770  28.451  1.00  0.00     0.344 HD
ATOM     27  H   UNL A   1      34.489  30.033  26.822  1.00  0.00     0.344 HD
ATOM     28  H   UNL A   1      35.210  28.725  27.559  1.00  0.00     0.344 HD
ENDBRANCH  19  25
ENDBRANCH  17  18
ENDBRANCH  14  17
ENDBRANCH   7  13
ENDBRANCH   3   6
ENDBRANCH   1   2
BRANCH   1  29
ATOM     29  C   UNL A   1      36.511  22.091  24.133  1.00  0.00     0.042 C 
BRANCH  29  30
ATOM     30  C   UNL A   1      36.788  21.580  25.531  1.00  0.00     0.118 C 
BRANCH  30  31
ATOM     31  N   UNL A   1      37.956  20.709  25.659  1.00  0.00    -0.352 N 
ATOM     32  C   UNL A   1      39.237  20.913  26.128  1.00  0.00     0.251 C 
ATOM     33  H   UNL A   1      37.794  19.790  25.347  1.00  0.00     0.163 HD
ATOM     34  O   UNL A   1      40.032  19.973  26.101  1.00  0.00    -0.269 OA
BRANCH  32  35
ATOM     35  C   UNL A   1      39.694  22.237  26.613  1.00  0.00     0.039 A 
ATOM     36  C   UNL A   1      40.732  22.312  27.551  1.00  0.00     0.014 A 
ATOM     37  C   UNL A   1      39.123  23.414  26.153  1.00  0.00     0.014 A 
ATOM     38  C   UNL A   1      41.248  23.560  27.928  1.00  0.00     0.010 A 
ATOM     39  C   UNL A   1      39.751  24.629  26.376  1.00  0.00     0.010 A 
ATOM     40  C   UNL A   1      40.802  24.731  27.295  1.00  0.00    -0.014 A 
BRANCH  40  41
ATOM     41  C   UNL A   1      41.364  26.078  27.586  1.00  0.00     0.031 A 
ATOM     42  C   UNL A   1      42.756  26.431  27.111  1.00  0.00     0.074 A 
ATOM     43  C   UNL A   1      40.692  26.935  28.380  1.00  0.00     0.049 A 
ATOM     44  N   UNL A   1      43.484  27.482  27.385  1.00  0.00    -0.248 NA
ATOM     45  C   UNL A   1      43.446  25.439  26.266  1.00  0.00     0.031 C 
ATOM     46  C   UNL A   1      39.384  26.685  28.991  1.00  0.00     0.029 A 
ATOM     47  N   UNL A   1      41.029  28.188  28.831  1.00  0.00    -0.354 N 
ATOM     48  C   UNL A   1      44.727  27.244  26.808  1.00  0.00     0.074 A 
ATOM     49  C   UNL A   1      44.678  25.922  26.230  1.00  0.00     0.031 C 
ATOM     50  C   UNL A   1      39.016  27.760  29.706  1.00  0.00     0.029 A 
ATOM     51  C   UNL A   1      40.075  28.760  29.642  1.00  0.00     0.049 A 
ATOM     52  H   UNL A   1      41.874  28.635  28.596  1.00  0.00     0.167 HD
ATOM     53  C   UNL A   1      45.800  28.065  26.717  1.00  0.00     0.034 A 
ATOM     54  C   UNL A   1      40.056  29.957  30.258  1.00  0.00     0.034 A 
ATOM     55  C   UNL A   1      45.811  29.414  27.209  1.00  0.00     0.049 A 
ATOM     56  C   UNL A   1      41.223  30.889  30.077  1.00  0.00     0.074 A 
ATOM     57  C   UNL A   1      46.795  30.375  27.069  1.00  0.00     0.029 A 
ATOM     58  N   UNL A   1      44.780  29.996  27.930  1.00  0.00    -0.354 N 
ATOM     59  N   UNL A   1      42.330  30.704  29.398  1.00  0.00    -0.248 NA
ATOM     60  C   UNL A   1      41.124  32.209  30.716  1.00  0.00     0.031 C 
ATOM     61  C   UNL A   1      46.365  31.535  27.721  1.00  0.00     0.029 A 
ATOM     62  C   UNL A   1      45.102  31.304  28.245  1.00  0.00     0.049 A 
ATOM     63  H   UNL A   1      43.941  29.546  28.179  1.00  0.00     0.167 HD
ATOM     64  C   UNL A   1      43.041  31.894  29.494  1.00  0.00     0.074 A 
ATOM     65  C   UNL A   1      42.231  32.800  30.284  1.00  0.00     0.031 C 
ATOM     66  C   UNL A   1      44.259  32.207  28.987  1.00  0.00     0.034 A 
BRANCH  53  67
ATOM     67  C   UNL A   1      47.018  27.541  25.995  1.00  0.00     0.023 A 
ATOM     68  C   UNL A   1      47.980  26.789  26.704  1.00  0.00     0.012 A 
ATOM     69  C   UNL A   1      47.210  27.779  24.621  1.00  0.00     0.148 A 
ATOM     70  C   UNL A   1      49.139  26.338  26.074  1.00  0.00     0.002 A 
ATOM     71  C   UNL A   1      48.343  27.279  23.987  1.00  0.00     0.091 A 
ATOM     72  F   UNL A   1      46.300  28.512  23.963  1.00  0.00    -0.205 F 
ATOM     73  C   UNL A   1      49.317  26.576  24.715  1.00  0.00     0.022 A 
BRANCH  71  74
ATOM     74  S   UNL A   1      48.618  27.457  22.221  1.00  0.00     0.127 S 
ATOM     75  O   UNL A   1      49.872  28.209  22.191  1.00  0.00    -0.237 OA
ATOM     76  O   UNL A   1      48.733  26.066  21.784  1.00  0.00    -0.237 OA
ATOM     77  O   UNL A   1      47.451  28.158  21.705  1.00  0.00    -0.744 OA
ENDBRANCH  71  74
ENDBRANCH  53  67
BRANCH  54  78
ATOM     78  C   UNL A   1      38.843  30.380  31.016  1.00  0.00     0.023 A 
ATOM     79  C   UNL A   1      38.794  30.152  32.405  1.00  0.00     0.012 A 
ATOM     80  C   UNL A   1      37.771  31.046  30.392  1.00  0.00     0.148 A 
ATOM     81  C   UNL A   1      37.689  30.555  33.156  1.00  0.00     0.002 A 
ATOM     82  C   UNL A   1      36.697  31.491  31.153  1.00  0.00     0.091 A 
ATOM     83  F   UNL A   1      37.836  31.249  29.068  1.00  0.00    -0.205 F 
ATOM     84  C   UNL A   1      36.646  31.233  32.532  1.00  0.00     0.022 A 
BRANCH  82  85
ATOM     85  S   UNL A   1      35.364  32.481  30.464  1.00  0.00     0.127 S 
ATOM     86  O   UNL A   1      34.403  32.497  31.563  1.00  0.00    -0.237 OA
ATOM     87  O   UNL A   1      36.037  33.757  30.215  1.00  0.00    -0.237 OA
ATOM     88  O   UNL A   1      34.934  31.781  29.261  1.00  0.00    -0.744 OA
ENDBRANCH  82  85
ENDBRANCH  54  78
BRANCH  66  89
ATOM     89  C   UNL A   1      44.782  33.596  29.231  1.00  0.00     0.023 A 
ATOM     90  C   UNL A   1      45.556  33.864  30.377  1.00  0.00     0.012 A 
ATOM     91  C   UNL A   1      44.576  34.616  28.280  1.00  0.00     0.148 A 
ATOM     92  C   UNL A   1      46.091  35.133  30.589  1.00  0.00     0.002 A 
ATOM     93  C   UNL A   1      45.154  35.864  28.474  1.00  0.00     0.091 A 
ATOM     94  F   UNL A   1      43.821  34.346  27.206  1.00  0.00    -0.205 F 
ATOM     95  C   UNL A   1      45.902  36.129  29.633  1.00  0.00     0.022 A 
BRANCH  93  96
ATOM     96  S   UNL A   1      45.048  37.172  27.247  1.00  0.00     0.127 S 
ATOM     97  O   UNL A   1      45.754  36.575  26.113  1.00  0.00    -0.237 OA
ATOM     98  O   UNL A   1      43.602  37.307  27.061  1.00  0.00    -0.237 OA
ATOM     99  O   UNL A   1      45.691  38.335  27.843  1.00  0.00    -0.744 OA
ENDBRANCH  93  96
ENDBRANCH  66  89
ENDBRANCH  40  41
ENDBRANCH  32  35
ENDBRANCH  30  31
ENDBRANCH  29  30
ENDBRANCH   1  29
TORSDOF 17
ENDMDL
MODEL 2
REMARK VINA RESULT:     -12.3      4.852     10.071
REMARK SMILES [NH3+]C1CC[NH+](CC(=O)Nc2cc(Cl)ccc2C(=O)NCCCNC(=O)c2ccc(-c3c4nc(c(-c5cccc(S(=O)(=O)[O-])c5F)c5ccc([nH]5)c(-c5cccc(S(=O)(=O)[O-])c5F)c5nc(c(-c6cccc(S(=O)(=O)[O-])c6F)c6ccc3[nH]6)C=C5)C=C4)cc2)CC1
REMARK SMILES IDX 20 1 19 2 17 3 18 4 16 6 10 7 11 8 12 9 15 10 13 11 14 12
REMARK SMILES IDX 9 13 7 14 8 15 6 17 5 18 2 19 3 20 90 21 4 22 89 23 1 25
REMARK SMILES IDX 21 29 22 30 23 31 24 32 25 34 26 35 27 36 88 37 28 38 87 39
REMARK SMILES IDX 29 40 30 41 31 42 81 43 32 44 86 45 80 46 82 47 33 48 85 49
REMARK SMILES IDX 79 50 78 51 34 53 66 54 46 55 65 56 47 57 50 58 64 59 83 60
REMARK SMILES IDX 48 61 49 62 63 64 84 65 51 66 35 67 36 68 44 69 37 70 39 71
REMARK SMILES IDX 45 72 38 73 40 74 41 75 42 76 43 77 67 78 68 79 76 80 69 81
REMARK SMILES IDX 71 82 77 83 70 84 72 85 73 86 74 87 75 88 52 89 53 90 61 91
REMARK SMILES IDX 54 92 56 93 62 94 55 95 57 96 58 97 59 98 60 99
REMARK H PARENT 19 5 9 16 5 24 1 26 1 27 1 28 23 33 82 52 50 63
REMARK Flexibility Score: inf
ROOT
ATOM      1  C   UNL A   1      31.248  29.369  24.199  1.00  0.00     0.118 C 
ENDROOT
BRANCH   1   2
ATOM      2  N   UNL A   1      31.256  28.609  22.961  1.00  0.00    -0.352 N 
ATOM      3  C   UNL A   1      31.003  27.278  22.694  1.00  0.00     0.253 C 
ATOM      4  O   UNL A   1      30.860  26.983  21.503  1.00  0.00    -0.269 OA
ATOM      5  H   UNL A   1      31.483  29.142  22.165  1.00  0.00     0.163 HD
BRANCH   3   6
ATOM      6  C   UNL A   1      30.989  26.160  23.709  1.00  0.00     0.063 A 
ATOM      7  C   UNL A   1      31.326  24.801  23.511  1.00  0.00     0.055 A 
ATOM      8  C   UNL A   1      30.947  23.870  24.482  1.00  0.00     0.047 A 
ATOM      9  C   UNL A   1      30.483  24.283  25.730  1.00  0.00     0.043 A 
ATOM     10  C   UNL A   1      30.546  26.558  24.991  1.00  0.00     0.017 A 
ATOM     11  Cl  UNL A   1      30.164  23.114  26.951  1.00  0.00    -0.084 Cl
ATOM     12  C   UNL A   1      30.334  25.630  26.011  1.00  0.00     0.021 A 
BRANCH   7  13
ATOM     13  N   UNL A   1      32.144  24.459  22.421  1.00  0.00    -0.320 N 
ATOM     14  C   UNL A   1      33.165  23.607  22.142  1.00  0.00     0.279 C 
ATOM     15  O   UNL A   1      33.418  23.494  20.933  1.00  0.00    -0.268 OA
ATOM     16  H   UNL A   1      31.906  24.991  21.628  1.00  0.00     0.170 HD
BRANCH  14  17
ATOM     17  C   UNL A   1      33.969  22.819  23.158  1.00  0.00     0.363 C 
BRANCH  17  18
ATOM     18  N   UNL A   1      35.067  23.574  23.793  1.00  0.00    -0.327 N 
ATOM     19  C   UNL A   1      36.753  22.026  25.703  1.00  0.00     0.192 C 
ATOM     20  C   UNL A   1      35.417  22.654  26.125  1.00  0.00     0.126 C 
ATOM     21  C   UNL A   1      36.977  21.993  24.190  1.00  0.00     0.126 C 
ATOM     22  C   UNL A   1      34.927  23.798  25.234  1.00  0.00     0.268 C 
ATOM     23  C   UNL A   1      36.438  23.219  23.459  1.00  0.00     0.268 C 
ATOM     24  H   UNL A   1      34.914  24.463  23.317  1.00  0.00     0.348 HD
BRANCH  19  25
ATOM     25  N   UNL A   1      37.878  22.708  26.350  1.00  0.00    -0.355 N 
ATOM     26  H   UNL A   1      38.136  23.531  25.806  1.00  0.00     0.344 HD
ATOM     27  H   UNL A   1      38.675  22.074  26.404  1.00  0.00     0.344 HD
ATOM     28  H   UNL A   1      37.607  22.993  27.292  1.00  0.00     0.344 HD
ENDBRANCH  19  25
ENDBRANCH  17  18
ENDBRANCH  14  17
ENDBRANCH   7  13
ENDBRANCH   3   6
ENDBRANCH   1   2
BRANCH   1  29
ATOM     29  C   UNL A   1      32.449  29.291  25.111  1.00  0.00     0.042 C 
BRANCH  29  30
ATOM     30  C   UNL A   1      32.205  29.704  26.547  1.00  0.00     0.118 C 
BRANCH  30  31
ATOM     31  N   UNL A   1      32.240  31.144  26.799  1.00  0.00    -0.352 N 
ATOM     32  C   UNL A   1      33.186  31.981  27.353  1.00  0.00     0.251 C 
ATOM     33  H   UNL A   1      31.421  31.610  26.516  1.00  0.00     0.163 HD
ATOM     34  O   UNL A   1      32.926  33.181  27.452  1.00  0.00    -0.269 OA
BRANCH  32  35
ATOM     35  C   UNL A   1      34.477  31.473  27.873  1.00  0.00     0.039 A 
ATOM     36  C   UNL A   1      35.523  32.368  28.131  1.00  0.00     0.014 A 
ATOM     37  C   UNL A   1      34.677  30.123  28.121  1.00  0.00     0.014 A 
ATOM     38  C   UNL A   1      36.706  31.913  28.731  1.00  0.00     0.010 A 
ATOM     39  C   UNL A   1      35.759  29.705  28.881  1.00  0.00     0.010 A 
ATOM     40  C   UNL A   1      36.810  30.583  29.169  1.00  0.00    -0.014 A 
BRANCH  40  41
ATOM     41  C   UNL A   1      38.002  30.054  29.886  1.00  0.00     0.031 A 
ATOM     42  C   UNL A   1      38.285  30.498  31.304  1.00  0.00     0.074 A 
ATOM     43  C   UNL A   1      38.897  29.284  29.237  1.00  0.00     0.049 A 
ATOM     44  N   UNL A   1      39.338  30.278  32.048  1.00  0.00    -0.248 NA
ATOM     45  C   UNL A   1      37.277  31.359  31.950  1.00  0.00     0.031 C 
ATOM     46  C   UNL A   1      38.801  28.862  27.837  1.00  0.00     0.029 A 
ATOM     47  N   UNL A   1      40.083  28.737  29.663  1.00  0.00    -0.354 N 
ATOM     48  C   UNL A   1      39.148  31.024  33.206  1.00  0.00     0.074 A 
ATOM     49  C   UNL A   1      37.914  31.756  33.039  1.00  0.00     0.031 C 
ATOM     50  C   UNL A   1      39.862  28.096  27.532  1.00  0.00     0.029 A 
ATOM     51  C   UNL A   1      40.734  28.006  28.696  1.00  0.00     0.049 A 
ATOM     52  H   UNL A   1      40.433  28.858  30.575  1.00  0.00     0.167 HD
ATOM     53  C   UNL A   1      39.898  31.062  34.333  1.00  0.00     0.034 A 
ATOM     54  C   UNL A   1      41.901  27.334  28.746  1.00  0.00     0.034 A 
ATOM     55  C   UNL A   1      41.071  30.259  34.532  1.00  0.00     0.049 A 
ATOM     56  C   UNL A   1      42.679  27.320  30.034  1.00  0.00     0.074 A 
ATOM     57  C   UNL A   1      41.842  30.125  35.672  1.00  0.00     0.029 A 
ATOM     58  N   UNL A   1      41.639  29.443  33.565  1.00  0.00    -0.354 N 
ATOM     59  N   UNL A   1      42.403  27.911  31.172  1.00  0.00    -0.248 NA
ATOM     60  C   UNL A   1      43.911  26.519  30.056  1.00  0.00     0.031 C 
ATOM     61  C   UNL A   1      42.887  29.240  35.389  1.00  0.00     0.029 A 
ATOM     62  C   UNL A   1      42.752  28.803  34.080  1.00  0.00     0.049 A 
ATOM     63  H   UNL A   1      41.299  29.334  32.648  1.00  0.00     0.167 HD
ATOM     64  C   UNL A   1      43.402  27.522  32.056  1.00  0.00     0.074 A 
ATOM     65  C   UNL A   1      44.281  26.632  31.325  1.00  0.00     0.031 C 
ATOM     66  C   UNL A   1      43.584  27.878  33.352  1.00  0.00     0.034 A 
BRANCH  53  67
ATOM     67  C   UNL A   1      39.422  31.950  35.457  1.00  0.00     0.023 A 
ATOM     68  C   UNL A   1      38.497  31.450  36.398  1.00  0.00     0.012 A 
ATOM     69  C   UNL A   1      39.892  33.271  35.591  1.00  0.00     0.148 A 
ATOM     70  C   UNL A   1      38.001  32.266  37.414  1.00  0.00     0.002 A 
ATOM     71  C   UNL A   1      39.434  34.061  36.641  1.00  0.00     0.091 A 
ATOM     72  F   UNL A   1      40.755  33.741  34.679  1.00  0.00    -0.205 F 
ATOM     73  C   UNL A   1      38.475  33.567  37.541  1.00  0.00     0.022 A 
BRANCH  71  74
ATOM     74  S   UNL A   1      40.051  35.721  36.939  1.00  0.00     0.127 S 
ATOM     75  O   UNL A   1      41.491  35.487  37.042  1.00  0.00    -0.237 OA
ATOM     76  O   UNL A   1      39.636  36.428  35.727  1.00  0.00    -0.237 OA
ATOM     77  O   UNL A   1      39.398  36.177  38.158  1.00  0.00    -0.744 OA
ENDBRANCH  71  74
ENDBRANCH  53  67
BRANCH  54  78
ATOM     78  C   UNL A   1      42.345  26.533  27.569  1.00  0.00     0.023 A 
ATOM     79  C   UNL A   1      43.163  27.145  26.599  1.00  0.00     0.012 A 
ATOM     80  C   UNL A   1      42.013  25.173  27.428  1.00  0.00     0.148 A 
ATOM     81  C   UNL A   1      43.621  26.424  25.496  1.00  0.00     0.002 A 
ATOM     82  C   UNL A   1      42.515  24.446  26.354  1.00  0.00     0.091 A 
ATOM     83  F   UNL A   1      41.230  24.611  28.361  1.00  0.00    -0.205 F 
ATOM     84  C   UNL A   1      43.306  25.074  25.378  1.00  0.00     0.022 A 
BRANCH  82  85
ATOM     85  S   UNL A   1      42.268  22.675  26.180  1.00  0.00     0.127 S 
ATOM     86  O   UNL A   1      42.998  22.156  27.334  1.00  0.00    -0.237 OA
ATOM     87  O   UNL A   1      40.811  22.565  26.272  1.00  0.00    -0.237 OA
ATOM     88  O   UNL A   1      42.818  22.326  24.878  1.00  0.00    -0.744 OA
ENDBRANCH  82  85
ENDBRANCH  54  78
BRANCH  66  89
ATOM     89  C   UNL A   1      44.755  27.280  34.084  1.00  0.00     0.023 A 
ATOM     90  C   UNL A   1      46.005  27.929  34.060  1.00  0.00     0.012 A 
ATOM     91  C   UNL A   1      44.593  26.117  34.863  1.00  0.00     0.148 A 
ATOM     92  C   UNL A   1      47.083  27.414  34.776  1.00  0.00     0.002 A 
ATOM     93  C   UNL A   1      45.658  25.638  35.614  1.00  0.00     0.091 A 
ATOM     94  F   UNL A   1      43.401  25.504  34.857  1.00  0.00    -0.205 F 
ATOM     95  C   UNL A   1      46.908  26.278  35.562  1.00  0.00     0.022 A 
BRANCH  93  96
ATOM     96  S   UNL A   1      45.494  24.242  36.733  1.00  0.00     0.127 S 
ATOM     97  O   UNL A   1      46.859  24.102  37.237  1.00  0.00    -0.237 OA
ATOM     98  O   UNL A   1      44.530  24.743  37.714  1.00  0.00    -0.237 OA
ATOM     99  O   UNL A   1      45.008  23.133  35.923  1.00  0.00    -0.744 OA
ENDBRANCH  93  96
ENDBRANCH  66  89
ENDBRANCH  40  41
ENDBRANCH  32  35
ENDBRANCH  30  31
ENDBRANCH  29  30
ENDBRANCH   1  29
TORSDOF 17
ENDMDL
MODEL 3
REMARK VINA RESULT:     -12.1      5.159      9.878
REMARK SMILES [NH3+]C1CC[NH+](CC(=O)Nc2cc(Cl)ccc2C(=O)NCCCNC(=O)c2ccc(-c3c4nc(c(-c5cccc(S(=O)(=O)[O-])c5F)c5ccc([nH]5)c(-c5cccc(S(=O)(=O)[O-])c5F)c5nc(c(-c6cccc(S(=O)(=O)[O-])c6F)c6ccc3[nH]6)C=C5)C=C4)cc2)CC1
REMARK SMILES IDX 20 1 19 2 17 3 18 4 16 6 10 7 11 8 12 9 15 10 13 11 14 12
REMARK SMILES IDX 9 13 7 14 8 15 6 17 5 18 2 19 3 20 90 21 4 22 89 23 1 25
REMARK SMILES IDX 21 29 22 30 23 31 24 32 25 34 26 35 27 36 88 37 28 38 87 39
REMARK SMILES IDX 29 40 30 41 31 42 81 43 32 44 86 45 80 46 82 47 33 48 85 49
REMARK SMILES IDX 79 50 78 51 34 53 66 54 46 55 65 56 47 57 50 58 64 59 83 60
REMARK SMILES IDX 48 61 49 62 63 64 84 65 51 66 35 67 36 68 44 69 37 70 39 71
REMARK SMILES IDX 45 72 38 73 40 74 41 75 42 76 43 77 67 78 68 79 76 80 69 81
REMARK SMILES IDX 71 82 77 83 70 84 72 85 73 86 74 87 75 88 52 89 53 90 61 91
REMARK SMILES IDX 54 92 56 93 62 94 55 95 57 96 58 97 59 98 60 99
REMARK H PARENT 19 5 9 16 5 24 1 26 1 27 1 28 23 33 82 52 50 63
REMARK Flexibility Score: inf
ROOT
ATOM      1  C   UNL A   1      32.272  27.826  26.940  1.00  0.00     0.118 C 
ENDROOT
BRANCH   1   2
ATOM      2  N   UNL A   1      31.761  26.485  27.168  1.00  0.00    -0.352 N 
ATOM      3  C   UNL A   1      31.843  25.327  26.419  1.00  0.00     0.253 C 
ATOM      4  O   UNL A   1      31.506  24.287  26.993  1.00  0.00    -0.269 OA
ATOM      5  H   UNL A   1      31.266  26.383  28.012  1.00  0.00     0.163 HD
BRANCH   3   6
ATOM      6  C   UNL A   1      32.205  25.246  24.955  1.00  0.00     0.063 A 
ATOM      7  C   UNL A   1      33.494  25.272  24.374  1.00  0.00     0.055 A 
ATOM      8  C   UNL A   1      33.604  25.506  23.000  1.00  0.00     0.047 A 
ATOM      9  C   UNL A   1      32.483  25.458  22.173  1.00  0.00     0.043 A 
ATOM     10  C   UNL A   1      31.087  25.170  24.093  1.00  0.00     0.017 A 
ATOM     11  Cl  UNL A   1      32.676  25.604  20.469  1.00  0.00    -0.084 Cl
ATOM     12  C   UNL A   1      31.227  25.233  22.707  1.00  0.00     0.021 A 
BRANCH   7  13
ATOM     13  N   UNL A   1      34.601  24.930  25.168  1.00  0.00    -0.320 N 
ATOM     14  C   UNL A   1      35.491  23.910  25.289  1.00  0.00     0.279 C 
ATOM     15  O   UNL A   1      36.468  24.170  26.008  1.00  0.00    -0.268 OA
ATOM     16  H   UNL A   1      34.785  25.635  25.831  1.00  0.00     0.170 HD
BRANCH  14  17
ATOM     17  C   UNL A   1      35.380  22.550  24.629  1.00  0.00     0.363 C 
BRANCH  17  18
ATOM     18  N   UNL A   1      35.368  21.410  25.567  1.00  0.00    -0.327 N 
ATOM     19  C   UNL A   1      32.921  19.710  25.493  1.00  0.00     0.192 C 
ATOM     20  C   UNL A   1      32.979  21.013  26.303  1.00  0.00     0.126 C 
ATOM     21  C   UNL A   1      34.077  19.536  24.506  1.00  0.00     0.126 C 
ATOM     22  C   UNL A   1      34.389  21.498  26.652  1.00  0.00     0.268 C 
ATOM     23  C   UNL A   1      35.413  20.062  25.022  1.00  0.00     0.268 C 
ATOM     24  H   UNL A   1      36.297  21.551  25.965  1.00  0.00     0.348 HD
BRANCH  19  25
ATOM     25  N   UNL A   1      32.854  18.545  26.381  1.00  0.00    -0.355 N 
ATOM     26  H   UNL A   1      31.937  18.509  26.825  1.00  0.00     0.344 HD
ATOM     27  H   UNL A   1      33.576  18.622  27.097  1.00  0.00     0.344 HD
ATOM     28  H   UNL A   1      33.003  17.695  25.837  1.00  0.00     0.344 HD
ENDBRANCH  19  25
ENDBRANCH  17  18
ENDBRANCH  14  17
ENDBRANCH   7  13
ENDBRANCH   3   6
ENDBRANCH   1   2
BRANCH   1  29
ATOM     29  C   UNL A   1      33.760  28.022  26.771  1.00  0.00     0.042 C 
BRANCH  29  30
ATOM     30  C   UNL A   1      34.173  29.294  26.061  1.00  0.00     0.118 C 
BRANCH  30  31
ATOM     31  N   UNL A   1      33.831  30.536  26.751  1.00  0.00    -0.352 N 
ATOM     32  C   UNL A   1      34.444  31.257  27.755  1.00  0.00     0.251 C 
ATOM     33  H   UNL A   1      32.991  30.940  26.435  1.00  0.00     0.163 HD
ATOM     34  O   UNL A   1      33.902  32.287  28.158  1.00  0.00    -0.269 OA
BRANCH  32  35
ATOM     35  C   UNL A   1      35.703  30.802  28.391  1.00  0.00     0.039 A 
ATOM     36  C   UNL A   1      35.659  29.841  29.409  1.00  0.00     0.014 A 
ATOM     37  C   UNL A   1      36.936  31.301  27.996  1.00  0.00     0.014 A 
ATOM     38  C   UNL A   1      36.850  29.322  29.936  1.00  0.00     0.010 A 
ATOM     39  C   UNL A   1      38.104  30.658  28.376  1.00  0.00     0.010 A 
ATOM     40  C   UNL A   1      38.087  29.682  29.378  1.00  0.00    -0.014 A 
BRANCH  40  41
ATOM     41  C   UNL A   1      39.382  29.107  29.832  1.00  0.00     0.031 A 
ATOM     42  C   UNL A   1      40.135  29.755  30.973  1.00  0.00     0.074 A 
ATOM     43  C   UNL A   1      39.948  28.091  29.151  1.00  0.00     0.049 A 
ATOM     44  N   UNL A   1      41.339  29.507  31.419  1.00  0.00    -0.248 NA
ATOM     45  C   UNL A   1      39.471  30.878  31.661  1.00  0.00     0.031 C 
ATOM     46  C   UNL A   1      39.380  27.435  27.970  1.00  0.00     0.029 A 
ATOM     47  N   UNL A   1      41.145  27.444  29.341  1.00  0.00    -0.354 N 
ATOM     48  C   UNL A   1      41.595  30.478  32.382  1.00  0.00     0.074 A 
ATOM     49  C   UNL A   1      40.452  31.360  32.406  1.00  0.00     0.031 C 
ATOM     50  C   UNL A   1      40.209  26.461  27.563  1.00  0.00     0.029 A 
ATOM     51  C   UNL A   1      41.386  26.446  28.424  1.00  0.00     0.049 A 
ATOM     52  H   UNL A   1      41.772  27.673  30.064  1.00  0.00     0.167 HD
ATOM     53  C   UNL A   1      42.658  30.601  33.212  1.00  0.00     0.034 A 
ATOM     54  C   UNL A   1      42.436  25.611  28.296  1.00  0.00     0.034 A 
ATOM     55  C   UNL A   1      43.746  29.666  33.251  1.00  0.00     0.049 A 
ATOM     56  C   UNL A   1      43.569  25.710  29.280  1.00  0.00     0.074 A 
ATOM     57  C   UNL A   1      44.815  29.622  34.128  1.00  0.00     0.029 A 
ATOM     58  N   UNL A   1      43.899  28.601  32.378  1.00  0.00    -0.354 N 
ATOM     59  N   UNL A   1      43.722  26.541  30.283  1.00  0.00    -0.248 NA
ATOM     60  C   UNL A   1      44.658  24.734  29.138  1.00  0.00     0.031 C 
ATOM     61  C   UNL A   1      45.624  28.538  33.772  1.00  0.00     0.029 A 
ATOM     62  C   UNL A   1      45.046  27.893  32.690  1.00  0.00     0.049 A 
ATOM     63  H   UNL A   1      43.282  28.379  31.643  1.00  0.00     0.167 HD
ATOM     64  C   UNL A   1      44.901  26.165  30.915  1.00  0.00     0.074 A 
ATOM     65  C   UNL A   1      45.414  25.020  30.190  1.00  0.00     0.031 C 
ATOM     66  C   UNL A   1      45.511  26.722  31.990  1.00  0.00     0.034 A 
BRANCH  53  67
ATOM     67  C   UNL A   1      42.647  31.751  34.190  1.00  0.00     0.023 A 
ATOM     68  C   UNL A   1      43.166  33.004  33.800  1.00  0.00     0.012 A 
ATOM     69  C   UNL A   1      42.118  31.601  35.486  1.00  0.00     0.148 A 
ATOM     70  C   UNL A   1      43.217  34.068  34.700  1.00  0.00     0.002 A 
ATOM     71  C   UNL A   1      42.122  32.683  36.361  1.00  0.00     0.091 A 
ATOM     72  F   UNL A   1      41.646  30.401  35.852  1.00  0.00    -0.205 F 
ATOM     73  C   UNL A   1      42.687  33.910  35.977  1.00  0.00     0.022 A 
BRANCH  71  74
ATOM     74  S   UNL A   1      41.383  32.604  37.996  1.00  0.00     0.127 S 
ATOM     75  O   UNL A   1      41.522  33.987  38.451  1.00  0.00    -0.237 OA
ATOM     76  O   UNL A   1      40.009  32.198  37.696  1.00  0.00    -0.237 OA
ATOM     77  O   UNL A   1      42.156  31.617  38.736  1.00  0.00    -0.744 OA
ENDBRANCH  71  74
ENDBRANCH  53  67
BRANCH  54  78
ATOM     78  C   UNL A   1      42.408  24.541  27.257  1.00  0.00     0.023 A 
ATOM     79  C   UNL A   1      43.210  24.687  26.108  1.00  0.00     0.012 A 
ATOM     80  C   UNL A   1      41.644  23.370  27.417  1.00  0.00     0.148 A 
ATOM     81  C   UNL A   1      43.234  23.697  25.125  1.00  0.00     0.002 A 
ATOM     82  C   UNL A   1      41.711  22.365  26.459  1.00  0.00     0.091 A 
ATOM     83  F   UNL A   1      40.884  23.254  28.516  1.00  0.00    -0.205 F 
ATOM     84  C   UNL A   1      42.493  22.533  25.304  1.00  0.00     0.022 A 
BRANCH  82  85
ATOM     85  S   UNL A   1      40.892  20.778  26.658  1.00  0.00     0.127 S 
ATOM     86  O   UNL A   1      40.870  20.632  28.111  1.00  0.00    -0.237 OA
ATOM     87  O   UNL A   1      39.588  21.035  26.044  1.00  0.00    -0.237 OA
ATOM     88  O   UNL A   1      41.716  19.815  25.940  1.00  0.00    -0.744 OA
ENDBRANCH  82  85
ENDBRANCH  54  78
BRANCH  66  89
ATOM     89  C   UNL A   1      46.784  26.086  32.479  1.00  0.00     0.023 A 
ATOM     90  C   UNL A   1      48.029  26.582  32.049  1.00  0.00     0.012 A 
ATOM     91  C   UNL A   1      46.744  25.048  33.432  1.00  0.00     0.148 A 
ATOM     92  C   UNL A   1      49.216  26.036  32.535  1.00  0.00     0.002 A 
ATOM     93  C   UNL A   1      47.930  24.543  33.949  1.00  0.00     0.091 A 
ATOM     94  F   UNL A   1      45.549  24.576  33.815  1.00  0.00    -0.205 F 
ATOM     95  C   UNL A   1      49.167  25.027  33.493  1.00  0.00     0.022 A 
BRANCH  93  96
ATOM     96  S   UNL A   1      47.960  23.315  35.260  1.00  0.00     0.127 S 
ATOM     97  O   UNL A   1      49.396  23.136  35.468  1.00  0.00    -0.237 OA
ATOM     98  O   UNL A   1      47.267  24.007  36.349  1.00  0.00    -0.237 OA
ATOM     99  O   UNL A   1      47.253  22.153  34.739  1.00  0.00    -0.744 OA
ENDBRANCH  93  96
ENDBRANCH  66  89
ENDBRANCH  40  41
ENDBRANCH  32  35
ENDBRANCH  30  31
ENDBRANCH  29  30
ENDBRANCH   1  29
TORSDOF 17
ENDMDL
