MODEL 1
REMARK VINA RESULT:      -9.2      0.000      0.000
REMARK SMILES CCCCCNC(=O)Oc1cccc(-c2ccc([C@@H](C)C(=O)NCCCNC(=O)c3ccc(-c4c5nc(c(-c6cccc(S(=O)(=O)[O-])c6F)c6ccc([nH]6)c(-c6cccc(S(=O)(=O)[O-])c6F)c6nc(c(-c7cccc(S(=O)(=O)[O-])c7F)c7ccc4[nH]7)C=C6)C=C5)cc3)cc2F)c1
REMARK SMILES IDX 19 1 20 2 18 3 15 4 16 5 94 6 17 7 93 8 95 9 14 10 10 11
REMARK SMILES IDX 11 12 96 13 12 14 13 15 9 16 7 17 6 18 8 20 5 21 4 22 3 23
REMARK SMILES IDX 2 24 1 25 21 26 22 27 23 28 24 30 25 31 26 32 27 33 28 34
REMARK SMILES IDX 29 36 30 37 31 38 92 39 32 40 91 41 33 42 34 43 35 44 85 45
REMARK SMILES IDX 36 46 90 47 84 48 86 49 37 50 89 51 83 52 82 53 38 55 70 56
REMARK SMILES IDX 50 57 69 58 51 59 54 60 68 61 87 62 52 63 53 64 67 66 88 67
REMARK SMILES IDX 55 68 39 69 40 70 48 71 41 72 43 73 49 74 42 75 44 76 45 77
REMARK SMILES IDX 46 78 47 79 71 80 72 81 80 82 73 83 75 84 81 85 74 86 76 87
REMARK SMILES IDX 77 88 78 89 79 90 56 91 57 92 65 93 58 94 60 95 66 96 59 97
REMARK SMILES IDX 61 98 62 99 63 100 64 101
REMARK H PARENT 6 19 23 29 27 35 86 54 54 65
REMARK Flexibility Score: inf
ROOT
ATOM      1  C   UNL A   1      45.232  23.870  25.095  1.00  0.00     0.105 C 
ATOM      2  C   UNL A   1      46.164  23.413  23.973  1.00  0.00     0.023 C 
ENDROOT
BRANCH   1   3
ATOM      3  C   UNL A   1      45.391  25.318  25.527  1.00  0.00    -0.033 A 
ATOM      4  C   UNL A   1      45.786  28.085  26.156  1.00  0.00     0.018 A 
ATOM      5  C   UNL A   1      44.511  27.558  25.895  1.00  0.00     0.012 A 
ATOM      6  C   UNL A   1      46.852  27.174  26.135  1.00  0.00     0.131 A 
ATOM      7  C   UNL A   1      44.312  26.199  25.631  1.00  0.00     0.005 A 
ATOM      8  C   UNL A   1      46.667  25.826  25.806  1.00  0.00     0.044 A 
ATOM      9  F   UNL A   1      48.098  27.569  26.438  1.00  0.00    -0.206 F 
BRANCH   4  10
ATOM     10  C   UNL A   1      45.960  29.533  26.412  1.00  0.00    -0.012 A 
ATOM     11  C   UNL A   1      45.058  31.778  26.652  1.00  0.00     0.133 A 
ATOM     12  C   UNL A   1      46.301  32.278  27.024  1.00  0.00     0.047 A 
ATOM     13  C   UNL A   1      44.879  30.428  26.342  1.00  0.00     0.056 A 
ATOM     14  C   UNL A   1      47.385  31.413  27.092  1.00  0.00     0.004 A 
ATOM     15  C   UNL A   1      47.216  30.060  26.779  1.00  0.00     0.009 A 
BRANCH  11  16
ATOM     16  O   UNL A   1      44.028  32.715  26.491  1.00  0.00    -0.410 OA
BRANCH  16  17
ATOM     17  C   UNL A   1      43.999  33.492  25.344  1.00  0.00     0.412 C 
ATOM     18  N   UNL A   1      43.881  34.827  25.618  1.00  0.00    -0.321 N 
ATOM     19  H   UNL A   1      43.826  35.436  24.846  1.00  0.00     0.167 HD
ATOM     20  O   UNL A   1      44.080  33.089  24.191  1.00  0.00    -0.224 OA
BRANCH  18  21
ATOM     21  C   UNL A   1      43.830  35.433  26.933  1.00  0.00     0.119 C 
BRANCH  21  22
ATOM     22  C   UNL A   1      42.392  35.573  27.432  1.00  0.00     0.021 C 
BRANCH  22  23
ATOM     23  C   UNL A   1      42.031  36.967  27.960  1.00  0.00     0.002 C 
BRANCH  23  24
ATOM     24  C   UNL A   1      42.150  38.106  26.946  1.00  0.00    -0.003 C 
ATOM     25  C   UNL A   1      42.279  39.479  27.588  1.00  0.00     0.004 C 
ENDBRANCH  23  24
ENDBRANCH  22  23
ENDBRANCH  21  22
ENDBRANCH  18  21
ENDBRANCH  16  17
ENDBRANCH  11  16
ENDBRANCH   4  10
ENDBRANCH   1   3
BRANCH   1  26
ATOM     26  C   UNL A   1      45.120  22.881  26.266  1.00  0.00     0.227 C 
ATOM     27  O   UNL A   1      46.074  22.737  27.040  1.00  0.00    -0.274 OA
ATOM     28  N   UNL A   1      44.010  22.144  26.538  1.00  0.00    -0.356 N 
ATOM     29  H   UNL A   1      44.085  21.592  27.350  1.00  0.00     0.163 HD
BRANCH  28  30
ATOM     30  C   UNL A   1      42.738  22.018  25.857  1.00  0.00     0.117 C 
BRANCH  30  31
ATOM     31  C   UNL A   1      41.877  20.896  26.430  1.00  0.00     0.042 C 
BRANCH  31  32
ATOM     32  C   UNL A   1      40.666  21.384  27.211  1.00  0.00     0.118 C 
BRANCH  32  33
ATOM     33  N   UNL A   1      39.539  21.684  26.338  1.00  0.00    -0.352 N 
ATOM     34  C   UNL A   1      38.783  22.820  26.210  1.00  0.00     0.251 C 
ATOM     35  H   UNL A   1      39.277  20.947  25.741  1.00  0.00     0.163 HD
ATOM     36  O   UNL A   1      37.730  22.756  25.578  1.00  0.00    -0.269 OA
BRANCH  34  37
ATOM     37  C   UNL A   1      39.210  24.108  26.805  1.00  0.00     0.039 A 
ATOM     38  C   UNL A   1      39.995  24.973  26.035  1.00  0.00     0.014 A 
ATOM     39  C   UNL A   1      38.919  24.440  28.131  1.00  0.00     0.014 A 
ATOM     40  C   UNL A   1      40.473  26.162  26.589  1.00  0.00     0.010 A 
ATOM     41  C   UNL A   1      39.303  25.674  28.646  1.00  0.00     0.010 A 
ATOM     42  C   UNL A   1      40.123  26.529  27.899  1.00  0.00    -0.014 A 
BRANCH  42  43
ATOM     43  C   UNL A   1      40.654  27.773  28.513  1.00  0.00     0.031 A 
ATOM     44  C   UNL A   1      42.081  27.835  28.993  1.00  0.00     0.074 A 
ATOM     45  C   UNL A   1      39.839  28.831  28.684  1.00  0.00     0.049 A 
ATOM     46  N   UNL A   1      42.725  28.833  29.540  1.00  0.00    -0.248 NA
ATOM     47  C   UNL A   1      42.882  26.605  28.872  1.00  0.00     0.031 C 
ATOM     48  C   UNL A   1      38.414  28.861  28.350  1.00  0.00     0.029 A 
ATOM     49  N   UNL A   1      40.087  30.077  29.201  1.00  0.00    -0.354 N 
ATOM     50  C   UNL A   1      43.986  28.343  29.861  1.00  0.00     0.074 A 
ATOM     51  C   UNL A   1      44.000  26.945  29.494  1.00  0.00     0.031 C 
ATOM     52  C   UNL A   1      37.917  30.069  28.659  1.00  0.00     0.029 A 
ATOM     53  C   UNL A   1      38.980  30.888  29.233  1.00  0.00     0.049 A 
ATOM     54  H   UNL A   1      40.975  30.362  29.517  1.00  0.00     0.167 HD
ATOM     55  C   UNL A   1      45.052  29.001  30.379  1.00  0.00     0.034 A 
ATOM     56  C   UNL A   1      38.835  32.153  29.674  1.00  0.00     0.034 A 
ATOM     57  C   UNL A   1      45.041  30.400  30.712  1.00  0.00     0.049 A 
ATOM     58  C   UNL A   1      40.045  32.889  30.182  1.00  0.00     0.074 A 
ATOM     59  C   UNL A   1      46.084  31.188  31.164  1.00  0.00     0.029 A 
ATOM     60  N   UNL A   1      43.925  31.220  30.638  1.00  0.00    -0.354 N 
ATOM     61  N   UNL A   1      41.274  32.456  30.326  1.00  0.00    -0.248 NA
ATOM     62  C   UNL A   1      39.860  34.302  30.536  1.00  0.00     0.031 C 
ATOM     63  C   UNL A   1      45.590  32.478  31.391  1.00  0.00     0.029 A 
ATOM     64  C   UNL A   1      44.249  32.504  31.040  1.00  0.00     0.049 A 
ATOM     65  H   UNL A   1      43.031  30.931  30.342  1.00  0.00     0.167 HD
ATOM     66  C   UNL A   1      42.017  33.550  30.753  1.00  0.00     0.074 A 
ATOM     67  C   UNL A   1      41.100  34.670  30.824  1.00  0.00     0.031 C 
ATOM     68  C   UNL A   1      43.336  33.619  31.067  1.00  0.00     0.034 A 
BRANCH  55  69
ATOM     69  C   UNL A   1      46.325  28.214  30.574  1.00  0.00     0.023 A 
ATOM     70  C   UNL A   1      47.339  28.268  29.593  1.00  0.00     0.012 A 
ATOM     71  C   UNL A   1      46.528  27.431  31.727  1.00  0.00     0.148 A 
ATOM     72  C   UNL A   1      48.504  27.514  29.727  1.00  0.00     0.002 A 
ATOM     73  C   UNL A   1      47.716  26.724  31.879  1.00  0.00     0.091 A 
ATOM     74  F   UNL A   1      45.550  27.372  32.642  1.00  0.00    -0.205 F 
ATOM     75  C   UNL A   1      48.696  26.748  30.873  1.00  0.00     0.022 A 
BRANCH  73  76
ATOM     76  S   UNL A   1      48.094  25.779  33.360  1.00  0.00     0.127 S 
ATOM     77  O   UNL A   1      49.341  25.117  32.978  1.00  0.00    -0.237 OA
ATOM     78  O   UNL A   1      48.246  26.831  34.366  1.00  0.00    -0.237 OA
ATOM     79  O   UNL A   1      46.955  24.898  33.573  1.00  0.00    -0.744 OA
ENDBRANCH  73  76
ENDBRANCH  55  69
BRANCH  56  80
ATOM     80  C   UNL A   1      37.505  32.817  29.570  1.00  0.00     0.023 A 
ATOM     81  C   UNL A   1      36.961  33.085  28.299  1.00  0.00     0.012 A 
ATOM     82  C   UNL A   1      36.752  33.121  30.721  1.00  0.00     0.148 A 
ATOM     83  C   UNL A   1      35.699  33.669  28.177  1.00  0.00     0.002 A 
ATOM     84  C   UNL A   1      35.473  33.649  30.590  1.00  0.00     0.091 A 
ATOM     85  F   UNL A   1      37.292  32.857  31.919  1.00  0.00    -0.205 F 
ATOM     86  C   UNL A   1      34.952  33.939  29.321  1.00  0.00     0.022 A 
BRANCH  84  87
ATOM     87  S   UNL A   1      34.383  33.907  31.995  1.00  0.00     0.127 S 
ATOM     88  O   UNL A   1      34.143  32.537  32.443  1.00  0.00    -0.237 OA
ATOM     89  O   UNL A   1      35.225  34.707  32.884  1.00  0.00    -0.237 OA
ATOM     90  O   UNL A   1      33.218  34.608  31.475  1.00  0.00    -0.744 OA
ENDBRANCH  84  87
ENDBRANCH  56  80
BRANCH  68  91
ATOM     91  C   UNL A   1      43.882  34.964  31.473  1.00  0.00     0.023 A 
ATOM     92  C   UNL A   1      44.518  35.787  30.523  1.00  0.00     0.012 A 
ATOM     93  C   UNL A   1      43.717  35.432  32.792  1.00  0.00     0.148 A 
ATOM     94  C   UNL A   1      45.023  37.034  30.890  1.00  0.00     0.002 A 
ATOM     95  C   UNL A   1      44.175  36.699  33.137  1.00  0.00     0.091 A 
ATOM     96  F   UNL A   1      43.128  34.629  33.689  1.00  0.00    -0.205 F 
ATOM     97  C   UNL A   1      44.842  37.494  32.192  1.00  0.00     0.022 A 
BRANCH  95  98
ATOM     98  S   UNL A   1      43.893  37.407  34.763  1.00  0.00     0.127 S 
ATOM     99  O   UNL A   1      44.386  38.771  34.584  1.00  0.00    -0.237 OA
ATOM    100  O   UNL A   1      42.441  37.297  34.904  1.00  0.00    -0.237 OA
ATOM    101  O   UNL A   1      44.651  36.582  35.694  1.00  0.00    -0.744 OA
ENDBRANCH  95  98
ENDBRANCH  68  91
ENDBRANCH  42  43
ENDBRANCH  34  37
ENDBRANCH  32  33
ENDBRANCH  31  32
ENDBRANCH  30  31
ENDBRANCH  28  30
ENDBRANCH   1  26
TORSDOF 21
ENDMDL
MODEL 2
REMARK VINA RESULT:      -9.1      4.932     11.424
REMARK SMILES CCCCCNC(=O)Oc1cccc(-c2ccc([C@@H](C)C(=O)NCCCNC(=O)c3ccc(-c4c5nc(c(-c6cccc(S(=O)(=O)[O-])c6F)c6ccc([nH]6)c(-c6cccc(S(=O)(=O)[O-])c6F)c6nc(c(-c7cccc(S(=O)(=O)[O-])c7F)c7ccc4[nH]7)C=C6)C=C5)cc3)cc2F)c1
REMARK SMILES IDX 19 1 20 2 18 3 15 4 16 5 94 6 17 7 93 8 95 9 14 10 10 11
REMARK SMILES IDX 11 12 96 13 12 14 13 15 9 16 7 17 6 18 8 20 5 21 4 22 3 23
REMARK SMILES IDX 2 24 1 25 21 26 22 27 23 28 24 30 25 31 26 32 27 33 28 34
REMARK SMILES IDX 29 36 30 37 31 38 92 39 32 40 91 41 33 42 34 43 35 44 85 45
REMARK SMILES IDX 36 46 90 47 84 48 86 49 37 50 89 51 83 52 82 53 38 55 70 56
REMARK SMILES IDX 50 57 69 58 51 59 54 60 68 61 87 62 52 63 53 64 67 66 88 67
REMARK SMILES IDX 55 68 39 69 40 70 48 71 41 72 43 73 49 74 42 75 44 76 45 77
REMARK SMILES IDX 46 78 47 79 71 80 72 81 80 82 73 83 75 84 81 85 74 86 76 87
REMARK SMILES IDX 77 88 78 89 79 90 56 91 57 92 65 93 58 94 60 95 66 96 59 97
REMARK SMILES IDX 61 98 62 99 63 100 64 101
REMARK H PARENT 6 19 23 29 27 35 86 54 54 65
REMARK Flexibility Score: inf
ROOT
ATOM      1  C   UNL A   1      30.204  26.326  23.463  1.00  0.00     0.105 C 
ATOM      2  C   UNL A   1      29.128  26.456  24.540  1.00  0.00     0.023 C 
ENDROOT
BRANCH   1   3
ATOM      3  C   UNL A   1      31.347  25.380  23.792  1.00  0.00    -0.033 A 
ATOM      4  C   UNL A   1      33.635  23.738  24.322  1.00  0.00     0.018 A 
ATOM      5  C   UNL A   1      32.936  24.391  25.350  1.00  0.00     0.012 A 
ATOM      6  C   UNL A   1      33.125  23.897  23.025  1.00  0.00     0.131 A 
ATOM      7  C   UNL A   1      31.793  25.157  25.096  1.00  0.00     0.005 A 
ATOM      8  C   UNL A   1      32.022  24.717  22.758  1.00  0.00     0.044 A 
ATOM      9  F   UNL A   1      33.684  23.257  21.986  1.00  0.00    -0.206 F 
BRANCH   4  10
ATOM     10  C   UNL A   1      34.851  22.952  24.626  1.00  0.00    -0.012 A 
ATOM     11  C   UNL A   1      37.182  22.808  25.301  1.00  0.00     0.133 A 
ATOM     12  C   UNL A   1      37.131  21.418  25.320  1.00  0.00     0.047 A 
ATOM     13  C   UNL A   1      36.067  23.573  24.955  1.00  0.00     0.056 A 
ATOM     14  C   UNL A   1      35.940  20.782  24.992  1.00  0.00     0.004 A 
ATOM     15  C   UNL A   1      34.820  21.541  24.638  1.00  0.00     0.009 A 
BRANCH  11  16
ATOM     16  O   UNL A   1      38.436  23.391  25.531  1.00  0.00    -0.410 OA
BRANCH  16  17
ATOM     17  C   UNL A   1      38.892  23.513  26.834  1.00  0.00     0.412 C 
ATOM     18  N   UNL A   1      39.903  22.636  27.121  1.00  0.00    -0.321 N 
ATOM     19  H   UNL A   1      40.255  22.649  28.040  1.00  0.00     0.167 HD
ATOM     20  O   UNL A   1      38.487  24.305  27.675  1.00  0.00    -0.224 OA
BRANCH  18  21
ATOM     21  C   UNL A   1      40.505  21.691  26.203  1.00  0.00     0.119 C 
BRANCH  21  22
ATOM     22  C   UNL A   1      41.810  21.122  26.758  1.00  0.00     0.021 C 
BRANCH  22  23
ATOM     23  C   UNL A   1      42.354  19.906  25.997  1.00  0.00     0.002 C 
BRANCH  23  24
ATOM     24  C   UNL A   1      43.795  20.034  25.500  1.00  0.00    -0.003 C 
ATOM     25  C   UNL A   1      44.461  18.696  25.219  1.00  0.00     0.004 C 
ENDBRANCH  23  24
ENDBRANCH  22  23
ENDBRANCH  21  22
ENDBRANCH  18  21
ENDBRANCH  16  17
ENDBRANCH  11  16
ENDBRANCH   4  10
ENDBRANCH   1   3
BRANCH   1  26
ATOM     26  C   UNL A   1      30.660  27.664  22.859  1.00  0.00     0.227 C 
ATOM     27  O   UNL A   1      30.356  27.945  21.693  1.00  0.00    -0.274 OA
ATOM     28  N   UNL A   1      31.375  28.602  23.535  1.00  0.00    -0.356 N 
ATOM     29  H   UNL A   1      31.548  29.423  23.020  1.00  0.00     0.163 HD
BRANCH  28  30
ATOM     30  C   UNL A   1      31.930  28.620  24.873  1.00  0.00     0.117 C 
BRANCH  30  31
ATOM     31  C   UNL A   1      33.418  28.281  24.892  1.00  0.00     0.042 C 
BRANCH  31  32
ATOM     32  C   UNL A   1      34.171  28.872  26.075  1.00  0.00     0.118 C 
BRANCH  32  33
ATOM     33  N   UNL A   1      33.757  30.241  26.354  1.00  0.00    -0.352 N 
ATOM     34  C   UNL A   1      34.110  31.093  27.369  1.00  0.00     0.251 C 
ATOM     35  H   UNL A   1      33.118  30.616  25.707  1.00  0.00     0.163 HD
ATOM     36  O   UNL A   1      33.446  32.115  27.533  1.00  0.00    -0.269 OA
BRANCH  34  37
ATOM     37  C   UNL A   1      35.264  30.812  28.254  1.00  0.00     0.039 A 
ATOM     38  C   UNL A   1      36.381  31.652  28.183  1.00  0.00     0.014 A 
ATOM     39  C   UNL A   1      35.299  29.691  29.088  1.00  0.00     0.014 A 
ATOM     40  C   UNL A   1      37.514  31.375  28.952  1.00  0.00     0.010 A 
ATOM     41  C   UNL A   1      36.383  29.478  29.933  1.00  0.00     0.010 A 
ATOM     42  C   UNL A   1      37.521  30.289  29.842  1.00  0.00    -0.014 A 
BRANCH  42  43
ATOM     43  C   UNL A   1      38.732  29.961  30.638  1.00  0.00     0.031 A 
ATOM     44  C   UNL A   1      38.945  30.590  31.991  1.00  0.00     0.074 A 
ATOM     45  C   UNL A   1      39.664  29.137  30.123  1.00  0.00     0.049 A 
ATOM     46  N   UNL A   1      39.928  30.417  32.836  1.00  0.00    -0.248 NA
ATOM     47  C   UNL A   1      37.937  31.564  32.442  1.00  0.00     0.031 C 
ATOM     48  C   UNL A   1      39.620  28.543  28.787  1.00  0.00     0.029 A 
ATOM     49  N   UNL A   1      40.840  28.674  30.656  1.00  0.00    -0.354 N 
ATOM     50  C   UNL A   1      39.679  31.284  33.894  1.00  0.00     0.074 A 
ATOM     51  C   UNL A   1      38.478  32.018  33.562  1.00  0.00     0.031 C 
ATOM     52  C   UNL A   1      40.712  27.784  28.608  1.00  0.00     0.029 A 
ATOM     53  C   UNL A   1      41.544  27.858  29.805  1.00  0.00     0.049 A 
ATOM     54  H   UNL A   1      41.150  28.904  31.562  1.00  0.00     0.167 HD
ATOM     55  C   UNL A   1      40.361  31.432  35.055  1.00  0.00     0.034 A 
ATOM     56  C   UNL A   1      42.727  27.234  29.970  1.00  0.00     0.034 A 
ATOM     57  C   UNL A   1      41.537  30.676  35.393  1.00  0.00     0.049 A 
ATOM     58  C   UNL A   1      43.435  27.357  31.291  1.00  0.00     0.074 A 
ATOM     59  C   UNL A   1      42.260  30.684  36.572  1.00  0.00     0.029 A 
ATOM     60  N   UNL A   1      42.169  29.779  34.543  1.00  0.00    -0.354 N 
ATOM     61  N   UNL A   1      43.098  28.058  32.347  1.00  0.00    -0.248 NA
ATOM     62  C   UNL A   1      44.658  26.562  31.464  1.00  0.00     0.031 C 
ATOM     63  C   UNL A   1      43.346  29.814  36.424  1.00  0.00     0.029 A 
ATOM     64  C   UNL A   1      43.276  29.232  35.167  1.00  0.00     0.049 A 
ATOM     65  H   UNL A   1      41.873  29.564  33.630  1.00  0.00     0.167 HD
ATOM     66  C   UNL A   1      44.044  27.761  33.321  1.00  0.00     0.074 A 
ATOM     67  C   UNL A   1      44.956  26.801  32.733  1.00  0.00     0.031 C 
ATOM     68  C   UNL A   1      44.153  28.247  34.584  1.00  0.00     0.034 A 
BRANCH  55  69
ATOM     69  C   UNL A   1      39.820  32.426  36.055  1.00  0.00     0.023 A 
ATOM     70  C   UNL A   1      38.871  32.008  37.013  1.00  0.00     0.012 A 
ATOM     71  C   UNL A   1      40.255  33.765  36.060  1.00  0.00     0.148 A 
ATOM     72  C   UNL A   1      38.321  32.916  37.917  1.00  0.00     0.002 A 
ATOM     73  C   UNL A   1      39.741  34.653  37.000  1.00  0.00     0.091 A 
ATOM     74  F   UNL A   1      41.142  34.155  35.133  1.00  0.00    -0.205 F 
ATOM     75  C   UNL A   1      38.762  34.236  37.915  1.00  0.00     0.022 A 
BRANCH  73  76
ATOM     76  S   UNL A   1      40.310  36.352  37.135  1.00  0.00     0.127 S 
ATOM     77  O   UNL A   1      41.745  36.166  37.355  1.00  0.00    -0.237 OA
ATOM     78  O   UNL A   1      39.961  36.899  35.823  1.00  0.00    -0.237 OA
ATOM     79  O   UNL A   1      39.574  36.933  38.248  1.00  0.00    -0.744 OA
ENDBRANCH  73  76
ENDBRANCH  55  69
BRANCH  56  80
ATOM     80  C   UNL A   1      43.261  26.375  28.877  1.00  0.00     0.023 A 
ATOM     81  C   UNL A   1      42.787  25.056  28.736  1.00  0.00     0.012 A 
ATOM     82  C   UNL A   1      44.182  26.880  27.939  1.00  0.00     0.148 A 
ATOM     83  C   UNL A   1      43.242  24.246  27.695  1.00  0.00     0.002 A 
ATOM     84  C   UNL A   1      44.587  26.087  26.871  1.00  0.00     0.091 A 
ATOM     85  F   UNL A   1      44.619  28.138  28.093  1.00  0.00    -0.205 F 
ATOM     86  C   UNL A   1      44.131  24.765  26.757  1.00  0.00     0.022 A 
BRANCH  84  87
ATOM     87  S   UNL A   1      45.623  26.707  25.541  1.00  0.00     0.127 S 
ATOM     88  O   UNL A   1      46.864  27.015  26.247  1.00  0.00    -0.237 OA
ATOM     89  O   UNL A   1      45.692  25.549  24.650  1.00  0.00    -0.237 OA
ATOM     90  O   UNL A   1      44.917  27.854  24.986  1.00  0.00    -0.744 OA
ENDBRANCH  84  87
ENDBRANCH  56  80
BRANCH  68  91
ATOM     91  C   UNL A   1      45.275  27.713  35.438  1.00  0.00     0.023 A 
ATOM     92  C   UNL A   1      46.574  28.241  35.310  1.00  0.00     0.012 A 
ATOM     93  C   UNL A   1      45.024  26.720  36.405  1.00  0.00     0.148 A 
ATOM     94  C   UNL A   1      47.618  27.755  36.099  1.00  0.00     0.002 A 
ATOM     95  C   UNL A   1      46.057  26.279  37.225  1.00  0.00     0.091 A 
ATOM     96  F   UNL A   1      43.787  26.214  36.500  1.00  0.00    -0.205 F 
ATOM     97  C   UNL A   1      47.357  26.784  37.062  1.00  0.00     0.022 A 
BRANCH  95  98
ATOM     98  S   UNL A   1      45.786  25.106  38.557  1.00  0.00     0.127 S 
ATOM     99  O   UNL A   1      47.022  25.236  39.326  1.00  0.00    -0.237 OA
ATOM    100  O   UNL A   1      44.597  25.650  39.215  1.00  0.00    -0.237 OA
ATOM    101  O   UNL A   1      45.577  23.815  37.915  1.00  0.00    -0.744 OA
ENDBRANCH  95  98
ENDBRANCH  68  91
ENDBRANCH  42  43
ENDBRANCH  34  37
ENDBRANCH  32  33
ENDBRANCH  31  32
ENDBRANCH  30  31
ENDBRANCH  28  30
ENDBRANCH   1  26
TORSDOF 21
ENDMDL
MODEL 3
REMARK VINA RESULT:      -8.9      4.839     11.792
REMARK SMILES CCCCCNC(=O)Oc1cccc(-c2ccc([C@@H](C)C(=O)NCCCNC(=O)c3ccc(-c4c5nc(c(-c6cccc(S(=O)(=O)[O-])c6F)c6ccc([nH]6)c(-c6cccc(S(=O)(=O)[O-])c6F)c6nc(c(-c7cccc(S(=O)(=O)[O-])c7F)c7ccc4[nH]7)C=C6)C=C5)cc3)cc2F)c1
REMARK SMILES IDX 19 1 20 2 18 3 15 4 16 5 94 6 17 7 93 8 95 9 14 10 10 11
REMARK SMILES IDX 11 12 96 13 12 14 13 15 9 16 7 17 6 18 8 20 5 21 4 22 3 23
REMARK SMILES IDX 2 24 1 25 21 26 22 27 23 28 24 30 25 31 26 32 27 33 28 34
REMARK SMILES IDX 29 36 30 37 31 38 92 39 32 40 91 41 33 42 34 43 35 44 85 45
REMARK SMILES IDX 36 46 90 47 84 48 86 49 37 50 89 51 83 52 82 53 38 55 70 56
REMARK SMILES IDX 50 57 69 58 51 59 54 60 68 61 87 62 52 63 53 64 67 66 88 67
REMARK SMILES IDX 55 68 39 69 40 70 48 71 41 72 43 73 49 74 42 75 44 76 45 77
REMARK SMILES IDX 46 78 47 79 71 80 72 81 80 82 73 83 75 84 81 85 74 86 76 87
REMARK SMILES IDX 77 88 78 89 79 90 56 91 57 92 65 93 58 94 60 95 66 96 59 97
REMARK SMILES IDX 61 98 62 99 63 100 64 101
REMARK H PARENT 6 19 23 29 27 35 86 54 54 65
REMARK Flexibility Score: inf
ROOT
ATOM      1  C   UNL A   1      35.625  32.738  29.182  1.00  0.00     0.105 C 
ATOM      2  C   UNL A   1      36.630  33.567  28.382  1.00  0.00     0.023 C 
ENDROOT
BRANCH   1   3
ATOM      3  C   UNL A   1      35.092  31.500  28.479  1.00  0.00    -0.033 A 
ATOM      4  C   UNL A   1      34.094  29.277  26.973  1.00  0.00     0.018 A 
ATOM      5  C   UNL A   1      35.382  29.275  27.535  1.00  0.00     0.012 A 
ATOM      6  C   UNL A   1      33.307  30.409  27.227  1.00  0.00     0.131 A 
ATOM      7  C   UNL A   1      35.853  30.342  28.307  1.00  0.00     0.005 A 
ATOM      8  C   UNL A   1      33.798  31.507  27.943  1.00  0.00     0.044 A 
ATOM      9  F   UNL A   1      32.040  30.474  26.790  1.00  0.00    -0.206 F 
BRANCH   4  10
ATOM     10  C   UNL A   1      33.638  28.138  26.145  1.00  0.00    -0.012 A 
ATOM     11  C   UNL A   1      33.496  26.973  24.016  1.00  0.00     0.133 A 
ATOM     12  C   UNL A   1      32.857  25.889  24.609  1.00  0.00     0.047 A 
ATOM     13  C   UNL A   1      33.880  28.089  24.762  1.00  0.00     0.056 A 
ATOM     14  C   UNL A   1      32.601  25.919  25.974  1.00  0.00     0.004 A 
ATOM     15  C   UNL A   1      32.978  27.035  26.728  1.00  0.00     0.009 A 
BRANCH  11  16
ATOM     16  O   UNL A   1      33.626  26.936  22.621  1.00  0.00    -0.410 OA
BRANCH  16  17
ATOM     17  C   UNL A   1      32.576  26.451  21.860  1.00  0.00     0.412 C 
ATOM     18  N   UNL A   1      31.545  27.346  21.757  1.00  0.00    -0.321 N 
ATOM     19  H   UNL A   1      30.751  27.054  21.253  1.00  0.00     0.167 HD
ATOM     20  O   UNL A   1      32.522  25.362  21.304  1.00  0.00    -0.224 OA
BRANCH  18  21
ATOM     21  C   UNL A   1      31.508  28.680  22.319  1.00  0.00     0.119 C 
BRANCH  21  22
ATOM     22  C   UNL A   1      30.346  28.846  23.298  1.00  0.00     0.021 C 
BRANCH  22  23
ATOM     23  C   UNL A   1      29.189  29.710  22.779  1.00  0.00     0.002 C 
BRANCH  23  24
ATOM     24  C   UNL A   1      28.952  31.016  23.541  1.00  0.00    -0.003 C 
ATOM     25  C   UNL A   1      27.484  31.403  23.637  1.00  0.00     0.004 C 
ENDBRANCH  23  24
ENDBRANCH  22  23
ENDBRANCH  21  22
ENDBRANCH  18  21
ENDBRANCH  16  17
ENDBRANCH  11  16
ENDBRANCH   4  10
ENDBRANCH   1   3
BRANCH   1  26
ATOM     26  C   UNL A   1      34.540  33.568  29.886  1.00  0.00     0.227 C 
ATOM     27  O   UNL A   1      33.891  34.402  29.241  1.00  0.00    -0.274 OA
ATOM     28  N   UNL A   1      34.213  33.439  31.200  1.00  0.00    -0.356 N 
ATOM     29  H   UNL A   1      33.466  34.013  31.485  1.00  0.00     0.163 HD
BRANCH  28  30
ATOM     30  C   UNL A   1      34.758  32.614  32.258  1.00  0.00     0.117 C 
BRANCH  30  31
ATOM     31  C   UNL A   1      36.163  33.046  32.670  1.00  0.00     0.042 C 
BRANCH  31  32
ATOM     32  C   UNL A   1      36.776  32.187  33.766  1.00  0.00     0.118 C 
BRANCH  32  33
ATOM     33  N   UNL A   1      36.735  30.770  33.434  1.00  0.00    -0.352 N 
ATOM     34  C   UNL A   1      37.455  30.043  32.521  1.00  0.00     0.251 C 
ATOM     35  H   UNL A   1      36.082  30.246  33.952  1.00  0.00     0.163 HD
ATOM     36  O   UNL A   1      37.077  28.905  32.248  1.00  0.00    -0.269 OA
BRANCH  34  37
ATOM     37  C   UNL A   1      38.667  30.594  31.871  1.00  0.00     0.039 A 
ATOM     38  C   UNL A   1      38.662  30.766  30.483  1.00  0.00     0.014 A 
ATOM     39  C   UNL A   1      39.833  30.864  32.593  1.00  0.00     0.014 A 
ATOM     40  C   UNL A   1      39.811  31.216  29.830  1.00  0.00     0.010 A 
ATOM     41  C   UNL A   1      40.941  31.415  31.957  1.00  0.00     0.010 A 
ATOM     42  C   UNL A   1      40.960  31.554  30.563  1.00  0.00    -0.014 A 
BRANCH  42  43
ATOM     43  C   UNL A   1      42.201  31.999  29.879  1.00  0.00     0.031 A 
ATOM     44  C   UNL A   1      42.386  33.447  29.506  1.00  0.00     0.074 A 
ATOM     45  C   UNL A   1      43.140  31.092  29.547  1.00  0.00     0.049 A 
ATOM     46  N   UNL A   1      43.402  34.025  28.919  1.00  0.00    -0.248 NA
ATOM     47  C   UNL A   1      41.271  34.362  29.803  1.00  0.00     0.031 C 
ATOM     48  C   UNL A   1      43.035  29.649  29.767  1.00  0.00     0.029 A 
ATOM     49  N   UNL A   1      44.358  31.249  28.937  1.00  0.00    -0.354 N 
ATOM     50  C   UNL A   1      43.036  35.354  28.744  1.00  0.00     0.074 A 
ATOM     51  C   UNL A   1      41.684  35.487  29.240  1.00  0.00     0.031 C 
ATOM     52  C   UNL A   1      44.147  29.053  29.309  1.00  0.00     0.029 A 
ATOM     53  C   UNL A   1      45.032  30.067  28.744  1.00  0.00     0.049 A 
ATOM     54  H   UNL A   1      44.716  32.125  28.665  1.00  0.00     0.167 HD
ATOM     55  C   UNL A   1      43.766  36.384  28.250  1.00  0.00     0.034 A 
ATOM     56  C   UNL A   1      46.230  29.826  28.177  1.00  0.00     0.034 A 
ATOM     57  C   UNL A   1      45.121  36.252  27.788  1.00  0.00     0.049 A 
ATOM     58  C   UNL A   1      47.054  30.989  27.697  1.00  0.00     0.074 A 
ATOM     59  C   UNL A   1      45.983  37.239  27.346  1.00  0.00     0.029 A 
ATOM     60  N   UNL A   1      45.811  35.051  27.699  1.00  0.00    -0.354 N 
ATOM     61  N   UNL A   1      46.755  32.265  27.689  1.00  0.00    -0.248 NA
ATOM     62  C   UNL A   1      48.402  30.685  27.199  1.00  0.00     0.031 C 
ATOM     63  C   UNL A   1      47.184  36.631  26.962  1.00  0.00     0.029 A 
ATOM     64  C   UNL A   1      47.085  35.269  27.205  1.00  0.00     0.049 A 
ATOM     65  H   UNL A   1      45.447  34.172  27.951  1.00  0.00     0.167 HD
ATOM     66  C   UNL A   1      47.888  32.921  27.220  1.00  0.00     0.074 A 
ATOM     67  C   UNL A   1      48.885  31.899  26.975  1.00  0.00     0.031 C 
ATOM     68  C   UNL A   1      48.081  34.247  27.003  1.00  0.00     0.034 A 
BRANCH  55  69
ATOM     69  C   UNL A   1      43.116  37.746  28.228  1.00  0.00     0.023 A 
ATOM     70  C   UNL A   1      42.355  38.142  27.106  1.00  0.00     0.012 A 
ATOM     71  C   UNL A   1      43.245  38.632  29.316  1.00  0.00     0.148 A 
ATOM     72  C   UNL A   1      41.785  39.411  27.041  1.00  0.00     0.002 A 
ATOM     73  C   UNL A   1      42.627  39.878  29.266  1.00  0.00     0.091 A 
ATOM     74  F   UNL A   1      43.986  38.254  30.366  1.00  0.00    -0.205 F 
ATOM     75  C   UNL A   1      41.914  40.276  28.124  1.00  0.00     0.022 A 
BRANCH  73  76
ATOM     76  S   UNL A   1      42.662  41.028  30.645  1.00  0.00     0.127 S 
ATOM     77  O   UNL A   1      43.827  41.849  30.317  1.00  0.00    -0.237 OA
ATOM     78  O   UNL A   1      41.376  41.714  30.507  1.00  0.00    -0.237 OA
ATOM     79  O   UNL A   1      42.785  40.211  31.844  1.00  0.00    -0.744 OA
ENDBRANCH  73  76
ENDBRANCH  55  69
BRANCH  56  80
ATOM     80  C   UNL A   1      46.743  28.429  28.116  1.00  0.00     0.023 A 
ATOM     81  C   UNL A   1      47.464  27.906  29.207  1.00  0.00     0.012 A 
ATOM     82  C   UNL A   1      46.461  27.598  27.013  1.00  0.00     0.148 A 
ATOM     83  C   UNL A   1      47.919  26.586  29.189  1.00  0.00     0.002 A 
ATOM     84  C   UNL A   1      46.868  26.269  27.028  1.00  0.00     0.091 A 
ATOM     85  F   UNL A   1      45.774  28.118  25.988  1.00  0.00    -0.205 F 
ATOM     86  C   UNL A   1      47.611  25.766  28.107  1.00  0.00     0.022 A 
BRANCH  84  87
ATOM     87  S   UNL A   1      46.405  25.100  25.745  1.00  0.00     0.127 S 
ATOM     88  O   UNL A   1      44.946  25.147  25.809  1.00  0.00    -0.237 OA
ATOM     89  O   UNL A   1      46.989  25.717  24.553  1.00  0.00    -0.237 OA
ATOM     90  O   UNL A   1      47.008  23.830  26.123  1.00  0.00    -0.744 OA
ENDBRANCH  84  87
ENDBRANCH  56  80
BRANCH  68  91
ATOM     91  C   UNL A   1      49.441  34.678  26.517  1.00  0.00     0.023 A 
ATOM     92  C   UNL A   1      49.684  34.833  25.138  1.00  0.00     0.012 A 
ATOM     93  C   UNL A   1      50.465  34.981  27.437  1.00  0.00     0.148 A 
ATOM     94  C   UNL A   1      50.938  35.236  24.680  1.00  0.00     0.002 A 
ATOM     95  C   UNL A   1      51.695  35.434  26.975  1.00  0.00     0.091 A 
ATOM     96  F   UNL A   1      50.223  34.809  28.744  1.00  0.00    -0.205 F 
ATOM     97  C   UNL A   1      51.939  35.546  25.598  1.00  0.00     0.022 A 
BRANCH  95  98
ATOM     98  S   UNL A   1      53.003  35.951  28.092  1.00  0.00     0.127 S 
ATOM     99  O   UNL A   1      53.093  34.807  28.997  1.00  0.00    -0.237 OA
ATOM    100  O   UNL A   1      54.144  36.104  27.187  1.00  0.00    -0.237 OA
ATOM    101  O   UNL A   1      52.544  37.195  28.694  1.00  0.00    -0.744 OA
ENDBRANCH  95  98
ENDBRANCH  68  91
ENDBRANCH  42  43
ENDBRANCH  34  37
ENDBRANCH  32  33
ENDBRANCH  31  32
ENDBRANCH  30  31
ENDBRANCH  28  30
ENDBRANCH   1  26
TORSDOF 21
ENDMDL
