MODEL 1
REMARK VINA RESULT:     -12.7      0.000      0.000
REMARK SMILES C[C@](NC(=O)C[C@@H]1CCCCO1)(C(=O)NCCCNC(=O)c1ccc(-c2c3nc(c(-c4cccc(S(=O)(=O)[O-])c4F)c4ccc([nH]4)c(-c4cccc(S(=O)(=O)[O-])c4F)c4nc(c(-c5cccc(S(=O)(=O)[O-])c5F)c5ccc2[nH]5)C=C4)C=C3)cc1)c1ccccc1
REMARK SMILES IDX 17 1 16 2 15 3 13 4 14 5 2 7 1 8 85 9 86 10 90 11 87 12
REMARK SMILES IDX 89 13 88 14 3 15 4 16 5 18 6 19 7 20 8 21 12 22 9 23 11 24
REMARK SMILES IDX 10 25 18 26 19 27 20 28 21 30 22 31 23 32 84 33 24 34 83 35
REMARK SMILES IDX 25 36 26 37 27 38 77 39 28 40 82 41 76 42 78 43 29 44 81 45
REMARK SMILES IDX 75 46 74 47 30 49 62 50 42 51 61 52 43 53 46 54 60 55 79 56
REMARK SMILES IDX 44 57 45 58 59 60 80 61 47 62 31 63 32 64 40 65 33 66 35 67
REMARK SMILES IDX 41 68 34 69 36 70 37 71 38 72 39 73 63 74 64 75 72 76 65 77
REMARK SMILES IDX 67 78 73 79 66 80 68 81 69 82 70 83 71 84 48 85 49 86 57 87
REMARK SMILES IDX 50 88 52 89 58 90 51 91 53 92 54 93 55 94 56 95
REMARK H PARENT 15 6 3 17 19 29 78 48 46 59
REMARK Flexibility Score: inf
ROOT
ATOM      1  C   UNL A   1      36.225  22.265  23.927  1.00  0.00     0.042 C 
ENDROOT
BRANCH   1   2
ATOM      2  C   UNL A   1      35.636  23.663  23.899  1.00  0.00     0.117 C 
BRANCH   2   3
ATOM      3  N   UNL A   1      35.359  24.264  25.177  1.00  0.00    -0.354 N 
ATOM      4  C   UNL A   1      34.050  24.389  25.590  1.00  0.00     0.250 C 
ATOM      5  O   UNL A   1      33.726  23.776  26.614  1.00  0.00    -0.272 OA
ATOM      6  H   UNL A   1      36.095  24.583  25.748  1.00  0.00     0.163 HD
BRANCH   4   7
ATOM      7  C   UNL A   1      33.044  25.396  24.846  1.00  0.00     0.141 C 
ATOM      8  C   UNL A   1      31.682  24.724  24.734  1.00  0.00     0.051 C 
BRANCH   7   9
ATOM      9  C   UNL A   1      32.917  26.589  25.860  1.00  0.00    -0.013 A 
ATOM     10  C   UNL A   1      31.782  26.725  26.680  1.00  0.00     0.007 A 
ATOM     11  C   UNL A   1      33.817  27.682  25.830  1.00  0.00     0.007 A 
ATOM     12  C   UNL A   1      31.556  27.904  27.406  1.00  0.00     0.000 A 
ATOM     13  C   UNL A   1      33.587  28.856  26.548  1.00  0.00     0.000 A 
ATOM     14  C   UNL A   1      32.450  28.970  27.332  1.00  0.00     0.000 A 
ENDBRANCH   7   9
BRANCH   7  15
ATOM     15  N   UNL A   1      33.500  25.874  23.502  1.00  0.00    -0.338 N 
ATOM     16  C   UNL A   1      32.927  26.323  22.346  1.00  0.00     0.223 C 
ATOM     17  H   UNL A   1      34.482  25.862  23.433  1.00  0.00     0.164 HD
ATOM     18  O   UNL A   1      33.669  26.300  21.354  1.00  0.00    -0.275 OA
BRANCH  16  19
ATOM     19  C   UNL A   1      31.500  26.884  22.164  1.00  0.00     0.132 C 
BRANCH  19  20
ATOM     20  C   UNL A   1      31.083  27.994  23.163  1.00  0.00     0.127 C 
ATOM     21  C   UNL A   1      29.766  27.795  23.932  1.00  0.00     0.033 C 
ATOM     22  O   UNL A   1      31.085  29.302  22.564  1.00  0.00    -0.378 OA
ATOM     23  C   UNL A   1      28.515  28.212  23.164  1.00  0.00     0.005 C 
ATOM     24  C   UNL A   1      29.960  29.592  21.732  1.00  0.00     0.160 C 
ATOM     25  C   UNL A   1      28.690  29.592  22.544  1.00  0.00     0.029 C 
ENDBRANCH  19  20
ENDBRANCH  16  19
ENDBRANCH   7  15
ENDBRANCH   4   7
ENDBRANCH   2   3
ENDBRANCH   1   2
BRANCH   1  26
ATOM     26  C   UNL A   1      36.683  21.835  25.316  1.00  0.00     0.118 C 
BRANCH  26  27
ATOM     27  N   UNL A   1      37.754  20.837  25.329  1.00  0.00    -0.352 N 
ATOM     28  C   UNL A   1      39.023  20.899  25.860  1.00  0.00     0.251 C 
ATOM     29  H   UNL A   1      37.532  19.986  24.887  1.00  0.00     0.163 HD
ATOM     30  O   UNL A   1      39.776  19.932  25.745  1.00  0.00    -0.269 OA
BRANCH  28  31
ATOM     31  C   UNL A   1      39.509  22.136  26.514  1.00  0.00     0.039 A 
ATOM     32  C   UNL A   1      40.507  22.039  27.491  1.00  0.00     0.014 A 
ATOM     33  C   UNL A   1      39.031  23.390  26.138  1.00  0.00     0.014 A 
ATOM     34  C   UNL A   1      41.106  23.197  27.994  1.00  0.00     0.010 A 
ATOM     35  C   UNL A   1      39.701  24.534  26.555  1.00  0.00     0.010 A 
ATOM     36  C   UNL A   1      40.754  24.453  27.479  1.00  0.00    -0.014 A 
BRANCH  36  37
ATOM     37  C   UNL A   1      41.476  25.700  27.848  1.00  0.00     0.031 A 
ATOM     38  C   UNL A   1      40.753  26.790  28.597  1.00  0.00     0.074 A 
ATOM     39  C   UNL A   1      42.723  25.916  27.382  1.00  0.00     0.049 A 
ATOM     40  N   UNL A   1      41.135  28.015  28.844  1.00  0.00    -0.248 NA
ATOM     41  C   UNL A   1      39.403  26.472  29.092  1.00  0.00     0.031 C 
ATOM     42  C   UNL A   1      43.501  24.979  26.569  1.00  0.00     0.029 A 
ATOM     43  N   UNL A   1      43.541  27.016  27.487  1.00  0.00    -0.354 N 
ATOM     44  C   UNL A   1      40.053  28.632  29.461  1.00  0.00     0.074 A 
ATOM     45  C   UNL A   1      38.989  27.654  29.526  1.00  0.00     0.031 C 
ATOM     46  C   UNL A   1      44.681  25.538  26.253  1.00  0.00     0.029 A 
ATOM     47  C   UNL A   1      44.729  26.889  26.803  1.00  0.00     0.049 A 
ATOM     48  H   UNL A   1      43.301  27.818  28.003  1.00  0.00     0.167 HD
ATOM     49  C   UNL A   1      39.961  29.888  29.959  1.00  0.00     0.034 A 
ATOM     50  C   UNL A   1      45.736  27.766  26.623  1.00  0.00     0.034 A 
ATOM     51  C   UNL A   1      41.048  30.828  29.968  1.00  0.00     0.049 A 
ATOM     52  C   UNL A   1      45.640  29.129  27.252  1.00  0.00     0.074 A 
ATOM     53  C   UNL A   1      41.095  32.082  30.548  1.00  0.00     0.029 A 
ATOM     54  N   UNL A   1      42.282  30.613  29.375  1.00  0.00    -0.354 N 
ATOM     55  N   UNL A   1      44.666  29.639  27.966  1.00  0.00    -0.248 NA
ATOM     56  C   UNL A   1      46.792  30.026  27.081  1.00  0.00     0.031 C 
ATOM     57  C   UNL A   1      42.357  32.630  30.298  1.00  0.00     0.029 A 
ATOM     58  C   UNL A   1      43.099  31.711  29.576  1.00  0.00     0.049 A 
ATOM     59  H   UNL A   1      42.540  29.799  28.885  1.00  0.00     0.167 HD
ATOM     60  C   UNL A   1      45.101  30.898  28.360  1.00  0.00     0.074 A 
ATOM     61  C   UNL A   1      46.434  31.069  27.819  1.00  0.00     0.031 C 
ATOM     62  C   UNL A   1      44.450  31.836  29.091  1.00  0.00     0.034 A 
BRANCH  49  63
ATOM     63  C   UNL A   1      38.662  30.294  30.602  1.00  0.00     0.023 A 
ATOM     64  C   UNL A   1      38.437  29.997  31.962  1.00  0.00     0.012 A 
ATOM     65  C   UNL A   1      37.687  31.015  29.884  1.00  0.00     0.148 A 
ATOM     66  C   UNL A   1      37.250  30.373  32.587  1.00  0.00     0.002 A 
ATOM     67  C   UNL A   1      36.525  31.427  30.526  1.00  0.00     0.091 A 
ATOM     68  F   UNL A   1      37.906  31.270  28.586  1.00  0.00    -0.205 F 
ATOM     69  C   UNL A   1      36.299  31.096  31.872  1.00  0.00     0.022 A 
BRANCH  67  70
ATOM     70  S   UNL A   1      35.275  32.432  29.715  1.00  0.00     0.127 S 
ATOM     71  O   UNL A   1      34.804  31.529  28.667  1.00  0.00    -0.237 OA
ATOM     72  O   UNL A   1      34.316  32.664  30.796  1.00  0.00    -0.237 OA
ATOM     73  O   UNL A   1      35.965  33.628  29.250  1.00  0.00    -0.744 OA
ENDBRANCH  67  70
ENDBRANCH  49  63
BRANCH  50  74
ATOM     74  C   UNL A   1      46.961  27.353  25.876  1.00  0.00     0.023 A 
ATOM     75  C   UNL A   1      47.920  26.553  26.527  1.00  0.00     0.012 A 
ATOM     76  C   UNL A   1      47.167  27.716  24.531  1.00  0.00     0.148 A 
ATOM     77  C   UNL A   1      49.077  26.146  25.862  1.00  0.00     0.002 A 
ATOM     78  C   UNL A   1      48.298  27.264  23.859  1.00  0.00     0.091 A 
ATOM     79  F   UNL A   1      46.249  28.488  23.932  1.00  0.00    -0.205 F 
ATOM     80  C   UNL A   1      49.262  26.493  24.527  1.00  0.00     0.022 A 
BRANCH  78  81
ATOM     81  S   UNL A   1      48.560  27.558  22.106  1.00  0.00     0.127 S 
ATOM     82  O   UNL A   1      48.759  26.202  21.602  1.00  0.00    -0.237 OA
ATOM     83  O   UNL A   1      47.295  28.182  21.711  1.00  0.00    -0.237 OA
ATOM     84  O   UNL A   1      49.715  28.441  22.027  1.00  0.00    -0.744 OA
ENDBRANCH  78  81
ENDBRANCH  50  74
BRANCH  62  85
ATOM     85  C   UNL A   1      45.174  33.119  29.398  1.00  0.00     0.023 A 
ATOM     86  C   UNL A   1      46.009  33.195  30.530  1.00  0.00     0.012 A 
ATOM     87  C   UNL A   1      45.110  34.208  28.507  1.00  0.00     0.148 A 
ATOM     88  C   UNL A   1      46.757  34.345  30.780  1.00  0.00     0.002 A 
ATOM     89  C   UNL A   1      45.893  35.333  28.738  1.00  0.00     0.091 A 
ATOM     90  F   UNL A   1      44.294  34.118  27.446  1.00  0.00    -0.205 F 
ATOM     91  C   UNL A   1      46.710  35.406  29.878  1.00  0.00     0.022 A 
BRANCH  89  92
ATOM     92  S   UNL A   1      45.971  36.705  27.582  1.00  0.00     0.127 S 
ATOM     93  O   UNL A   1      46.636  36.090  26.434  1.00  0.00    -0.237 OA
ATOM     94  O   UNL A   1      44.556  37.014  27.372  1.00  0.00    -0.237 OA
ATOM     95  O   UNL A   1      46.726  37.755  28.251  1.00  0.00    -0.744 OA
ENDBRANCH  89  92
ENDBRANCH  62  85
ENDBRANCH  36  37
ENDBRANCH  28  31
ENDBRANCH  26  27
ENDBRANCH   1  26
TORSDOF 17
ENDMDL
MODEL 2
REMARK VINA RESULT:     -12.4      5.029      7.777
REMARK SMILES C[C@](NC(=O)C[C@@H]1CCCCO1)(C(=O)NCCCNC(=O)c1ccc(-c2c3nc(c(-c4cccc(S(=O)(=O)[O-])c4F)c4ccc([nH]4)c(-c4cccc(S(=O)(=O)[O-])c4F)c4nc(c(-c5cccc(S(=O)(=O)[O-])c5F)c5ccc2[nH]5)C=C4)C=C3)cc1)c1ccccc1
REMARK SMILES IDX 17 1 16 2 15 3 13 4 14 5 2 7 1 8 85 9 86 10 90 11 87 12
REMARK SMILES IDX 89 13 88 14 3 15 4 16 5 18 6 19 7 20 8 21 12 22 9 23 11 24
REMARK SMILES IDX 10 25 18 26 19 27 20 28 21 30 22 31 23 32 84 33 24 34 83 35
REMARK SMILES IDX 25 36 26 37 27 38 77 39 28 40 82 41 76 42 78 43 29 44 81 45
REMARK SMILES IDX 75 46 74 47 30 49 62 50 42 51 61 52 43 53 46 54 60 55 79 56
REMARK SMILES IDX 44 57 45 58 59 60 80 61 47 62 31 63 32 64 40 65 33 66 35 67
REMARK SMILES IDX 41 68 34 69 36 70 37 71 38 72 39 73 63 74 64 75 72 76 65 77
REMARK SMILES IDX 67 78 73 79 66 80 68 81 69 82 70 83 71 84 48 85 49 86 57 87
REMARK SMILES IDX 50 88 52 89 58 90 51 91 53 92 54 93 55 94 56 95
REMARK H PARENT 15 6 3 17 19 29 78 48 46 59
REMARK Flexibility Score: inf
ROOT
ATOM      1  C   UNL A   1      33.832  28.836  25.823  1.00  0.00     0.042 C 
ENDROOT
BRANCH   1   2
ATOM      2  C   UNL A   1      32.721  29.041  24.811  1.00  0.00     0.117 C 
BRANCH   2   3
ATOM      3  N   UNL A   1      31.400  28.650  25.226  1.00  0.00    -0.354 N 
ATOM      4  C   UNL A   1      30.974  27.361  24.986  1.00  0.00     0.250 C 
ATOM      5  O   UNL A   1      30.711  26.667  25.975  1.00  0.00    -0.272 OA
ATOM      6  H   UNL A   1      30.807  29.296  25.676  1.00  0.00     0.163 HD
BRANCH   4   7
ATOM      7  C   UNL A   1      30.705  26.849  23.489  1.00  0.00     0.141 C 
ATOM      8  C   UNL A   1      30.005  25.498  23.558  1.00  0.00     0.051 C 
BRANCH   7   9
ATOM      9  C   UNL A   1      29.680  27.900  22.929  1.00  0.00    -0.013 A 
ATOM     10  C   UNL A   1      30.117  29.013  22.189  1.00  0.00     0.007 A 
ATOM     11  C   UNL A   1      28.322  27.894  23.330  1.00  0.00     0.007 A 
ATOM     12  C   UNL A   1      29.242  30.070  21.894  1.00  0.00     0.000 A 
ATOM     13  C   UNL A   1      27.455  28.948  23.041  1.00  0.00     0.000 A 
ATOM     14  C   UNL A   1      27.918  30.042  22.328  1.00  0.00     0.000 A 
ENDBRANCH   7   9
BRANCH   7  15
ATOM     15  N   UNL A   1      31.920  26.761  22.617  1.00  0.00    -0.338 N 
ATOM     16  C   UNL A   1      33.123  26.116  22.631  1.00  0.00     0.223 C 
ATOM     17  H   UNL A   1      31.824  27.321  21.814  1.00  0.00     0.164 HD
ATOM     18  O   UNL A   1      33.976  26.589  21.867  1.00  0.00    -0.275 OA
BRANCH  16  19
ATOM     19  C   UNL A   1      33.505  24.862  23.447  1.00  0.00     0.132 C 
BRANCH  19  20
ATOM     20  C   UNL A   1      34.358  25.120  24.715  1.00  0.00     0.127 C 
ATOM     21  C   UNL A   1      35.545  24.178  24.974  1.00  0.00     0.033 C 
ATOM     22  O   UNL A   1      33.557  25.207  25.907  1.00  0.00    -0.378 OA
ATOM     23  C   UNL A   1      35.174  22.867  25.662  1.00  0.00     0.005 C 
ATOM     24  C   UNL A   1      33.109  23.955  26.432  1.00  0.00     0.160 C 
ATOM     25  C   UNL A   1      34.283  23.117  26.870  1.00  0.00     0.029 C 
ENDBRANCH  19  20
ENDBRANCH  16  19
ENDBRANCH   7  15
ENDBRANCH   4   7
ENDBRANCH   2   3
ENDBRANCH   1   2
BRANCH   1  26
ATOM     26  C   UNL A   1      33.410  29.162  27.251  1.00  0.00     0.118 C 
BRANCH  26  27
ATOM     27  N   UNL A   1      33.676  30.539  27.671  1.00  0.00    -0.352 N 
ATOM     28  C   UNL A   1      34.809  31.102  28.216  1.00  0.00     0.251 C 
ATOM     29  H   UNL A   1      32.925  31.162  27.545  1.00  0.00     0.163 HD
ATOM     30  O   UNL A   1      34.811  32.297  28.510  1.00  0.00    -0.269 OA
BRANCH  28  31
ATOM     31  C   UNL A   1      36.001  30.271  28.504  1.00  0.00     0.039 A 
ATOM     32  C   UNL A   1      37.059  30.265  27.587  1.00  0.00     0.014 A 
ATOM     33  C   UNL A   1      36.109  29.544  29.688  1.00  0.00     0.014 A 
ATOM     34  C   UNL A   1      38.263  29.634  27.916  1.00  0.00     0.010 A 
ATOM     35  C   UNL A   1      37.339  29.015  30.060  1.00  0.00     0.010 A 
ATOM     36  C   UNL A   1      38.434  29.062  29.185  1.00  0.00    -0.014 A 
BRANCH  36  37
ATOM     37  C   UNL A   1      39.744  28.533  29.652  1.00  0.00     0.031 A 
ATOM     38  C   UNL A   1      40.496  29.252  30.742  1.00  0.00     0.074 A 
ATOM     39  C   UNL A   1      40.324  27.504  28.999  1.00  0.00     0.049 A 
ATOM     40  N   UNL A   1      41.722  29.072  31.156  1.00  0.00    -0.248 NA
ATOM     41  C   UNL A   1      39.790  30.352  31.421  1.00  0.00     0.031 C 
ATOM     42  C   UNL A   1      39.741  26.777  27.869  1.00  0.00     0.029 A 
ATOM     43  N   UNL A   1      41.557  26.919  29.164  1.00  0.00    -0.354 N 
ATOM     44  C   UNL A   1      41.956  30.072  32.094  1.00  0.00     0.074 A 
ATOM     45  C   UNL A   1      40.754  30.872  32.166  1.00  0.00     0.031 C 
ATOM     46  C   UNL A   1      40.610  25.845  27.446  1.00  0.00     0.029 A 
ATOM     47  C   UNL A   1      41.828  25.933  28.243  1.00  0.00     0.049 A 
ATOM     48  H   UNL A   1      42.186  27.181  29.873  1.00  0.00     0.167 HD
ATOM     49  C   UNL A   1      43.058  30.286  32.850  1.00  0.00     0.034 A 
ATOM     50  C   UNL A   1      42.938  25.193  28.050  1.00  0.00     0.034 A 
ATOM     51  C   UNL A   1      44.218  29.438  32.834  1.00  0.00     0.049 A 
ATOM     52  C   UNL A   1      44.121  25.401  28.956  1.00  0.00     0.074 A 
ATOM     53  C   UNL A   1      45.340  29.500  33.641  1.00  0.00     0.029 A 
ATOM     54  N   UNL A   1      44.402  28.368  31.973  1.00  0.00    -0.354 N 
ATOM     55  N   UNL A   1      44.264  26.253  29.941  1.00  0.00    -0.248 NA
ATOM     56  C   UNL A   1      45.284  24.526  28.747  1.00  0.00     0.031 C 
ATOM     57  C   UNL A   1      46.207  28.471  33.262  1.00  0.00     0.029 A 
ATOM     58  C   UNL A   1      45.618  27.760  32.229  1.00  0.00     0.049 A 
ATOM     59  H   UNL A   1      43.762  28.081  31.283  1.00  0.00     0.167 HD
ATOM     60  C   UNL A   1      45.512  25.994  30.494  1.00  0.00     0.074 A 
ATOM     61  C   UNL A   1      46.081  24.893  29.743  1.00  0.00     0.031 C 
ATOM     62  C   UNL A   1      46.139  26.620  31.520  1.00  0.00     0.034 A 
BRANCH  49  63
ATOM     63  C   UNL A   1      43.035  31.444  33.812  1.00  0.00     0.023 A 
ATOM     64  C   UNL A   1      43.538  32.696  33.402  1.00  0.00     0.012 A 
ATOM     65  C   UNL A   1      42.469  31.314  35.095  1.00  0.00     0.148 A 
ATOM     66  C   UNL A   1      43.516  33.790  34.267  1.00  0.00     0.002 A 
ATOM     67  C   UNL A   1      42.408  32.421  35.935  1.00  0.00     0.091 A 
ATOM     68  F   UNL A   1      42.014  30.112  35.477  1.00  0.00    -0.205 F 
ATOM     69  C   UNL A   1      42.943  33.655  35.527  1.00  0.00     0.022 A 
BRANCH  67  70
ATOM     70  S   UNL A   1      41.617  32.371  37.548  1.00  0.00     0.127 S 
ATOM     71  O   UNL A   1      42.393  31.334  38.225  1.00  0.00    -0.237 OA
ATOM     72  O   UNL A   1      41.848  33.727  38.047  1.00  0.00    -0.237 OA
ATOM     73  O   UNL A   1      40.220  32.047  37.297  1.00  0.00    -0.744 OA
ENDBRANCH  67  70
ENDBRANCH  49  63
BRANCH  50  74
ATOM     74  C   UNL A   1      42.954  24.130  27.003  1.00  0.00     0.023 A 
ATOM     75  C   UNL A   1      43.668  24.358  25.810  1.00  0.00     0.012 A 
ATOM     76  C   UNL A   1      42.302  22.896  27.188  1.00  0.00     0.148 A 
ATOM     77  C   UNL A   1      43.708  23.389  24.808  1.00  0.00     0.002 A 
ATOM     78  C   UNL A   1      42.388  21.915  26.207  1.00  0.00     0.091 A 
ATOM     79  F   UNL A   1      41.618  22.703  28.325  1.00  0.00    -0.205 F 
ATOM     80  C   UNL A   1      43.077  22.164  25.009  1.00  0.00     0.022 A 
BRANCH  78  81
ATOM     81  S   UNL A   1      41.712  20.265  26.430  1.00  0.00     0.127 S 
ATOM     82  O   UNL A   1      40.276  20.516  26.336  1.00  0.00    -0.237 OA
ATOM     83  O   UNL A   1      42.287  19.545  25.292  1.00  0.00    -0.237 OA
ATOM     84  O   UNL A   1      42.195  19.818  27.728  1.00  0.00    -0.744 OA
ENDBRANCH  78  81
ENDBRANCH  50  74
BRANCH  62  85
ATOM     85  C   UNL A   1      47.493  26.112  31.935  1.00  0.00     0.023 A 
ATOM     86  C   UNL A   1      48.650  26.624  31.317  1.00  0.00     0.012 A 
ATOM     87  C   UNL A   1      47.620  25.209  33.008  1.00  0.00     0.148 A 
ATOM     88  C   UNL A   1      49.916  26.231  31.750  1.00  0.00     0.002 A 
ATOM     89  C   UNL A   1      48.884  24.856  33.465  1.00  0.00     0.091 A 
ATOM     90  F   UNL A   1      46.503  24.721  33.568  1.00  0.00    -0.205 F 
ATOM     91  C   UNL A   1      50.032  25.360  32.832  1.00  0.00     0.022 A 
BRANCH  89  92
ATOM     92  S   UNL A   1      49.131  23.819  34.910  1.00  0.00     0.127 S 
ATOM     93  O   UNL A   1      48.497  24.615  35.960  1.00  0.00    -0.237 OA
ATOM     94  O   UNL A   1      48.405  22.602  34.546  1.00  0.00    -0.237 OA
ATOM     95  O   UNL A   1      50.571  23.647  35.043  1.00  0.00    -0.744 OA
ENDBRANCH  89  92
ENDBRANCH  62  85
ENDBRANCH  36  37
ENDBRANCH  28  31
ENDBRANCH  26  27
ENDBRANCH   1  26
TORSDOF 17
ENDMDL
MODEL 3
REMARK VINA RESULT:     -12.4      1.392      7.614
REMARK SMILES C[C@](NC(=O)C[C@@H]1CCCCO1)(C(=O)NCCCNC(=O)c1ccc(-c2c3nc(c(-c4cccc(S(=O)(=O)[O-])c4F)c4ccc([nH]4)c(-c4cccc(S(=O)(=O)[O-])c4F)c4nc(c(-c5cccc(S(=O)(=O)[O-])c5F)c5ccc2[nH]5)C=C4)C=C3)cc1)c1ccccc1
REMARK SMILES IDX 17 1 16 2 15 3 13 4 14 5 2 7 1 8 85 9 86 10 90 11 87 12
REMARK SMILES IDX 89 13 88 14 3 15 4 16 5 18 6 19 7 20 8 21 12 22 9 23 11 24
REMARK SMILES IDX 10 25 18 26 19 27 20 28 21 30 22 31 23 32 84 33 24 34 83 35
REMARK SMILES IDX 25 36 26 37 27 38 77 39 28 40 82 41 76 42 78 43 29 44 81 45
REMARK SMILES IDX 75 46 74 47 30 49 62 50 42 51 61 52 43 53 46 54 60 55 79 56
REMARK SMILES IDX 44 57 45 58 59 60 80 61 47 62 31 63 32 64 40 65 33 66 35 67
REMARK SMILES IDX 41 68 34 69 36 70 37 71 38 72 39 73 63 74 64 75 72 76 65 77
REMARK SMILES IDX 67 78 73 79 66 80 68 81 69 82 70 83 71 84 48 85 49 86 57 87
REMARK SMILES IDX 50 88 52 89 58 90 51 91 53 92 54 93 55 94 56 95
REMARK H PARENT 15 6 3 17 19 29 78 48 46 59
REMARK Flexibility Score: inf
ROOT
ATOM      1  C   UNL A   1      36.567  22.416  23.996  1.00  0.00     0.042 C 
ENDROOT
BRANCH   1   2
ATOM      2  C   UNL A   1      35.597  23.582  23.983  1.00  0.00     0.117 C 
BRANCH   2   3
ATOM      3  N   UNL A   1      35.236  24.125  25.267  1.00  0.00    -0.354 N 
ATOM      4  C   UNL A   1      33.902  24.223  25.602  1.00  0.00     0.250 C 
ATOM      5  O   UNL A   1      33.521  23.564  26.576  1.00  0.00    -0.272 OA
ATOM      6  H   UNL A   1      35.932  24.424  25.896  1.00  0.00     0.163 HD
BRANCH   4   7
ATOM      7  C   UNL A   1      32.936  25.256  24.841  1.00  0.00     0.141 C 
ATOM      8  C   UNL A   1      31.551  24.631  24.733  1.00  0.00     0.051 C 
BRANCH   7   9
ATOM      9  C   UNL A   1      32.848  26.466  25.838  1.00  0.00    -0.013 A 
ATOM     10  C   UNL A   1      31.740  26.624  26.690  1.00  0.00     0.007 A 
ATOM     11  C   UNL A   1      33.755  27.552  25.763  1.00  0.00     0.007 A 
ATOM     12  C   UNL A   1      31.544  27.817  27.403  1.00  0.00     0.000 A 
ATOM     13  C   UNL A   1      33.555  28.739  26.469  1.00  0.00     0.000 A 
ATOM     14  C   UNL A   1      32.443  28.874  27.284  1.00  0.00     0.000 A 
ENDBRANCH   7   9
BRANCH   7  15
ATOM     15  N   UNL A   1      33.413  25.700  23.492  1.00  0.00    -0.338 N 
ATOM     16  C   UNL A   1      32.864  26.187  22.341  1.00  0.00     0.223 C 
ATOM     17  H   UNL A   1      34.390  25.618  23.415  1.00  0.00     0.164 HD
ATOM     18  O   UNL A   1      33.593  26.110  21.343  1.00  0.00    -0.275 OA
BRANCH  16  19
ATOM     19  C   UNL A   1      31.478  26.848  22.171  1.00  0.00     0.132 C 
BRANCH  19  20
ATOM     20  C   UNL A   1      31.154  27.992  23.165  1.00  0.00     0.127 C 
ATOM     21  C   UNL A   1      29.850  27.878  23.973  1.00  0.00     0.033 C 
ATOM     22  O   UNL A   1      31.213  29.290  22.548  1.00  0.00    -0.378 OA
ATOM     23  C   UNL A   1      28.603  28.357  23.235  1.00  0.00     0.005 C 
ATOM     24  C   UNL A   1      30.084  29.635  21.744  1.00  0.00     0.160 C 
ATOM     25  C   UNL A   1      28.839  29.717  22.591  1.00  0.00     0.029 C 
ENDBRANCH  19  20
ENDBRANCH  16  19
ENDBRANCH   7  15
ENDBRANCH   4   7
ENDBRANCH   2   3
ENDBRANCH   1   2
BRANCH   1  26
ATOM     26  C   UNL A   1      36.702  21.764  25.367  1.00  0.00     0.118 C 
BRANCH  26  27
ATOM     27  N   UNL A   1      37.847  20.862  25.509  1.00  0.00    -0.352 N 
ATOM     28  C   UNL A   1      39.091  21.082  26.059  1.00  0.00     0.251 C 
ATOM     29  H   UNL A   1      37.707  19.955  25.154  1.00  0.00     0.163 HD
ATOM     30  O   UNL A   1      39.920  20.172  26.064  1.00  0.00    -0.269 OA
BRANCH  28  31
ATOM     31  C   UNL A   1      39.458  22.415  26.590  1.00  0.00     0.039 A 
ATOM     32  C   UNL A   1      40.519  22.514  27.498  1.00  0.00     0.014 A 
ATOM     33  C   UNL A   1      38.804  23.569  26.165  1.00  0.00     0.014 A 
ATOM     34  C   UNL A   1      40.999  23.771  27.876  1.00  0.00     0.010 A 
ATOM     35  C   UNL A   1      39.350  24.814  26.452  1.00  0.00     0.010 A 
ATOM     36  C   UNL A   1      40.460  24.932  27.302  1.00  0.00    -0.014 A 
BRANCH  36  37
ATOM     37  C   UNL A   1      41.042  26.281  27.533  1.00  0.00     0.031 A 
ATOM     38  C   UNL A   1      42.443  26.583  27.065  1.00  0.00     0.074 A 
ATOM     39  C   UNL A   1      40.377  27.178  28.291  1.00  0.00     0.049 A 
ATOM     40  N   UNL A   1      43.198  27.616  27.332  1.00  0.00    -0.248 NA
ATOM     41  C   UNL A   1      43.096  25.564  26.227  1.00  0.00     0.031 C 
ATOM     42  C   UNL A   1      39.051  26.977  28.879  1.00  0.00     0.029 A 
ATOM     43  N   UNL A   1      40.747  28.426  28.733  1.00  0.00    -0.354 N 
ATOM     44  C   UNL A   1      44.431  27.343  26.751  1.00  0.00     0.074 A 
ATOM     45  C   UNL A   1      44.332  26.035  26.143  1.00  0.00     0.031 C 
ATOM     46  C   UNL A   1      38.717  28.060  29.600  1.00  0.00     0.029 A 
ATOM     47  C   UNL A   1      39.819  29.015  29.563  1.00  0.00     0.049 A 
ATOM     48  H   UNL A   1      41.594  28.857  28.482  1.00  0.00     0.167 HD
ATOM     49  C   UNL A   1      45.537  28.122  26.700  1.00  0.00     0.034 A 
ATOM     50  C   UNL A   1      39.857  30.185  30.231  1.00  0.00     0.034 A 
ATOM     51  C   UNL A   1      45.603  29.455  27.233  1.00  0.00     0.049 A 
ATOM     52  C   UNL A   1      41.068  31.066  30.095  1.00  0.00     0.074 A 
ATOM     53  C   UNL A   1      46.636  30.370  27.134  1.00  0.00     0.029 A 
ATOM     54  N   UNL A   1      44.593  30.067  27.958  1.00  0.00    -0.354 N 
ATOM     55  N   UNL A   1      42.167  30.854  29.412  1.00  0.00    -0.248 NA
ATOM     56  C   UNL A   1      41.035  32.360  30.791  1.00  0.00     0.031 C 
ATOM     57  C   UNL A   1      46.252  31.533  27.808  1.00  0.00     0.029 A 
ATOM     58  C   UNL A   1      44.976  31.348  28.313  1.00  0.00     0.049 A 
ATOM     59  H   UNL A   1      43.730  29.652  28.186  1.00  0.00     0.167 HD
ATOM     60  C   UNL A   1      42.938  32.000  29.565  1.00  0.00     0.074 A 
ATOM     61  C   UNL A   1      42.175  32.911  30.393  1.00  0.00     0.031 C 
ATOM     62  C   UNL A   1      44.175  32.269  29.077  1.00  0.00     0.034 A 
BRANCH  49  63
ATOM     63  C   UNL A   1      46.744  27.581  25.981  1.00  0.00     0.023 A 
ATOM     64  C   UNL A   1      46.891  27.817  24.598  1.00  0.00     0.012 A 
ATOM     65  C   UNL A   1      47.756  26.890  26.674  1.00  0.00     0.148 A 
ATOM     66  C   UNL A   1      48.005  27.339  23.909  1.00  0.00     0.002 A 
ATOM     67  C   UNL A   1      48.886  26.457  25.990  1.00  0.00     0.091 A 
ATOM     68  F   UNL A   1      47.591  26.655  27.984  1.00  0.00    -0.205 F 
ATOM     69  C   UNL A   1      49.006  26.669  24.606  1.00  0.00     0.022 A 
BRANCH  67  70
ATOM     70  S   UNL A   1      50.269  25.654  26.811  1.00  0.00     0.127 S 
ATOM     71  O   UNL A   1      51.210  25.484  25.706  1.00  0.00    -0.237 OA
ATOM     72  O   UNL A   1      50.665  26.657  27.800  1.00  0.00    -0.237 OA
ATOM     73  O   UNL A   1      49.735  24.423  27.378  1.00  0.00    -0.744 OA
ENDBRANCH  67  70
ENDBRANCH  49  63
BRANCH  50  74
ATOM     74  C   UNL A   1      38.676  30.627  31.029  1.00  0.00     0.023 A 
ATOM     75  C   UNL A   1      38.664  30.396  32.418  1.00  0.00     0.012 A 
ATOM     76  C   UNL A   1      37.588  31.296  30.434  1.00  0.00     0.148 A 
ATOM     77  C   UNL A   1      37.579  30.796  33.197  1.00  0.00     0.002 A 
ATOM     78  C   UNL A   1      36.533  31.737  31.225  1.00  0.00     0.091 A 
ATOM     79  F   UNL A   1      37.612  31.496  29.109  1.00  0.00    -0.205 F 
ATOM     80  C   UNL A   1      36.518  31.474  32.604  1.00  0.00     0.022 A 
BRANCH  78  81
ATOM     81  S   UNL A   1      35.183  32.726  30.569  1.00  0.00     0.127 S 
ATOM     82  O   UNL A   1      35.842  34.005  30.323  1.00  0.00    -0.237 OA
ATOM     83  O   UNL A   1      34.819  31.978  29.363  1.00  0.00    -0.237 OA
ATOM     84  O   UNL A   1      34.161  32.727  31.605  1.00  0.00    -0.744 OA
ENDBRANCH  78  81
ENDBRANCH  50  74
BRANCH  62  85
ATOM     85  C   UNL A   1      44.774  33.616  29.378  1.00  0.00     0.023 A 
ATOM     86  C   UNL A   1      45.627  33.768  30.488  1.00  0.00     0.012 A 
ATOM     87  C   UNL A   1      44.577  34.699  28.499  1.00  0.00     0.148 A 
ATOM     88  C   UNL A   1      46.262  34.986  30.729  1.00  0.00     0.002 A 
ATOM     89  C   UNL A   1      45.248  35.895  28.720  1.00  0.00     0.091 A 
ATOM     90  F   UNL A   1      43.746  34.534  27.459  1.00  0.00    -0.205 F 
ATOM     91  C   UNL A   1      46.084  36.042  29.839  1.00  0.00     0.022 A 
BRANCH  89  92
ATOM     92  S   UNL A   1      45.157  37.276  27.575  1.00  0.00     0.127 S 
ATOM     93  O   UNL A   1      43.795  37.146  27.060  1.00  0.00    -0.237 OA
ATOM     94  O   UNL A   1      45.367  38.425  28.458  1.00  0.00    -0.237 OA
ATOM     95  O   UNL A   1      46.216  37.062  26.599  1.00  0.00    -0.744 OA
ENDBRANCH  89  92
ENDBRANCH  62  85
ENDBRANCH  36  37
ENDBRANCH  28  31
ENDBRANCH  26  27
ENDBRANCH   1  26
TORSDOF 17
ENDMDL
