MODEL 1
REMARK VINA RESULT:     -12.2      0.000      0.000
REMARK SMILES C[C@@H]1CCC[C@H](S[C@@H]2CCC[C@]([NH2+]C3CC3)(C(=O)NCCCNC(=O)c3ccc(-c4c5nc(c(-c6cccc(S(=O)(=O)[O-])c6F)c6ccc([nH]6)c(-c6cccc(S(=O)(=O)[O-])c6F)c6nc(c(-c7cccc(S(=O)(=O)[O-])c7F)c7ccc4[nH]7)C=C6)C=C5)cc3)C2)C1
REMARK SMILES IDX 21 1 20 2 19 3 17 4 18 5 12 7 8 8 9 9 89 10 10 11 11 12 7 13
REMARK SMILES IDX 6 14 1 15 2 16 3 17 90 18 4 19 5 20 13 21 14 24 15 25 16 26
REMARK SMILES IDX 22 27 23 28 24 29 25 31 26 32 27 33 88 34 28 35 87 36 29 37
REMARK SMILES IDX 30 38 31 39 81 40 32 41 86 42 80 43 82 44 33 45 85 46 79 47
REMARK SMILES IDX 78 48 34 50 66 51 46 52 65 53 47 54 50 55 64 56 83 57 48 58
REMARK SMILES IDX 49 59 63 61 84 62 51 63 35 64 36 65 44 66 37 67 39 68 45 69
REMARK SMILES IDX 38 70 40 71 41 72 42 73 43 74 67 75 68 76 76 77 69 78 71 79
REMARK SMILES IDX 77 80 70 81 72 82 73 83 74 84 75 85 52 86 53 87 61 88 54 89
REMARK SMILES IDX 56 90 62 91 55 92 57 93 58 94 59 95 60 96
REMARK H PARENT 19 6 13 22 13 23 23 30 82 49 50 60
REMARK Flexibility Score: inf
ROOT
ATOM      1  C   UNL A   1      31.811  28.171  26.655  1.00  0.00     0.042 C 
ENDROOT
BRANCH   1   2
ATOM      2  C   UNL A   1      31.044  27.137  25.843  1.00  0.00     0.118 C 
BRANCH   2   3
ATOM      3  N   UNL A   1      30.807  25.897  26.564  1.00  0.00    -0.351 N 
ATOM      4  C   UNL A   1      31.307  24.632  26.451  1.00  0.00     0.281 C 
ATOM      5  O   UNL A   1      30.870  23.822  27.276  1.00  0.00    -0.268 OA
ATOM      6  H   UNL A   1      30.144  25.989  27.288  1.00  0.00     0.163 HD
BRANCH   4   7
ATOM      7  C   UNL A   1      32.383  24.234  25.389  1.00  0.00     0.176 C 
ATOM      8  C   UNL A   1      34.056  22.297  24.808  1.00  0.00     0.053 C 
ATOM      9  C   UNL A   1      35.262  23.218  24.978  1.00  0.00     0.015 C 
ATOM     10  C   UNL A   1      32.785  22.739  25.528  1.00  0.00     0.093 C 
ATOM     11  C   UNL A   1      34.873  24.687  24.851  1.00  0.00     0.008 C 
ATOM     12  C   UNL A   1      33.671  25.042  25.720  1.00  0.00     0.079 C 
BRANCH   8  13
ATOM     13  S   UNL A   1      34.440  20.488  25.006  1.00  0.00    -0.155 SA
BRANCH  13  14
ATOM     14  C   UNL A   1      32.925  19.433  24.788  1.00  0.00     0.047 C 
ATOM     15  C   UNL A   1      34.868  16.539  25.159  1.00  0.00     0.007 C 
ATOM     16  C   UNL A   1      33.432  16.873  24.744  1.00  0.00    -0.013 C 
ATOM     17  C   UNL A   1      33.159  16.897  23.223  1.00  0.00     0.003 C 
ATOM     18  C   UNL A   1      32.921  18.085  25.524  1.00  0.00     0.017 C 
ATOM     19  C   UNL A   1      32.819  18.229  22.546  1.00  0.00     0.001 C 
ATOM     20  C   UNL A   1      32.233  19.300  23.442  1.00  0.00     0.014 C 
ENDBRANCH  13  14
ENDBRANCH   8  13
BRANCH   7  21
ATOM     21  N   UNL A   1      31.879  24.516  24.029  1.00  0.00    -0.331 N 
ATOM     22  H   UNL A   1      30.898  24.777  24.139  1.00  0.00     0.347 HD
ATOM     23  H   UNL A   1      32.114  23.656  23.534  1.00  0.00     0.347 HD
BRANCH  21  24
ATOM     24  C   UNL A   1      32.484  25.544  23.161  1.00  0.00     0.183 C 
ATOM     25  C   UNL A   1      32.748  25.467  21.682  1.00  0.00     0.071 C 
ATOM     26  C   UNL A   1      31.648  26.341  22.187  1.00  0.00     0.071 C 
ENDBRANCH  21  24
ENDBRANCH   7  21
ENDBRANCH   4   7
ENDBRANCH   2   3
ENDBRANCH   1   2
BRANCH   1  27
ATOM     27  C   UNL A   1      32.713  29.065  25.818  1.00  0.00     0.118 C 
BRANCH  27  28
ATOM     28  N   UNL A   1      32.501  30.480  26.099  1.00  0.00    -0.352 N 
ATOM     29  C   UNL A   1      33.120  31.311  27.003  1.00  0.00     0.251 C 
ATOM     30  H   UNL A   1      31.803  30.910  25.554  1.00  0.00     0.163 HD
ATOM     31  O   UNL A   1      32.615  32.398  27.265  1.00  0.00    -0.269 OA
BRANCH  29  32
ATOM     32  C   UNL A   1      34.375  30.894  27.667  1.00  0.00     0.039 A 
ATOM     33  C   UNL A   1      35.368  31.847  27.909  1.00  0.00     0.014 A 
ATOM     34  C   UNL A   1      34.587  29.562  28.024  1.00  0.00     0.014 A 
ATOM     35  C   UNL A   1      36.542  31.472  28.570  1.00  0.00     0.010 A 
ATOM     36  C   UNL A   1      35.704  29.213  28.775  1.00  0.00     0.010 A 
ATOM     37  C   UNL A   1      36.703  30.160  29.042  1.00  0.00    -0.014 A 
BRANCH  37  38
ATOM     38  C   UNL A   1      37.908  29.749  29.807  1.00  0.00     0.031 A 
ATOM     39  C   UNL A   1      38.168  30.321  31.178  1.00  0.00     0.074 A 
ATOM     40  C   UNL A   1      38.817  28.936  29.232  1.00  0.00     0.049 A 
ATOM     41  N   UNL A   1      39.196  30.141  31.965  1.00  0.00    -0.248 NA
ATOM     42  C   UNL A   1      37.156  31.243  31.721  1.00  0.00     0.031 C 
ATOM     43  C   UNL A   1      38.725  28.384  27.878  1.00  0.00     0.029 A 
ATOM     44  N   UNL A   1      40.013  28.452  29.704  1.00  0.00    -0.354 N 
ATOM     45  C   UNL A   1      38.976  30.954  33.071  1.00  0.00     0.074 A 
ATOM     46  C   UNL A   1      37.737  31.660  32.836  1.00  0.00     0.031 C 
ATOM     47  C   UNL A   1      39.809  27.632  27.632  1.00  0.00     0.029 A 
ATOM     48  C   UNL A   1      40.691  27.675  28.794  1.00  0.00     0.049 A 
ATOM     49  H   UNL A   1      40.353  28.644  30.607  1.00  0.00     0.167 HD
ATOM     50  C   UNL A   1      39.719  31.078  34.196  1.00  0.00     0.034 A 
ATOM     51  C   UNL A   1      41.892  27.070  28.882  1.00  0.00     0.034 A 
ATOM     52  C   UNL A   1      40.924  30.336  34.447  1.00  0.00     0.049 A 
ATOM     53  C   UNL A   1      42.675  27.188  30.162  1.00  0.00     0.074 A 
ATOM     54  C   UNL A   1      41.700  30.319  35.593  1.00  0.00     0.029 A 
ATOM     55  N   UNL A   1      41.532  29.487  33.537  1.00  0.00    -0.354 N 
ATOM     56  N   UNL A   1      42.370  27.837  31.259  1.00  0.00    -0.248 NA
ATOM     57  C   UNL A   1      43.951  26.461  30.229  1.00  0.00     0.031 C 
ATOM     58  C   UNL A   1      42.794  29.479  35.364  1.00  0.00     0.029 A 
ATOM     59  C   UNL A   1      42.681  28.946  34.090  1.00  0.00     0.049 A 
ATOM     60  H   UNL A   1      41.198  29.296  32.632  1.00  0.00     0.167 HD
ATOM     61  C   UNL A   1      43.393  27.566  32.159  1.00  0.00     0.074 A 
ATOM     62  C   UNL A   1      44.317  26.677  31.484  1.00  0.00     0.031 C 
ATOM     63  C   UNL A   1      43.562  28.021  33.425  1.00  0.00     0.034 A 
BRANCH  50  64
ATOM     64  C   UNL A   1      39.219  32.015  35.268  1.00  0.00     0.023 A 
ATOM     65  C   UNL A   1      38.246  31.568  36.186  1.00  0.00     0.012 A 
ATOM     66  C   UNL A   1      39.750  33.312  35.402  1.00  0.00     0.148 A 
ATOM     67  C   UNL A   1      37.782  32.409  37.196  1.00  0.00     0.002 A 
ATOM     68  C   UNL A   1      39.318  34.128  36.442  1.00  0.00     0.091 A 
ATOM     69  F   UNL A   1      40.659  33.728  34.509  1.00  0.00    -0.205 F 
ATOM     70  C   UNL A   1      38.325  33.683  37.331  1.00  0.00     0.022 A 
BRANCH  68  71
ATOM     71  S   UNL A   1      40.013  35.755  36.754  1.00  0.00     0.127 S 
ATOM     72  O   UNL A   1      41.430  35.440  36.933  1.00  0.00    -0.237 OA
ATOM     73  O   UNL A   1      39.699  36.464  35.513  1.00  0.00    -0.237 OA
ATOM     74  O   UNL A   1      39.333  36.263  37.936  1.00  0.00    -0.744 OA
ENDBRANCH  68  71
ENDBRANCH  50  64
BRANCH  51  75
ATOM     75  C   UNL A   1      42.398  26.245  27.747  1.00  0.00     0.023 A 
ATOM     76  C   UNL A   1      43.299  26.815  26.826  1.00  0.00     0.012 A 
ATOM     77  C   UNL A   1      42.014  24.900  27.589  1.00  0.00     0.148 A 
ATOM     78  C   UNL A   1      43.779  26.072  25.747  1.00  0.00     0.002 A 
ATOM     79  C   UNL A   1      42.541  24.148  26.545  1.00  0.00     0.091 A 
ATOM     80  F   UNL A   1      41.151  24.379  28.472  1.00  0.00    -0.205 F 
ATOM     81  C   UNL A   1      43.408  24.737  25.612  1.00  0.00     0.022 A 
BRANCH  79  82
ATOM     82  S   UNL A   1      42.225  22.389  26.372  1.00  0.00     0.127 S 
ATOM     83  O   UNL A   1      40.768  22.353  26.293  1.00  0.00    -0.237 OA
ATOM     84  O   UNL A   1      42.919  22.081  25.121  1.00  0.00    -0.237 OA
ATOM     85  O   UNL A   1      42.812  21.766  27.551  1.00  0.00    -0.744 OA
ENDBRANCH  79  82
ENDBRANCH  51  75
BRANCH  63  86
ATOM     86  C   UNL A   1      44.766  27.536  34.189  1.00  0.00     0.023 A 
ATOM     87  C   UNL A   1      45.950  28.299  34.197  1.00  0.00     0.012 A 
ATOM     88  C   UNL A   1      44.697  26.357  34.956  1.00  0.00     0.148 A 
ATOM     89  C   UNL A   1      47.058  27.878  34.930  1.00  0.00     0.002 A 
ATOM     90  C   UNL A   1      45.787  25.971  35.727  1.00  0.00     0.091 A 
ATOM     91  F   UNL A   1      43.568  25.635  34.920  1.00  0.00    -0.205 F 
ATOM     92  C   UNL A   1      46.973  26.723  35.703  1.00  0.00     0.022 A 
BRANCH  90  93
ATOM     93  S   UNL A   1      45.734  24.555  36.829  1.00  0.00     0.127 S 
ATOM     94  O   UNL A   1      44.612  24.899  37.702  1.00  0.00    -0.237 OA
ATOM     95  O   UNL A   1      45.470  23.452  35.904  1.00  0.00    -0.237 OA
ATOM     96  O   UNL A   1      47.036  24.501  37.479  1.00  0.00    -0.744 OA
ENDBRANCH  90  93
ENDBRANCH  63  86
ENDBRANCH  37  38
ENDBRANCH  29  32
ENDBRANCH  27  28
ENDBRANCH   1  27
TORSDOF 17
ENDMDL
MODEL 2
REMARK VINA RESULT:     -12.2      2.683      8.152
REMARK SMILES C[C@@H]1CCC[C@H](S[C@@H]2CCC[C@]([NH2+]C3CC3)(C(=O)NCCCNC(=O)c3ccc(-c4c5nc(c(-c6cccc(S(=O)(=O)[O-])c6F)c6ccc([nH]6)c(-c6cccc(S(=O)(=O)[O-])c6F)c6nc(c(-c7cccc(S(=O)(=O)[O-])c7F)c7ccc4[nH]7)C=C6)C=C5)cc3)C2)C1
REMARK SMILES IDX 21 1 20 2 19 3 17 4 18 5 12 7 8 8 9 9 89 10 10 11 11 12 7 13
REMARK SMILES IDX 6 14 1 15 2 16 3 17 90 18 4 19 5 20 13 21 14 24 15 25 16 26
REMARK SMILES IDX 22 27 23 28 24 29 25 31 26 32 27 33 88 34 28 35 87 36 29 37
REMARK SMILES IDX 30 38 31 39 81 40 32 41 86 42 80 43 82 44 33 45 85 46 79 47
REMARK SMILES IDX 78 48 34 50 66 51 46 52 65 53 47 54 50 55 64 56 83 57 48 58
REMARK SMILES IDX 49 59 63 61 84 62 51 63 35 64 36 65 44 66 37 67 39 68 45 69
REMARK SMILES IDX 38 70 40 71 41 72 42 73 43 74 67 75 68 76 76 77 69 78 71 79
REMARK SMILES IDX 77 80 70 81 72 82 73 83 74 84 75 85 52 86 53 87 61 88 54 89
REMARK SMILES IDX 56 90 62 91 55 92 57 93 58 94 59 95 60 96
REMARK H PARENT 19 6 13 22 13 23 23 30 82 49 50 60
REMARK Flexibility Score: inf
ROOT
ATOM      1  C   UNL A   1      31.474  32.029  26.747  1.00  0.00     0.042 C 
ENDROOT
BRANCH   1   2
ATOM      2  C   UNL A   1      31.690  30.743  25.963  1.00  0.00     0.118 C 
BRANCH   2   3
ATOM      3  N   UNL A   1      31.632  29.548  26.788  1.00  0.00    -0.351 N 
ATOM      4  C   UNL A   1      31.664  28.211  26.512  1.00  0.00     0.281 C 
ATOM      5  O   UNL A   1      31.610  27.473  27.501  1.00  0.00    -0.268 OA
ATOM      6  H   UNL A   1      31.552  29.743  27.750  1.00  0.00     0.163 HD
BRANCH   4   7
ATOM      7  C   UNL A   1      31.802  27.645  25.061  1.00  0.00     0.176 C 
ATOM      8  C   UNL A   1      32.529  25.472  23.781  1.00  0.00     0.053 C 
ATOM      9  C   UNL A   1      33.676  26.202  23.088  1.00  0.00     0.015 C 
ATOM     10  C   UNL A   1      32.033  26.108  25.077  1.00  0.00     0.093 C 
ATOM     11  C   UNL A   1      33.459  27.712  23.076  1.00  0.00     0.008 C 
ATOM     12  C   UNL A   1      33.099  28.253  24.455  1.00  0.00     0.079 C 
BRANCH   8  13
ATOM     13  S   UNL A   1      32.748  23.628  23.886  1.00  0.00    -0.155 SA
BRANCH  13  14
ATOM     14  C   UNL A   1      33.780  23.138  25.352  1.00  0.00     0.047 C 
ATOM     15  C   UNL A   1      36.605  22.871  23.293  1.00  0.00     0.007 C 
ATOM     16  C   UNL A   1      36.239  22.513  24.737  1.00  0.00    -0.013 C 
ATOM     17  C   UNL A   1      35.872  21.034  24.992  1.00  0.00     0.003 C 
ATOM     18  C   UNL A   1      35.261  23.541  25.308  1.00  0.00     0.017 C 
ATOM     19  C   UNL A   1      34.433  20.676  25.380  1.00  0.00     0.001 C 
ATOM     20  C   UNL A   1      33.623  21.784  26.022  1.00  0.00     0.014 C 
ENDBRANCH  13  14
ENDBRANCH   8  13
BRANCH   7  21
ATOM     21  N   UNL A   1      30.601  27.986  24.270  1.00  0.00    -0.331 N 
ATOM     22  H   UNL A   1      29.828  28.032  24.935  1.00  0.00     0.347 HD
ATOM     23  H   UNL A   1      30.604  27.256  23.558  1.00  0.00     0.347 HD
BRANCH  21  24
ATOM     24  C   UNL A   1      30.516  29.211  23.454  1.00  0.00     0.183 C 
ATOM     25  C   UNL A   1      30.003  29.351  22.046  1.00  0.00     0.071 C 
ATOM     26  C   UNL A   1      29.191  29.883  23.181  1.00  0.00     0.071 C 
ENDBRANCH  21  24
ENDBRANCH   7  21
ENDBRANCH   4   7
ENDBRANCH   2   3
ENDBRANCH   1   2
BRANCH   1  27
ATOM     27  C   UNL A   1      32.758  32.654  27.272  1.00  0.00     0.118 C 
BRANCH  27  28
ATOM     28  N   UNL A   1      32.582  34.056  27.633  1.00  0.00    -0.352 N 
ATOM     29  C   UNL A   1      33.136  34.788  28.656  1.00  0.00     0.251 C 
ATOM     30  H   UNL A   1      31.970  34.559  27.050  1.00  0.00     0.163 HD
ATOM     31  O   UNL A   1      32.656  35.880  28.942  1.00  0.00    -0.269 OA
BRANCH  29  32
ATOM     32  C   UNL A   1      34.289  34.260  29.418  1.00  0.00     0.039 A 
ATOM     33  C   UNL A   1      34.063  33.590  30.622  1.00  0.00     0.014 A 
ATOM     34  C   UNL A   1      35.595  34.451  28.962  1.00  0.00     0.014 A 
ATOM     35  C   UNL A   1      35.143  33.055  31.331  1.00  0.00     0.010 A 
ATOM     36  C   UNL A   1      36.655  33.827  29.609  1.00  0.00     0.010 A 
ATOM     37  C   UNL A   1      36.445  33.135  30.811  1.00  0.00    -0.014 A 
BRANCH  37  38
ATOM     38  C   UNL A   1      37.603  32.517  31.506  1.00  0.00     0.031 A 
ATOM     39  C   UNL A   1      38.351  31.376  30.865  1.00  0.00     0.074 A 
ATOM     40  C   UNL A   1      37.923  32.917  32.753  1.00  0.00     0.049 A 
ATOM     41  N   UNL A   1      39.336  30.662  31.345  1.00  0.00    -0.248 NA
ATOM     42  C   UNL A   1      37.913  30.959  29.522  1.00  0.00     0.031 C 
ATOM     43  C   UNL A   1      37.221  33.952  33.517  1.00  0.00     0.029 A 
ATOM     44  N   UNL A   1      38.903  32.482  33.610  1.00  0.00    -0.354 N 
ATOM     45  C   UNL A   1      39.606  29.692  30.386  1.00  0.00     0.074 A 
ATOM     46  C   UNL A   1      38.655  29.880  29.315  1.00  0.00     0.031 C 
ATOM     47  C   UNL A   1      37.798  34.078  34.722  1.00  0.00     0.029 A 
ATOM     48  C   UNL A   1      38.886  33.113  34.833  1.00  0.00     0.049 A 
ATOM     49  H   UNL A   1      39.555  31.785  33.373  1.00  0.00     0.167 HD
ATOM     50  C   UNL A   1      40.578  28.749  30.381  1.00  0.00     0.034 A 
ATOM     51  C   UNL A   1      39.656  32.928  35.923  1.00  0.00     0.034 A 
ATOM     52  C   UNL A   1      41.554  28.598  31.426  1.00  0.00     0.049 A 
ATOM     53  C   UNL A   1      40.759  31.905  35.873  1.00  0.00     0.074 A 
ATOM     54  C   UNL A   1      42.636  27.738  31.473  1.00  0.00     0.029 A 
ATOM     55  N   UNL A   1      41.561  29.318  32.610  1.00  0.00    -0.354 N 
ATOM     56  N   UNL A   1      41.098  31.106  34.891  1.00  0.00    -0.248 NA
ATOM     57  C   UNL A   1      41.608  31.785  37.067  1.00  0.00     0.031 C 
ATOM     58  C   UNL A   1      43.283  27.919  32.700  1.00  0.00     0.029 A 
ATOM     59  C   UNL A   1      42.623  28.916  33.401  1.00  0.00     0.049 A 
ATOM     60  H   UNL A   1      40.908  30.013  32.853  1.00  0.00     0.167 HD
ATOM     61  C   UNL A   1      42.220  30.416  35.333  1.00  0.00     0.074 A 
ATOM     62  C   UNL A   1      42.516  30.908  36.662  1.00  0.00     0.031 C 
ATOM     63  C   UNL A   1      42.936  29.453  34.700  1.00  0.00     0.034 A 
BRANCH  50  64
ATOM     64  C   UNL A   1      40.669  27.841  29.180  1.00  0.00     0.023 A 
ATOM     65  C   UNL A   1      39.811  26.726  29.083  1.00  0.00     0.012 A 
ATOM     66  C   UNL A   1      41.559  28.121  28.125  1.00  0.00     0.148 A 
ATOM     67  C   UNL A   1      39.864  25.883  27.974  1.00  0.00     0.002 A 
ATOM     68  C   UNL A   1      41.572  27.303  27.001  1.00  0.00     0.091 A 
ATOM     69  F   UNL A   1      42.381  29.173  28.244  1.00  0.00    -0.205 F 
ATOM     70  C   UNL A   1      40.735  26.177  26.930  1.00  0.00     0.022 A 
BRANCH  68  71
ATOM     71  S   UNL A   1      42.597  27.643  25.565  1.00  0.00     0.127 S 
ATOM     72  O   UNL A   1      42.370  26.448  24.753  1.00  0.00    -0.237 OA
ATOM     73  O   UNL A   1      41.988  28.864  25.036  1.00  0.00    -0.237 OA
ATOM     74  O   UNL A   1      43.953  27.807  26.069  1.00  0.00    -0.744 OA
ENDBRANCH  68  71
ENDBRANCH  50  64
BRANCH  51  75
ATOM     75  C   UNL A   1      39.453  33.776  37.133  1.00  0.00     0.023 A 
ATOM     76  C   UNL A   1      39.920  35.105  37.134  1.00  0.00     0.012 A 
ATOM     77  C   UNL A   1      38.781  33.285  38.269  1.00  0.00     0.148 A 
ATOM     78  C   UNL A   1      39.757  35.917  38.257  1.00  0.00     0.002 A 
ATOM     79  C   UNL A   1      38.570  34.117  39.363  1.00  0.00     0.091 A 
ATOM     80  F   UNL A   1      38.351  32.016  38.252  1.00  0.00    -0.205 F 
ATOM     81  C   UNL A   1      39.074  35.427  39.366  1.00  0.00     0.022 A 
BRANCH  79  82
ATOM     82  S   UNL A   1      37.586  33.615  40.778  1.00  0.00     0.127 S 
ATOM     83  O   UNL A   1      37.425  34.877  41.493  1.00  0.00    -0.237 OA
ATOM     84  O   UNL A   1      36.372  33.110  40.137  1.00  0.00    -0.237 OA
ATOM     85  O   UNL A   1      38.371  32.595  41.462  1.00  0.00    -0.744 OA
ENDBRANCH  79  82
ENDBRANCH  51  75
BRANCH  63  86
ATOM     86  C   UNL A   1      44.137  28.891  35.415  1.00  0.00     0.023 A 
ATOM     87  C   UNL A   1      45.403  29.481  35.235  1.00  0.00     0.012 A 
ATOM     88  C   UNL A   1      43.994  27.822  36.321  1.00  0.00     0.148 A 
ATOM     89  C   UNL A   1      46.515  28.993  35.919  1.00  0.00     0.002 A 
ATOM     90  C   UNL A   1      45.095  27.375  37.039  1.00  0.00     0.091 A 
ATOM     91  F   UNL A   1      42.784  27.262  36.464  1.00  0.00    -0.205 F 
ATOM     92  C   UNL A   1      46.360  27.950  36.829  1.00  0.00     0.022 A 
BRANCH  90  93
ATOM     93  S   UNL A   1      44.970  26.107  38.304  1.00  0.00     0.127 S 
ATOM     94  O   UNL A   1      44.194  25.076  37.616  1.00  0.00    -0.237 OA
ATOM     95  O   UNL A   1      46.373  25.761  38.536  1.00  0.00    -0.237 OA
ATOM     96  O   UNL A   1      44.307  26.733  39.439  1.00  0.00    -0.744 OA
ENDBRANCH  90  93
ENDBRANCH  63  86
ENDBRANCH  37  38
ENDBRANCH  29  32
ENDBRANCH  27  28
ENDBRANCH   1  27
TORSDOF 17
ENDMDL
MODEL 3
REMARK VINA RESULT:     -12.1      5.492      8.829
REMARK SMILES C[C@@H]1CCC[C@H](S[C@@H]2CCC[C@]([NH2+]C3CC3)(C(=O)NCCCNC(=O)c3ccc(-c4c5nc(c(-c6cccc(S(=O)(=O)[O-])c6F)c6ccc([nH]6)c(-c6cccc(S(=O)(=O)[O-])c6F)c6nc(c(-c7cccc(S(=O)(=O)[O-])c7F)c7ccc4[nH]7)C=C6)C=C5)cc3)C2)C1
REMARK SMILES IDX 21 1 20 2 19 3 17 4 18 5 12 7 8 8 9 9 89 10 10 11 11 12 7 13
REMARK SMILES IDX 6 14 1 15 2 16 3 17 90 18 4 19 5 20 13 21 14 24 15 25 16 26
REMARK SMILES IDX 22 27 23 28 24 29 25 31 26 32 27 33 88 34 28 35 87 36 29 37
REMARK SMILES IDX 30 38 31 39 81 40 32 41 86 42 80 43 82 44 33 45 85 46 79 47
REMARK SMILES IDX 78 48 34 50 66 51 46 52 65 53 47 54 50 55 64 56 83 57 48 58
REMARK SMILES IDX 49 59 63 61 84 62 51 63 35 64 36 65 44 66 37 67 39 68 45 69
REMARK SMILES IDX 38 70 40 71 41 72 42 73 43 74 67 75 68 76 76 77 69 78 71 79
REMARK SMILES IDX 77 80 70 81 72 82 73 83 74 84 75 85 52 86 53 87 61 88 54 89
REMARK SMILES IDX 56 90 62 91 55 92 57 93 58 94 59 95 60 96
REMARK H PARENT 19 6 13 22 13 23 23 30 82 49 50 60
REMARK Flexibility Score: inf
ROOT
ATOM      1  C   UNL A   1      37.820  20.192  24.827  1.00  0.00     0.042 C 
ENDROOT
BRANCH   1   2
ATOM      2  C   UNL A   1      36.638  21.149  24.791  1.00  0.00     0.118 C 
BRANCH   2   3
ATOM      3  N   UNL A   1      36.014  21.345  26.090  1.00  0.00    -0.351 N 
ATOM      4  C   UNL A   1      34.753  21.687  26.486  1.00  0.00     0.281 C 
ATOM      5  O   UNL A   1      34.588  21.740  27.710  1.00  0.00    -0.268 OA
ATOM      6  H   UNL A   1      36.632  21.202  26.843  1.00  0.00     0.163 HD
BRANCH   4   7
ATOM      7  C   UNL A   1      33.587  21.952  25.480  1.00  0.00     0.176 C 
ATOM      8  C   UNL A   1      32.532  23.880  24.044  1.00  0.00     0.053 C 
ATOM      9  C   UNL A   1      31.212  23.794  24.806  1.00  0.00     0.015 C 
ATOM     10  C   UNL A   1      33.751  23.331  24.780  1.00  0.00     0.093 C 
ATOM     11  C   UNL A   1      31.048  22.447  25.502  1.00  0.00     0.008 C 
ATOM     12  C   UNL A   1      32.280  22.065  26.316  1.00  0.00     0.079 C 
BRANCH   8  13
ATOM     13  S   UNL A   1      32.831  25.517  23.213  1.00  0.00    -0.155 SA
BRANCH  13  14
ATOM     14  C   UNL A   1      33.795  26.676  24.300  1.00  0.00     0.047 C 
ATOM     15  C   UNL A   1      31.059  26.929  26.478  1.00  0.00     0.007 C 
ATOM     16  C   UNL A   1      32.408  27.632  26.295  1.00  0.00    -0.013 C 
ATOM     17  C   UNL A   1      32.367  28.985  25.551  1.00  0.00     0.003 C 
ATOM     18  C   UNL A   1      33.461  26.640  25.799  1.00  0.00     0.017 C 
ATOM     19  C   UNL A   1      33.020  29.099  24.170  1.00  0.00     0.001 C 
ATOM     20  C   UNL A   1      34.115  28.096  23.867  1.00  0.00     0.014 C 
ENDBRANCH  13  14
ENDBRANCH   8  13
BRANCH   7  21
ATOM     21  N   UNL A   1      33.522  20.863  24.483  1.00  0.00    -0.331 N 
ATOM     22  H   UNL A   1      34.436  20.839  24.031  1.00  0.00     0.347 HD
ATOM     23  H   UNL A   1      32.701  21.126  23.937  1.00  0.00     0.347 HD
BRANCH  21  24
ATOM     24  C   UNL A   1      33.210  19.470  24.856  1.00  0.00     0.183 C 
ATOM     25  C   UNL A   1      32.549  18.413  24.014  1.00  0.00     0.071 C 
ATOM     26  C   UNL A   1      34.009  18.313  24.308  1.00  0.00     0.071 C 
ENDBRANCH  21  24
ENDBRANCH   7  21
ENDBRANCH   4   7
ENDBRANCH   2   3
ENDBRANCH   1   2
BRANCH   1  27
ATOM     27  C   UNL A   1      38.900  20.584  25.824  1.00  0.00     0.118 C 
BRANCH  27  28
ATOM     28  N   UNL A   1      39.899  19.536  25.996  1.00  0.00    -0.352 N 
ATOM     29  C   UNL A   1      41.264  19.623  26.140  1.00  0.00     0.251 C 
ATOM     30  H   UNL A   1      39.539  18.621  26.012  1.00  0.00     0.163 HD
ATOM     31  O   UNL A   1      41.948  18.613  26.007  1.00  0.00    -0.269 OA
BRANCH  29  32
ATOM     32  C   UNL A   1      41.906  20.922  26.438  1.00  0.00     0.039 A 
ATOM     33  C   UNL A   1      42.155  21.816  25.394  1.00  0.00     0.014 A 
ATOM     34  C   UNL A   1      42.292  21.247  27.739  1.00  0.00     0.014 A 
ATOM     35  C   UNL A   1      42.728  23.061  25.669  1.00  0.00     0.010 A 
ATOM     36  C   UNL A   1      42.759  22.524  28.026  1.00  0.00     0.010 A 
ATOM     37  C   UNL A   1      42.999  23.441  26.993  1.00  0.00    -0.014 A 
BRANCH  37  38
ATOM     38  C   UNL A   1      43.543  24.783  27.323  1.00  0.00     0.031 A 
ATOM     39  C   UNL A   1      42.633  25.860  27.857  1.00  0.00     0.074 A 
ATOM     40  C   UNL A   1      44.834  25.064  27.055  1.00  0.00     0.049 A 
ATOM     41  N   UNL A   1      42.906  27.109  28.133  1.00  0.00    -0.248 NA
ATOM     42  C   UNL A   1      41.223  25.496  28.078  1.00  0.00     0.031 C 
ATOM     43  C   UNL A   1      45.797  24.135  26.458  1.00  0.00     0.029 A 
ATOM     44  N   UNL A   1      45.555  26.220  27.224  1.00  0.00    -0.354 N 
ATOM     45  C   UNL A   1      41.701  27.686  28.517  1.00  0.00     0.074 A 
ATOM     46  C   UNL A   1      40.686  26.664  28.400  1.00  0.00     0.031 C 
ATOM     47  C   UNL A   1      46.980  24.752  26.320  1.00  0.00     0.029 A 
ATOM     48  C   UNL A   1      46.855  26.130  26.784  1.00  0.00     0.049 A 
ATOM     49  H   UNL A   1      45.176  27.037  27.622  1.00  0.00     0.167 HD
ATOM     50  C   UNL A   1      41.464  28.944  28.960  1.00  0.00     0.034 A 
ATOM     51  C   UNL A   1      47.834  27.055  26.752  1.00  0.00     0.034 A 
ATOM     52  C   UNL A   1      42.485  29.942  29.123  1.00  0.00     0.049 A 
ATOM     53  C   UNL A   1      47.556  28.431  27.292  1.00  0.00     0.074 A 
ATOM     54  C   UNL A   1      42.365  31.215  29.652  1.00  0.00     0.029 A 
ATOM     55  N   UNL A   1      43.811  29.784  28.752  1.00  0.00    -0.354 N 
ATOM     56  N   UNL A   1      46.446  28.908  27.801  1.00  0.00    -0.248 NA
ATOM     57  C   UNL A   1      48.674  29.385  27.290  1.00  0.00     0.031 C 
ATOM     58  C   UNL A   1      43.616  31.837  29.575  1.00  0.00     0.029 A 
ATOM     59  C   UNL A   1      44.520  30.939  29.031  1.00  0.00     0.049 A 
ATOM     60  H   UNL A   1      44.192  28.971  28.350  1.00  0.00     0.167 HD
ATOM     61  C   UNL A   1      46.741  30.203  28.212  1.00  0.00     0.074 A 
ATOM     62  C   UNL A   1      48.140  30.426  27.913  1.00  0.00     0.031 C 
ATOM     63  C   UNL A   1      45.925  31.128  28.776  1.00  0.00     0.034 A 
BRANCH  50  64
ATOM     64  C   UNL A   1      40.050  29.295  29.353  1.00  0.00     0.023 A 
ATOM     65  C   UNL A   1      39.100  29.585  28.351  1.00  0.00     0.012 A 
ATOM     66  C   UNL A   1      39.648  29.282  30.702  1.00  0.00     0.148 A 
ATOM     67  C   UNL A   1      37.783  29.895  28.689  1.00  0.00     0.002 A 
ATOM     68  C   UNL A   1      38.322  29.543  31.027  1.00  0.00     0.091 A 
ATOM     69  F   UNL A   1      40.569  29.023  31.642  1.00  0.00    -0.205 F 
ATOM     70  C   UNL A   1      37.392  29.863  30.024  1.00  0.00     0.022 A 
BRANCH  68  71
ATOM     71  S   UNL A   1      37.697  29.446  32.709  1.00  0.00     0.127 S 
ATOM     72  O   UNL A   1      36.392  30.094  32.576  1.00  0.00    -0.237 OA
ATOM     73  O   UNL A   1      37.640  28.001  32.931  1.00  0.00    -0.237 OA
ATOM     74  O   UNL A   1      38.663  30.153  33.538  1.00  0.00    -0.744 OA
ENDBRANCH  68  71
ENDBRANCH  50  64
BRANCH  51  75
ATOM     75  C   UNL A   1      49.189  26.691  26.246  1.00  0.00     0.023 A 
ATOM     76  C   UNL A   1      50.022  25.868  27.029  1.00  0.00     0.012 A 
ATOM     77  C   UNL A   1      49.647  27.133  24.990  1.00  0.00     0.148 A 
ATOM     78  C   UNL A   1      51.300  25.522  26.588  1.00  0.00     0.002 A 
ATOM     79  C   UNL A   1      50.898  26.738  24.531  1.00  0.00     0.091 A 
ATOM     80  F   UNL A   1      48.843  27.922  24.264  1.00  0.00    -0.205 F 
ATOM     81  C   UNL A   1      51.734  25.949  25.336  1.00  0.00     0.022 A 
BRANCH  79  82
ATOM     82  S   UNL A   1      51.484  27.127  22.879  1.00  0.00     0.127 S 
ATOM     83  O   UNL A   1      52.732  26.372  22.818  1.00  0.00    -0.237 OA
ATOM     84  O   UNL A   1      50.403  26.602  22.044  1.00  0.00    -0.237 OA
ATOM     85  O   UNL A   1      51.619  28.578  22.840  1.00  0.00    -0.744 OA
ENDBRANCH  79  82
ENDBRANCH  51  75
BRANCH  63  86
ATOM     86  C   UNL A   1      46.528  32.457  29.150  1.00  0.00     0.023 A 
ATOM     87  C   UNL A   1      47.166  32.616  30.395  1.00  0.00     0.012 A 
ATOM     88  C   UNL A   1      46.523  33.526  28.232  1.00  0.00     0.148 A 
ATOM     89  C   UNL A   1      47.759  33.830  30.736  1.00  0.00     0.002 A 
ATOM     90  C   UNL A   1      47.163  34.715  28.557  1.00  0.00     0.091 A 
ATOM     91  F   UNL A   1      45.894  33.360  27.060  1.00  0.00    -0.205 F 
ATOM     92  C   UNL A   1      47.769  34.874  29.814  1.00  0.00     0.022 A 
BRANCH  90  93
ATOM     93  S   UNL A   1      47.312  36.077  27.396  1.00  0.00     0.127 S 
ATOM     94  O   UNL A   1      45.914  36.463  27.208  1.00  0.00    -0.237 OA
ATOM     95  O   UNL A   1      48.115  37.040  28.150  1.00  0.00    -0.237 OA
ATOM     96  O   UNL A   1      47.972  35.531  26.218  1.00  0.00    -0.744 OA
ENDBRANCH  90  93
ENDBRANCH  63  86
ENDBRANCH  37  38
ENDBRANCH  29  32
ENDBRANCH  27  28
ENDBRANCH   1  27
TORSDOF 17
ENDMDL
