MODEL 1
REMARK VINA RESULT:     -12.5      0.000      0.000
REMARK SMILES O=C(NCCCNC(=O)c1ccc(-n2cc(CSc3nc4ccccc4c(=O)n3-c3ccc(Br)cc3)nn2)cc1)c1ccc(-c2c3nc(c(-c4cccc(S(=O)(=O)[O-])c4F)c4ccc([nH]4)c(-c4cccc(S(=O)(=O)[O-])c4F)c4nc(c(-c5cccc(S(=O)(=O)[O-])c5F)c5ccc2[nH]5)C=C4)C=C3)cc1
REMARK SMILES IDX 6 1 5 2 4 3 3 4 1 5 2 6 41 8 42 9 103 10 43 11 102 12 44 13
REMARK SMILES IDX 45 14 46 15 96 16 47 17 101 18 95 19 97 20 48 21 100 22
REMARK SMILES IDX 94 23 93 24 49 26 81 27 61 28 80 29 62 30 65 31 79 32 98 33
REMARK SMILES IDX 63 34 64 35 78 37 99 38 66 39 50 40 51 41 59 42 52 43 54 44
REMARK SMILES IDX 60 45 53 46 55 47 56 48 57 49 58 50 82 51 83 52 91 53 84 54
REMARK SMILES IDX 86 55 92 56 85 57 87 58 88 59 89 60 90 61 67 62 68 63 76 64
REMARK SMILES IDX 69 65 71 66 77 67 70 68 72 69 73 70 74 71 75 72 7 73 8 74
REMARK SMILES IDX 9 76 10 77 11 78 40 79 12 80 39 81 13 82 14 83 15 84 38 85
REMARK SMILES IDX 16 86 37 87 17 88 18 89 19 90 20 91 29 92 21 93 27 94 22 95
REMARK SMILES IDX 26 96 28 97 23 98 25 99 24 100 30 101 31 102 36 103 32 104
REMARK SMILES IDX 35 105 33 106 34 107
REMARK H PARENT 3 7 97 25 65 36 7 75
REMARK Flexibility Score: inf
ROOT
ATOM      1  C   UNL A   1      45.352  22.952  27.313  1.00  0.00     0.118 C 
ENDROOT
BRANCH   1   2
ATOM      2  C   UNL A   1      46.340  24.024  26.856  1.00  0.00     0.042 C 
BRANCH   2   3
ATOM      3  C   UNL A   1      45.949  24.732  25.561  1.00  0.00     0.118 C 
BRANCH   3   4
ATOM      4  N   UNL A   1      44.572  24.537  25.153  1.00  0.00    -0.352 N 
ATOM      5  O   UNL A   1      42.436  24.779  24.685  1.00  0.00    -0.269 OA
ATOM      6  C   UNL A   1      43.404  25.232  25.300  1.00  0.00     0.251 C 
ATOM      7  H   UNL A   1      44.448  23.701  24.646  1.00  0.00     0.163 HD
BRANCH   6   8
ATOM      8  C   UNL A   1      43.210  26.423  26.172  1.00  0.00     0.039 A 
ATOM      9  C   UNL A   1      43.925  26.708  27.336  1.00  0.00     0.014 A 
ATOM     10  C   UNL A   1      42.212  27.328  25.759  1.00  0.00     0.014 A 
ATOM     11  C   UNL A   1      43.608  27.831  28.102  1.00  0.00     0.010 A 
ATOM     12  C   UNL A   1      41.901  28.456  26.512  1.00  0.00     0.010 A 
ATOM     13  C   UNL A   1      42.586  28.695  27.700  1.00  0.00    -0.014 A 
BRANCH  13  14
ATOM     14  C   UNL A   1      42.383  29.934  28.450  1.00  0.00     0.031 A 
ATOM     15  C   UNL A   1      43.454  30.960  28.265  1.00  0.00     0.074 A 
ATOM     16  C   UNL A   1      41.249  30.233  29.118  1.00  0.00     0.049 A 
ATOM     17  N   UNL A   1      44.209  31.507  29.163  1.00  0.00    -0.248 NA
ATOM     18  C   UNL A   1      43.783  31.355  26.886  1.00  0.00     0.031 C 
ATOM     19  C   UNL A   1      39.994  29.476  29.120  1.00  0.00     0.029 A 
ATOM     20  N   UNL A   1      40.933  31.361  29.822  1.00  0.00    -0.354 N 
ATOM     21  C   UNL A   1      44.963  32.468  28.488  1.00  0.00     0.074 A 
ATOM     22  C   UNL A   1      44.773  32.224  27.082  1.00  0.00     0.031 C 
ATOM     23  C   UNL A   1      38.999  30.271  29.574  1.00  0.00     0.029 A 
ATOM     24  C   UNL A   1      39.564  31.536  30.011  1.00  0.00     0.049 A 
ATOM     25  H   UNL A   1      41.608  31.990  30.164  1.00  0.00     0.167 HD
ATOM     26  C   UNL A   1      45.518  33.537  29.123  1.00  0.00     0.034 A 
ATOM     27  C   UNL A   1      38.934  32.666  30.415  1.00  0.00     0.034 A 
ATOM     28  C   UNL A   1      45.598  33.341  30.544  1.00  0.00     0.049 A 
ATOM     29  C   UNL A   1      39.936  33.534  31.070  1.00  0.00     0.074 A 
ATOM     30  C   UNL A   1      46.198  32.418  31.376  1.00  0.00     0.029 A 
ATOM     31  N   UNL A   1      44.690  34.013  31.322  1.00  0.00    -0.354 N 
ATOM     32  N   UNL A   1      40.504  33.256  32.208  1.00  0.00    -0.248 NA
ATOM     33  C   UNL A   1      40.593  34.551  30.269  1.00  0.00     0.031 C 
ATOM     34  C   UNL A   1      45.284  32.254  32.459  1.00  0.00     0.029 A 
ATOM     35  C   UNL A   1      44.211  33.120  32.242  1.00  0.00     0.049 A 
ATOM     36  H   UNL A   1      44.431  34.959  31.235  1.00  0.00     0.167 HD
ATOM     37  C   UNL A   1      41.806  33.714  32.060  1.00  0.00     0.074 A 
ATOM     38  C   UNL A   1      41.765  34.606  30.906  1.00  0.00     0.031 C 
ATOM     39  C   UNL A   1      42.842  33.102  32.705  1.00  0.00     0.034 A 
BRANCH  26  40
ATOM     40  C   UNL A   1      45.694  34.905  28.506  1.00  0.00     0.023 A 
ATOM     41  C   UNL A   1      44.530  35.637  28.176  1.00  0.00     0.012 A 
ATOM     42  C   UNL A   1      46.919  35.386  27.989  1.00  0.00     0.148 A 
ATOM     43  C   UNL A   1      44.582  36.764  27.348  1.00  0.00     0.002 A 
ATOM     44  C   UNL A   1      46.976  36.555  27.240  1.00  0.00     0.091 A 
ATOM     45  F   UNL A   1      48.027  34.645  28.102  1.00  0.00    -0.205 F 
ATOM     46  C   UNL A   1      45.806  37.232  26.890  1.00  0.00     0.022 A 
BRANCH  44  47
ATOM     47  S   UNL A   1      48.541  37.236  26.679  1.00  0.00     0.127 S 
ATOM     48  O   UNL A   1      48.147  38.580  26.271  1.00  0.00    -0.237 OA
ATOM     49  O   UNL A   1      49.351  37.168  27.896  1.00  0.00    -0.237 OA
ATOM     50  O   UNL A   1      48.989  36.342  25.617  1.00  0.00    -0.744 OA
ENDBRANCH  44  47
ENDBRANCH  26  40
BRANCH  27  51
ATOM     51  C   UNL A   1      37.585  33.176  30.073  1.00  0.00     0.023 A 
ATOM     52  C   UNL A   1      37.065  32.968  28.778  1.00  0.00     0.012 A 
ATOM     53  C   UNL A   1      36.700  33.610  31.084  1.00  0.00     0.148 A 
ATOM     54  C   UNL A   1      35.703  33.153  28.509  1.00  0.00     0.002 A 
ATOM     55  C   UNL A   1      35.349  33.802  30.809  1.00  0.00     0.091 A 
ATOM     56  F   UNL A   1      37.164  33.739  32.334  1.00  0.00    -0.205 F 
ATOM     57  C   UNL A   1      34.844  33.563  29.526  1.00  0.00     0.022 A 
BRANCH  55  58
ATOM     58  S   UNL A   1      34.180  34.308  32.078  1.00  0.00     0.127 S 
ATOM     59  O   UNL A   1      33.030  34.732  31.277  1.00  0.00    -0.237 OA
ATOM     60  O   UNL A   1      33.983  33.064  32.820  1.00  0.00    -0.237 OA
ATOM     61  O   UNL A   1      34.829  35.387  32.810  1.00  0.00    -0.744 OA
ENDBRANCH  55  58
ENDBRANCH  27  51
BRANCH  39  62
ATOM     62  C   UNL A   1      42.517  32.108  33.792  1.00  0.00     0.023 A 
ATOM     63  C   UNL A   1      42.250  32.503  35.120  1.00  0.00     0.012 A 
ATOM     64  C   UNL A   1      42.309  30.766  33.429  1.00  0.00     0.148 A 
ATOM     65  C   UNL A   1      41.811  31.577  36.069  1.00  0.00     0.002 A 
ATOM     66  C   UNL A   1      41.824  29.858  34.363  1.00  0.00     0.091 A 
ATOM     67  F   UNL A   1      42.562  30.405  32.162  1.00  0.00    -0.205 F 
ATOM     68  C   UNL A   1      41.585  30.258  35.687  1.00  0.00     0.022 A 
BRANCH  66  69
ATOM     69  S   UNL A   1      41.386  28.182  33.894  1.00  0.00     0.127 S 
ATOM     70  O   UNL A   1      41.143  27.558  35.198  1.00  0.00    -0.237 OA
ATOM     71  O   UNL A   1      40.178  28.390  33.087  1.00  0.00    -0.237 OA
ATOM     72  O   UNL A   1      42.515  27.665  33.149  1.00  0.00    -0.744 OA
ENDBRANCH  66  69
ENDBRANCH  39  62
ENDBRANCH  13  14
ENDBRANCH   6   8
ENDBRANCH   3   4
ENDBRANCH   2   3
ENDBRANCH   1   2
BRANCH   1  73
ATOM     73  N   UNL A   1      45.038  23.020  28.736  1.00  0.00    -0.352 N 
ATOM     74  C   UNL A   1      43.825  23.121  29.374  1.00  0.00     0.251 C 
ATOM     75  H   UNL A   1      45.819  22.989  29.334  1.00  0.00     0.163 HD
ATOM     76  O   UNL A   1      43.772  23.246  30.592  1.00  0.00    -0.269 OA
BRANCH  74  77
ATOM     77  C   UNL A   1      42.576  23.108  28.589  1.00  0.00     0.039 A 
ATOM     78  C   UNL A   1      42.172  21.907  27.990  1.00  0.00     0.016 A 
ATOM     79  C   UNL A   1      41.818  24.271  28.429  1.00  0.00     0.016 A 
ATOM     80  C   UNL A   1      40.948  21.833  27.320  1.00  0.00     0.029 A 
ATOM     81  C   UNL A   1      40.616  24.214  27.728  1.00  0.00     0.029 A 
ATOM     82  C   UNL A   1      40.176  22.988  27.193  1.00  0.00     0.066 A 
BRANCH  82  83
ATOM     83  N   UNL A   1      38.982  22.956  26.450  1.00  0.00    -0.220 N 
ATOM     84  C   UNL A   1      38.171  24.031  26.224  1.00  0.00     0.141 A 
ATOM     85  N   UNL A   1      38.443  21.858  25.887  1.00  0.00    -0.062 NA
ATOM     86  C   UNL A   1      37.061  23.545  25.584  1.00  0.00     0.093 A 
ATOM     87  N   UNL A   1      37.234  22.190  25.427  1.00  0.00    -0.134 NA
BRANCH  86  88
ATOM     88  C   UNL A   1      35.756  24.211  25.356  1.00  0.00     0.138 C 
BRANCH  88  89
ATOM     89  S   UNL A   1      34.220  23.713  26.138  1.00  0.00    -0.081 SA
BRANCH  89  90
ATOM     90  C   UNL A   1      33.353  22.491  25.250  1.00  0.00     0.176 A 
ATOM     91  N   UNL A   1      33.542  21.306  25.758  1.00  0.00    -0.223 NA
ATOM     92  N   UNL A   1      32.520  22.691  24.156  1.00  0.00    -0.255 N 
ATOM     93  C   UNL A   1      32.998  20.198  25.105  1.00  0.00     0.079 A 
ATOM     94  C   UNL A   1      32.555  21.646  23.218  1.00  0.00     0.266 A 
ATOM     95  C   UNL A   1      32.905  18.961  25.743  1.00  0.00     0.029 A 
ATOM     96  C   UNL A   1      32.649  20.286  23.768  1.00  0.00     0.066 A 
ATOM     97  O   UNL A   1      32.529  21.764  21.994  1.00  0.00    -0.268 OA
ATOM     98  C   UNL A   1      32.537  17.820  25.020  1.00  0.00     0.002 A 
ATOM     99  C   UNL A   1      32.335  19.149  23.017  1.00  0.00     0.016 A 
ATOM    100  C   UNL A   1      32.291  17.908  23.649  1.00  0.00     0.001 A 
BRANCH  92 101
ATOM    101  C   UNL A   1      31.704  23.858  23.857  1.00  0.00     0.051 A 
ATOM    102  C   UNL A   1      32.043  24.702  22.776  1.00  0.00     0.028 A 
ATOM    103  C   UNL A   1      30.580  24.252  24.595  1.00  0.00     0.028 A 
ATOM    104  C   UNL A   1      31.483  25.974  22.613  1.00  0.00     0.018 A 
ATOM    105  C   UNL A   1      30.045  25.548  24.480  1.00  0.00     0.018 A 
ATOM    106  C   UNL A   1      30.535  26.420  23.517  1.00  0.00     0.018 A 
ATOM    107  Br  UNL A   1      29.938  28.207  23.455  1.00  0.00    -0.051 Br
ENDBRANCH  92 101
ENDBRANCH  89  90
ENDBRANCH  88  89
ENDBRANCH  86  88
ENDBRANCH  82  83
ENDBRANCH  74  77
ENDBRANCH   1  73
TORSDOF 18
ENDMDL
MODEL 2
REMARK VINA RESULT:     -12.4      5.504     13.503
REMARK SMILES O=C(NCCCNC(=O)c1ccc(-n2cc(CSc3nc4ccccc4c(=O)n3-c3ccc(Br)cc3)nn2)cc1)c1ccc(-c2c3nc(c(-c4cccc(S(=O)(=O)[O-])c4F)c4ccc([nH]4)c(-c4cccc(S(=O)(=O)[O-])c4F)c4nc(c(-c5cccc(S(=O)(=O)[O-])c5F)c5ccc2[nH]5)C=C4)C=C3)cc1
REMARK SMILES IDX 6 1 5 2 4 3 3 4 1 5 2 6 41 8 42 9 103 10 43 11 102 12 44 13
REMARK SMILES IDX 45 14 46 15 96 16 47 17 101 18 95 19 97 20 48 21 100 22
REMARK SMILES IDX 94 23 93 24 49 26 81 27 61 28 80 29 62 30 65 31 79 32 98 33
REMARK SMILES IDX 63 34 64 35 78 37 99 38 66 39 50 40 51 41 59 42 52 43 54 44
REMARK SMILES IDX 60 45 53 46 55 47 56 48 57 49 58 50 82 51 83 52 91 53 84 54
REMARK SMILES IDX 86 55 92 56 85 57 87 58 88 59 89 60 90 61 67 62 68 63 76 64
REMARK SMILES IDX 69 65 71 66 77 67 70 68 72 69 73 70 74 71 75 72 7 73 8 74
REMARK SMILES IDX 9 76 10 77 11 78 40 79 12 80 39 81 13 82 14 83 15 84 38 85
REMARK SMILES IDX 16 86 37 87 17 88 18 89 19 90 20 91 29 92 21 93 27 94 22 95
REMARK SMILES IDX 26 96 28 97 23 98 25 99 24 100 30 101 31 102 36 103 32 104
REMARK SMILES IDX 35 105 33 106 34 107
REMARK H PARENT 3 7 97 25 65 36 7 75
REMARK Flexibility Score: inf
ROOT
ATOM      1  C   UNL A   1      35.970  31.445  32.148  1.00  0.00     0.118 C 
ENDROOT
BRANCH   1   2
ATOM      2  C   UNL A   1      34.791  32.391  31.923  1.00  0.00     0.042 C 
BRANCH   2   3
ATOM      3  C   UNL A   1      34.998  33.400  30.796  1.00  0.00     0.118 C 
BRANCH   3   4
ATOM      4  N   UNL A   1      34.625  32.925  29.478  1.00  0.00    -0.352 N 
ATOM      5  O   UNL A   1      34.391  31.773  27.618  1.00  0.00    -0.269 OA
ATOM      6  C   UNL A   1      35.069  31.945  28.634  1.00  0.00     0.251 C 
ATOM      7  H   UNL A   1      33.869  33.431  29.100  1.00  0.00     0.163 HD
BRANCH   6   8
ATOM      8  C   UNL A   1      36.308  31.141  28.817  1.00  0.00     0.039 A 
ATOM      9  C   UNL A   1      36.383  29.747  28.831  1.00  0.00     0.014 A 
ATOM     10  C   UNL A   1      37.497  31.878  28.984  1.00  0.00     0.014 A 
ATOM     11  C   UNL A   1      37.600  29.108  29.072  1.00  0.00     0.010 A 
ATOM     12  C   UNL A   1      38.716  31.246  29.211  1.00  0.00     0.010 A 
ATOM     13  C   UNL A   1      38.762  29.856  29.279  1.00  0.00    -0.014 A 
BRANCH  13  14
ATOM     14  C   UNL A   1      40.039  29.149  29.382  1.00  0.00     0.031 A 
ATOM     15  C   UNL A   1      40.535  28.955  30.777  1.00  0.00     0.074 A 
ATOM     16  C   UNL A   1      40.653  28.549  28.341  1.00  0.00     0.049 A 
ATOM     17  N   UNL A   1      41.653  29.353  31.296  1.00  0.00    -0.248 NA
ATOM     18  C   UNL A   1      39.625  28.314  31.739  1.00  0.00     0.031 C 
ATOM     19  C   UNL A   1      40.130  28.372  26.983  1.00  0.00     0.029 A 
ATOM     20  N   UNL A   1      41.821  27.839  28.319  1.00  0.00    -0.354 N 
ATOM     21  C   UNL A   1      41.676  28.829  32.590  1.00  0.00     0.074 A 
ATOM     22  C   UNL A   1      40.349  28.338  32.856  1.00  0.00     0.031 C 
ATOM     23  C   UNL A   1      40.846  27.411  26.356  1.00  0.00     0.029 A 
ATOM     24  C   UNL A   1      41.945  27.002  27.212  1.00  0.00     0.049 A 
ATOM     25  H   UNL A   1      42.508  27.911  29.019  1.00  0.00     0.167 HD
ATOM     26  C   UNL A   1      42.835  28.635  33.277  1.00  0.00     0.034 A 
ATOM     27  C   UNL A   1      42.834  25.992  27.049  1.00  0.00     0.034 A 
ATOM     28  C   UNL A   1      43.927  29.384  32.721  1.00  0.00     0.049 A 
ATOM     29  C   UNL A   1      43.943  26.205  28.003  1.00  0.00     0.074 A 
ATOM     30  C   UNL A   1      44.183  30.720  32.487  1.00  0.00     0.029 A 
ATOM     31  N   UNL A   1      44.856  28.690  31.988  1.00  0.00    -0.354 N 
ATOM     32  N   UNL A   1      44.799  27.181  27.914  1.00  0.00    -0.248 NA
ATOM     33  C   UNL A   1      43.881  25.536  29.290  1.00  0.00     0.031 C 
ATOM     34  C   UNL A   1      44.916  30.742  31.265  1.00  0.00     0.029 A 
ATOM     35  C   UNL A   1      45.101  29.420  30.856  1.00  0.00     0.049 A 
ATOM     36  H   UNL A   1      45.268  27.829  32.230  1.00  0.00     0.167 HD
ATOM     37  C   UNL A   1      45.043  27.542  29.232  1.00  0.00     0.074 A 
ATOM     38  C   UNL A   1      44.554  26.421  30.028  1.00  0.00     0.031 C 
ATOM     39  C   UNL A   1      45.350  28.831  29.561  1.00  0.00     0.034 A 
BRANCH  26  40
ATOM     40  C   UNL A   1      43.071  27.510  34.260  1.00  0.00     0.023 A 
ATOM     41  C   UNL A   1      43.106  27.830  35.636  1.00  0.00     0.012 A 
ATOM     42  C   UNL A   1      43.524  26.223  33.890  1.00  0.00     0.148 A 
ATOM     43  C   UNL A   1      43.600  26.930  36.586  1.00  0.00     0.002 A 
ATOM     44  C   UNL A   1      43.932  25.301  34.848  1.00  0.00     0.091 A 
ATOM     45  F   UNL A   1      43.696  25.921  32.599  1.00  0.00    -0.205 F 
ATOM     46  C   UNL A   1      44.002  25.660  36.195  1.00  0.00     0.022 A 
BRANCH  44  47
ATOM     47  S   UNL A   1      44.398  23.626  34.398  1.00  0.00     0.127 S 
ATOM     48  O   UNL A   1      44.642  23.027  35.707  1.00  0.00    -0.237 OA
ATOM     49  O   UNL A   1      43.195  23.153  33.714  1.00  0.00    -0.237 OA
ATOM     50  O   UNL A   1      45.559  23.771  33.527  1.00  0.00    -0.744 OA
ENDBRANCH  44  47
ENDBRANCH  26  40
BRANCH  27  51
ATOM     51  C   UNL A   1      42.695  24.716  26.306  1.00  0.00     0.023 A 
ATOM     52  C   UNL A   1      43.694  24.326  25.390  1.00  0.00     0.012 A 
ATOM     53  C   UNL A   1      41.740  23.753  26.700  1.00  0.00     0.148 A 
ATOM     54  C   UNL A   1      43.758  23.013  24.908  1.00  0.00     0.002 A 
ATOM     55  C   UNL A   1      41.802  22.452  26.210  1.00  0.00     0.091 A 
ATOM     56  F   UNL A   1      40.831  24.088  27.625  1.00  0.00    -0.205 F 
ATOM     57  C   UNL A   1      42.817  22.074  25.324  1.00  0.00     0.022 A 
BRANCH  55  58
ATOM     58  S   UNL A   1      40.636  21.183  26.721  1.00  0.00     0.127 S 
ATOM     59  O   UNL A   1      41.153  20.002  26.030  1.00  0.00    -0.237 OA
ATOM     60  O   UNL A   1      40.817  21.172  28.171  1.00  0.00    -0.237 OA
ATOM     61  O   UNL A   1      39.331  21.629  26.249  1.00  0.00    -0.744 OA
ENDBRANCH  55  58
ENDBRANCH  27  51
BRANCH  39  62
ATOM     62  C   UNL A   1      45.695  29.788  28.447  1.00  0.00     0.023 A 
ATOM     63  C   UNL A   1      44.708  30.499  27.731  1.00  0.00     0.012 A 
ATOM     64  C   UNL A   1      47.047  30.107  28.235  1.00  0.00     0.148 A 
ATOM     65  C   UNL A   1      45.062  31.484  26.806  1.00  0.00     0.002 A 
ATOM     66  C   UNL A   1      47.394  31.122  27.352  1.00  0.00     0.091 A 
ATOM     67  F   UNL A   1      47.975  29.427  28.926  1.00  0.00    -0.205 F 
ATOM     68  C   UNL A   1      46.405  31.805  26.628  1.00  0.00     0.022 A 
BRANCH  66  69
ATOM     69  S   UNL A   1      49.095  31.670  27.183  1.00  0.00     0.127 S 
ATOM     70  O   UNL A   1      49.450  31.983  28.570  1.00  0.00    -0.237 OA
ATOM     71  O   UNL A   1      49.755  30.475  26.644  1.00  0.00    -0.237 OA
ATOM     72  O   UNL A   1      49.067  32.795  26.271  1.00  0.00    -0.744 OA
ENDBRANCH  66  69
ENDBRANCH  39  62
ENDBRANCH  13  14
ENDBRANCH   6   8
ENDBRANCH   3   4
ENDBRANCH   2   3
ENDBRANCH   1   2
BRANCH   1  73
ATOM     73  N   UNL A   1      36.471  31.459  33.518  1.00  0.00    -0.352 N 
ATOM     74  C   UNL A   1      37.660  31.927  34.024  1.00  0.00     0.251 C 
ATOM     75  H   UNL A   1      35.862  31.071  34.186  1.00  0.00     0.163 HD
ATOM     76  O   UNL A   1      37.934  31.776  35.209  1.00  0.00    -0.269 OA
BRANCH  74  77
ATOM     77  C   UNL A   1      38.630  32.592  33.133  1.00  0.00     0.039 A 
ATOM     78  C   UNL A   1      39.893  32.008  32.964  1.00  0.00     0.016 A 
ATOM     79  C   UNL A   1      38.308  33.786  32.484  1.00  0.00     0.016 A 
ATOM     80  C   UNL A   1      40.803  32.555  32.055  1.00  0.00     0.029 A 
ATOM     81  C   UNL A   1      39.225  34.359  31.608  1.00  0.00     0.029 A 
ATOM     82  C   UNL A   1      40.464  33.729  31.382  1.00  0.00     0.066 A 
BRANCH  82  83
ATOM     83  N   UNL A   1      41.398  34.343  30.528  1.00  0.00    -0.220 N 
ATOM     84  C   UNL A   1      41.081  35.109  29.442  1.00  0.00     0.141 A 
ATOM     85  N   UNL A   1      42.736  34.237  30.630  1.00  0.00    -0.062 NA
ATOM     86  C   UNL A   1      42.267  35.394  28.816  1.00  0.00     0.093 A 
ATOM     87  N   UNL A   1      43.272  34.805  29.547  1.00  0.00    -0.134 NA
BRANCH  86  88
ATOM     88  C   UNL A   1      42.490  35.944  27.458  1.00  0.00     0.138 C 
BRANCH  88  89
ATOM     89  S   UNL A   1      43.575  37.326  27.096  1.00  0.00    -0.081 SA
BRANCH  89  90
ATOM     90  C   UNL A   1      43.331  38.694  28.145  1.00  0.00     0.176 A 
ATOM     91  N   UNL A   1      43.778  38.460  29.347  1.00  0.00    -0.223 NA
ATOM     92  N   UNL A   1      42.774  39.919  27.800  1.00  0.00    -0.255 N 
ATOM     93  C   UNL A   1      43.570  39.418  30.342  1.00  0.00     0.079 A 
ATOM     94  C   UNL A   1      42.030  40.515  28.832  1.00  0.00     0.266 A 
ATOM     95  C   UNL A   1      44.272  39.368  31.547  1.00  0.00     0.029 A 
ATOM     96  C   UNL A   1      42.574  40.367  30.190  1.00  0.00     0.066 A 
ATOM     97  O   UNL A   1      40.971  41.127  28.707  1.00  0.00    -0.268 OA
ATOM     98  C   UNL A   1      43.919  40.216  32.604  1.00  0.00     0.002 A 
ATOM     99  C   UNL A   1      42.170  41.182  31.253  1.00  0.00     0.016 A 
ATOM    100  C   UNL A   1      42.843  41.094  32.470  1.00  0.00     0.001 A 
BRANCH  92 101
ATOM    101  C   UNL A   1      42.818  40.588  26.508  1.00  0.00     0.051 A 
ATOM    102  C   UNL A   1      44.006  41.217  26.077  1.00  0.00     0.028 A 
ATOM    103  C   UNL A   1      41.732  40.691  25.630  1.00  0.00     0.028 A 
ATOM    104  C   UNL A   1      44.033  42.108  24.997  1.00  0.00     0.018 A 
ATOM    105  C   UNL A   1      41.727  41.624  24.577  1.00  0.00     0.018 A 
ATOM    106  C   UNL A   1      42.868  42.363  24.297  1.00  0.00     0.018 A 
ATOM    107  Br  UNL A   1      42.827  43.725  22.994  1.00  0.00    -0.051 Br
ENDBRANCH  92 101
ENDBRANCH  89  90
ENDBRANCH  88  89
ENDBRANCH  86  88
ENDBRANCH  82  83
ENDBRANCH  74  77
ENDBRANCH   1  73
TORSDOF 18
ENDMDL
MODEL 3
REMARK VINA RESULT:     -12.3      1.547      2.873
REMARK SMILES O=C(NCCCNC(=O)c1ccc(-n2cc(CSc3nc4ccccc4c(=O)n3-c3ccc(Br)cc3)nn2)cc1)c1ccc(-c2c3nc(c(-c4cccc(S(=O)(=O)[O-])c4F)c4ccc([nH]4)c(-c4cccc(S(=O)(=O)[O-])c4F)c4nc(c(-c5cccc(S(=O)(=O)[O-])c5F)c5ccc2[nH]5)C=C4)C=C3)cc1
REMARK SMILES IDX 6 1 5 2 4 3 3 4 1 5 2 6 41 8 42 9 103 10 43 11 102 12 44 13
REMARK SMILES IDX 45 14 46 15 96 16 47 17 101 18 95 19 97 20 48 21 100 22
REMARK SMILES IDX 94 23 93 24 49 26 81 27 61 28 80 29 62 30 65 31 79 32 98 33
REMARK SMILES IDX 63 34 64 35 78 37 99 38 66 39 50 40 51 41 59 42 52 43 54 44
REMARK SMILES IDX 60 45 53 46 55 47 56 48 57 49 58 50 82 51 83 52 91 53 84 54
REMARK SMILES IDX 86 55 92 56 85 57 87 58 88 59 89 60 90 61 67 62 68 63 76 64
REMARK SMILES IDX 69 65 71 66 77 67 70 68 72 69 73 70 74 71 75 72 7 73 8 74
REMARK SMILES IDX 9 76 10 77 11 78 40 79 12 80 39 81 13 82 14 83 15 84 38 85
REMARK SMILES IDX 16 86 37 87 17 88 18 89 19 90 20 91 29 92 21 93 27 94 22 95
REMARK SMILES IDX 26 96 28 97 23 98 25 99 24 100 30 101 31 102 36 103 32 104
REMARK SMILES IDX 35 105 33 106 34 107
REMARK H PARENT 3 7 97 25 65 36 7 75
REMARK Flexibility Score: inf
ROOT
ATOM      1  C   UNL A   1      45.515  23.192  27.353  1.00  0.00     0.118 C 
ENDROOT
BRANCH   1   2
ATOM      2  C   UNL A   1      46.575  24.162  26.836  1.00  0.00     0.042 C 
BRANCH   2   3
ATOM      3  C   UNL A   1      46.187  24.899  25.557  1.00  0.00     0.118 C 
BRANCH   3   4
ATOM      4  N   UNL A   1      44.818  24.693  25.128  1.00  0.00    -0.352 N 
ATOM      5  O   UNL A   1      42.681  24.912  24.650  1.00  0.00    -0.269 OA
ATOM      6  C   UNL A   1      43.634  25.359  25.292  1.00  0.00     0.251 C 
ATOM      7  H   UNL A   1      44.715  23.876  24.588  1.00  0.00     0.163 HD
BRANCH   6   8
ATOM      8  C   UNL A   1      43.409  26.510  26.209  1.00  0.00     0.039 A 
ATOM      9  C   UNL A   1      44.147  26.795  27.359  1.00  0.00     0.014 A 
ATOM     10  C   UNL A   1      42.354  27.375  25.858  1.00  0.00     0.014 A 
ATOM     11  C   UNL A   1      43.798  27.874  28.172  1.00  0.00     0.010 A 
ATOM     12  C   UNL A   1      42.011  28.461  26.657  1.00  0.00     0.010 A 
ATOM     13  C   UNL A   1      42.721  28.697  27.831  1.00  0.00    -0.014 A 
BRANCH  13  14
ATOM     14  C   UNL A   1      42.481  29.900  28.628  1.00  0.00     0.031 A 
ATOM     15  C   UNL A   1      43.550  30.939  28.530  1.00  0.00     0.074 A 
ATOM     16  C   UNL A   1      41.320  30.162  29.264  1.00  0.00     0.049 A 
ATOM     17  N   UNL A   1      44.266  31.449  29.480  1.00  0.00    -0.248 NA
ATOM     18  C   UNL A   1      43.929  31.399  27.184  1.00  0.00     0.031 C 
ATOM     19  C   UNL A   1      40.072  29.398  29.184  1.00  0.00     0.029 A 
ATOM     20  N   UNL A   1      40.969  31.254  30.006  1.00  0.00    -0.354 N 
ATOM     21  C   UNL A   1      45.038  32.445  28.878  1.00  0.00     0.074 A 
ATOM     22  C   UNL A   1      44.904  32.263  27.457  1.00  0.00     0.031 C 
ATOM     23  C   UNL A   1      39.054  30.166  29.635  1.00  0.00     0.029 A 
ATOM     24  C   UNL A   1      39.592  31.413  30.150  1.00  0.00     0.049 A 
ATOM     25  H   UNL A   1      41.626  31.871  30.401  1.00  0.00     0.167 HD
ATOM     26  C   UNL A   1      45.560  33.487  29.582  1.00  0.00     0.034 A 
ATOM     27  C   UNL A   1      38.939  32.519  30.581  1.00  0.00     0.034 A 
ATOM     28  C   UNL A   1      45.587  33.227  30.995  1.00  0.00     0.049 A 
ATOM     29  C   UNL A   1      39.908  33.362  31.312  1.00  0.00     0.074 A 
ATOM     30  C   UNL A   1      46.162  32.271  31.807  1.00  0.00     0.029 A 
ATOM     31  N   UNL A   1      44.645  33.858  31.767  1.00  0.00    -0.354 N 
ATOM     32  N   UNL A   1      40.435  33.037  32.456  1.00  0.00    -0.248 NA
ATOM     33  C   UNL A   1      40.588  34.419  30.583  1.00  0.00     0.031 C 
ATOM     34  C   UNL A   1      45.210  32.053  32.845  1.00  0.00     0.029 A 
ATOM     35  C   UNL A   1      44.139  32.921  32.627  1.00  0.00     0.049 A 
ATOM     36  H   UNL A   1      44.383  34.805  31.713  1.00  0.00     0.167 HD
ATOM     37  C   UNL A   1      41.738  33.508  32.380  1.00  0.00     0.074 A 
ATOM     38  C   UNL A   1      41.734  34.452  31.267  1.00  0.00     0.031 C 
ATOM     39  C   UNL A   1      42.753  32.874  33.036  1.00  0.00     0.034 A 
BRANCH  26  40
ATOM     40  C   UNL A   1      45.749  34.882  29.034  1.00  0.00     0.023 A 
ATOM     41  C   UNL A   1      44.595  35.667  28.809  1.00  0.00     0.012 A 
ATOM     42  C   UNL A   1      46.962  35.355  28.481  1.00  0.00     0.148 A 
ATOM     43  C   UNL A   1      44.641  36.838  28.045  1.00  0.00     0.002 A 
ATOM     44  C   UNL A   1      47.018  36.564  27.797  1.00  0.00     0.091 A 
ATOM     45  F   UNL A   1      48.048  34.576  28.492  1.00  0.00    -0.205 F 
ATOM     46  C   UNL A   1      45.854  37.295  27.548  1.00  0.00     0.022 A 
BRANCH  44  47
ATOM     47  S   UNL A   1      48.573  37.228  27.192  1.00  0.00     0.127 S 
ATOM     48  O   UNL A   1      48.205  38.608  26.888  1.00  0.00    -0.237 OA
ATOM     49  O   UNL A   1      49.444  37.059  28.355  1.00  0.00    -0.237 OA
ATOM     50  O   UNL A   1      48.933  36.389  26.054  1.00  0.00    -0.744 OA
ENDBRANCH  44  47
ENDBRANCH  26  40
BRANCH  27  51
ATOM     51  C   UNL A   1      37.600  33.036  30.210  1.00  0.00     0.023 A 
ATOM     52  C   UNL A   1      37.059  32.736  28.943  1.00  0.00     0.012 A 
ATOM     53  C   UNL A   1      36.739  33.577  31.190  1.00  0.00     0.148 A 
ATOM     54  C   UNL A   1      35.699  32.936  28.672  1.00  0.00     0.002 A 
ATOM     55  C   UNL A   1      35.391  33.784  30.913  1.00  0.00     0.091 A 
ATOM     56  F   UNL A   1      37.222  33.797  32.420  1.00  0.00    -0.205 F 
ATOM     57  C   UNL A   1      34.864  33.453  29.659  1.00  0.00     0.022 A 
BRANCH  55  58
ATOM     58  S   UNL A   1      34.251  34.425  32.147  1.00  0.00     0.127 S 
ATOM     59  O   UNL A   1      33.152  34.917  31.315  1.00  0.00    -0.237 OA
ATOM     60  O   UNL A   1      33.942  33.227  32.924  1.00  0.00    -0.237 OA
ATOM     61  O   UNL A   1      34.978  35.470  32.855  1.00  0.00    -0.744 OA
ENDBRANCH  55  58
ENDBRANCH  27  51
BRANCH  39  62
ATOM     62  C   UNL A   1      42.396  31.830  34.063  1.00  0.00     0.023 A 
ATOM     63  C   UNL A   1      42.088  32.161  35.400  1.00  0.00     0.012 A 
ATOM     64  C   UNL A   1      42.197  30.507  33.630  1.00  0.00     0.148 A 
ATOM     65  C   UNL A   1      41.620  31.192  36.290  1.00  0.00     0.002 A 
ATOM     66  C   UNL A   1      41.684  29.557  34.505  1.00  0.00     0.091 A 
ATOM     67  F   UNL A   1      42.489  30.206  32.356  1.00  0.00    -0.205 F 
ATOM     68  C   UNL A   1      41.405  29.893  35.839  1.00  0.00     0.022 A 
BRANCH  66  69
ATOM     69  S   UNL A   1      41.260  27.906  33.943  1.00  0.00     0.127 S 
ATOM     70  O   UNL A   1      40.118  28.171  33.063  1.00  0.00    -0.237 OA
ATOM     71  O   UNL A   1      42.481  27.492  33.242  1.00  0.00    -0.237 OA
ATOM     72  O   UNL A   1      40.971  27.137  35.136  1.00  0.00    -0.744 OA
ENDBRANCH  66  69
ENDBRANCH  39  62
ENDBRANCH  13  14
ENDBRANCH   6   8
ENDBRANCH   3   4
ENDBRANCH   2   3
ENDBRANCH   1   2
BRANCH   1  73
ATOM     73  N   UNL A   1      45.299  23.281  28.794  1.00  0.00    -0.352 N 
ATOM     74  C   UNL A   1      44.132  23.363  29.513  1.00  0.00     0.251 C 
ATOM     75  H   UNL A   1      46.120  23.283  29.336  1.00  0.00     0.163 HD
ATOM     76  O   UNL A   1      44.160  23.512  30.730  1.00  0.00    -0.269 OA
BRANCH  74  77
ATOM     77  C   UNL A   1      42.831  23.302  28.819  1.00  0.00     0.039 A 
ATOM     78  C   UNL A   1      42.059  24.469  28.737  1.00  0.00     0.016 A 
ATOM     79  C   UNL A   1      42.367  22.104  28.268  1.00  0.00     0.016 A 
ATOM     80  C   UNL A   1      40.869  24.474  28.006  1.00  0.00     0.029 A 
ATOM     81  C   UNL A   1      41.162  22.093  27.573  1.00  0.00     0.029 A 
ATOM     82  C   UNL A   1      40.426  23.285  27.427  1.00  0.00     0.066 A 
BRANCH  82  83
ATOM     83  N   UNL A   1      39.188  23.246  26.760  1.00  0.00    -0.220 N 
ATOM     84  C   UNL A   1      38.782  22.251  25.919  1.00  0.00     0.141 A 
ATOM     85  N   UNL A   1      38.240  24.201  26.820  1.00  0.00    -0.062 NA
ATOM     86  C   UNL A   1      37.591  22.665  25.382  1.00  0.00     0.093 A 
ATOM     87  N   UNL A   1      37.300  23.896  25.923  1.00  0.00    -0.134 NA
BRANCH  86  88
ATOM     88  C   UNL A   1      36.858  22.116  24.217  1.00  0.00     0.138 C 
BRANCH  88  89
ATOM     89  S   UNL A   1      35.763  23.078  23.170  1.00  0.00    -0.081 SA
BRANCH  89  90
ATOM     90  C   UNL A   1      34.255  23.492  23.937  1.00  0.00     0.176 A 
ATOM     91  N   UNL A   1      33.924  24.731  23.702  1.00  0.00    -0.223 NA
ATOM     92  N   UNL A   1      33.442  22.648  24.682  1.00  0.00    -0.255 N 
ATOM     93  C   UNL A   1      32.791  25.256  24.327  1.00  0.00     0.079 A 
ATOM     94  C   UNL A   1      32.777  23.291  25.740  1.00  0.00     0.266 A 
ATOM     95  C   UNL A   1      32.219  26.452  23.894  1.00  0.00     0.029 A 
ATOM     96  C   UNL A   1      32.287  24.649  25.465  1.00  0.00     0.066 A 
ATOM     97  O   UNL A   1      32.583  22.833  26.864  1.00  0.00    -0.268 OA
ATOM     98  C   UNL A   1      31.206  27.061  24.643  1.00  0.00     0.002 A 
ATOM     99  C   UNL A   1      31.316  25.271  26.257  1.00  0.00     0.016 A 
ATOM    100  C   UNL A   1      30.782  26.491  25.845  1.00  0.00     0.001 A 
BRANCH  92 101
ATOM    101  C   UNL A   1      33.272  21.211  24.534  1.00  0.00     0.051 A 
ATOM    102  C   UNL A   1      34.101  20.321  25.253  1.00  0.00     0.028 A 
ATOM    103  C   UNL A   1      32.338  20.605  23.683  1.00  0.00     0.028 A 
ATOM    104  C   UNL A   1      34.183  18.959  24.944  1.00  0.00     0.018 A 
ATOM    105  C   UNL A   1      32.447  19.250  23.322  1.00  0.00     0.018 A 
ATOM    106  C   UNL A   1      33.404  18.444  23.924  1.00  0.00     0.018 A 
ATOM    107  Br  UNL A   1      33.664  16.671  23.338  1.00  0.00    -0.051 Br
ENDBRANCH  92 101
ENDBRANCH  89  90
ENDBRANCH  88  89
ENDBRANCH  86  88
ENDBRANCH  82  83
ENDBRANCH  74  77
ENDBRANCH   1  73
TORSDOF 18
ENDMDL
