MODEL 1
REMARK VINA RESULT:     -12.4      0.000      0.000
REMARK SMILES C[C@@H]1C[C@@H](C)CN(C(=O)CCn2cc(C(=O)NCCCNC(=O)c3ccc(-c4c5nc(c(-c6cccc(S(=O)(=O)[O-])c6F)c6ccc([nH]6)c(-c6cccc(S(=O)(=O)[O-])c6F)c6nc(c(-c7cccc(S(=O)(=O)[O-])c7F)c7ccc4[nH]7)C=C6)C=C5)cc3)cn2)C1
REMARK SMILES IDX 19 1 18 2 17 3 15 4 16 5 14 7 12 8 13 9 88 10 87 11 11 12
REMARK SMILES IDX 10 13 8 14 1 15 2 16 3 17 89 18 4 19 7 20 6 21 5 22 9 23
REMARK SMILES IDX 20 24 21 25 22 26 23 28 24 29 25 30 86 31 26 32 85 33 27 34
REMARK SMILES IDX 28 35 29 36 79 37 30 38 84 39 78 40 80 41 31 42 83 43 77 44
REMARK SMILES IDX 76 45 32 47 64 48 44 49 63 50 45 51 48 52 62 53 81 54 46 55
REMARK SMILES IDX 47 56 61 58 82 59 49 60 33 61 34 62 42 63 35 64 37 65 43 66
REMARK SMILES IDX 36 67 38 68 39 69 40 70 41 71 65 72 66 73 74 74 67 75 69 76
REMARK SMILES IDX 75 77 68 78 70 79 71 80 72 81 73 82 50 83 51 84 59 85 52 86
REMARK SMILES IDX 54 87 60 88 53 89 55 90 56 91 57 92 58 93
REMARK H PARENT 17 6 21 27 80 46 48 57
REMARK Flexibility Score: inf
ROOT
ATOM      1  C   UNL A   1      37.504  19.770  24.730  1.00  0.00     0.042 C 
ENDROOT
BRANCH   1   2
ATOM      2  C   UNL A   1      36.243  20.571  25.075  1.00  0.00     0.118 C 
BRANCH   2   3
ATOM      3  N   UNL A   1      35.057  19.758  24.917  1.00  0.00    -0.352 N 
ATOM      4  C   UNL A   1      33.807  19.867  25.486  1.00  0.00     0.254 C 
ATOM      5  O   UNL A   1      33.059  18.912  25.384  1.00  0.00    -0.269 OA
ATOM      6  H   UNL A   1      35.161  18.999  24.300  1.00  0.00     0.163 HD
BRANCH   4   7
ATOM      7  C   UNL A   1      33.354  21.126  26.061  1.00  0.00     0.077 A 
ATOM      8  N   UNL A   1      32.091  22.787  26.718  1.00  0.00    -0.271 N 
ATOM      9  C   UNL A   1      32.473  22.084  25.609  1.00  0.00     0.122 A 
ATOM     10  N   UNL A   1      32.912  22.612  27.760  1.00  0.00    -0.181 NA
ATOM     11  C   UNL A   1      33.693  21.600  27.359  1.00  0.00     0.149 A 
BRANCH   8  12
ATOM     12  C   UNL A   1      30.837  23.504  26.857  1.00  0.00     0.154 C 
BRANCH  12  13
ATOM     13  C   UNL A   1      30.631  24.533  25.744  1.00  0.00     0.124 C 
BRANCH  13  14
ATOM     14  C   UNL A   1      31.606  25.683  25.843  1.00  0.00     0.224 C 
ATOM     15  C   UNL A   1      32.025  28.862  24.274  1.00  0.00     0.009 C 
ATOM     16  C   UNL A   1      33.337  28.098  24.041  1.00  0.00     0.006 C 
ATOM     17  C   UNL A   1      33.431  27.530  22.619  1.00  0.00     0.010 C 
ATOM     18  C   UNL A   1      33.522  26.961  25.049  1.00  0.00     0.122 C 
ATOM     19  C   UNL A   1      32.473  26.345  22.393  1.00  0.00     0.006 C 
ATOM     20  N   UNL A   1      32.532  25.912  24.840  1.00  0.00    -0.342 N 
ATOM     21  C   UNL A   1      32.607  25.288  23.511  1.00  0.00     0.122 C 
ATOM     22  C   UNL A   1      32.712  25.760  21.001  1.00  0.00     0.009 C 
ATOM     23  O   UNL A   1      31.566  26.375  26.868  1.00  0.00    -0.275 OA
ENDBRANCH  13  14
ENDBRANCH  12  13
ENDBRANCH   8  12
ENDBRANCH   4   7
ENDBRANCH   2   3
ENDBRANCH   1   2
BRANCH   1  24
ATOM     24  C   UNL A   1      38.710  20.317  25.471  1.00  0.00     0.118 C 
BRANCH  24  25
ATOM     25  N   UNL A   1      39.739  19.288  25.640  1.00  0.00    -0.352 N 
ATOM     26  C   UNL A   1      41.075  19.458  25.941  1.00  0.00     0.251 C 
ATOM     27  H   UNL A   1      39.440  18.358  25.525  1.00  0.00     0.163 HD
ATOM     28  O   UNL A   1      41.885  18.574  25.711  1.00  0.00    -0.269 OA
BRANCH  26  29
ATOM     29  C   UNL A   1      41.493  20.730  26.550  1.00  0.00     0.039 A 
ATOM     30  C   UNL A   1      42.099  21.737  25.792  1.00  0.00     0.014 A 
ATOM     31  C   UNL A   1      41.220  20.912  27.902  1.00  0.00     0.014 A 
ATOM     32  C   UNL A   1      42.368  22.957  26.403  1.00  0.00     0.010 A 
ATOM     33  C   UNL A   1      41.304  22.164  28.440  1.00  0.00     0.010 A 
ATOM     34  C   UNL A   1      41.955  23.161  27.727  1.00  0.00    -0.014 A 
BRANCH  34  35
ATOM     35  C   UNL A   1      42.136  24.442  28.389  1.00  0.00     0.031 A 
ATOM     36  C   UNL A   1      41.013  25.398  28.226  1.00  0.00     0.074 A 
ATOM     37  C   UNL A   1      43.132  24.645  29.277  1.00  0.00     0.049 A 
ATOM     38  N   UNL A   1      41.007  26.497  27.546  1.00  0.00    -0.248 NA
ATOM     39  C   UNL A   1      39.696  25.020  28.760  1.00  0.00     0.031 C 
ATOM     40  C   UNL A   1      44.112  23.671  29.783  1.00  0.00     0.029 A 
ATOM     41  N   UNL A   1      43.378  25.739  30.042  1.00  0.00    -0.354 N 
ATOM     42  C   UNL A   1      39.761  27.072  27.781  1.00  0.00     0.074 A 
ATOM     43  C   UNL A   1      38.936  26.027  28.328  1.00  0.00     0.031 C 
ATOM     44  C   UNL A   1      44.646  24.129  30.936  1.00  0.00     0.029 A 
ATOM     45  C   UNL A   1      44.199  25.491  31.135  1.00  0.00     0.049 A 
ATOM     46  H   UNL A   1      43.006  26.629  29.841  1.00  0.00     0.167 HD
ATOM     47  C   UNL A   1      39.594  28.425  27.764  1.00  0.00     0.034 A 
ATOM     48  C   UNL A   1      44.454  26.340  32.157  1.00  0.00     0.034 A 
ATOM     49  C   UNL A   1      40.739  29.086  27.187  1.00  0.00     0.049 A 
ATOM     50  C   UNL A   1      44.158  27.704  31.663  1.00  0.00     0.074 A 
ATOM     51  C   UNL A   1      41.392  29.037  25.971  1.00  0.00     0.029 A 
ATOM     52  N   UNL A   1      41.620  29.667  28.066  1.00  0.00    -0.354 N 
ATOM     53  N   UNL A   1      44.821  28.275  30.695  1.00  0.00    -0.248 NA
ATOM     54  C   UNL A   1      42.845  28.263  31.936  1.00  0.00     0.031 C 
ATOM     55  C   UNL A   1      42.777  29.150  26.296  1.00  0.00     0.029 A 
ATOM     56  C   UNL A   1      42.887  29.322  27.679  1.00  0.00     0.049 A 
ATOM     57  H   UNL A   1      41.383  30.231  28.838  1.00  0.00     0.167 HD
ATOM     58  C   UNL A   1      43.849  28.934  29.951  1.00  0.00     0.074 A 
ATOM     59  C   UNL A   1      42.684  28.999  30.832  1.00  0.00     0.031 C 
ATOM     60  C   UNL A   1      43.983  29.097  28.600  1.00  0.00     0.034 A 
BRANCH  47  61
ATOM     61  C   UNL A   1      38.594  29.198  28.600  1.00  0.00     0.023 A 
ATOM     62  C   UNL A   1      37.874  30.227  27.950  1.00  0.00     0.012 A 
ATOM     63  C   UNL A   1      38.519  29.164  30.011  1.00  0.00     0.148 A 
ATOM     64  C   UNL A   1      37.175  31.205  28.666  1.00  0.00     0.002 A 
ATOM     65  C   UNL A   1      37.755  30.090  30.714  1.00  0.00     0.091 A 
ATOM     66  F   UNL A   1      39.292  28.327  30.706  1.00  0.00    -0.205 F 
ATOM     67  C   UNL A   1      37.109  31.133  30.051  1.00  0.00     0.022 A 
BRANCH  65  68
ATOM     68  S   UNL A   1      37.595  30.008  32.504  1.00  0.00     0.127 S 
ATOM     69  O   UNL A   1      37.231  28.608  32.700  1.00  0.00    -0.237 OA
ATOM     70  O   UNL A   1      38.945  30.367  32.942  1.00  0.00    -0.237 OA
ATOM     71  O   UNL A   1      36.577  30.994  32.847  1.00  0.00    -0.744 OA
ENDBRANCH  65  68
ENDBRANCH  47  61
BRANCH  48  72
ATOM     72  C   UNL A   1      44.689  26.029  33.583  1.00  0.00     0.023 A 
ATOM     73  C   UNL A   1      46.005  25.919  34.070  1.00  0.00     0.012 A 
ATOM     74  C   UNL A   1      43.632  26.101  34.521  1.00  0.00     0.148 A 
ATOM     75  C   UNL A   1      46.265  25.913  35.446  1.00  0.00     0.002 A 
ATOM     76  C   UNL A   1      43.894  26.086  35.887  1.00  0.00     0.091 A 
ATOM     77  F   UNL A   1      42.382  26.275  34.071  1.00  0.00    -0.205 F 
ATOM     78  C   UNL A   1      45.212  26.005  36.354  1.00  0.00     0.022 A 
BRANCH  76  79
ATOM     79  S   UNL A   1      42.590  26.214  37.117  1.00  0.00     0.127 S 
ATOM     80  O   UNL A   1      41.818  24.997  36.867  1.00  0.00    -0.237 OA
ATOM     81  O   UNL A   1      43.350  26.213  38.363  1.00  0.00    -0.237 OA
ATOM     82  O   UNL A   1      41.878  27.448  36.809  1.00  0.00    -0.744 OA
ENDBRANCH  76  79
ENDBRANCH  48  72
BRANCH  60  83
ATOM     83  C   UNL A   1      45.313  28.749  27.970  1.00  0.00     0.023 A 
ATOM     84  C   UNL A   1      46.427  29.612  28.050  1.00  0.00     0.012 A 
ATOM     85  C   UNL A   1      45.500  27.453  27.463  1.00  0.00     0.148 A 
ATOM     86  C   UNL A   1      47.693  29.200  27.623  1.00  0.00     0.002 A 
ATOM     87  C   UNL A   1      46.769  27.030  27.080  1.00  0.00     0.091 A 
ATOM     88  F   UNL A   1      44.437  26.638  27.405  1.00  0.00    -0.205 F 
ATOM     89  C   UNL A   1      47.867  27.903  27.150  1.00  0.00     0.022 A 
BRANCH  87  90
ATOM     90  S   UNL A   1      47.092  25.336  26.584  1.00  0.00     0.127 S 
ATOM     91  O   UNL A   1      46.112  25.138  25.518  1.00  0.00    -0.237 OA
ATOM     92  O   UNL A   1      48.483  25.404  26.132  1.00  0.00    -0.237 OA
ATOM     93  O   UNL A   1      46.891  24.520  27.775  1.00  0.00    -0.744 OA
ENDBRANCH  87  90
ENDBRANCH  60  83
ENDBRANCH  34  35
ENDBRANCH  26  29
ENDBRANCH  24  25
ENDBRANCH   1  24
TORSDOF 16
ENDMDL
MODEL 2
REMARK VINA RESULT:     -12.1      1.198      1.843
REMARK SMILES C[C@@H]1C[C@@H](C)CN(C(=O)CCn2cc(C(=O)NCCCNC(=O)c3ccc(-c4c5nc(c(-c6cccc(S(=O)(=O)[O-])c6F)c6ccc([nH]6)c(-c6cccc(S(=O)(=O)[O-])c6F)c6nc(c(-c7cccc(S(=O)(=O)[O-])c7F)c7ccc4[nH]7)C=C6)C=C5)cc3)cn2)C1
REMARK SMILES IDX 19 1 18 2 17 3 15 4 16 5 14 7 12 8 13 9 88 10 87 11 11 12
REMARK SMILES IDX 10 13 8 14 1 15 2 16 3 17 89 18 4 19 7 20 6 21 5 22 9 23
REMARK SMILES IDX 20 24 21 25 22 26 23 28 24 29 25 30 86 31 26 32 85 33 27 34
REMARK SMILES IDX 28 35 29 36 79 37 30 38 84 39 78 40 80 41 31 42 83 43 77 44
REMARK SMILES IDX 76 45 32 47 64 48 44 49 63 50 45 51 48 52 62 53 81 54 46 55
REMARK SMILES IDX 47 56 61 58 82 59 49 60 33 61 34 62 42 63 35 64 37 65 43 66
REMARK SMILES IDX 36 67 38 68 39 69 40 70 41 71 65 72 66 73 74 74 67 75 69 76
REMARK SMILES IDX 75 77 68 78 70 79 71 80 72 81 73 82 50 83 51 84 59 85 52 86
REMARK SMILES IDX 54 87 60 88 53 89 55 90 56 91 57 92 58 93
REMARK H PARENT 17 6 21 27 80 46 48 57
REMARK Flexibility Score: inf
ROOT
ATOM      1  C   UNL A   1      37.914  19.858  24.647  1.00  0.00     0.042 C 
ENDROOT
BRANCH   1   2
ATOM      2  C   UNL A   1      36.831  20.942  24.617  1.00  0.00     0.118 C 
BRANCH   2   3
ATOM      3  N   UNL A   1      36.013  20.884  25.809  1.00  0.00    -0.352 N 
ATOM      4  C   UNL A   1      34.796  21.463  26.097  1.00  0.00     0.254 C 
ATOM      5  O   UNL A   1      34.437  21.466  27.261  1.00  0.00    -0.269 OA
ATOM      6  H   UNL A   1      36.389  20.340  26.538  1.00  0.00     0.163 HD
BRANCH   4   7
ATOM      7  C   UNL A   1      33.917  21.924  25.031  1.00  0.00     0.077 A 
ATOM      8  N   UNL A   1      33.159  22.891  23.221  1.00  0.00    -0.271 N 
ATOM      9  C   UNL A   1      33.779  23.148  24.413  1.00  0.00     0.122 A 
ATOM     10  N   UNL A   1      32.566  21.692  23.185  1.00  0.00    -0.181 NA
ATOM     11  C   UNL A   1      33.021  21.099  24.296  1.00  0.00     0.149 A 
BRANCH   8  12
ATOM     12  C   UNL A   1      33.268  23.716  22.032  1.00  0.00     0.154 C 
BRANCH  12  13
ATOM     13  C   UNL A   1      33.480  25.192  22.368  1.00  0.00     0.124 C 
BRANCH  13  14
ATOM     14  C   UNL A   1      32.174  25.922  22.581  1.00  0.00     0.224 C 
ATOM     15  C   UNL A   1      31.078  29.320  22.578  1.00  0.00     0.009 C 
ATOM     16  C   UNL A   1      30.697  28.752  23.953  1.00  0.00     0.006 C 
ATOM     17  C   UNL A   1      31.666  29.203  25.054  1.00  0.00     0.010 C 
ATOM     18  C   UNL A   1      30.627  27.223  23.941  1.00  0.00     0.122 C 
ATOM     19  C   UNL A   1      33.044  28.525  24.939  1.00  0.00     0.006 C 
ATOM     20  N   UNL A   1      31.949  26.642  23.741  1.00  0.00    -0.342 N 
ATOM     21  C   UNL A   1      32.911  26.993  24.796  1.00  0.00     0.122 C 
ATOM     22  C   UNL A   1      33.907  28.930  26.134  1.00  0.00     0.009 C 
ATOM     23  O   UNL A   1      31.312  25.812  21.700  1.00  0.00    -0.275 OA
ENDBRANCH  13  14
ENDBRANCH  12  13
ENDBRANCH   8  12
ENDBRANCH   4   7
ENDBRANCH   2   3
ENDBRANCH   1   2
BRANCH   1  24
ATOM     24  C   UNL A   1      38.829  20.043  25.844  1.00  0.00     0.118 C 
BRANCH  24  25
ATOM     25  N   UNL A   1      39.966  19.121  25.789  1.00  0.00    -0.352 N 
ATOM     26  C   UNL A   1      41.310  19.415  25.901  1.00  0.00     0.251 C 
ATOM     27  H   UNL A   1      39.744  18.171  25.655  1.00  0.00     0.163 HD
ATOM     28  O   UNL A   1      42.156  18.634  25.494  1.00  0.00    -0.269 OA
BRANCH  26  29
ATOM     29  C   UNL A   1      41.692  20.689  26.529  1.00  0.00     0.039 A 
ATOM     30  C   UNL A   1      42.352  21.688  25.807  1.00  0.00     0.014 A 
ATOM     31  C   UNL A   1      41.329  20.881  27.858  1.00  0.00     0.014 A 
ATOM     32  C   UNL A   1      42.585  22.911  26.427  1.00  0.00     0.010 A 
ATOM     33  C   UNL A   1      41.382  22.136  28.393  1.00  0.00     0.010 A 
ATOM     34  C   UNL A   1      42.085  23.126  27.718  1.00  0.00    -0.014 A 
BRANCH  34  35
ATOM     35  C   UNL A   1      42.227  24.410  28.383  1.00  0.00     0.031 A 
ATOM     36  C   UNL A   1      41.080  25.337  28.211  1.00  0.00     0.074 A 
ATOM     37  C   UNL A   1      43.210  24.638  29.280  1.00  0.00     0.049 A 
ATOM     38  N   UNL A   1      41.052  26.436  27.532  1.00  0.00    -0.248 NA
ATOM     39  C   UNL A   1      39.769  24.924  28.733  1.00  0.00     0.031 C 
ATOM     40  C   UNL A   1      44.211  23.690  29.793  1.00  0.00     0.029 A 
ATOM     41  N   UNL A   1      43.420  25.738  30.047  1.00  0.00    -0.354 N 
ATOM     42  C   UNL A   1      39.789  26.978  27.757  1.00  0.00     0.074 A 
ATOM     43  C   UNL A   1      38.987  25.912  28.296  1.00  0.00     0.031 C 
ATOM     44  C   UNL A   1      44.722  24.160  30.951  1.00  0.00     0.029 A 
ATOM     45  C   UNL A   1      44.238  25.511  31.147  1.00  0.00     0.049 A 
ATOM     46  H   UNL A   1      43.027  26.617  29.843  1.00  0.00     0.167 HD
ATOM     47  C   UNL A   1      39.587  28.326  27.739  1.00  0.00     0.034 A 
ATOM     48  C   UNL A   1      44.463  26.365  32.172  1.00  0.00     0.034 A 
ATOM     49  C   UNL A   1      40.720  29.017  27.171  1.00  0.00     0.049 A 
ATOM     50  C   UNL A   1      44.135  27.721  31.675  1.00  0.00     0.074 A 
ATOM     51  C   UNL A   1      41.384  28.987  25.961  1.00  0.00     0.029 A 
ATOM     52  N   UNL A   1      41.578  29.620  28.059  1.00  0.00    -0.354 N 
ATOM     53  N   UNL A   1      44.791  28.310  30.714  1.00  0.00    -0.248 NA
ATOM     54  C   UNL A   1      42.806  28.245  31.938  1.00  0.00     0.031 C 
ATOM     55  C   UNL A   1      42.763  29.135  26.299  1.00  0.00     0.029 A 
ATOM     56  C   UNL A   1      42.857  29.309  27.682  1.00  0.00     0.049 A 
ATOM     57  H   UNL A   1      41.320  30.178  28.829  1.00  0.00     0.167 HD
ATOM     58  C   UNL A   1      43.809  28.944  29.962  1.00  0.00     0.074 A 
ATOM     59  C   UNL A   1      42.635  28.978  30.833  1.00  0.00     0.031 C 
ATOM     60  C   UNL A   1      43.950  29.111  28.612  1.00  0.00     0.034 A 
BRANCH  47  61
ATOM     61  C   UNL A   1      38.561  29.072  28.566  1.00  0.00     0.023 A 
ATOM     62  C   UNL A   1      37.761  30.024  27.892  1.00  0.00     0.012 A 
ATOM     63  C   UNL A   1      38.522  29.097  29.980  1.00  0.00     0.148 A 
ATOM     64  C   UNL A   1      37.019  30.988  28.583  1.00  0.00     0.002 A 
ATOM     65  C   UNL A   1      37.717  30.004  30.662  1.00  0.00     0.091 A 
ATOM     66  F   UNL A   1      39.362  28.342  30.689  1.00  0.00    -0.205 F 
ATOM     67  C   UNL A   1      36.991  30.974  29.971  1.00  0.00     0.022 A 
BRANCH  65  68
ATOM     68  S   UNL A   1      37.605  29.993  32.457  1.00  0.00     0.127 S 
ATOM     69  O   UNL A   1      36.570  30.994  32.691  1.00  0.00    -0.237 OA
ATOM     70  O   UNL A   1      37.205  28.610  32.723  1.00  0.00    -0.237 OA
ATOM     71  O   UNL A   1      38.944  30.325  32.929  1.00  0.00    -0.744 OA
ENDBRANCH  65  68
ENDBRANCH  47  61
BRANCH  48  72
ATOM     72  C   UNL A   1      44.694  26.059  33.600  1.00  0.00     0.023 A 
ATOM     73  C   UNL A   1      46.008  25.953  34.091  1.00  0.00     0.012 A 
ATOM     74  C   UNL A   1      43.634  26.132  34.533  1.00  0.00     0.148 A 
ATOM     75  C   UNL A   1      46.263  25.952  35.468  1.00  0.00     0.002 A 
ATOM     76  C   UNL A   1      43.891  26.121  35.900  1.00  0.00     0.091 A 
ATOM     77  F   UNL A   1      42.385  26.301  34.079  1.00  0.00    -0.205 F 
ATOM     78  C   UNL A   1      45.207  26.044  36.372  1.00  0.00     0.022 A 
BRANCH  76  79
ATOM     79  S   UNL A   1      42.582  26.250  37.126  1.00  0.00     0.127 S 
ATOM     80  O   UNL A   1      41.926  27.499  36.737  1.00  0.00    -0.237 OA
ATOM     81  O   UNL A   1      41.805  25.043  36.865  1.00  0.00    -0.237 OA
ATOM     82  O   UNL A   1      43.256  26.305  38.417  1.00  0.00    -0.744 OA
ENDBRANCH  76  79
ENDBRANCH  48  72
BRANCH  60  83
ATOM     83  C   UNL A   1      45.294  28.799  27.993  1.00  0.00     0.023 A 
ATOM     84  C   UNL A   1      46.388  29.685  28.093  1.00  0.00     0.012 A 
ATOM     85  C   UNL A   1      45.515  27.512  27.477  1.00  0.00     0.148 A 
ATOM     86  C   UNL A   1      47.666  29.306  27.676  1.00  0.00     0.002 A 
ATOM     87  C   UNL A   1      46.797  27.121  27.104  1.00  0.00     0.091 A 
ATOM     88  F   UNL A   1      44.471  26.674  27.401  1.00  0.00    -0.205 F 
ATOM     89  C   UNL A   1      47.874  28.017  27.193  1.00  0.00     0.022 A 
BRANCH  87  90
ATOM     90  S   UNL A   1      47.163  25.439  26.597  1.00  0.00     0.127 S 
ATOM     91  O   UNL A   1      46.791  24.674  27.785  1.00  0.00    -0.237 OA
ATOM     92  O   UNL A   1      46.271  25.259  25.449  1.00  0.00    -0.237 OA
ATOM     93  O   UNL A   1      48.581  25.417  26.259  1.00  0.00    -0.744 OA
ENDBRANCH  87  90
ENDBRANCH  60  83
ENDBRANCH  34  35
ENDBRANCH  26  29
ENDBRANCH  24  25
ENDBRANCH   1  24
TORSDOF 16
ENDMDL
MODEL 3
REMARK VINA RESULT:     -12.1      3.170      8.030
REMARK SMILES C[C@@H]1C[C@@H](C)CN(C(=O)CCn2cc(C(=O)NCCCNC(=O)c3ccc(-c4c5nc(c(-c6cccc(S(=O)(=O)[O-])c6F)c6ccc([nH]6)c(-c6cccc(S(=O)(=O)[O-])c6F)c6nc(c(-c7cccc(S(=O)(=O)[O-])c7F)c7ccc4[nH]7)C=C6)C=C5)cc3)cn2)C1
REMARK SMILES IDX 19 1 18 2 17 3 15 4 16 5 14 7 12 8 13 9 88 10 87 11 11 12
REMARK SMILES IDX 10 13 8 14 1 15 2 16 3 17 89 18 4 19 7 20 6 21 5 22 9 23
REMARK SMILES IDX 20 24 21 25 22 26 23 28 24 29 25 30 86 31 26 32 85 33 27 34
REMARK SMILES IDX 28 35 29 36 79 37 30 38 84 39 78 40 80 41 31 42 83 43 77 44
REMARK SMILES IDX 76 45 32 47 64 48 44 49 63 50 45 51 48 52 62 53 81 54 46 55
REMARK SMILES IDX 47 56 61 58 82 59 49 60 33 61 34 62 42 63 35 64 37 65 43 66
REMARK SMILES IDX 36 67 38 68 39 69 40 70 41 71 65 72 66 73 74 74 67 75 69 76
REMARK SMILES IDX 75 77 68 78 70 79 71 80 72 81 73 82 50 83 51 84 59 85 52 86
REMARK SMILES IDX 54 87 60 88 53 89 55 90 56 91 57 92 58 93
REMARK H PARENT 17 6 21 27 80 46 48 57
REMARK Flexibility Score: inf
ROOT
ATOM      1  C   UNL A   1      33.083  29.824  27.021  1.00  0.00     0.042 C 
ENDROOT
BRANCH   1   2
ATOM      2  C   UNL A   1      32.824  29.588  25.529  1.00  0.00     0.118 C 
BRANCH   2   3
ATOM      3  N   UNL A   1      31.524  30.096  25.146  1.00  0.00    -0.352 N 
ATOM      4  C   UNL A   1      30.639  29.671  24.180  1.00  0.00     0.254 C 
ATOM      5  O   UNL A   1      29.725  30.421  23.888  1.00  0.00    -0.269 OA
ATOM      6  H   UNL A   1      31.222  30.877  25.664  1.00  0.00     0.163 HD
BRANCH   4   7
ATOM      7  C   UNL A   1      30.717  28.323  23.635  1.00  0.00     0.077 A 
ATOM      8  N   UNL A   1      31.465  26.476  22.731  1.00  0.00    -0.271 N 
ATOM      9  C   UNL A   1      31.324  27.818  22.505  1.00  0.00     0.122 A 
ATOM     10  N   UNL A   1      30.686  26.025  23.721  1.00  0.00    -0.181 NA
ATOM     11  C   UNL A   1      30.219  27.154  24.273  1.00  0.00     0.149 A 
BRANCH   8  12
ATOM     12  C   UNL A   1      32.474  25.631  22.120  1.00  0.00     0.154 C 
BRANCH  12  13
ATOM     13  C   UNL A   1      33.672  25.399  23.043  1.00  0.00     0.124 C 
BRANCH  13  14
ATOM     14  C   UNL A   1      34.011  23.934  23.179  1.00  0.00     0.224 C 
ATOM     15  C   UNL A   1      32.250  20.837  22.937  1.00  0.00     0.009 C 
ATOM     16  C   UNL A   1      32.882  20.856  24.336  1.00  0.00     0.006 C 
ATOM     17  C   UNL A   1      31.861  21.202  25.428  1.00  0.00     0.010 C 
ATOM     18  C   UNL A   1      34.056  21.836  24.419  1.00  0.00     0.122 C 
ATOM     19  C   UNL A   1      31.433  22.680  25.388  1.00  0.00     0.006 C 
ATOM     20  N   UNL A   1      33.597  23.213  24.286  1.00  0.00    -0.342 N 
ATOM     21  C   UNL A   1      32.655  23.623  25.339  1.00  0.00     0.122 C 
ATOM     22  C   UNL A   1      30.514  22.972  26.574  1.00  0.00     0.009 C 
ATOM     23  O   UNL A   1      34.702  23.425  22.288  1.00  0.00    -0.275 OA
ENDBRANCH  13  14
ENDBRANCH  12  13
ENDBRANCH   8  12
ENDBRANCH   4   7
ENDBRANCH   2   3
ENDBRANCH   1   2
BRANCH   1  24
ATOM     24  C   UNL A   1      34.447  30.454  27.238  1.00  0.00     0.118 C 
BRANCH  24  25
ATOM     25  N   UNL A   1      34.353  31.638  28.095  1.00  0.00    -0.352 N 
ATOM     26  C   UNL A   1      35.050  31.909  29.255  1.00  0.00     0.251 C 
ATOM     27  H   UNL A   1      33.713  32.327  27.808  1.00  0.00     0.163 HD
ATOM     28  O   UNL A   1      34.640  32.741  30.050  1.00  0.00    -0.269 OA
BRANCH  26  29
ATOM     29  C   UNL A   1      36.300  31.175  29.503  1.00  0.00     0.039 A 
ATOM     30  C   UNL A   1      36.313  29.784  29.643  1.00  0.00     0.014 A 
ATOM     31  C   UNL A   1      37.478  31.914  29.546  1.00  0.00     0.014 A 
ATOM     32  C   UNL A   1      37.539  29.140  29.763  1.00  0.00     0.010 A 
ATOM     33  C   UNL A   1      38.678  31.267  29.467  1.00  0.00     0.010 A 
ATOM     34  C   UNL A   1      38.717  29.893  29.663  1.00  0.00    -0.014 A 
BRANCH  34  35
ATOM     35  C   UNL A   1      40.026  29.263  29.699  1.00  0.00     0.031 A 
ATOM     36  C   UNL A   1      40.581  29.044  31.058  1.00  0.00     0.074 A 
ATOM     37  C   UNL A   1      40.573  28.705  28.599  1.00  0.00     0.049 A 
ATOM     38  N   UNL A   1      41.585  29.646  31.603  1.00  0.00    -0.248 NA
ATOM     39  C   UNL A   1      39.847  28.158  31.973  1.00  0.00     0.031 C 
ATOM     40  C   UNL A   1      39.977  28.555  27.262  1.00  0.00     0.029 A 
ATOM     41  N   UNL A   1      41.730  28.005  28.488  1.00  0.00    -0.354 N 
ATOM     42  C   UNL A   1      41.763  29.027  32.838  1.00  0.00     0.074 A 
ATOM     43  C   UNL A   1      40.547  28.301  33.099  1.00  0.00     0.031 C 
ATOM     44  C   UNL A   1      40.639  27.597  26.580  1.00  0.00     0.029 A 
ATOM     45  C   UNL A   1      41.807  27.218  27.346  1.00  0.00     0.049 A 
ATOM     46  H   UNL A   1      42.451  28.050  29.159  1.00  0.00     0.167 HD
ATOM     47  C   UNL A   1      42.996  28.938  33.412  1.00  0.00     0.034 A 
ATOM     48  C   UNL A   1      42.749  26.285  27.074  1.00  0.00     0.034 A 
ATOM     49  C   UNL A   1      43.943  29.804  32.752  1.00  0.00     0.049 A 
ATOM     50  C   UNL A   1      43.927  26.612  27.910  1.00  0.00     0.074 A 
ATOM     51  C   UNL A   1      44.030  31.160  32.507  1.00  0.00     0.029 A 
ATOM     52  N   UNL A   1      44.815  29.204  31.875  1.00  0.00    -0.354 N 
ATOM     53  N   UNL A   1      44.619  27.710  27.774  1.00  0.00    -0.248 NA
ATOM     54  C   UNL A   1      44.070  25.937  29.188  1.00  0.00     0.031 C 
ATOM     55  C   UNL A   1      44.580  31.258  31.194  1.00  0.00     0.029 A 
ATOM     56  C   UNL A   1      44.854  29.966  30.738  1.00  0.00     0.049 A 
ATOM     57  H   UNL A   1      45.321  28.375  32.035  1.00  0.00     0.167 HD
ATOM     58  C   UNL A   1      44.906  28.102  29.076  1.00  0.00     0.074 A 
ATOM     59  C   UNL A   1      44.659  26.912  29.888  1.00  0.00     0.031 C 
ATOM     60  C   UNL A   1      45.027  29.424  29.405  1.00  0.00     0.034 A 
BRANCH  47  61
ATOM     61  C   UNL A   1      43.470  27.812  34.307  1.00  0.00     0.023 A 
ATOM     62  C   UNL A   1      44.012  28.173  35.563  1.00  0.00     0.012 A 
ATOM     63  C   UNL A   1      43.669  26.475  33.891  1.00  0.00     0.148 A 
ATOM     64  C   UNL A   1      44.764  27.276  36.329  1.00  0.00     0.002 A 
ATOM     65  C   UNL A   1      44.347  25.563  34.695  1.00  0.00     0.091 A 
ATOM     66  F   UNL A   1      43.330  26.096  32.658  1.00  0.00    -0.205 F 
ATOM     67  C   UNL A   1      44.926  25.967  35.898  1.00  0.00     0.022 A 
BRANCH  65  68
ATOM     68  S   UNL A   1      44.539  23.843  34.206  1.00  0.00     0.127 S 
ATOM     69  O   UNL A   1      43.149  23.427  34.053  1.00  0.00    -0.237 OA
ATOM     70  O   UNL A   1      45.292  23.969  32.958  1.00  0.00    -0.237 OA
ATOM     71  O   UNL A   1      45.286  23.215  35.290  1.00  0.00    -0.744 OA
ENDBRANCH  65  68
ENDBRANCH  47  61
BRANCH  48  72
ATOM     72  C   UNL A   1      42.605  25.008  26.344  1.00  0.00     0.023 A 
ATOM     73  C   UNL A   1      43.545  24.654  25.358  1.00  0.00     0.012 A 
ATOM     74  C   UNL A   1      41.700  24.017  26.793  1.00  0.00     0.148 A 
ATOM     75  C   UNL A   1      43.605  23.347  24.859  1.00  0.00     0.002 A 
ATOM     76  C   UNL A   1      41.758  22.723  26.287  1.00  0.00     0.091 A 
ATOM     77  F   UNL A   1      40.846  24.324  27.779  1.00  0.00    -0.205 F 
ATOM     78  C   UNL A   1      42.718  22.380  25.328  1.00  0.00     0.022 A 
BRANCH  76  79
ATOM     79  S   UNL A   1      40.657  21.420  26.855  1.00  0.00     0.127 S 
ATOM     80  O   UNL A   1      39.349  21.928  26.440  1.00  0.00    -0.237 OA
ATOM     81  O   UNL A   1      41.136  20.269  26.095  1.00  0.00    -0.237 OA
ATOM     82  O   UNL A   1      40.841  21.349  28.299  1.00  0.00    -0.744 OA
ENDBRANCH  76  79
ENDBRANCH  48  72
BRANCH  60  83
ATOM     83  C   UNL A   1      45.070  30.436  28.282  1.00  0.00     0.023 A 
ATOM     84  C   UNL A   1      43.896  30.928  27.673  1.00  0.00     0.012 A 
ATOM     85  C   UNL A   1      46.296  31.048  27.974  1.00  0.00     0.148 A 
ATOM     86  C   UNL A   1      43.942  31.991  26.768  1.00  0.00     0.002 A 
ATOM     87  C   UNL A   1      46.334  32.134  27.106  1.00  0.00     0.091 A 
ATOM     88  F   UNL A   1      47.403  30.580  28.570  1.00  0.00    -0.205 F 
ATOM     89  C   UNL A   1      45.161  32.604  26.493  1.00  0.00     0.022 A 
BRANCH  87  90
ATOM     90  S   UNL A   1      47.846  33.053  26.807  1.00  0.00     0.127 S 
ATOM     91  O   UNL A   1      47.441  33.969  25.743  1.00  0.00    -0.237 OA
ATOM     92  O   UNL A   1      48.085  33.690  28.104  1.00  0.00    -0.237 OA
ATOM     93  O   UNL A   1      48.852  32.067  26.432  1.00  0.00    -0.744 OA
ENDBRANCH  87  90
ENDBRANCH  60  83
ENDBRANCH  34  35
ENDBRANCH  26  29
ENDBRANCH  24  25
ENDBRANCH   1  24
TORSDOF 16
ENDMDL
