MODEL 1
REMARK VINA RESULT:     -10.8      0.000      0.000
REMARK SMILES COCCNS(=O)(=O)c1c[nH]c(C(=O)NCCCNC(=O)c2ccc(-c3c4nc(c(-c5cccc(S(=O)(=O)[O-])c5F)c5ccc([nH]5)c(-c5cccc(S(=O)(=O)[O-])c5F)c5nc(c(-c6cccc(S(=O)(=O)[O-])c6F)c6ccc3[nH]6)C=C5)C=C4)cc2)c1
REMARK SMILES IDX 16 1 15 2 13 3 14 4 12 6 9 7 10 8 85 9 11 10 6 12 7 13 8 14
REMARK SMILES IDX 5 15 4 17 3 18 2 19 1 20 17 21 18 22 19 23 20 24 21 26 22 27
REMARK SMILES IDX 23 28 84 29 24 30 83 31 25 32 26 33 27 34 77 35 28 36 82 37
REMARK SMILES IDX 76 38 78 39 29 40 81 41 75 42 74 43 30 45 62 46 42 47 61 48
REMARK SMILES IDX 43 49 46 50 60 51 79 52 44 53 45 54 59 56 80 57 47 58 31 59
REMARK SMILES IDX 32 60 40 61 33 62 35 63 41 64 34 65 36 66 37 67 38 68 39 69
REMARK SMILES IDX 63 70 64 71 72 72 65 73 67 74 73 75 66 76 68 77 69 78 70 79
REMARK SMILES IDX 71 80 48 81 49 82 57 83 50 84 52 85 58 86 51 87 53 88 54 89
REMARK SMILES IDX 55 90 56 91
REMARK H PARENT 15 5 11 11 5 16 19 25 78 44 46 55
REMARK Flexibility Score: inf
ROOT
ATOM      1  C   UNL A   1      33.607  28.556  24.770  1.00  0.00     0.118 C 
ENDROOT
BRANCH   1   2
ATOM      2  N   UNL A   1      33.948  28.035  23.462  1.00  0.00    -0.351 N 
ATOM      3  C   UNL A   1      33.595  26.866  22.847  1.00  0.00     0.267 C 
ATOM      4  O   UNL A   1      33.887  26.725  21.660  1.00  0.00    -0.268 OA
ATOM      5  H   UNL A   1      34.530  28.622  22.926  1.00  0.00     0.163 HD
BRANCH   3   6
ATOM      6  C   UNL A   1      32.845  25.839  23.540  1.00  0.00     0.105 A 
ATOM      7  C   UNL A   1      31.882  24.321  24.923  1.00  0.00     0.100 A 
ATOM      8  C   UNL A   1      31.023  24.534  23.867  1.00  0.00     0.104 A 
ATOM      9  C   UNL A   1      33.056  25.075  24.675  1.00  0.00     0.055 A 
ATOM     10  N   UNL A   1      31.630  25.423  23.023  1.00  0.00    -0.356 N 
ATOM     11  H   UNL A   1      31.255  25.725  22.165  1.00  0.00     0.166 HD
BRANCH   7  12
ATOM     12  S   UNL A   1      31.631  23.306  26.290  1.00  0.00     0.242 S 
ATOM     13  O   UNL A   1      30.822  22.211  25.833  1.00  0.00    -0.207 OA
ATOM     14  O   UNL A   1      31.187  24.201  27.347  1.00  0.00    -0.207 OA
BRANCH  12  15
ATOM     15  N   UNL A   1      33.126  22.699  26.777  1.00  0.00    -0.209 NA
ATOM     16  H   UNL A   1      33.752  23.490  26.930  1.00  0.00     0.141 HD
BRANCH  15  17
ATOM     17  C   UNL A   1      33.779  21.776  25.821  1.00  0.00     0.127 C 
BRANCH  17  18
ATOM     18  C   UNL A   1      35.284  21.677  26.091  1.00  0.00     0.176 C 
BRANCH  18  19
ATOM     19  O   UNL A   1      36.066  21.662  24.891  1.00  0.00    -0.383 OA
ATOM     20  C   UNL A   1      35.558  22.483  23.850  1.00  0.00     0.194 C 
ENDBRANCH  18  19
ENDBRANCH  17  18
ENDBRANCH  15  17
ENDBRANCH  12  15
ENDBRANCH   7  12
ENDBRANCH   3   6
ENDBRANCH   1   2
BRANCH   1  21
ATOM     21  C   UNL A   1      34.706  28.273  25.798  1.00  0.00     0.042 C 
BRANCH  21  22
ATOM     22  C   UNL A   1      34.379  28.919  27.143  1.00  0.00     0.118 C 
BRANCH  22  23
ATOM     23  N   UNL A   1      34.925  30.274  27.186  1.00  0.00    -0.352 N 
ATOM     24  C   UNL A   1      36.089  30.761  27.715  1.00  0.00     0.251 C 
ATOM     25  H   UNL A   1      34.356  30.955  26.760  1.00  0.00     0.163 HD
ATOM     26  O   UNL A   1      36.178  31.973  27.912  1.00  0.00    -0.269 OA
BRANCH  24  27
ATOM     27  C   UNL A   1      37.224  29.885  28.059  1.00  0.00     0.039 A 
ATOM     28  C   UNL A   1      38.256  29.743  27.116  1.00  0.00     0.014 A 
ATOM     29  C   UNL A   1      37.245  29.140  29.238  1.00  0.00     0.014 A 
ATOM     30  C   UNL A   1      39.346  28.922  27.390  1.00  0.00     0.010 A 
ATOM     31  C   UNL A   1      38.334  28.332  29.522  1.00  0.00     0.010 A 
ATOM     32  C   UNL A   1      39.395  28.250  28.615  1.00  0.00    -0.014 A 
BRANCH  32  33
ATOM     33  C   UNL A   1      40.636  27.584  29.062  1.00  0.00     0.031 A 
ATOM     34  C   UNL A   1      40.664  26.084  28.630  1.00  0.00     0.074 A 
ATOM     35  C   UNL A   1      41.540  28.411  29.674  1.00  0.00     0.049 A 
ATOM     36  N   UNL A   1      41.403  25.090  29.032  1.00  0.00    -0.248 NA
ATOM     37  C   UNL A   1      39.660  25.606  27.629  1.00  0.00     0.031 C 
ATOM     38  C   UNL A   1      41.317  29.852  29.960  1.00  0.00     0.029 A 
ATOM     39  N   UNL A   1      42.820  28.245  30.157  1.00  0.00    -0.354 N 
ATOM     40  C   UNL A   1      41.145  23.992  28.158  1.00  0.00     0.074 A 
ATOM     41  C   UNL A   1      39.977  24.329  27.415  1.00  0.00     0.031 C 
ATOM     42  C   UNL A   1      42.371  30.391  30.613  1.00  0.00     0.029 A 
ATOM     43  C   UNL A   1      43.395  29.382  30.787  1.00  0.00     0.049 A 
ATOM     44  H   UNL A   1      43.305  27.393  30.071  1.00  0.00     0.167 HD
ATOM     45  C   UNL A   1      42.001  22.938  27.988  1.00  0.00     0.034 A 
ATOM     46  C   UNL A   1      44.602  29.488  31.427  1.00  0.00     0.034 A 
ATOM     47  C   UNL A   1      43.135  23.119  28.829  1.00  0.00     0.049 A 
ATOM     48  C   UNL A   1      45.306  28.239  31.114  1.00  0.00     0.074 A 
ATOM     49  C   UNL A   1      43.338  22.962  30.172  1.00  0.00     0.029 A 
ATOM     50  N   UNL A   1      44.157  23.859  28.287  1.00  0.00    -0.354 N 
ATOM     51  N   UNL A   1      45.779  27.948  29.938  1.00  0.00    -0.248 NA
ATOM     52  C   UNL A   1      45.368  27.181  32.126  1.00  0.00     0.031 C 
ATOM     53  C   UNL A   1      44.234  24.003  30.483  1.00  0.00     0.029 A 
ATOM     54  C   UNL A   1      44.684  24.610  29.303  1.00  0.00     0.049 A 
ATOM     55  H   UNL A   1      44.454  23.849  27.348  1.00  0.00     0.167 HD
ATOM     56  C   UNL A   1      45.834  26.579  29.983  1.00  0.00     0.074 A 
ATOM     57  C   UNL A   1      45.895  26.215  31.381  1.00  0.00     0.031 C 
ATOM     58  C   UNL A   1      45.337  25.846  28.951  1.00  0.00     0.034 A 
BRANCH  45  59
ATOM     59  C   UNL A   1      42.122  21.810  26.981  1.00  0.00     0.023 A 
ATOM     60  C   UNL A   1      41.182  20.748  27.150  1.00  0.00     0.012 A 
ATOM     61  C   UNL A   1      43.230  21.556  26.154  1.00  0.00     0.148 A 
ATOM     62  C   UNL A   1      41.401  19.463  26.659  1.00  0.00     0.002 A 
ATOM     63  C   UNL A   1      43.418  20.274  25.618  1.00  0.00     0.091 A 
ATOM     64  F   UNL A   1      44.136  22.519  25.955  1.00  0.00    -0.205 F 
ATOM     65  C   UNL A   1      42.533  19.222  25.908  1.00  0.00     0.022 A 
BRANCH  63  66
ATOM     66  S   UNL A   1      44.792  19.853  24.536  1.00  0.00     0.127 S 
ATOM     67  O   UNL A   1      44.631  20.812  23.448  1.00  0.00    -0.237 OA
ATOM     68  O   UNL A   1      45.949  20.111  25.400  1.00  0.00    -0.237 OA
ATOM     69  O   UNL A   1      44.610  18.448  24.205  1.00  0.00    -0.744 OA
ENDBRANCH  63  66
ENDBRANCH  45  59
BRANCH  46  70
ATOM     70  C   UNL A   1      45.277  30.442  32.387  1.00  0.00     0.023 A 
ATOM     71  C   UNL A   1      46.443  31.166  32.101  1.00  0.00     0.012 A 
ATOM     72  C   UNL A   1      44.634  30.766  33.621  1.00  0.00     0.148 A 
ATOM     73  C   UNL A   1      46.866  32.227  32.928  1.00  0.00     0.002 A 
ATOM     74  C   UNL A   1      44.968  31.897  34.356  1.00  0.00     0.091 A 
ATOM     75  F   UNL A   1      43.689  29.957  34.110  1.00  0.00    -0.205 F 
ATOM     76  C   UNL A   1      46.099  32.631  34.020  1.00  0.00     0.022 A 
BRANCH  74  77
ATOM     77  S   UNL A   1      43.864  32.564  35.620  1.00  0.00     0.127 S 
ATOM     78  O   UNL A   1      43.988  31.580  36.693  1.00  0.00    -0.237 OA
ATOM     79  O   UNL A   1      44.488  33.858  35.898  1.00  0.00    -0.237 OA
ATOM     80  O   UNL A   1      42.546  32.652  35.007  1.00  0.00    -0.744 OA
ENDBRANCH  74  77
ENDBRANCH  46  70
BRANCH  58  81
ATOM     81  C   UNL A   1      45.271  26.578  27.605  1.00  0.00     0.023 A 
ATOM     82  C   UNL A   1      44.006  27.060  27.210  1.00  0.00     0.012 A 
ATOM     83  C   UNL A   1      46.332  26.737  26.677  1.00  0.00     0.148 A 
ATOM     84  C   UNL A   1      43.793  27.647  25.958  1.00  0.00     0.002 A 
ATOM     85  C   UNL A   1      46.120  27.318  25.420  1.00  0.00     0.091 A 
ATOM     86  F   UNL A   1      47.547  26.309  27.012  1.00  0.00    -0.205 F 
ATOM     87  C   UNL A   1      44.847  27.776  25.064  1.00  0.00     0.022 A 
BRANCH  85  88
ATOM     88  S   UNL A   1      47.405  27.511  24.162  1.00  0.00     0.127 S 
ATOM     89  O   UNL A   1      48.473  28.184  24.903  1.00  0.00    -0.237 OA
ATOM     90  O   UNL A   1      47.706  26.126  23.806  1.00  0.00    -0.237 OA
ATOM     91  O   UNL A   1      46.822  28.311  23.093  1.00  0.00    -0.744 OA
ENDBRANCH  85  88
ENDBRANCH  58  81
ENDBRANCH  32  33
ENDBRANCH  24  27
ENDBRANCH  22  23
ENDBRANCH  21  22
ENDBRANCH   1  21
TORSDOF 18
ENDMDL
MODEL 2
REMARK VINA RESULT:     -10.4      1.891      2.084
REMARK SMILES COCCNS(=O)(=O)c1c[nH]c(C(=O)NCCCNC(=O)c2ccc(-c3c4nc(c(-c5cccc(S(=O)(=O)[O-])c5F)c5ccc([nH]5)c(-c5cccc(S(=O)(=O)[O-])c5F)c5nc(c(-c6cccc(S(=O)(=O)[O-])c6F)c6ccc3[nH]6)C=C5)C=C4)cc2)c1
REMARK SMILES IDX 16 1 15 2 13 3 14 4 12 6 9 7 10 8 85 9 11 10 6 12 7 13 8 14
REMARK SMILES IDX 5 15 4 17 3 18 2 19 1 20 17 21 18 22 19 23 20 24 21 26 22 27
REMARK SMILES IDX 23 28 84 29 24 30 83 31 25 32 26 33 27 34 77 35 28 36 82 37
REMARK SMILES IDX 76 38 78 39 29 40 81 41 75 42 74 43 30 45 62 46 42 47 61 48
REMARK SMILES IDX 43 49 46 50 60 51 79 52 44 53 45 54 59 56 80 57 47 58 31 59
REMARK SMILES IDX 32 60 40 61 33 62 35 63 41 64 34 65 36 66 37 67 38 68 39 69
REMARK SMILES IDX 63 70 64 71 72 72 65 73 67 74 73 75 66 76 68 77 69 78 70 79
REMARK SMILES IDX 71 80 48 81 49 82 57 83 50 84 52 85 58 86 51 87 53 88 54 89
REMARK SMILES IDX 55 90 56 91
REMARK H PARENT 15 5 11 11 5 16 19 25 78 44 46 55
REMARK Flexibility Score: inf
ROOT
ATOM      1  C   UNL A   1      32.955  29.655  26.114  1.00  0.00     0.118 C 
ENDROOT
BRANCH   1   2
ATOM      2  N   UNL A   1      33.002  29.663  24.666  1.00  0.00    -0.351 N 
ATOM      3  C   UNL A   1      32.524  28.765  23.752  1.00  0.00     0.267 C 
ATOM      4  O   UNL A   1      32.550  29.079  22.562  1.00  0.00    -0.268 OA
ATOM      5  H   UNL A   1      33.454  30.446  24.275  1.00  0.00     0.163 HD
BRANCH   3   6
ATOM      6  C   UNL A   1      31.943  27.503  24.160  1.00  0.00     0.105 A 
ATOM      7  C   UNL A   1      31.356  25.471  24.981  1.00  0.00     0.100 A 
ATOM      8  C   UNL A   1      30.202  26.127  24.615  1.00  0.00     0.104 A 
ATOM      9  C   UNL A   1      32.448  26.299  24.619  1.00  0.00     0.055 A 
ATOM     10  N   UNL A   1      30.570  27.335  24.089  1.00  0.00    -0.356 N 
ATOM     11  H   UNL A   1      29.945  27.995  23.711  1.00  0.00     0.166 HD
BRANCH   7  12
ATOM     12  S   UNL A   1      31.494  23.918  25.709  1.00  0.00     0.242 S 
ATOM     13  O   UNL A   1      30.722  23.023  24.892  1.00  0.00    -0.207 OA
ATOM     14  O   UNL A   1      31.189  24.133  27.115  1.00  0.00    -0.207 OA
BRANCH  12  15
ATOM     15  N   UNL A   1      33.110  23.445  25.639  1.00  0.00    -0.209 NA
ATOM     16  H   UNL A   1      33.241  22.894  24.791  1.00  0.00     0.141 HD
BRANCH  15  17
ATOM     17  C   UNL A   1      33.586  22.638  26.787  1.00  0.00     0.127 C 
BRANCH  17  18
ATOM     18  C   UNL A   1      33.525  21.140  26.468  1.00  0.00     0.176 C 
BRANCH  18  19
ATOM     19  O   UNL A   1      33.982  20.832  25.146  1.00  0.00    -0.383 OA
ATOM     20  C   UNL A   1      33.286  19.765  24.520  1.00  0.00     0.194 C 
ENDBRANCH  18  19
ENDBRANCH  17  18
ENDBRANCH  15  17
ENDBRANCH  12  15
ENDBRANCH   7  12
ENDBRANCH   3   6
ENDBRANCH   1   2
BRANCH   1  21
ATOM     21  C   UNL A   1      33.935  28.639  26.708  1.00  0.00     0.042 C 
BRANCH  21  22
ATOM     22  C   UNL A   1      34.623  29.203  27.950  1.00  0.00     0.118 C 
BRANCH  22  23
ATOM     23  N   UNL A   1      35.249  30.484  27.629  1.00  0.00    -0.352 N 
ATOM     24  C   UNL A   1      36.516  30.950  27.853  1.00  0.00     0.251 C 
ATOM     25  H   UNL A   1      34.655  31.123  27.173  1.00  0.00     0.163 HD
ATOM     26  O   UNL A   1      36.711  32.164  27.784  1.00  0.00    -0.269 OA
BRANCH  24  27
ATOM     27  C   UNL A   1      37.639  30.052  28.179  1.00  0.00     0.039 A 
ATOM     28  C   UNL A   1      38.612  29.829  27.189  1.00  0.00     0.014 A 
ATOM     29  C   UNL A   1      37.701  29.364  29.390  1.00  0.00     0.014 A 
ATOM     30  C   UNL A   1      39.687  28.984  27.445  1.00  0.00     0.010 A 
ATOM     31  C   UNL A   1      38.778  28.533  29.655  1.00  0.00     0.010 A 
ATOM     32  C   UNL A   1      39.783  28.370  28.697  1.00  0.00    -0.014 A 
BRANCH  32  33
ATOM     33  C   UNL A   1      41.024  27.683  29.108  1.00  0.00     0.031 A 
ATOM     34  C   UNL A   1      41.002  26.175  28.702  1.00  0.00     0.074 A 
ATOM     35  C   UNL A   1      41.970  28.498  29.672  1.00  0.00     0.049 A 
ATOM     36  N   UNL A   1      41.732  25.171  29.094  1.00  0.00    -0.248 NA
ATOM     37  C   UNL A   1      39.950  25.705  27.749  1.00  0.00     0.031 C 
ATOM     38  C   UNL A   1      41.790  29.948  29.941  1.00  0.00     0.029 A 
ATOM     39  N   UNL A   1      43.263  28.311  30.109  1.00  0.00    -0.354 N 
ATOM     40  C   UNL A   1      41.417  24.065  28.250  1.00  0.00     0.074 A 
ATOM     41  C   UNL A   1      40.230  24.417  27.545  1.00  0.00     0.031 C 
ATOM     42  C   UNL A   1      42.880  30.474  30.544  1.00  0.00     0.029 A 
ATOM     43  C   UNL A   1      43.887  29.443  30.697  1.00  0.00     0.049 A 
ATOM     44  H   UNL A   1      43.725  27.446  30.020  1.00  0.00     0.167 HD
ATOM     45  C   UNL A   1      42.242  22.989  28.066  1.00  0.00     0.034 A 
ATOM     46  C   UNL A   1      45.120  29.532  31.290  1.00  0.00     0.034 A 
ATOM     47  C   UNL A   1      43.410  23.157  28.861  1.00  0.00     0.049 A 
ATOM     48  C   UNL A   1      45.782  28.262  30.972  1.00  0.00     0.074 A 
ATOM     49  C   UNL A   1      43.660  23.017  30.198  1.00  0.00     0.029 A 
ATOM     50  N   UNL A   1      44.428  23.863  28.267  1.00  0.00    -0.354 N 
ATOM     51  N   UNL A   1      46.204  27.940  29.785  1.00  0.00    -0.248 NA
ATOM     52  C   UNL A   1      45.858  27.220  31.999  1.00  0.00     0.031 C 
ATOM     53  C   UNL A   1      44.591  24.042  30.457  1.00  0.00     0.029 A 
ATOM     54  C   UNL A   1      45.010  24.619  29.250  1.00  0.00     0.049 A 
ATOM     55  H   UNL A   1      44.688  23.831  27.319  1.00  0.00     0.167 HD
ATOM     56  C   UNL A   1      46.229  26.571  29.851  1.00  0.00     0.074 A 
ATOM     57  C   UNL A   1      46.335  26.229  31.253  1.00  0.00     0.031 C 
ATOM     58  C   UNL A   1      45.677  25.834  28.852  1.00  0.00     0.034 A 
BRANCH  45  59
ATOM     59  C   UNL A   1      42.298  21.841  27.075  1.00  0.00     0.023 A 
ATOM     60  C   UNL A   1      41.375  20.782  27.327  1.00  0.00     0.012 A 
ATOM     61  C   UNL A   1      43.350  21.573  26.181  1.00  0.00     0.148 A 
ATOM     62  C   UNL A   1      41.565  19.488  26.847  1.00  0.00     0.002 A 
ATOM     63  C   UNL A   1      43.505  20.281  25.659  1.00  0.00     0.091 A 
ATOM     64  F   UNL A   1      44.238  22.534  25.904  1.00  0.00    -0.205 F 
ATOM     65  C   UNL A   1      42.645  19.233  26.027  1.00  0.00     0.022 A 
BRANCH  63  66
ATOM     66  S   UNL A   1      44.806  19.841  24.496  1.00  0.00     0.127 S 
ATOM     67  O   UNL A   1      46.011  20.038  25.297  1.00  0.00    -0.237 OA
ATOM     68  O   UNL A   1      44.496  18.437  24.209  1.00  0.00    -0.237 OA
ATOM     69  O   UNL A   1      44.624  20.727  23.356  1.00  0.00    -0.744 OA
ENDBRANCH  63  66
ENDBRANCH  45  59
BRANCH  46  70
ATOM     70  C   UNL A   1      45.852  30.486  32.207  1.00  0.00     0.023 A 
ATOM     71  C   UNL A   1      45.716  30.510  33.601  1.00  0.00     0.012 A 
ATOM     72  C   UNL A   1      46.870  31.332  31.669  1.00  0.00     0.148 A 
ATOM     73  C   UNL A   1      46.615  31.234  34.412  1.00  0.00     0.002 A 
ATOM     74  C   UNL A   1      47.838  31.928  32.469  1.00  0.00     0.091 A 
ATOM     75  F   UNL A   1      46.897  31.587  30.357  1.00  0.00    -0.205 F 
ATOM     76  C   UNL A   1      47.710  31.892  33.852  1.00  0.00     0.022 A 
BRANCH  74  77
ATOM     77  S   UNL A   1      49.372  32.578  31.772  1.00  0.00     0.127 S 
ATOM     78  O   UNL A   1      50.130  32.938  32.969  1.00  0.00    -0.237 OA
ATOM     79  O   UNL A   1      49.881  31.412  31.050  1.00  0.00    -0.237 OA
ATOM     80  O   UNL A   1      48.993  33.695  30.918  1.00  0.00    -0.744 OA
ENDBRANCH  74  77
ENDBRANCH  46  70
BRANCH  58  81
ATOM     81  C   UNL A   1      45.576  26.545  27.497  1.00  0.00     0.023 A 
ATOM     82  C   UNL A   1      44.302  27.021  27.127  1.00  0.00     0.012 A 
ATOM     83  C   UNL A   1      46.614  26.688  26.540  1.00  0.00     0.148 A 
ATOM     84  C   UNL A   1      44.057  27.588  25.872  1.00  0.00     0.002 A 
ATOM     85  C   UNL A   1      46.369  27.249  25.279  1.00  0.00     0.091 A 
ATOM     86  F   UNL A   1      47.836  26.264  26.850  1.00  0.00    -0.205 F 
ATOM     87  C   UNL A   1      45.088  27.703  24.949  1.00  0.00     0.022 A 
BRANCH  85  88
ATOM     88  S   UNL A   1      47.621  27.421  23.986  1.00  0.00     0.127 S 
ATOM     89  O   UNL A   1      48.708  28.106  24.689  1.00  0.00    -0.237 OA
ATOM     90  O   UNL A   1      47.914  26.030  23.645  1.00  0.00    -0.237 OA
ATOM     91  O   UNL A   1      47.011  28.204  22.919  1.00  0.00    -0.744 OA
ENDBRANCH  85  88
ENDBRANCH  58  81
ENDBRANCH  32  33
ENDBRANCH  24  27
ENDBRANCH  22  23
ENDBRANCH  21  22
ENDBRANCH   1  21
TORSDOF 18
ENDMDL
MODEL 3
REMARK VINA RESULT:     -10.2      4.552      9.900
REMARK SMILES COCCNS(=O)(=O)c1c[nH]c(C(=O)NCCCNC(=O)c2ccc(-c3c4nc(c(-c5cccc(S(=O)(=O)[O-])c5F)c5ccc([nH]5)c(-c5cccc(S(=O)(=O)[O-])c5F)c5nc(c(-c6cccc(S(=O)(=O)[O-])c6F)c6ccc3[nH]6)C=C5)C=C4)cc2)c1
REMARK SMILES IDX 16 1 15 2 13 3 14 4 12 6 9 7 10 8 85 9 11 10 6 12 7 13 8 14
REMARK SMILES IDX 5 15 4 17 3 18 2 19 1 20 17 21 18 22 19 23 20 24 21 26 22 27
REMARK SMILES IDX 23 28 84 29 24 30 83 31 25 32 26 33 27 34 77 35 28 36 82 37
REMARK SMILES IDX 76 38 78 39 29 40 81 41 75 42 74 43 30 45 62 46 42 47 61 48
REMARK SMILES IDX 43 49 46 50 60 51 79 52 44 53 45 54 59 56 80 57 47 58 31 59
REMARK SMILES IDX 32 60 40 61 33 62 35 63 41 64 34 65 36 66 37 67 38 68 39 69
REMARK SMILES IDX 63 70 64 71 72 72 65 73 67 74 73 75 66 76 68 77 69 78 70 79
REMARK SMILES IDX 71 80 48 81 49 82 57 83 50 84 52 85 58 86 51 87 53 88 54 89
REMARK SMILES IDX 55 90 56 91
REMARK H PARENT 15 5 11 11 5 16 19 25 78 44 46 55
REMARK Flexibility Score: inf
ROOT
ATOM      1  C   UNL A   1      35.326  23.780  24.981  1.00  0.00     0.118 C 
ENDROOT
BRANCH   1   2
ATOM      2  N   UNL A   1      34.506  22.668  24.546  1.00  0.00    -0.351 N 
ATOM      3  C   UNL A   1      33.382  22.638  23.767  1.00  0.00     0.267 C 
ATOM      4  O   UNL A   1      32.956  21.542  23.405  1.00  0.00    -0.268 OA
ATOM      5  H   UNL A   1      34.808  21.786  24.864  1.00  0.00     0.163 HD
BRANCH   3   6
ATOM      6  C   UNL A   1      32.737  23.855  23.319  1.00  0.00     0.105 A 
ATOM      7  C   UNL A   1      31.772  25.878  22.970  1.00  0.00     0.100 A 
ATOM      8  C   UNL A   1      32.141  25.370  21.744  1.00  0.00     0.104 A 
ATOM      9  C   UNL A   1      32.071  24.894  23.945  1.00  0.00     0.055 A 
ATOM     10  N   UNL A   1      32.687  24.136  21.964  1.00  0.00    -0.356 N 
ATOM     11  H   UNL A   1      33.002  23.529  21.255  1.00  0.00     0.166 HD
BRANCH   7  12
ATOM     12  S   UNL A   1      31.047  27.404  23.298  1.00  0.00     0.242 S 
ATOM     13  O   UNL A   1      30.053  27.166  24.307  1.00  0.00    -0.207 OA
ATOM     14  O   UNL A   1      30.703  27.945  21.993  1.00  0.00    -0.207 OA
BRANCH  12  15
ATOM     15  N   UNL A   1      32.228  28.422  23.940  1.00  0.00    -0.209 NA
ATOM     16  H   UNL A   1      32.800  27.875  24.582  1.00  0.00     0.141 HD
BRANCH  15  17
ATOM     17  C   UNL A   1      31.717  29.603  24.673  1.00  0.00     0.127 C 
BRANCH  17  18
ATOM     18  C   UNL A   1      32.595  29.918  25.888  1.00  0.00     0.176 C 
BRANCH  18  19
ATOM     19  O   UNL A   1      31.887  30.609  26.924  1.00  0.00    -0.383 OA
ATOM     20  C   UNL A   1      31.242  31.801  26.498  1.00  0.00     0.194 C 
ENDBRANCH  18  19
ENDBRANCH  17  18
ENDBRANCH  15  17
ENDBRANCH  12  15
ENDBRANCH   7  12
ENDBRANCH   3   6
ENDBRANCH   1   2
BRANCH   1  21
ATOM     21  C   UNL A   1      36.307  23.364  26.081  1.00  0.00     0.042 C 
BRANCH  21  22
ATOM     22  C   UNL A   1      37.587  24.197  26.018  1.00  0.00     0.118 C 
BRANCH  22  23
ATOM     23  N   UNL A   1      38.641  23.542  26.791  1.00  0.00    -0.352 N 
ATOM     24  C   UNL A   1      39.695  24.056  27.495  1.00  0.00     0.251 C 
ATOM     25  H   UNL A   1      38.582  22.559  26.806  1.00  0.00     0.163 HD
ATOM     26  O   UNL A   1      40.622  23.302  27.791  1.00  0.00    -0.269 OA
BRANCH  24  27
ATOM     27  C   UNL A   1      39.755  25.473  27.899  1.00  0.00     0.039 A 
ATOM     28  C   UNL A   1      39.312  25.809  29.190  1.00  0.00     0.014 A 
ATOM     29  C   UNL A   1      40.148  26.473  27.011  1.00  0.00     0.014 A 
ATOM     30  C   UNL A   1      39.341  27.133  29.616  1.00  0.00     0.010 A 
ATOM     31  C   UNL A   1      40.194  27.791  27.436  1.00  0.00     0.010 A 
ATOM     32  C   UNL A   1      39.822  28.114  28.745  1.00  0.00    -0.014 A 
BRANCH  32  33
ATOM     33  C   UNL A   1      40.119  29.476  29.231  1.00  0.00     0.031 A 
ATOM     34  C   UNL A   1      38.922  30.446  28.976  1.00  0.00     0.074 A 
ATOM     35  C   UNL A   1      41.321  29.604  29.877  1.00  0.00     0.049 A 
ATOM     36  N   UNL A   1      38.854  31.747  28.989  1.00  0.00    -0.248 NA
ATOM     37  C   UNL A   1      37.601  29.866  28.582  1.00  0.00     0.031 C 
ATOM     38  C   UNL A   1      42.318  28.514  30.040  1.00  0.00     0.029 A 
ATOM     39  N   UNL A   1      41.948  30.633  30.544  1.00  0.00    -0.354 N 
ATOM     40  C   UNL A   1      37.476  32.098  28.890  1.00  0.00     0.074 A 
ATOM     41  C   UNL A   1      36.780  30.914  28.508  1.00  0.00     0.031 C 
ATOM     42  C   UNL A   1      43.424  28.954  30.681  1.00  0.00     0.029 A 
ATOM     43  C   UNL A   1      43.252  30.349  31.032  1.00  0.00     0.049 A 
ATOM     44  H   UNL A   1      41.521  31.510  30.674  1.00  0.00     0.167 HD
ATOM     45  C   UNL A   1      36.969  33.307  29.282  1.00  0.00     0.034 A 
ATOM     46  C   UNL A   1      44.139  31.192  31.651  1.00  0.00     0.034 A 
ATOM     47  C   UNL A   1      38.031  34.124  29.761  1.00  0.00     0.049 A 
ATOM     48  C   UNL A   1      43.366  32.407  31.937  1.00  0.00     0.074 A 
ATOM     49  C   UNL A   1      39.020  34.832  29.137  1.00  0.00     0.029 A 
ATOM     50  N   UNL A   1      38.334  33.974  31.092  1.00  0.00    -0.354 N 
ATOM     51  N   UNL A   1      42.432  32.477  32.838  1.00  0.00    -0.248 NA
ATOM     52  C   UNL A   1      43.538  33.581  31.077  1.00  0.00     0.031 C 
ATOM     53  C   UNL A   1      40.115  34.690  30.012  1.00  0.00     0.029 A 
ATOM     54  C   UNL A   1      39.694  34.083  31.204  1.00  0.00     0.049 A 
ATOM     55  H   UNL A   1      37.695  33.819  31.825  1.00  0.00     0.167 HD
ATOM     56  C   UNL A   1      41.681  33.533  32.390  1.00  0.00     0.074 A 
ATOM     57  C   UNL A   1      42.553  34.332  31.557  1.00  0.00     0.031 C 
ATOM     58  C   UNL A   1      40.329  33.423  32.317  1.00  0.00     0.034 A 
BRANCH  45  59
ATOM     59  C   UNL A   1      35.576  33.852  29.536  1.00  0.00     0.023 A 
ATOM     60  C   UNL A   1      34.926  34.402  28.390  1.00  0.00     0.012 A 
ATOM     61  C   UNL A   1      35.027  34.163  30.792  1.00  0.00     0.148 A 
ATOM     62  C   UNL A   1      33.891  35.329  28.484  1.00  0.00     0.002 A 
ATOM     63  C   UNL A   1      33.949  35.057  30.877  1.00  0.00     0.091 A 
ATOM     64  F   UNL A   1      35.592  33.667  31.898  1.00  0.00    -0.205 F 
ATOM     65  C   UNL A   1      33.416  35.673  29.733  1.00  0.00     0.022 A 
BRANCH  63  66
ATOM     66  S   UNL A   1      33.166  35.506  32.433  1.00  0.00     0.127 S 
ATOM     67  O   UNL A   1      32.073  36.365  31.989  1.00  0.00    -0.237 OA
ATOM     68  O   UNL A   1      32.737  34.201  32.946  1.00  0.00    -0.237 OA
ATOM     69  O   UNL A   1      34.212  36.133  33.228  1.00  0.00    -0.744 OA
ENDBRANCH  63  66
ENDBRANCH  45  59
BRANCH  46  70
ATOM     70  C   UNL A   1      45.615  31.217  31.975  1.00  0.00     0.023 A 
ATOM     71  C   UNL A   1      46.637  31.330  31.023  1.00  0.00     0.012 A 
ATOM     72  C   UNL A   1      46.032  31.282  33.341  1.00  0.00     0.148 A 
ATOM     73  C   UNL A   1      47.965  31.614  31.404  1.00  0.00     0.002 A 
ATOM     74  C   UNL A   1      47.305  31.700  33.709  1.00  0.00     0.091 A 
ATOM     75  F   UNL A   1      45.188  30.914  34.311  1.00  0.00    -0.205 F 
ATOM     76  C   UNL A   1      48.288  31.858  32.739  1.00  0.00     0.022 A 
BRANCH  74  77
ATOM     77  S   UNL A   1      47.674  32.242  35.391  1.00  0.00     0.127 S 
ATOM     78  O   UNL A   1      48.927  31.545  35.675  1.00  0.00    -0.237 OA
ATOM     79  O   UNL A   1      47.802  33.688  35.210  1.00  0.00    -0.237 OA
ATOM     80  O   UNL A   1      46.539  31.837  36.210  1.00  0.00    -0.744 OA
ENDBRANCH  74  77
ENDBRANCH  46  70
BRANCH  58  81
ATOM     81  C   UNL A   1      39.711  32.368  33.242  1.00  0.00     0.023 A 
ATOM     82  C   UNL A   1      39.436  31.109  32.670  1.00  0.00     0.012 A 
ATOM     83  C   UNL A   1      39.303  32.560  34.588  1.00  0.00     0.148 A 
ATOM     84  C   UNL A   1      38.774  30.100  33.378  1.00  0.00     0.002 A 
ATOM     85  C   UNL A   1      38.634  31.553  35.297  1.00  0.00     0.091 A 
ATOM     86  F   UNL A   1      39.553  33.728  35.173  1.00  0.00    -0.205 F 
ATOM     87  C   UNL A   1      38.373  30.320  34.689  1.00  0.00     0.022 A 
BRANCH  85  88
ATOM     88  S   UNL A   1      38.036  31.735  36.994  1.00  0.00     0.127 S 
ATOM     89  O   UNL A   1      39.258  32.082  37.723  1.00  0.00    -0.237 OA
ATOM     90  O   UNL A   1      37.080  32.834  36.874  1.00  0.00    -0.237 OA
ATOM     91  O   UNL A   1      37.458  30.451  37.370  1.00  0.00    -0.744 OA
ENDBRANCH  85  88
ENDBRANCH  58  81
ENDBRANCH  32  33
ENDBRANCH  24  27
ENDBRANCH  22  23
ENDBRANCH  21  22
ENDBRANCH   1  21
TORSDOF 18
ENDMDL
