MODEL 1
REMARK VINA RESULT:     -12.4      0.000      0.000
REMARK SMILES O=C(NCCCNC(=O)c1cc(Br)n(Cc2ccn(C3CCCC3)n2)c1)c1ccc(-c2c3nc(c(-c4cccc(S(=O)(=O)[O-])c4F)c4ccc([nH]4)c(-c4cccc(S(=O)(=O)[O-])c4F)c4nc(c(-c5cccc(S(=O)(=O)[O-])c5F)c5ccc2[nH]5)C=C4)C=C3)cc1
REMARK SMILES IDX 5 1 4 2 3 3 1 4 2 5 27 7 28 8 89 9 29 10 88 11 30 12 31 13
REMARK SMILES IDX 32 14 82 15 33 16 87 17 81 18 83 19 34 20 86 21 80 22 79 23
REMARK SMILES IDX 35 25 67 26 47 27 66 28 48 29 51 30 65 31 84 32 49 33 50 34
REMARK SMILES IDX 64 36 85 37 52 38 36 39 37 40 45 41 38 42 40 43 46 44 39 45
REMARK SMILES IDX 41 46 42 47 43 48 44 49 68 50 69 51 77 52 70 53 72 54 78 55
REMARK SMILES IDX 71 56 73 57 74 58 75 59 76 60 53 61 54 62 62 63 55 64 57 65
REMARK SMILES IDX 63 66 56 67 58 68 59 69 60 70 61 71 6 72 7 73 8 74 9 76
REMARK SMILES IDX 10 77 11 78 26 79 12 80 14 81 13 82 15 83 16 84 17 85 25 86
REMARK SMILES IDX 18 87 19 88 20 89 21 90 24 91 22 92 23 93
REMARK H PARENT 3 6 83 24 51 35 7 75
REMARK Flexibility Score: inf
ROOT
ATOM      1  C   UNL A   1      33.066  29.770  27.288  1.00  0.00     0.042 C 
ENDROOT
BRANCH   1   2
ATOM      2  C   UNL A   1      33.947  31.019  27.323  1.00  0.00     0.118 C 
BRANCH   2   3
ATOM      3  N   UNL A   1      34.005  31.676  28.614  1.00  0.00    -0.352 N 
ATOM      4  O   UNL A   1      34.639  32.537  30.539  1.00  0.00    -0.269 OA
ATOM      5  C   UNL A   1      34.965  31.836  29.576  1.00  0.00     0.251 C 
ATOM      6  H   UNL A   1      33.154  32.107  28.856  1.00  0.00     0.163 HD
BRANCH   5   7
ATOM      7  C   UNL A   1      36.314  31.207  29.563  1.00  0.00     0.039 A 
ATOM      8  C   UNL A   1      37.530  31.890  29.591  1.00  0.00     0.014 A 
ATOM      9  C   UNL A   1      36.339  29.799  29.538  1.00  0.00     0.014 A 
ATOM     10  C   UNL A   1      38.737  31.193  29.539  1.00  0.00     0.010 A 
ATOM     11  C   UNL A   1      37.541  29.097  29.504  1.00  0.00     0.010 A 
ATOM     12  C   UNL A   1      38.744  29.798  29.484  1.00  0.00    -0.014 A 
BRANCH  12  13
ATOM     13  C   UNL A   1      40.036  29.114  29.539  1.00  0.00     0.031 A 
ATOM     14  C   UNL A   1      40.616  28.922  30.903  1.00  0.00     0.074 A 
ATOM     15  C   UNL A   1      40.620  28.529  28.475  1.00  0.00     0.049 A 
ATOM     16  N   UNL A   1      41.767  29.312  31.353  1.00  0.00    -0.248 NA
ATOM     17  C   UNL A   1      39.773  28.258  31.908  1.00  0.00     0.031 C 
ATOM     18  C   UNL A   1      40.045  28.314  27.145  1.00  0.00     0.029 A 
ATOM     19  N   UNL A   1      41.815  27.870  28.411  1.00  0.00    -0.354 N 
ATOM     20  C   UNL A   1      41.872  28.782  32.641  1.00  0.00     0.074 A 
ATOM     21  C   UNL A   1      40.576  28.248  32.971  1.00  0.00     0.031 C 
ATOM     22  C   UNL A   1      40.774  27.379  26.497  1.00  0.00     0.029 A 
ATOM     23  C   UNL A   1      41.930  27.036  27.307  1.00  0.00     0.049 A 
ATOM     24  H   UNL A   1      42.527  27.976  29.084  1.00  0.00     0.167 HD
ATOM     25  C   UNL A   1      43.060  28.658  33.295  1.00  0.00     0.034 A 
ATOM     26  C   UNL A   1      42.864  26.076  27.111  1.00  0.00     0.034 A 
ATOM     27  C   UNL A   1      44.097  29.457  32.708  1.00  0.00     0.049 A 
ATOM     28  C   UNL A   1      44.006  26.353  28.008  1.00  0.00     0.074 A 
ATOM     29  C   UNL A   1      44.296  30.805  32.489  1.00  0.00     0.029 A 
ATOM     30  N   UNL A   1      45.041  28.812  31.950  1.00  0.00    -0.354 N 
ATOM     31  N   UNL A   1      44.812  27.367  27.873  1.00  0.00    -0.248 NA
ATOM     32  C   UNL A   1      44.064  25.673  29.290  1.00  0.00     0.031 C 
ATOM     33  C   UNL A   1      45.021  30.877  31.263  1.00  0.00     0.029 A 
ATOM     34  C   UNL A   1      45.233  29.569  30.824  1.00  0.00     0.049 A 
ATOM     35  H   UNL A   1      45.494  27.967  32.172  1.00  0.00     0.167 HD
ATOM     36  C   UNL A   1      45.152  27.717  29.172  1.00  0.00     0.074 A 
ATOM     37  C   UNL A   1      44.780  26.562  29.982  1.00  0.00     0.031 C 
ATOM     38  C   UNL A   1      45.434  29.012  29.503  1.00  0.00     0.034 A 
BRANCH  25  39
ATOM     39  C   UNL A   1      43.374  27.597  34.325  1.00  0.00     0.023 A 
ATOM     40  C   UNL A   1      43.680  28.015  35.638  1.00  0.00     0.012 A 
ATOM     41  C   UNL A   1      43.626  26.243  34.007  1.00  0.00     0.148 A 
ATOM     42  C   UNL A   1      44.228  27.136  36.582  1.00  0.00     0.002 A 
ATOM     43  C   UNL A   1      44.090  25.355  34.971  1.00  0.00     0.091 A 
ATOM     44  F   UNL A   1      43.541  25.832  32.736  1.00  0.00    -0.205 F 
ATOM     45  C   UNL A   1      44.419  25.801  36.253  1.00  0.00     0.022 A 
BRANCH  43  46
ATOM     46  S   UNL A   1      44.280  23.605  34.612  1.00  0.00     0.127 S 
ATOM     47  O   UNL A   1      42.926  23.238  34.212  1.00  0.00    -0.237 OA
ATOM     48  O   UNL A   1      45.264  23.622  33.529  1.00  0.00    -0.237 OA
ATOM     49  O   UNL A   1      44.774  23.016  35.851  1.00  0.00    -0.744 OA
ENDBRANCH  43  46
ENDBRANCH  25  39
BRANCH  26  50
ATOM     50  C   UNL A   1      42.758  24.802  26.364  1.00  0.00     0.023 A 
ATOM     51  C   UNL A   1      43.784  24.424  25.477  1.00  0.00     0.012 A 
ATOM     52  C   UNL A   1      41.790  23.838  26.717  1.00  0.00     0.148 A 
ATOM     53  C   UNL A   1      43.859  23.118  24.978  1.00  0.00     0.002 A 
ATOM     54  C   UNL A   1      41.862  22.544  26.211  1.00  0.00     0.091 A 
ATOM     55  F   UNL A   1      40.854  24.162  27.621  1.00  0.00    -0.205 F 
ATOM     56  C   UNL A   1      42.902  22.177  25.349  1.00  0.00     0.022 A 
BRANCH  54  57
ATOM     57  S   UNL A   1      40.673  21.273  26.661  1.00  0.00     0.127 S 
ATOM     58  O   UNL A   1      41.287  20.069  26.099  1.00  0.00    -0.237 OA
ATOM     59  O   UNL A   1      40.691  21.346  28.119  1.00  0.00    -0.237 OA
ATOM     60  O   UNL A   1      39.421  21.657  26.021  1.00  0.00    -0.744 OA
ENDBRANCH  54  57
ENDBRANCH  26  50
BRANCH  38  61
ATOM     61  C   UNL A   1      45.640  30.006  28.384  1.00  0.00     0.023 A 
ATOM     62  C   UNL A   1      44.552  30.618  27.727  1.00  0.00     0.012 A 
ATOM     63  C   UNL A   1      46.939  30.466  28.107  1.00  0.00     0.148 A 
ATOM     64  C   UNL A   1      44.752  31.636  26.791  1.00  0.00     0.002 A 
ATOM     65  C   UNL A   1      47.132  31.516  27.215  1.00  0.00     0.091 A 
ATOM     66  F   UNL A   1      47.969  29.889  28.744  1.00  0.00    -0.205 F 
ATOM     67  C   UNL A   1      46.043  32.094  26.544  1.00  0.00     0.022 A 
BRANCH  65  68
ATOM     68  S   UNL A   1      48.749  32.255  26.961  1.00  0.00     0.127 S 
ATOM     69  O   UNL A   1      49.069  32.761  28.294  1.00  0.00    -0.237 OA
ATOM     70  O   UNL A   1      49.556  31.110  26.533  1.00  0.00    -0.237 OA
ATOM     71  O   UNL A   1      48.566  33.267  25.929  1.00  0.00    -0.744 OA
ENDBRANCH  65  68
ENDBRANCH  38  61
ENDBRANCH  12  13
ENDBRANCH   5   7
ENDBRANCH   2   3
ENDBRANCH   1   2
BRANCH   1  72
ATOM     72  C   UNL A   1      33.806  28.497  26.870  1.00  0.00     0.118 C 
BRANCH  72  73
ATOM     73  N   UNL A   1      33.747  28.280  25.432  1.00  0.00    -0.352 N 
ATOM     74  C   UNL A   1      33.644  27.107  24.732  1.00  0.00     0.252 C 
ATOM     75  H   UNL A   1      33.787  29.097  24.882  1.00  0.00     0.163 HD
ATOM     76  O   UNL A   1      33.861  27.107  23.524  1.00  0.00    -0.269 OA
BRANCH  74  77
ATOM     77  C   UNL A   1      33.257  25.905  25.448  1.00  0.00     0.058 A 
ATOM     78  C   UNL A   1      31.945  25.393  25.661  1.00  0.00     0.049 A 
ATOM     79  C   UNL A   1      34.131  24.973  25.981  1.00  0.00     0.101 A 
ATOM     80  C   UNL A   1      32.069  24.179  26.297  1.00  0.00     0.086 A 
ATOM     81  N   UNL A   1      33.396  23.965  26.568  1.00  0.00    -0.335 N 
ATOM     82  Br  UNL A   1      30.615  23.061  26.660  1.00  0.00    -0.031 Br
BRANCH  81  83
ATOM     83  C   UNL A   1      33.981  22.818  27.259  1.00  0.00     0.180 C 
BRANCH  83  84
ATOM     84  C   UNL A   1      34.400  21.744  26.308  1.00  0.00     0.082 A 
ATOM     85  C   UNL A   1      35.672  21.551  25.714  1.00  0.00     0.047 A 
ATOM     86  N   UNL A   1      33.554  20.757  25.965  1.00  0.00    -0.176 NA
ATOM     87  C   UNL A   1      35.556  20.408  24.965  1.00  0.00     0.109 A 
ATOM     88  N   UNL A   1      34.275  19.969  25.136  1.00  0.00    -0.269 N 
BRANCH  88  89
ATOM     89  C   UNL A   1      33.720  18.762  24.565  1.00  0.00     0.107 C 
ATOM     90  C   UNL A   1      34.754  17.708  24.179  1.00  0.00     0.027 C 
ATOM     91  C   UNL A   1      32.773  17.993  25.482  1.00  0.00     0.027 C 
ATOM     92  C   UNL A   1      33.907  16.467  23.932  1.00  0.00     0.002 C 
ATOM     93  C   UNL A   1      32.701  16.595  24.867  1.00  0.00     0.002 C 
ENDBRANCH  88  89
ENDBRANCH  83  84
ENDBRANCH  81  83
ENDBRANCH  74  77
ENDBRANCH  72  73
ENDBRANCH   1  72
TORSDOF 16
ENDMDL
MODEL 2
REMARK VINA RESULT:     -12.2      1.474      1.811
REMARK SMILES O=C(NCCCNC(=O)c1cc(Br)n(Cc2ccn(C3CCCC3)n2)c1)c1ccc(-c2c3nc(c(-c4cccc(S(=O)(=O)[O-])c4F)c4ccc([nH]4)c(-c4cccc(S(=O)(=O)[O-])c4F)c4nc(c(-c5cccc(S(=O)(=O)[O-])c5F)c5ccc2[nH]5)C=C4)C=C3)cc1
REMARK SMILES IDX 5 1 4 2 3 3 1 4 2 5 27 7 28 8 89 9 29 10 88 11 30 12 31 13
REMARK SMILES IDX 32 14 82 15 33 16 87 17 81 18 83 19 34 20 86 21 80 22 79 23
REMARK SMILES IDX 35 25 67 26 47 27 66 28 48 29 51 30 65 31 84 32 49 33 50 34
REMARK SMILES IDX 64 36 85 37 52 38 36 39 37 40 45 41 38 42 40 43 46 44 39 45
REMARK SMILES IDX 41 46 42 47 43 48 44 49 68 50 69 51 77 52 70 53 72 54 78 55
REMARK SMILES IDX 71 56 73 57 74 58 75 59 76 60 53 61 54 62 62 63 55 64 57 65
REMARK SMILES IDX 63 66 56 67 58 68 59 69 60 70 61 71 6 72 7 73 8 74 9 76
REMARK SMILES IDX 10 77 11 78 26 79 12 80 14 81 13 82 15 83 16 84 17 85 25 86
REMARK SMILES IDX 18 87 19 88 20 89 21 90 24 91 22 92 23 93
REMARK H PARENT 3 6 83 24 51 35 7 75
REMARK Flexibility Score: inf
ROOT
ATOM      1  C   UNL A   1      33.633  29.762  26.295  1.00  0.00     0.042 C 
ENDROOT
BRANCH   1   2
ATOM      2  C   UNL A   1      33.663  30.412  27.678  1.00  0.00     0.118 C 
BRANCH   2   3
ATOM      3  N   UNL A   1      34.278  31.725  27.711  1.00  0.00    -0.352 N 
ATOM      4  O   UNL A   1      35.688  33.415  27.759  1.00  0.00    -0.269 OA
ATOM      5  C   UNL A   1      35.557  32.191  27.847  1.00  0.00     0.251 C 
ATOM      6  H   UNL A   1      33.621  32.451  27.614  1.00  0.00     0.163 HD
BRANCH   5   7
ATOM      7  C   UNL A   1      36.756  31.354  28.129  1.00  0.00     0.039 A 
ATOM      8  C   UNL A   1      36.995  30.077  27.618  1.00  0.00     0.014 A 
ATOM      9  C   UNL A   1      37.725  31.928  28.974  1.00  0.00     0.014 A 
ATOM     10  C   UNL A   1      38.140  29.371  27.982  1.00  0.00     0.010 A 
ATOM     11  C   UNL A   1      38.880  31.234  29.327  1.00  0.00     0.010 A 
ATOM     12  C   UNL A   1      39.078  29.942  28.845  1.00  0.00    -0.014 A 
BRANCH  12  13
ATOM     13  C   UNL A   1      40.311  29.201  29.109  1.00  0.00     0.031 A 
ATOM     14  C   UNL A   1      40.587  28.881  30.543  1.00  0.00     0.074 A 
ATOM     15  C   UNL A   1      41.089  28.674  28.144  1.00  0.00     0.049 A 
ATOM     16  N   UNL A   1      41.629  29.185  31.251  1.00  0.00    -0.248 NA
ATOM     17  C   UNL A   1      39.535  28.179  31.292  1.00  0.00     0.031 C 
ATOM     18  C   UNL A   1      40.801  28.586  26.711  1.00  0.00     0.029 A 
ATOM     19  N   UNL A   1      42.254  27.971  28.273  1.00  0.00    -0.354 N 
ATOM     20  C   UNL A   1      41.447  28.555  32.485  1.00  0.00     0.074 A 
ATOM     21  C   UNL A   1      40.097  28.053  32.494  1.00  0.00     0.031 C 
ATOM     22  C   UNL A   1      41.624  27.672  26.151  1.00  0.00     0.029 A 
ATOM     23  C   UNL A   1      42.575  27.219  27.151  1.00  0.00     0.049 A 
ATOM     24  H   UNL A   1      42.811  27.994  29.086  1.00  0.00     0.167 HD
ATOM     25  C   UNL A   1      42.468  28.329  33.358  1.00  0.00     0.034 A 
ATOM     26  C   UNL A   1      43.504  26.237  27.073  1.00  0.00     0.034 A 
ATOM     27  C   UNL A   1      43.626  29.126  33.066  1.00  0.00     0.049 A 
ATOM     28  C   UNL A   1      44.439  26.396  28.207  1.00  0.00     0.074 A 
ATOM     29  C   UNL A   1      43.902  30.477  33.007  1.00  0.00     0.029 A 
ATOM     30  N   UNL A   1      44.690  28.500  32.468  1.00  0.00    -0.354 N 
ATOM     31  N   UNL A   1      45.282  27.381  28.326  1.00  0.00    -0.248 NA
ATOM     32  C   UNL A   1      44.209  25.618  29.412  1.00  0.00     0.031 C 
ATOM     33  C   UNL A   1      44.868  30.611  31.968  1.00  0.00     0.029 A 
ATOM     34  C   UNL A   1      45.134  29.332  31.474  1.00  0.00     0.049 A 
ATOM     35  H   UNL A   1      45.064  27.622  32.708  1.00  0.00     0.167 HD
ATOM     36  C   UNL A   1      45.352  27.616  29.692  1.00  0.00     0.074 A 
ATOM     37  C   UNL A   1      44.788  26.420  30.309  1.00  0.00     0.031 C 
ATOM     38  C   UNL A   1      45.592  28.869  30.181  1.00  0.00     0.034 A 
BRANCH  25  39
ATOM     39  C   UNL A   1      42.531  27.181  34.337  1.00  0.00     0.023 A 
ATOM     40  C   UNL A   1      42.040  27.393  35.644  1.00  0.00     0.012 A 
ATOM     41  C   UNL A   1      43.270  25.997  34.114  1.00  0.00     0.148 A 
ATOM     42  C   UNL A   1      42.288  26.485  36.681  1.00  0.00     0.002 A 
ATOM     43  C   UNL A   1      43.442  25.058  35.126  1.00  0.00     0.091 A 
ATOM     44  F   UNL A   1      43.924  25.829  32.959  1.00  0.00    -0.205 F 
ATOM     45  C   UNL A   1      42.977  25.308  36.418  1.00  0.00     0.022 A 
BRANCH  43  46
ATOM     46  S   UNL A   1      44.260  23.489  34.813  1.00  0.00     0.127 S 
ATOM     47  O   UNL A   1      43.282  22.811  33.968  1.00  0.00    -0.237 OA
ATOM     48  O   UNL A   1      45.481  23.915  34.127  1.00  0.00    -0.237 OA
ATOM     49  O   UNL A   1      44.492  22.913  36.132  1.00  0.00    -0.744 OA
ENDBRANCH  43  46
ENDBRANCH  25  39
BRANCH  26  50
ATOM     50  C   UNL A   1      43.523  25.030  26.216  1.00  0.00     0.023 A 
ATOM     51  C   UNL A   1      44.517  24.889  25.229  1.00  0.00     0.012 A 
ATOM     52  C   UNL A   1      42.738  23.903  26.541  1.00  0.00     0.148 A 
ATOM     53  C   UNL A   1      44.740  23.657  24.603  1.00  0.00     0.002 A 
ATOM     54  C   UNL A   1      42.955  22.683  25.910  1.00  0.00     0.091 A 
ATOM     55  F   UNL A   1      41.843  24.003  27.534  1.00  0.00    -0.205 F 
ATOM     56  C   UNL A   1      43.964  22.552  24.947  1.00  0.00     0.022 A 
BRANCH  54  57
ATOM     57  S   UNL A   1      42.005  21.212  26.317  1.00  0.00     0.127 S 
ATOM     58  O   UNL A   1      40.643  21.625  25.974  1.00  0.00    -0.237 OA
ATOM     59  O   UNL A   1      42.588  20.218  25.420  1.00  0.00    -0.237 OA
ATOM     60  O   UNL A   1      42.218  20.986  27.742  1.00  0.00    -0.744 OA
ENDBRANCH  54  57
ENDBRANCH  26  50
BRANCH  38  61
ATOM     61  C   UNL A   1      46.054  29.936  29.215  1.00  0.00     0.023 A 
ATOM     62  C   UNL A   1      47.421  30.130  28.926  1.00  0.00     0.012 A 
ATOM     63  C   UNL A   1      45.098  30.632  28.455  1.00  0.00     0.148 A 
ATOM     64  C   UNL A   1      47.828  31.022  27.930  1.00  0.00     0.002 A 
ATOM     65  C   UNL A   1      45.505  31.479  27.429  1.00  0.00     0.091 A 
ATOM     66  F   UNL A   1      43.799  30.433  28.728  1.00  0.00    -0.205 F 
ATOM     67  C   UNL A   1      46.869  31.687  27.172  1.00  0.00     0.022 A 
BRANCH  65  68
ATOM     68  S   UNL A   1      44.324  32.252  26.319  1.00  0.00     0.127 S 
ATOM     69  O   UNL A   1      45.175  32.669  25.206  1.00  0.00    -0.237 OA
ATOM     70  O   UNL A   1      43.412  31.149  26.010  1.00  0.00    -0.237 OA
ATOM     71  O   UNL A   1      43.709  33.331  27.082  1.00  0.00    -0.744 OA
ENDBRANCH  65  68
ENDBRANCH  38  61
ENDBRANCH  12  13
ENDBRANCH   5   7
ENDBRANCH   2   3
ENDBRANCH   1   2
BRANCH   1  72
ATOM     72  C   UNL A   1      32.699  28.554  26.194  1.00  0.00     0.118 C 
BRANCH  72  73
ATOM     73  N   UNL A   1      32.470  28.157  24.813  1.00  0.00    -0.352 N 
ATOM     74  C   UNL A   1      32.378  26.902  24.272  1.00  0.00     0.252 C 
ATOM     75  H   UNL A   1      32.365  28.900  24.173  1.00  0.00     0.163 HD
ATOM     76  O   UNL A   1      32.432  26.767  23.052  1.00  0.00    -0.269 OA
BRANCH  74  77
ATOM     77  C   UNL A   1      32.195  25.773  25.167  1.00  0.00     0.058 A 
ATOM     78  C   UNL A   1      30.973  25.189  25.606  1.00  0.00     0.049 A 
ATOM     79  C   UNL A   1      33.211  24.991  25.687  1.00  0.00     0.101 A 
ATOM     80  C   UNL A   1      31.287  24.080  26.358  1.00  0.00     0.086 A 
ATOM     81  N   UNL A   1      32.651  24.010  26.477  1.00  0.00    -0.335 N 
ATOM     82  Br  UNL A   1      30.000  22.905  27.033  1.00  0.00    -0.031 Br
BRANCH  81  83
ATOM     83  C   UNL A   1      33.421  23.011  27.216  1.00  0.00     0.180 C 
BRANCH  83  84
ATOM     84  C   UNL A   1      33.942  21.931  26.323  1.00  0.00     0.082 A 
ATOM     85  C   UNL A   1      35.248  21.792  25.791  1.00  0.00     0.047 A 
ATOM     86  N   UNL A   1      33.168  20.887  25.980  1.00  0.00    -0.176 NA
ATOM     87  C   UNL A   1      35.230  20.620  25.080  1.00  0.00     0.109 A 
ATOM     88  N   UNL A   1      33.969  20.114  25.211  1.00  0.00    -0.269 N 
BRANCH  88  89
ATOM     89  C   UNL A   1      33.508  18.859  24.660  1.00  0.00     0.107 C 
ATOM     90  C   UNL A   1      32.636  18.996  23.415  1.00  0.00     0.027 C 
ATOM     91  C   UNL A   1      34.615  17.914  24.199  1.00  0.00     0.027 C 
ATOM     92  C   UNL A   1      32.578  17.573  22.875  1.00  0.00     0.002 C 
ATOM     93  C   UNL A   1      33.907  16.925  23.271  1.00  0.00     0.002 C 
ENDBRANCH  88  89
ENDBRANCH  83  84
ENDBRANCH  81  83
ENDBRANCH  74  77
ENDBRANCH  72  73
ENDBRANCH   1  72
TORSDOF 16
ENDMDL
MODEL 3
REMARK VINA RESULT:     -12.2      1.635      2.452
REMARK SMILES O=C(NCCCNC(=O)c1cc(Br)n(Cc2ccn(C3CCCC3)n2)c1)c1ccc(-c2c3nc(c(-c4cccc(S(=O)(=O)[O-])c4F)c4ccc([nH]4)c(-c4cccc(S(=O)(=O)[O-])c4F)c4nc(c(-c5cccc(S(=O)(=O)[O-])c5F)c5ccc2[nH]5)C=C4)C=C3)cc1
REMARK SMILES IDX 5 1 4 2 3 3 1 4 2 5 27 7 28 8 89 9 29 10 88 11 30 12 31 13
REMARK SMILES IDX 32 14 82 15 33 16 87 17 81 18 83 19 34 20 86 21 80 22 79 23
REMARK SMILES IDX 35 25 67 26 47 27 66 28 48 29 51 30 65 31 84 32 49 33 50 34
REMARK SMILES IDX 64 36 85 37 52 38 36 39 37 40 45 41 38 42 40 43 46 44 39 45
REMARK SMILES IDX 41 46 42 47 43 48 44 49 68 50 69 51 77 52 70 53 72 54 78 55
REMARK SMILES IDX 71 56 73 57 74 58 75 59 76 60 53 61 54 62 62 63 55 64 57 65
REMARK SMILES IDX 63 66 56 67 58 68 59 69 60 70 61 71 6 72 7 73 8 74 9 76
REMARK SMILES IDX 10 77 11 78 26 79 12 80 14 81 13 82 15 83 16 84 17 85 25 86
REMARK SMILES IDX 18 87 19 88 20 89 21 90 24 91 22 92 23 93
REMARK H PARENT 3 6 83 24 51 35 7 75
REMARK Flexibility Score: inf
ROOT
ATOM      1  C   UNL A   1      32.457  30.269  26.961  1.00  0.00     0.042 C 
ENDROOT
BRANCH   1   2
ATOM      2  C   UNL A   1      33.855  30.817  27.246  1.00  0.00     0.118 C 
BRANCH   2   3
ATOM      3  N   UNL A   1      33.955  31.602  28.461  1.00  0.00    -0.352 N 
ATOM      4  O   UNL A   1      34.651  32.650  30.268  1.00  0.00    -0.269 OA
ATOM      5  C   UNL A   1      34.944  31.852  29.372  1.00  0.00     0.251 C 
ATOM      6  H   UNL A   1      33.113  32.063  28.682  1.00  0.00     0.163 HD
BRANCH   5   7
ATOM      7  C   UNL A   1      36.289  31.214  29.385  1.00  0.00     0.039 A 
ATOM      8  C   UNL A   1      37.509  31.889  29.430  1.00  0.00     0.014 A 
ATOM      9  C   UNL A   1      36.305  29.806  29.365  1.00  0.00     0.014 A 
ATOM     10  C   UNL A   1      38.712  31.184  29.401  1.00  0.00     0.010 A 
ATOM     11  C   UNL A   1      37.503  29.096  29.355  1.00  0.00     0.010 A 
ATOM     12  C   UNL A   1      38.711  29.789  29.351  1.00  0.00    -0.014 A 
BRANCH  12  13
ATOM     13  C   UNL A   1      39.998  29.097  29.431  1.00  0.00     0.031 A 
ATOM     14  C   UNL A   1      40.550  28.901  30.806  1.00  0.00     0.074 A 
ATOM     15  C   UNL A   1      40.598  28.509  28.378  1.00  0.00     0.049 A 
ATOM     16  N   UNL A   1      41.695  29.283  31.277  1.00  0.00    -0.248 NA
ATOM     17  C   UNL A   1      39.684  28.241  31.794  1.00  0.00     0.031 C 
ATOM     18  C   UNL A   1      40.047  28.299  27.037  1.00  0.00     0.029 A 
ATOM     19  N   UNL A   1      41.790  27.843  28.336  1.00  0.00    -0.354 N 
ATOM     20  C   UNL A   1      41.772  28.752  32.567  1.00  0.00     0.074 A 
ATOM     21  C   UNL A   1      40.466  28.225  32.872  1.00  0.00     0.031 C 
ATOM     22  C   UNL A   1      40.782  27.359  26.403  1.00  0.00     0.029 A 
ATOM     23  C   UNL A   1      41.921  27.009  27.234  1.00  0.00     0.049 A 
ATOM     24  H   UNL A   1      42.489  27.944  29.023  1.00  0.00     0.167 HD
ATOM     25  C   UNL A   1      42.946  28.619  33.244  1.00  0.00     0.034 A 
ATOM     26  C   UNL A   1      42.852  26.042  27.055  1.00  0.00     0.034 A 
ATOM     27  C   UNL A   1      43.999  29.413  32.677  1.00  0.00     0.049 A 
ATOM     28  C   UNL A   1      43.978  26.312  27.974  1.00  0.00     0.074 A 
ATOM     29  C   UNL A   1      44.211  30.760  32.463  1.00  0.00     0.029 A 
ATOM     30  N   UNL A   1      44.953  28.762  31.936  1.00  0.00    -0.354 N 
ATOM     31  N   UNL A   1      44.793  27.321  27.855  1.00  0.00    -0.248 NA
ATOM     32  C   UNL A   1      44.007  25.631  29.257  1.00  0.00     0.031 C 
ATOM     33  C   UNL A   1      44.959  30.828  31.252  1.00  0.00     0.029 A 
ATOM     34  C   UNL A   1      45.172  29.519  30.816  1.00  0.00     0.049 A 
ATOM     35  H   UNL A   1      45.396  27.914  32.167  1.00  0.00     0.167 HD
ATOM     36  C   UNL A   1      45.111  27.668  29.160  1.00  0.00     0.074 A 
ATOM     37  C   UNL A   1      44.716  26.515  29.963  1.00  0.00     0.031 C 
ATOM     38  C   UNL A   1      45.394  28.962  29.498  1.00  0.00     0.034 A 
BRANCH  25  39
ATOM     39  C   UNL A   1      43.233  27.557  34.278  1.00  0.00     0.023 A 
ATOM     40  C   UNL A   1      43.386  27.960  35.623  1.00  0.00     0.012 A 
ATOM     41  C   UNL A   1      43.605  26.230  33.960  1.00  0.00     0.148 A 
ATOM     42  C   UNL A   1      43.901  27.096  36.597  1.00  0.00     0.002 A 
ATOM     43  C   UNL A   1      44.037  25.350  34.948  1.00  0.00     0.091 A 
ATOM     44  F   UNL A   1      43.669  25.846  32.680  1.00  0.00    -0.205 F 
ATOM     45  C   UNL A   1      44.213  25.785  36.263  1.00  0.00     0.022 A 
BRANCH  43  46
ATOM     46  S   UNL A   1      44.378  23.626  34.576  1.00  0.00     0.127 S 
ATOM     47  O   UNL A   1      44.728  23.104  35.893  1.00  0.00    -0.237 OA
ATOM     48  O   UNL A   1      43.091  23.169  34.050  1.00  0.00    -0.237 OA
ATOM     49  O   UNL A   1      45.446  23.657  33.583  1.00  0.00    -0.744 OA
ENDBRANCH  43  46
ENDBRANCH  25  39
BRANCH  26  50
ATOM     50  C   UNL A   1      42.752  24.770  26.305  1.00  0.00     0.023 A 
ATOM     51  C   UNL A   1      43.740  24.437  25.358  1.00  0.00     0.012 A 
ATOM     52  C   UNL A   1      41.844  23.767  26.705  1.00  0.00     0.148 A 
ATOM     53  C   UNL A   1      43.836  23.139  24.845  1.00  0.00     0.002 A 
ATOM     54  C   UNL A   1      41.936  22.480  26.185  1.00  0.00     0.091 A 
ATOM     55  F   UNL A   1      40.950  24.049  27.664  1.00  0.00    -0.205 F 
ATOM     56  C   UNL A   1      42.939  22.158  25.263  1.00  0.00     0.022 A 
BRANCH  54  57
ATOM     57  S   UNL A   1      40.825  21.161  26.693  1.00  0.00     0.127 S 
ATOM     58  O   UNL A   1      39.564  21.569  26.070  1.00  0.00    -0.237 OA
ATOM     59  O   UNL A   1      41.453  19.989  26.092  1.00  0.00    -0.237 OA
ATOM     60  O   UNL A   1      40.807  21.198  28.150  1.00  0.00    -0.744 OA
ENDBRANCH  54  57
ENDBRANCH  26  50
BRANCH  38  61
ATOM     61  C   UNL A   1      45.628  29.955  28.383  1.00  0.00     0.023 A 
ATOM     62  C   UNL A   1      44.556  30.579  27.711  1.00  0.00     0.012 A 
ATOM     63  C   UNL A   1      46.936  30.402  28.128  1.00  0.00     0.148 A 
ATOM     64  C   UNL A   1      44.782  31.596  26.780  1.00  0.00     0.002 A 
ATOM     65  C   UNL A   1      47.154  31.451  27.240  1.00  0.00     0.091 A 
ATOM     66  F   UNL A   1      47.950  29.812  28.780  1.00  0.00    -0.205 F 
ATOM     67  C   UNL A   1      46.081  32.041  26.554  1.00  0.00     0.022 A 
BRANCH  65  68
ATOM     68  S   UNL A   1      48.782  32.173  27.013  1.00  0.00     0.127 S 
ATOM     69  O   UNL A   1      48.526  33.200  26.005  1.00  0.00    -0.237 OA
ATOM     70  O   UNL A   1      49.087  32.691  28.349  1.00  0.00    -0.237 OA
ATOM     71  O   UNL A   1      49.647  31.077  26.592  1.00  0.00    -0.744 OA
ENDBRANCH  65  68
ENDBRANCH  38  61
ENDBRANCH  12  13
ENDBRANCH   5   7
ENDBRANCH   2   3
ENDBRANCH   1   2
BRANCH   1  72
ATOM     72  C   UNL A   1      32.264  29.768  25.527  1.00  0.00     0.118 C 
BRANCH  72  73
ATOM     73  N   UNL A   1      31.021  30.250  24.944  1.00  0.00    -0.352 N 
ATOM     74  C   UNL A   1      30.302  29.750  23.891  1.00  0.00     0.252 C 
ATOM     75  H   UNL A   1      30.641  31.054  25.369  1.00  0.00     0.163 HD
ATOM     76  O   UNL A   1      29.416  30.435  23.388  1.00  0.00    -0.269 OA
BRANCH  74  77
ATOM     77  C   UNL A   1      30.602  28.409  23.422  1.00  0.00     0.058 A 
ATOM     78  C   UNL A   1      31.399  28.025  22.306  1.00  0.00     0.049 A 
ATOM     79  C   UNL A   1      30.230  27.237  24.057  1.00  0.00     0.101 A 
ATOM     80  C   UNL A   1      31.491  26.652  22.310  1.00  0.00     0.086 A 
ATOM     81  N   UNL A   1      30.708  26.169  23.326  1.00  0.00    -0.335 N 
ATOM     82  Br  UNL A   1      32.556  25.695  21.110  1.00  0.00    -0.031 Br
BRANCH  81  83
ATOM     83  C   UNL A   1      30.483  24.768  23.678  1.00  0.00     0.180 C 
BRANCH  83  84
ATOM     84  C   UNL A   1      31.522  24.254  24.623  1.00  0.00     0.082 A 
ATOM     85  C   UNL A   1      31.394  24.013  26.014  1.00  0.00     0.047 A 
ATOM     86  N   UNL A   1      32.736  23.887  24.181  1.00  0.00    -0.176 NA
ATOM     87  C   UNL A   1      32.603  23.504  26.409  1.00  0.00     0.109 A 
ATOM     88  N   UNL A   1      33.379  23.451  25.288  1.00  0.00    -0.269 N 
BRANCH  88  89
ATOM     89  C   UNL A   1      34.729  22.934  25.226  1.00  0.00     0.107 C 
ATOM     90  C   UNL A   1      34.830  21.414  25.313  1.00  0.00     0.027 C 
ATOM     91  C   UNL A   1      35.481  23.253  23.936  1.00  0.00     0.027 C 
ATOM     92  C   UNL A   1      36.269  21.138  24.898  1.00  0.00     0.002 C 
ATOM     93  C   UNL A   1      36.637  22.252  23.914  1.00  0.00     0.002 C 
ENDBRANCH  88  89
ENDBRANCH  83  84
ENDBRANCH  81  83
ENDBRANCH  74  77
ENDBRANCH  72  73
ENDBRANCH   1  72
TORSDOF 16
ENDMDL
