MODEL 1
REMARK VINA RESULT:     -11.8      0.000      0.000
REMARK SMILES COc1c(Cl)cc(C(=O)NCCCNC(=O)c2ccc(-c3c4nc(c(-c5cccc(S(=O)(=O)[O-])c5F)c5ccc([nH]5)c(-c5cccc(S(=O)(=O)[O-])c5F)c5nc(c(-c6cccc(S(=O)(=O)[O-])c6F)c6ccc3[nH]6)C=C5)C=C4)cc2)cc1NC(=O)C(C)(C)Oc1ccc(Br)cc1
REMARK SMILES IDX 11 1 10 2 8 3 9 4 7 6 3 7 4 8 81 9 5 10 6 11 80 12 2 13 1 14
REMARK SMILES IDX 82 15 83 16 84 18 85 19 86 20 87 21 88 22 89 23 90 24 95 25
REMARK SMILES IDX 91 26 94 27 92 28 93 29 12 30 13 31 14 32 15 33 16 35 17 36
REMARK SMILES IDX 18 37 79 38 19 39 78 40 20 41 21 42 22 43 72 44 23 45 77 46
REMARK SMILES IDX 71 47 73 48 24 49 76 50 70 51 69 52 25 54 57 55 37 56 56 57
REMARK SMILES IDX 38 58 41 59 55 60 74 61 39 62 40 63 54 65 75 66 42 67 26 68
REMARK SMILES IDX 27 69 35 70 28 71 30 72 36 73 29 74 31 75 32 76 33 77 34 78
REMARK SMILES IDX 58 79 59 80 67 81 60 82 62 83 68 84 61 85 63 86 64 87 65 88
REMARK SMILES IDX 66 89 43 90 44 91 52 92 45 93 47 94 53 95 46 96 48 97 49 98
REMARK SMILES IDX 50 99 51 100
REMARK H PARENT 10 5 82 17 14 34 73 53 41 64
REMARK Flexibility Score: inf
ROOT
ATOM      1  C   UNL A   1      32.776  31.033  27.223  1.00  0.00     0.118 C 
ENDROOT
BRANCH   1   2
ATOM      2  N   UNL A   1      33.862  30.072  27.125  1.00  0.00    -0.352 N 
ATOM      3  C   UNL A   1      34.023  28.823  26.576  1.00  0.00     0.251 C 
ATOM      4  O   UNL A   1      35.186  28.406  26.536  1.00  0.00    -0.269 OA
ATOM      5  H   UNL A   1      34.684  30.395  27.560  1.00  0.00     0.163 HD
BRANCH   3   6
ATOM      6  C   UNL A   1      32.952  27.936  26.006  1.00  0.00     0.043 A 
ATOM      7  C   UNL A   1      30.996  26.347  24.715  1.00  0.00     0.160 A 
ATOM      8  C   UNL A   1      31.506  27.495  24.091  1.00  0.00     0.086 A 
ATOM      9  C   UNL A   1      31.413  26.001  26.018  1.00  0.00     0.086 A 
ATOM     10  Cl  UNL A   1      30.927  28.059  22.564  1.00  0.00    -0.080 Cl
ATOM     11  C   UNL A   1      32.471  28.275  24.734  1.00  0.00     0.038 A 
ATOM     12  C   UNL A   1      32.433  26.784  26.610  1.00  0.00     0.044 A 
BRANCH   7  13
ATOM     13  O   UNL A   1      29.960  25.614  24.174  1.00  0.00    -0.493 OA
ATOM     14  C   UNL A   1      30.415  24.631  23.243  1.00  0.00     0.278 C 
ENDBRANCH   7  13
BRANCH   9  15
ATOM     15  N   UNL A   1      30.698  24.917  26.636  1.00  0.00    -0.319 N 
ATOM     16  C   UNL A   1      30.905  23.550  26.814  1.00  0.00     0.268 C 
ATOM     17  H   UNL A   1      29.848  25.216  27.035  1.00  0.00     0.170 HD
ATOM     18  O   UNL A   1      30.082  22.932  27.496  1.00  0.00    -0.270 OA
BRANCH  16  19
ATOM     19  C   UNL A   1      32.163  22.846  26.219  1.00  0.00     0.181 C 
ATOM     20  C   UNL A   1      33.068  22.797  27.464  1.00  0.00     0.067 C 
ATOM     21  C   UNL A   1      31.522  21.645  25.485  1.00  0.00     0.067 C 
BRANCH  19  22
ATOM     22  O   UNL A   1      32.968  23.525  25.214  1.00  0.00    -0.478 OA
BRANCH  22  23
ATOM     23  C   UNL A   1      34.332  23.255  25.220  1.00  0.00     0.120 A 
ATOM     24  C   UNL A   1      34.757  21.999  24.778  1.00  0.00     0.047 A 
ATOM     25  C   UNL A   1      35.290  24.114  25.777  1.00  0.00     0.047 A 
ATOM     26  C   UNL A   1      36.103  21.611  24.909  1.00  0.00     0.019 A 
ATOM     27  C   UNL A   1      36.636  23.749  25.878  1.00  0.00     0.019 A 
ATOM     28  C   UNL A   1      37.029  22.478  25.485  1.00  0.00     0.018 A 
ATOM     29  Br  UNL A   1      38.786  21.894  25.871  1.00  0.00    -0.051 Br
ENDBRANCH  22  23
ENDBRANCH  19  22
ENDBRANCH  16  19
ENDBRANCH   9  15
ENDBRANCH   3   6
ENDBRANCH   1   2
BRANCH   1  30
ATOM     30  C   UNL A   1      33.138  32.266  28.048  1.00  0.00     0.042 C 
BRANCH  30  31
ATOM     31  C   UNL A   1      33.175  33.570  27.264  1.00  0.00     0.118 C 
BRANCH  31  32
ATOM     32  N   UNL A   1      32.733  34.700  28.073  1.00  0.00    -0.352 N 
ATOM     33  C   UNL A   1      33.098  35.122  29.329  1.00  0.00     0.251 C 
ATOM     34  H   UNL A   1      32.051  35.263  27.641  1.00  0.00     0.163 HD
ATOM     35  O   UNL A   1      32.476  36.051  29.839  1.00  0.00    -0.269 OA
BRANCH  33  36
ATOM     36  C   UNL A   1      34.224  34.511  30.074  1.00  0.00     0.039 A 
ATOM     37  C   UNL A   1      35.519  34.567  29.534  1.00  0.00     0.014 A 
ATOM     38  C   UNL A   1      33.995  33.765  31.230  1.00  0.00     0.014 A 
ATOM     39  C   UNL A   1      36.579  33.903  30.162  1.00  0.00     0.010 A 
ATOM     40  C   UNL A   1      35.057  33.161  31.893  1.00  0.00     0.010 A 
ATOM     41  C   UNL A   1      36.349  33.191  31.347  1.00  0.00    -0.014 A 
BRANCH  41  42
ATOM     42  C   UNL A   1      37.388  32.350  31.989  1.00  0.00     0.031 A 
ATOM     43  C   UNL A   1      37.930  32.787  33.325  1.00  0.00     0.074 A 
ATOM     44  C   UNL A   1      37.928  31.310  31.327  1.00  0.00     0.049 A 
ATOM     45  N   UNL A   1      38.996  32.385  33.962  1.00  0.00    -0.248 NA
ATOM     46  C   UNL A   1      37.189  33.860  34.014  1.00  0.00     0.031 C 
ATOM     47  C   UNL A   1      37.499  30.830  30.013  1.00  0.00     0.029 A 
ATOM     48  N   UNL A   1      38.993  30.506  31.645  1.00  0.00    -0.354 N 
ATOM     49  C   UNL A   1      39.095  33.202  35.085  1.00  0.00     0.074 A 
ATOM     50  C   UNL A   1      37.983  34.125  35.040  1.00  0.00     0.031 C 
ATOM     51  C   UNL A   1      38.315  29.838  29.620  1.00  0.00     0.029 A 
ATOM     52  C   UNL A   1      39.344  29.637  30.635  1.00  0.00     0.049 A 
ATOM     53  H   UNL A   1      39.461  30.546  32.509  1.00  0.00     0.167 HD
ATOM     54  C   UNL A   1      40.025  33.173  36.068  1.00  0.00     0.034 A 
ATOM     55  C   UNL A   1      40.395  28.800  30.535  1.00  0.00     0.034 A 
ATOM     56  C   UNL A   1      41.084  32.204  36.122  1.00  0.00     0.049 A 
ATOM     57  C   UNL A   1      41.369  28.731  31.683  1.00  0.00     0.074 A 
ATOM     58  C   UNL A   1      42.040  32.023  37.105  1.00  0.00     0.029 A 
ATOM     59  N   UNL A   1      41.317  31.241  35.151  1.00  0.00    -0.354 N 
ATOM     60  N   UNL A   1      41.389  29.436  32.790  1.00  0.00    -0.248 NA
ATOM     61  C   UNL A   1      42.442  27.733  31.589  1.00  0.00     0.031 C 
ATOM     62  C   UNL A   1      42.858  30.954  36.722  1.00  0.00     0.029 A 
ATOM     63  C   UNL A   1      42.397  30.458  35.511  1.00  0.00     0.049 A 
ATOM     64  H   UNL A   1      40.791  31.133  34.326  1.00  0.00     0.167 HD
ATOM     65  C   UNL A   1      42.451  28.944  33.538  1.00  0.00     0.074 A 
ATOM     66  C   UNL A   1      43.038  27.867  32.767  1.00  0.00     0.031 C 
ATOM     67  C   UNL A   1      42.914  29.352  34.746  1.00  0.00     0.034 A 
BRANCH  54  68
ATOM     68  C   UNL A   1      39.915  34.189  37.176  1.00  0.00     0.023 A 
ATOM     69  C   UNL A   1      40.361  35.509  36.963  1.00  0.00     0.012 A 
ATOM     70  C   UNL A   1      39.327  33.853  38.414  1.00  0.00     0.148 A 
ATOM     71  C   UNL A   1      40.260  36.467  37.972  1.00  0.00     0.002 A 
ATOM     72  C   UNL A   1      39.189  34.825  39.399  1.00  0.00     0.091 A 
ATOM     73  F   UNL A   1      38.923  32.589  38.606  1.00  0.00    -0.205 F 
ATOM     74  C   UNL A   1      39.666  36.128  39.184  1.00  0.00     0.022 A 
BRANCH  72  75
ATOM     75  S   UNL A   1      38.375  34.513  40.970  1.00  0.00     0.127 S 
ATOM     76  O   UNL A   1      39.439  33.854  41.728  1.00  0.00    -0.237 OA
ATOM     77  O   UNL A   1      38.054  35.866  41.422  1.00  0.00    -0.237 OA
ATOM     78  O   UNL A   1      37.220  33.679  40.669  1.00  0.00    -0.744 OA
ENDBRANCH  72  75
ENDBRANCH  54  68
BRANCH  55  79
ATOM     79  C   UNL A   1      40.549  27.929  29.334  1.00  0.00     0.023 A 
ATOM     80  C   UNL A   1      39.751  26.774  29.211  1.00  0.00     0.012 A 
ATOM     81  C   UNL A   1      41.444  28.252  28.294  1.00  0.00     0.148 A 
ATOM     82  C   UNL A   1      39.862  25.943  28.095  1.00  0.00     0.002 A 
ATOM     83  C   UNL A   1      41.509  27.452  27.159  1.00  0.00     0.091 A 
ATOM     84  F   UNL A   1      42.210  29.344  28.431  1.00  0.00    -0.205 F 
ATOM     85  C   UNL A   1      40.731  26.287  27.063  1.00  0.00     0.022 A 
BRANCH  83  86
ATOM     86  S   UNL A   1      42.498  27.903  25.726  1.00  0.00     0.127 S 
ATOM     87  O   UNL A   1      43.827  28.045  26.310  1.00  0.00    -0.237 OA
ATOM     88  O   UNL A   1      42.326  26.742  24.854  1.00  0.00    -0.237 OA
ATOM     89  O   UNL A   1      41.891  29.127  25.212  1.00  0.00    -0.744 OA
ENDBRANCH  83  86
ENDBRANCH  55  79
BRANCH  67  90
ATOM     90  C   UNL A   1      44.082  28.607  35.330  1.00  0.00     0.023 A 
ATOM     91  C   UNL A   1      45.394  28.966  34.966  1.00  0.00     0.012 A 
ATOM     92  C   UNL A   1      43.877  27.615  36.307  1.00  0.00     0.148 A 
ATOM     93  C   UNL A   1      46.487  28.329  35.550  1.00  0.00     0.002 A 
ATOM     94  C   UNL A   1      44.971  27.017  36.920  1.00  0.00     0.091 A 
ATOM     95  F   UNL A   1      42.619  27.277  36.622  1.00  0.00    -0.205 F 
ATOM     96  C   UNL A   1      46.277  27.366  36.535  1.00  0.00     0.022 A 
BRANCH  94  97
ATOM     97  S   UNL A   1      44.792  25.842  38.265  1.00  0.00     0.127 S 
ATOM     98  O   UNL A   1      46.169  25.725  38.742  1.00  0.00    -0.237 OA
ATOM     99  O   UNL A   1      43.887  26.545  39.176  1.00  0.00    -0.237 OA
ATOM    100  O   UNL A   1      44.229  24.637  37.670  1.00  0.00    -0.744 OA
ENDBRANCH  94  97
ENDBRANCH  67  90
ENDBRANCH  41  42
ENDBRANCH  33  36
ENDBRANCH  31  32
ENDBRANCH  30  31
ENDBRANCH   1  30
TORSDOF 18
ENDMDL
MODEL 2
REMARK VINA RESULT:     -11.7      0.903      7.630
REMARK SMILES COc1c(Cl)cc(C(=O)NCCCNC(=O)c2ccc(-c3c4nc(c(-c5cccc(S(=O)(=O)[O-])c5F)c5ccc([nH]5)c(-c5cccc(S(=O)(=O)[O-])c5F)c5nc(c(-c6cccc(S(=O)(=O)[O-])c6F)c6ccc3[nH]6)C=C5)C=C4)cc2)cc1NC(=O)C(C)(C)Oc1ccc(Br)cc1
REMARK SMILES IDX 11 1 10 2 8 3 9 4 7 6 3 7 4 8 81 9 5 10 6 11 80 12 2 13 1 14
REMARK SMILES IDX 82 15 83 16 84 18 85 19 86 20 87 21 88 22 89 23 90 24 95 25
REMARK SMILES IDX 91 26 94 27 92 28 93 29 12 30 13 31 14 32 15 33 16 35 17 36
REMARK SMILES IDX 18 37 79 38 19 39 78 40 20 41 21 42 22 43 72 44 23 45 77 46
REMARK SMILES IDX 71 47 73 48 24 49 76 50 70 51 69 52 25 54 57 55 37 56 56 57
REMARK SMILES IDX 38 58 41 59 55 60 74 61 39 62 40 63 54 65 75 66 42 67 26 68
REMARK SMILES IDX 27 69 35 70 28 71 30 72 36 73 29 74 31 75 32 76 33 77 34 78
REMARK SMILES IDX 58 79 59 80 67 81 60 82 62 83 68 84 61 85 63 86 64 87 65 88
REMARK SMILES IDX 66 89 43 90 44 91 52 92 45 93 47 94 53 95 46 96 48 97 49 98
REMARK SMILES IDX 50 99 51 100
REMARK H PARENT 10 5 82 17 14 34 73 53 41 64
REMARK Flexibility Score: inf
ROOT
ATOM      1  C   UNL A   1      32.784  30.885  27.158  1.00  0.00     0.118 C 
ENDROOT
BRANCH   1   2
ATOM      2  N   UNL A   1      33.908  30.015  27.460  1.00  0.00    -0.352 N 
ATOM      3  C   UNL A   1      34.425  28.857  26.932  1.00  0.00     0.251 C 
ATOM      4  O   UNL A   1      35.533  28.524  27.365  1.00  0.00    -0.269 OA
ATOM      5  H   UNL A   1      34.427  30.334  28.234  1.00  0.00     0.163 HD
BRANCH   3   6
ATOM      6  C   UNL A   1      33.802  27.980  25.883  1.00  0.00     0.043 A 
ATOM      7  C   UNL A   1      32.793  26.413  23.750  1.00  0.00     0.160 A 
ATOM      8  C   UNL A   1      33.544  27.569  23.491  1.00  0.00     0.086 A 
ATOM      9  C   UNL A   1      32.486  26.048  25.078  1.00  0.00     0.086 A 
ATOM     10  Cl  UNL A   1      33.826  28.157  21.891  1.00  0.00    -0.080 Cl
ATOM     11  C   UNL A   1      34.039  28.338  24.548  1.00  0.00     0.038 A 
ATOM     12  C   UNL A   1      33.054  26.820  26.120  1.00  0.00     0.044 A 
BRANCH   7  13
ATOM     13  O   UNL A   1      32.185  25.691  22.745  1.00  0.00    -0.493 OA
ATOM     14  C   UNL A   1      33.103  24.846  22.048  1.00  0.00     0.278 C 
ENDBRANCH   7  13
BRANCH   9  15
ATOM     15  N   UNL A   1      31.561  24.957  25.228  1.00  0.00    -0.319 N 
ATOM     16  C   UNL A   1      31.656  23.578  25.408  1.00  0.00     0.268 C 
ATOM     17  H   UNL A   1      30.624  25.261  25.196  1.00  0.00     0.170 HD
ATOM     18  O   UNL A   1      30.608  22.952  25.588  1.00  0.00    -0.270 OA
BRANCH  16  19
ATOM     19  C   UNL A   1      33.045  22.867  25.437  1.00  0.00     0.181 C 
ATOM     20  C   UNL A   1      33.314  22.847  26.953  1.00  0.00     0.067 C 
ATOM     21  C   UNL A   1      32.784  21.650  24.520  1.00  0.00     0.067 C 
BRANCH  19  22
ATOM     22  O   UNL A   1      34.212  23.531  24.873  1.00  0.00    -0.478 OA
BRANCH  22  23
ATOM     23  C   UNL A   1      35.455  23.095  25.320  1.00  0.00     0.120 A 
ATOM     24  C   UNL A   1      36.342  24.046  25.830  1.00  0.00     0.047 A 
ATOM     25  C   UNL A   1      35.920  21.782  25.156  1.00  0.00     0.047 A 
ATOM     26  C   UNL A   1      37.665  23.692  26.148  1.00  0.00     0.019 A 
ATOM     27  C   UNL A   1      37.224  21.416  25.504  1.00  0.00     0.019 A 
ATOM     28  C   UNL A   1      38.107  22.385  25.957  1.00  0.00     0.018 A 
ATOM     29  Br  UNL A   1      39.934  21.944  26.168  1.00  0.00    -0.051 Br
ENDBRANCH  22  23
ENDBRANCH  19  22
ENDBRANCH  16  19
ENDBRANCH   9  15
ENDBRANCH   3   6
ENDBRANCH   1   2
BRANCH   1  30
ATOM     30  C   UNL A   1      32.788  32.177  27.973  1.00  0.00     0.042 C 
BRANCH  30  31
ATOM     31  C   UNL A   1      32.722  33.453  27.147  1.00  0.00     0.118 C 
BRANCH  31  32
ATOM     32  N   UNL A   1      32.554  34.633  27.988  1.00  0.00    -0.352 N 
ATOM     33  C   UNL A   1      33.186  35.029  29.142  1.00  0.00     0.251 C 
ATOM     34  H   UNL A   1      31.865  35.259  27.670  1.00  0.00     0.163 HD
ATOM     35  O   UNL A   1      32.765  36.024  29.727  1.00  0.00    -0.269 OA
BRANCH  33  36
ATOM     36  C   UNL A   1      34.362  34.312  29.688  1.00  0.00     0.039 A 
ATOM     37  C   UNL A   1      34.215  33.529  30.845  1.00  0.00     0.014 A 
ATOM     38  C   UNL A   1      35.633  34.511  29.153  1.00  0.00     0.014 A 
ATOM     39  C   UNL A   1      35.330  32.932  31.444  1.00  0.00     0.010 A 
ATOM     40  C   UNL A   1      36.733  33.866  29.706  1.00  0.00     0.010 A 
ATOM     41  C   UNL A   1      36.599  33.102  30.876  1.00  0.00    -0.014 A 
BRANCH  41  42
ATOM     42  C   UNL A   1      37.840  32.620  31.530  1.00  0.00     0.031 A 
ATOM     43  C   UNL A   1      38.597  31.495  30.874  1.00  0.00     0.074 A 
ATOM     44  C   UNL A   1      38.193  33.080  32.744  1.00  0.00     0.049 A 
ATOM     45  N   UNL A   1      39.541  30.735  31.358  1.00  0.00    -0.248 NA
ATOM     46  C   UNL A   1      38.198  31.152  29.496  1.00  0.00     0.031 C 
ATOM     47  C   UNL A   1      37.503  34.141  33.479  1.00  0.00     0.029 A 
ATOM     48  N   UNL A   1      39.185  32.671  33.599  1.00  0.00    -0.354 N 
ATOM     49  C   UNL A   1      39.798  29.782  30.377  1.00  0.00     0.074 A 
ATOM     50  C   UNL A   1      38.907  30.056  29.272  1.00  0.00     0.031 C 
ATOM     51  C   UNL A   1      38.071  34.277  34.689  1.00  0.00     0.029 A 
ATOM     52  C   UNL A   1      39.138  33.290  34.828  1.00  0.00     0.049 A 
ATOM     53  H   UNL A   1      39.864  32.002  33.357  1.00  0.00     0.167 HD
ATOM     54  C   UNL A   1      40.705  28.776  30.395  1.00  0.00     0.034 A 
ATOM     55  C   UNL A   1      39.856  33.060  35.946  1.00  0.00     0.034 A 
ATOM     56  C   UNL A   1      41.623  28.564  31.480  1.00  0.00     0.049 A 
ATOM     57  C   UNL A   1      40.915  31.989  35.910  1.00  0.00     0.074 A 
ATOM     58  C   UNL A   1      42.638  27.630  31.582  1.00  0.00     0.029 A 
ATOM     59  N   UNL A   1      41.641  29.310  32.650  1.00  0.00    -0.354 N 
ATOM     60  N   UNL A   1      41.220  31.164  34.935  1.00  0.00    -0.248 NA
ATOM     61  C   UNL A   1      41.752  31.836  37.107  1.00  0.00     0.031 C 
ATOM     62  C   UNL A   1      43.264  27.807  32.821  1.00  0.00     0.029 A 
ATOM     63  C   UNL A   1      42.653  28.864  33.479  1.00  0.00     0.049 A 
ATOM     64  H   UNL A   1      41.024  30.048  32.859  1.00  0.00     0.167 HD
ATOM     65  C   UNL A   1      42.303  30.421  35.387  1.00  0.00     0.074 A 
ATOM     66  C   UNL A   1      42.614  30.907  36.716  1.00  0.00     0.031 C 
ATOM     67  C   UNL A   1      42.973  29.415  34.771  1.00  0.00     0.034 A 
BRANCH  54  68
ATOM     68  C   UNL A   1      40.772  27.862  29.199  1.00  0.00     0.023 A 
ATOM     69  C   UNL A   1      39.932  26.731  29.134  1.00  0.00     0.012 A 
ATOM     70  C   UNL A   1      41.632  28.144  28.117  1.00  0.00     0.148 A 
ATOM     71  C   UNL A   1      39.971  25.877  28.032  1.00  0.00     0.002 A 
ATOM     72  C   UNL A   1      41.634  27.312  27.003  1.00  0.00     0.091 A 
ATOM     73  F   UNL A   1      42.436  29.213  28.203  1.00  0.00    -0.205 F 
ATOM     74  C   UNL A   1      40.814  26.172  26.964  1.00  0.00     0.022 A 
BRANCH  72  75
ATOM     75  S   UNL A   1      42.629  27.639  25.543  1.00  0.00     0.127 S 
ATOM     76  O   UNL A   1      43.962  27.800  26.123  1.00  0.00    -0.237 OA
ATOM     77  O   UNL A   1      42.446  26.412  24.767  1.00  0.00    -0.237 OA
ATOM     78  O   UNL A   1      42.069  28.837  24.932  1.00  0.00    -0.744 OA
ENDBRANCH  72  75
ENDBRANCH  54  68
BRANCH  55  79
ATOM     79  C   UNL A   1      39.634  33.891  37.164  1.00  0.00     0.023 A 
ATOM     80  C   UNL A   1      40.074  35.229  37.178  1.00  0.00     0.012 A 
ATOM     81  C   UNL A   1      38.957  33.385  38.292  1.00  0.00     0.148 A 
ATOM     82  C   UNL A   1      39.872  36.038  38.298  1.00  0.00     0.002 A 
ATOM     83  C   UNL A   1      38.709  34.211  39.383  1.00  0.00     0.091 A 
ATOM     84  F   UNL A   1      38.560  32.105  38.274  1.00  0.00    -0.205 F 
ATOM     85  C   UNL A   1      39.179  35.533  39.396  1.00  0.00     0.022 A 
BRANCH  83  86
ATOM     86  S   UNL A   1      37.702  33.680  40.775  1.00  0.00     0.127 S 
ATOM     87  O   UNL A   1      37.449  34.942  41.462  1.00  0.00    -0.237 OA
ATOM     88  O   UNL A   1      36.539  33.094  40.109  1.00  0.00    -0.237 OA
ATOM     89  O   UNL A   1      38.524  32.713  41.496  1.00  0.00    -0.744 OA
ENDBRANCH  83  86
ENDBRANCH  55  79
BRANCH  67  90
ATOM     90  C   UNL A   1      44.134  28.804  35.503  1.00  0.00     0.023 A 
ATOM     91  C   UNL A   1      45.426  29.339  35.339  1.00  0.00     0.012 A 
ATOM     92  C   UNL A   1      43.926  27.758  36.424  1.00  0.00     0.148 A 
ATOM     93  C   UNL A   1      46.500  28.825  36.062  1.00  0.00     0.002 A 
ATOM     94  C   UNL A   1      44.992  27.283  37.176  1.00  0.00     0.091 A 
ATOM     95  F   UNL A   1      42.691  27.252  36.548  1.00  0.00    -0.205 F 
ATOM     96  C   UNL A   1      46.282  27.808  36.989  1.00  0.00     0.022 A 
BRANCH  94  97
ATOM     97  S   UNL A   1      44.781  26.046  38.460  1.00  0.00     0.127 S 
ATOM     98  O   UNL A   1      44.151  24.954  37.720  1.00  0.00    -0.237 OA
ATOM     99  O   UNL A   1      46.161  25.787  38.875  1.00  0.00    -0.237 OA
ATOM    100  O   UNL A   1      43.953  26.671  39.483  1.00  0.00    -0.744 OA
ENDBRANCH  94  97
ENDBRANCH  67  90
ENDBRANCH  41  42
ENDBRANCH  33  36
ENDBRANCH  31  32
ENDBRANCH  30  31
ENDBRANCH   1  30
TORSDOF 18
ENDMDL
MODEL 3
REMARK VINA RESULT:     -11.7      5.896     11.732
REMARK SMILES COc1c(Cl)cc(C(=O)NCCCNC(=O)c2ccc(-c3c4nc(c(-c5cccc(S(=O)(=O)[O-])c5F)c5ccc([nH]5)c(-c5cccc(S(=O)(=O)[O-])c5F)c5nc(c(-c6cccc(S(=O)(=O)[O-])c6F)c6ccc3[nH]6)C=C5)C=C4)cc2)cc1NC(=O)C(C)(C)Oc1ccc(Br)cc1
REMARK SMILES IDX 11 1 10 2 8 3 9 4 7 6 3 7 4 8 81 9 5 10 6 11 80 12 2 13 1 14
REMARK SMILES IDX 82 15 83 16 84 18 85 19 86 20 87 21 88 22 89 23 90 24 95 25
REMARK SMILES IDX 91 26 94 27 92 28 93 29 12 30 13 31 14 32 15 33 16 35 17 36
REMARK SMILES IDX 18 37 79 38 19 39 78 40 20 41 21 42 22 43 72 44 23 45 77 46
REMARK SMILES IDX 71 47 73 48 24 49 76 50 70 51 69 52 25 54 57 55 37 56 56 57
REMARK SMILES IDX 38 58 41 59 55 60 74 61 39 62 40 63 54 65 75 66 42 67 26 68
REMARK SMILES IDX 27 69 35 70 28 71 30 72 36 73 29 74 31 75 32 76 33 77 34 78
REMARK SMILES IDX 58 79 59 80 67 81 60 82 62 83 68 84 61 85 63 86 64 87 65 88
REMARK SMILES IDX 66 89 43 90 44 91 52 92 45 93 47 94 53 95 46 96 48 97 49 98
REMARK SMILES IDX 50 99 51 100
REMARK H PARENT 10 5 82 17 14 34 73 53 41 64
REMARK Flexibility Score: inf
ROOT
ATOM      1  C   UNL A   1      37.445  21.179  24.480  1.00  0.00     0.118 C 
ENDROOT
BRANCH   1   2
ATOM      2  N   UNL A   1      37.748  22.452  25.113  1.00  0.00    -0.352 N 
ATOM      3  C   UNL A   1      37.014  23.497  25.620  1.00  0.00     0.251 C 
ATOM      4  O   UNL A   1      37.656  24.334  26.263  1.00  0.00    -0.269 OA
ATOM      5  H   UNL A   1      38.717  22.603  25.200  1.00  0.00     0.163 HD
BRANCH   3   6
ATOM      6  C   UNL A   1      35.532  23.712  25.494  1.00  0.00     0.043 A 
ATOM      7  C   UNL A   1      32.725  24.083  25.496  1.00  0.00     0.160 A 
ATOM      8  C   UNL A   1      33.351  23.382  26.536  1.00  0.00     0.086 A 
ATOM      9  C   UNL A   1      33.482  24.566  24.407  1.00  0.00     0.086 A 
ATOM     10  Cl  UNL A   1      32.466  22.634  27.818  1.00  0.00    -0.080 Cl
ATOM     11  C   UNL A   1      34.737  23.202  26.529  1.00  0.00     0.038 A 
ATOM     12  C   UNL A   1      34.889  24.413  24.467  1.00  0.00     0.044 A 
BRANCH   7  13
ATOM     13  O   UNL A   1      31.353  24.184  25.397  1.00  0.00    -0.493 OA
ATOM     14  C   UNL A   1      30.684  23.016  25.877  1.00  0.00     0.278 C 
ENDBRANCH   7  13
BRANCH   9  15
ATOM     15  N   UNL A   1      32.726  25.106  23.309  1.00  0.00    -0.319 N 
ATOM     16  C   UNL A   1      32.147  26.335  22.999  1.00  0.00     0.268 C 
ATOM     17  H   UNL A   1      32.581  24.440  22.599  1.00  0.00     0.170 HD
ATOM     18  O   UNL A   1      31.629  26.458  21.884  1.00  0.00    -0.270 OA
BRANCH  16  19
ATOM     19  C   UNL A   1      32.206  27.527  24.004  1.00  0.00     0.181 C 
ATOM     20  C   UNL A   1      33.126  28.494  23.234  1.00  0.00     0.067 C 
ATOM     21  C   UNL A   1      30.708  27.726  24.330  1.00  0.00     0.067 C 
BRANCH  19  22
ATOM     22  O   UNL A   1      32.861  27.357  25.293  1.00  0.00    -0.478 OA
BRANCH  22  23
ATOM     23  C   UNL A   1      33.271  28.516  25.943  1.00  0.00     0.120 A 
ATOM     24  C   UNL A   1      34.553  28.542  26.498  1.00  0.00     0.047 A 
ATOM     25  C   UNL A   1      32.424  29.605  26.195  1.00  0.00     0.047 A 
ATOM     26  C   UNL A   1      34.965  29.621  27.301  1.00  0.00     0.019 A 
ATOM     27  C   UNL A   1      32.839  30.698  26.963  1.00  0.00     0.019 A 
ATOM     28  C   UNL A   1      34.095  30.679  27.551  1.00  0.00     0.018 A 
ATOM     29  Br  UNL A   1      34.548  32.024  28.802  1.00  0.00    -0.051 Br
ENDBRANCH  22  23
ENDBRANCH  19  22
ENDBRANCH  16  19
ENDBRANCH   9  15
ENDBRANCH   3   6
ENDBRANCH   1   2
BRANCH   1  30
ATOM     30  C   UNL A   1      38.233  20.012  25.072  1.00  0.00     0.042 C 
BRANCH  30  31
ATOM     31  C   UNL A   1      39.340  20.413  26.036  1.00  0.00     0.118 C 
BRANCH  31  32
ATOM     32  N   UNL A   1      40.450  19.466  26.008  1.00  0.00    -0.352 N 
ATOM     33  C   UNL A   1      41.811  19.655  26.011  1.00  0.00     0.251 C 
ATOM     34  H   UNL A   1      40.173  18.522  25.985  1.00  0.00     0.163 HD
ATOM     35  O   UNL A   1      42.538  18.676  25.858  1.00  0.00    -0.269 OA
BRANCH  33  36
ATOM     36  C   UNL A   1      42.426  20.988  26.210  1.00  0.00     0.039 A 
ATOM     37  C   UNL A   1      42.692  21.436  27.515  1.00  0.00     0.014 A 
ATOM     38  C   UNL A   1      42.617  21.856  25.136  1.00  0.00     0.014 A 
ATOM     39  C   UNL A   1      43.169  22.733  27.736  1.00  0.00     0.010 A 
ATOM     40  C   UNL A   1      43.154  23.121  25.347  1.00  0.00     0.010 A 
ATOM     41  C   UNL A   1      43.400  23.584  26.648  1.00  0.00    -0.014 A 
BRANCH  41  42
ATOM     42  C   UNL A   1      43.767  25.011  26.813  1.00  0.00     0.031 A 
ATOM     43  C   UNL A   1      45.207  25.403  26.599  1.00  0.00     0.074 A 
ATOM     44  C   UNL A   1      42.869  25.898  27.279  1.00  0.00     0.049 A 
ATOM     45  N   UNL A   1      45.826  26.505  26.924  1.00  0.00    -0.248 NA
ATOM     46  C   UNL A   1      46.076  24.388  25.975  1.00  0.00     0.031 C 
ATOM     47  C   UNL A   1      41.460  25.608  27.553  1.00  0.00     0.029 A 
ATOM     48  N   UNL A   1      43.021  27.207  27.661  1.00  0.00    -0.354 N 
ATOM     49  C   UNL A   1      47.165  26.291  26.612  1.00  0.00     0.074 A 
ATOM     50  C   UNL A   1      47.270  24.953  26.077  1.00  0.00     0.031 C 
ATOM     51  C   UNL A   1      40.886  26.696  28.091  1.00  0.00     0.029 A 
ATOM     52  C   UNL A   1      41.891  27.745  28.234  1.00  0.00     0.049 A 
ATOM     53  H   UNL A   1      43.857  27.711  27.537  1.00  0.00     0.167 HD
ATOM     54  C   UNL A   1      48.209  27.142  26.751  1.00  0.00     0.034 A 
ATOM     55  C   UNL A   1      41.704  28.938  28.833  1.00  0.00     0.034 A 
ATOM     56  C   UNL A   1      48.068  28.490  27.227  1.00  0.00     0.049 A 
ATOM     57  C   UNL A   1      42.864  29.897  28.899  1.00  0.00     0.074 A 
ATOM     58  C   UNL A   1      49.035  29.472  27.338  1.00  0.00     0.029 A 
ATOM     59  N   UNL A   1      46.874  29.048  27.660  1.00  0.00    -0.354 N 
ATOM     60  N   UNL A   1      44.103  29.720  28.501  1.00  0.00    -0.248 NA
ATOM     61  C   UNL A   1      42.600  31.228  29.461  1.00  0.00     0.031 C 
ATOM     62  C   UNL A   1      48.425  30.624  27.849  1.00  0.00     0.029 A 
ATOM     63  C   UNL A   1      47.075  30.363  28.034  1.00  0.00     0.049 A 
ATOM     64  H   UNL A   1      46.010  28.577  27.696  1.00  0.00     0.167 HD
ATOM     65  C   UNL A   1      44.755  30.926  28.731  1.00  0.00     0.074 A 
ATOM     66  C   UNL A   1      43.768  31.831  29.285  1.00  0.00     0.031 C 
ATOM     67  C   UNL A   1      46.053  31.254  28.523  1.00  0.00     0.034 A 
BRANCH  54  68
ATOM     68  C   UNL A   1      49.578  26.655  26.350  1.00  0.00     0.023 A 
ATOM     69  C   UNL A   1      50.258  25.728  27.166  1.00  0.00     0.012 A 
ATOM     70  C   UNL A   1      50.173  27.075  25.142  1.00  0.00     0.148 A 
ATOM     71  C   UNL A   1      51.522  25.257  26.809  1.00  0.00     0.002 A 
ATOM     72  C   UNL A   1      51.413  26.568  24.771  1.00  0.00     0.091 A 
ATOM     73  F   UNL A   1      49.520  27.970  24.386  1.00  0.00    -0.205 F 
ATOM     74  C   UNL A   1      52.094  25.669  25.609  1.00  0.00     0.022 A 
BRANCH  72  75
ATOM     75  S   UNL A   1      52.209  26.977  23.213  1.00  0.00     0.127 S 
ATOM     76  O   UNL A   1      51.113  26.788  22.263  1.00  0.00    -0.237 OA
ATOM     77  O   UNL A   1      52.598  28.371  23.425  1.00  0.00    -0.237 OA
ATOM     78  O   UNL A   1      53.321  26.048  23.070  1.00  0.00    -0.744 OA
ENDBRANCH  72  75
ENDBRANCH  54  68
BRANCH  55  79
ATOM     79  C   UNL A   1      40.360  29.308  29.365  1.00  0.00     0.023 A 
ATOM     80  C   UNL A   1      39.427  29.928  28.512  1.00  0.00     0.012 A 
ATOM     81  C   UNL A   1      39.983  29.016  30.691  1.00  0.00     0.148 A 
ATOM     82  C   UNL A   1      38.156  30.278  28.974  1.00  0.00     0.002 A 
ATOM     83  C   UNL A   1      38.697  29.315  31.130  1.00  0.00     0.091 A 
ATOM     84  F   UNL A   1      40.886  28.442  31.498  1.00  0.00    -0.205 F 
ATOM     85  C   UNL A   1      37.787  29.960  30.279  1.00  0.00     0.022 A 
BRANCH  83  86
ATOM     86  S   UNL A   1      38.098  28.811  32.749  1.00  0.00     0.127 S 
ATOM     87  O   UNL A   1      38.985  29.549  33.641  1.00  0.00    -0.237 OA
ATOM     88  O   UNL A   1      36.714  29.280  32.726  1.00  0.00    -0.237 OA
ATOM     89  O   UNL A   1      38.232  27.358  32.772  1.00  0.00    -0.744 OA
ENDBRANCH  83  86
ENDBRANCH  55  79
BRANCH  67  90
ATOM     90  C   UNL A   1      46.475  32.660  28.848  1.00  0.00     0.023 A 
ATOM     91  C   UNL A   1      46.955  32.966  30.136  1.00  0.00     0.012 A 
ATOM     92  C   UNL A   1      46.481  33.652  27.849  1.00  0.00     0.148 A 
ATOM     93  C   UNL A   1      47.412  34.249  30.432  1.00  0.00     0.002 A 
ATOM     94  C   UNL A   1      46.982  34.915  28.137  1.00  0.00     0.091 A 
ATOM     95  F   UNL A   1      46.001  33.342  26.636  1.00  0.00    -0.205 F 
ATOM     96  C   UNL A   1      47.438  35.218  29.431  1.00  0.00     0.022 A 
BRANCH  94  97
ATOM     97  S   UNL A   1      47.144  36.190  26.883  1.00  0.00     0.127 S 
ATOM     98  O   UNL A   1      47.773  37.271  27.640  1.00  0.00    -0.237 OA
ATOM     99  O   UNL A   1      48.014  35.549  25.897  1.00  0.00    -0.237 OA
ATOM    100  O   UNL A   1      45.793  36.457  26.410  1.00  0.00    -0.744 OA
ENDBRANCH  94  97
ENDBRANCH  67  90
ENDBRANCH  41  42
ENDBRANCH  33  36
ENDBRANCH  31  32
ENDBRANCH  30  31
ENDBRANCH   1  30
TORSDOF 18
ENDMDL
