MODEL 1
REMARK VINA RESULT:     -13.2      0.000      0.000
REMARK SMILES CCOc1ccc2[nH]c(C)c/c(=N\c3cccc(C(=O)NCCCNC(=O)c4ccc(-c5c6nc(c(-c7cccc(S(=O)(=O)[O-])c7F)c7ccc([nH]7)c(-c7cccc(S(=O)(=O)[O-])c7F)c7nc(c(-c8cccc(S(=O)(=O)[O-])c8F)c8ccc5[nH]8)C=C7)C=C6)cc4)c3)c2c1
REMARK SMILES IDX 23 1 22 2 21 3 19 4 20 5 18 7 14 8 15 9 91 10 16 11 17 12
REMARK SMILES IDX 13 13 4 14 5 15 93 16 6 17 92 18 7 19 12 20 8 21 11 22 9 23
REMARK SMILES IDX 10 25 3 26 2 27 1 28 24 29 25 30 26 31 27 33 28 34 29 35
REMARK SMILES IDX 90 36 30 37 89 38 31 39 32 40 33 41 83 42 34 43 88 44 82 45
REMARK SMILES IDX 84 46 35 47 87 48 81 49 80 50 36 52 68 53 48 54 67 55 49 56
REMARK SMILES IDX 52 57 66 58 85 59 50 60 51 61 65 63 86 64 53 65 37 66 38 67
REMARK SMILES IDX 46 68 39 69 41 70 47 71 40 72 42 73 43 74 44 75 45 76 69 77
REMARK SMILES IDX 70 78 78 79 71 80 73 81 79 82 72 83 74 84 75 85 76 86 77 87
REMARK SMILES IDX 54 88 55 89 63 90 56 91 58 92 64 93 57 94 59 95 60 96 61 97
REMARK SMILES IDX 62 98
REMARK H PARENT 21 6 8 24 25 32 84 51 52 62
REMARK Flexibility Score: inf
ROOT
ATOM      1  C   UNL A   1      33.003  28.624  24.494  1.00  0.00     0.042 C 
ENDROOT
BRANCH   1   2
ATOM      2  C   UNL A   1      31.895  28.997  23.521  1.00  0.00     0.118 C 
BRANCH   2   3
ATOM      3  N   UNL A   1      31.735  28.045  22.428  1.00  0.00    -0.352 N 
ATOM      4  C   UNL A   1      31.509  26.697  22.311  1.00  0.00     0.251 C 
ATOM      5  O   UNL A   1      31.397  26.270  21.157  1.00  0.00    -0.269 OA
ATOM      6  H   UNL A   1      31.810  28.482  21.549  1.00  0.00     0.163 HD
BRANCH   4   7
ATOM      7  C   UNL A   1      31.433  25.714  23.432  1.00  0.00     0.041 A 
ATOM      8  C   UNL A   1      31.894  23.572  24.488  1.00  0.00     0.064 A 
ATOM      9  C   UNL A   1      31.040  23.881  25.544  1.00  0.00     0.028 A 
ATOM     10  C   UNL A   1      32.165  24.536  23.516  1.00  0.00     0.042 A 
ATOM     11  C   UNL A   1      30.353  25.093  25.538  1.00  0.00     0.003 A 
ATOM     12  C   UNL A   1      30.522  25.983  24.471  1.00  0.00     0.014 A 
BRANCH   8  13
ATOM     13  N   UNL A   1      32.415  22.286  24.264  1.00  0.00    -0.248 NA
ATOM     14  C   UNL A   1      33.763  18.217  24.421  1.00  0.00     0.120 A 
ATOM     15  C   UNL A   1      35.124  17.993  24.626  1.00  0.00     0.048 A 
ATOM     16  C   UNL A   1      33.255  19.517  24.410  1.00  0.00     0.059 A 
ATOM     17  C   UNL A   1      35.974  19.061  24.906  1.00  0.00     0.030 A 
ATOM     18  C   UNL A   1      34.113  20.594  24.679  1.00  0.00     0.027 A 
ATOM     19  C   UNL A   1      35.475  20.363  24.958  1.00  0.00     0.048 A 
ATOM     20  C   UNL A   1      33.603  22.004  24.734  1.00  0.00     0.075 A 
ATOM     21  N   UNL A   1      36.320  21.421  25.312  1.00  0.00    -0.359 N 
ATOM     22  C   UNL A   1      34.545  22.998  25.362  1.00  0.00     0.050 A 
ATOM     23  C   UNL A   1      35.833  22.679  25.561  1.00  0.00     0.014 A 
ATOM     24  H   UNL A   1      37.288  21.258  25.383  1.00  0.00     0.166 HD
ATOM     25  C   UNL A   1      36.809  23.703  26.071  1.00  0.00     0.064 C 
BRANCH  14  26
ATOM     26  O   UNL A   1      32.925  17.176  24.130  1.00  0.00    -0.494 OA
BRANCH  26  27
ATOM     27  C   UNL A   1      33.423  15.905  24.582  1.00  0.00     0.226 C 
ATOM     28  C   UNL A   1      32.521  15.271  25.630  1.00  0.00     0.049 C 
ENDBRANCH  26  27
ENDBRANCH  14  26
ENDBRANCH   8  13
ENDBRANCH   4   7
ENDBRANCH   2   3
ENDBRANCH   1   2
BRANCH   1  29
ATOM     29  C   UNL A   1      32.640  28.849  25.954  1.00  0.00     0.118 C 
BRANCH  29  30
ATOM     30  N   UNL A   1      32.361  30.248  26.268  1.00  0.00    -0.352 N 
ATOM     31  C   UNL A   1      33.064  31.183  26.994  1.00  0.00     0.251 C 
ATOM     32  H   UNL A   1      31.515  30.583  25.892  1.00  0.00     0.163 HD
ATOM     33  O   UNL A   1      32.531  32.253  27.262  1.00  0.00    -0.269 OA
BRANCH  31  34
ATOM     34  C   UNL A   1      34.434  30.895  27.483  1.00  0.00     0.039 A 
ATOM     35  C   UNL A   1      34.873  29.588  27.656  1.00  0.00     0.014 A 
ATOM     36  C   UNL A   1      35.299  31.957  27.774  1.00  0.00     0.014 A 
ATOM     37  C   UNL A   1      36.057  29.342  28.340  1.00  0.00     0.010 A 
ATOM     38  C   UNL A   1      36.551  31.702  28.349  1.00  0.00     0.010 A 
ATOM     39  C   UNL A   1      36.912  30.395  28.706  1.00  0.00    -0.014 A 
BRANCH  39  40
ATOM     40  C   UNL A   1      38.148  30.084  29.479  1.00  0.00     0.031 A 
ATOM     41  C   UNL A   1      38.324  30.578  30.895  1.00  0.00     0.074 A 
ATOM     42  C   UNL A   1      39.079  29.272  28.935  1.00  0.00     0.049 A 
ATOM     43  N   UNL A   1      39.298  30.328  31.734  1.00  0.00    -0.248 NA
ATOM     44  C   UNL A   1      37.284  31.465  31.447  1.00  0.00     0.031 C 
ATOM     45  C   UNL A   1      39.039  28.737  27.570  1.00  0.00     0.029 A 
ATOM     46  N   UNL A   1      40.214  28.714  29.470  1.00  0.00    -0.354 N 
ATOM     47  C   UNL A   1      39.014  31.055  32.884  1.00  0.00     0.074 A 
ATOM     48  C   UNL A   1      37.778  31.763  32.642  1.00  0.00     0.031 C 
ATOM     49  C   UNL A   1      40.046  27.869  27.405  1.00  0.00     0.029 A 
ATOM     50  C   UNL A   1      40.844  27.829  28.626  1.00  0.00     0.049 A 
ATOM     51  H   UNL A   1      40.545  28.928  30.373  1.00  0.00     0.167 HD
ATOM     52  C   UNL A   1      39.701  31.105  34.047  1.00  0.00     0.034 A 
ATOM     53  C   UNL A   1      41.937  27.062  28.809  1.00  0.00     0.034 A 
ATOM     54  C   UNL A   1      40.884  30.340  34.325  1.00  0.00     0.049 A 
ATOM     55  C   UNL A   1      42.668  27.129  30.118  1.00  0.00     0.074 A 
ATOM     56  C   UNL A   1      41.620  30.298  35.497  1.00  0.00     0.029 A 
ATOM     57  N   UNL A   1      41.494  29.472  33.435  1.00  0.00    -0.354 N 
ATOM     58  N   UNL A   1      42.341  27.776  31.209  1.00  0.00    -0.248 NA
ATOM     59  C   UNL A   1      43.918  26.360  30.222  1.00  0.00     0.031 C 
ATOM     60  C   UNL A   1      42.674  29.400  35.317  1.00  0.00     0.029 A 
ATOM     61  C   UNL A   1      42.596  28.888  34.033  1.00  0.00     0.049 A 
ATOM     62  H   UNL A   1      41.190  29.298  32.516  1.00  0.00     0.167 HD
ATOM     63  C   UNL A   1      43.338  27.488  32.131  1.00  0.00     0.074 A 
ATOM     64  C   UNL A   1      44.268  26.588  31.483  1.00  0.00     0.031 C 
ATOM     65  C   UNL A   1      43.481  27.952  33.395  1.00  0.00     0.034 A 
BRANCH  52  66
ATOM     66  C   UNL A   1      39.168  31.965  35.161  1.00  0.00     0.023 A 
ATOM     67  C   UNL A   1      38.236  31.412  36.061  1.00  0.00     0.012 A 
ATOM     68  C   UNL A   1      39.693  33.248  35.401  1.00  0.00     0.148 A 
ATOM     69  C   UNL A   1      37.833  32.127  37.187  1.00  0.00     0.002 A 
ATOM     70  C   UNL A   1      39.306  33.945  36.539  1.00  0.00     0.091 A 
ATOM     71  F   UNL A   1      40.579  33.749  34.528  1.00  0.00    -0.205 F 
ATOM     72  C   UNL A   1      38.374  33.386  37.432  1.00  0.00     0.022 A 
BRANCH  70  73
ATOM     73  S   UNL A   1      39.978  35.551  36.981  1.00  0.00     0.127 S 
ATOM     74  O   UNL A   1      39.268  35.832  38.230  1.00  0.00    -0.237 OA
ATOM     75  O   UNL A   1      41.400  35.253  37.142  1.00  0.00    -0.237 OA
ATOM     76  O   UNL A   1      39.653  36.443  35.877  1.00  0.00    -0.744 OA
ENDBRANCH  70  73
ENDBRANCH  52  66
BRANCH  53  77
ATOM     77  C   UNL A   1      42.373  26.126  27.737  1.00  0.00     0.023 A 
ATOM     78  C   UNL A   1      43.369  26.538  26.831  1.00  0.00     0.012 A 
ATOM     79  C   UNL A   1      41.845  24.826  27.638  1.00  0.00     0.148 A 
ATOM     80  C   UNL A   1      43.826  25.671  25.838  1.00  0.00     0.002 A 
ATOM     81  C   UNL A   1      42.336  23.953  26.676  1.00  0.00     0.091 A 
ATOM     82  F   UNL A   1      40.884  24.464  28.500  1.00  0.00    -0.205 F 
ATOM     83  C   UNL A   1      43.319  24.375  25.768  1.00  0.00     0.022 A 
BRANCH  81  84
ATOM     84  S   UNL A   1      41.822  22.233  26.587  1.00  0.00     0.127 S 
ATOM     85  O   UNL A   1      40.373  22.363  26.457  1.00  0.00    -0.237 OA
ATOM     86  O   UNL A   1      42.511  21.773  25.382  1.00  0.00    -0.237 OA
ATOM     87  O   UNL A   1      42.296  21.620  27.820  1.00  0.00    -0.744 OA
ENDBRANCH  81  84
ENDBRANCH  53  77
BRANCH  65  88
ATOM     88  C   UNL A   1      44.680  27.510  34.182  1.00  0.00     0.023 A 
ATOM     89  C   UNL A   1      45.827  28.325  34.192  1.00  0.00     0.012 A 
ATOM     90  C   UNL A   1      44.616  26.379  35.017  1.00  0.00     0.148 A 
ATOM     91  C   UNL A   1      46.899  28.021  35.028  1.00  0.00     0.002 A 
ATOM     92  C   UNL A   1      45.677  26.100  35.870  1.00  0.00     0.091 A 
ATOM     93  F   UNL A   1      43.511  25.621  34.982  1.00  0.00    -0.205 F 
ATOM     94  C   UNL A   1      46.820  26.918  35.874  1.00  0.00     0.022 A 
BRANCH  92  95
ATOM     95  S   UNL A   1      45.642  24.748  37.052  1.00  0.00     0.127 S 
ATOM     96  O   UNL A   1      46.954  24.869  37.684  1.00  0.00    -0.237 OA
ATOM     97  O   UNL A   1      44.514  25.118  37.908  1.00  0.00    -0.237 OA
ATOM     98  O   UNL A   1      45.443  23.533  36.273  1.00  0.00    -0.744 OA
ENDBRANCH  92  95
ENDBRANCH  65  88
ENDBRANCH  39  40
ENDBRANCH  31  34
ENDBRANCH  29  30
ENDBRANCH   1  29
TORSDOF 16
ENDMDL
MODEL 2
REMARK VINA RESULT:     -13.0      1.413      7.466
REMARK SMILES CCOc1ccc2[nH]c(C)c/c(=N\c3cccc(C(=O)NCCCNC(=O)c4ccc(-c5c6nc(c(-c7cccc(S(=O)(=O)[O-])c7F)c7ccc([nH]7)c(-c7cccc(S(=O)(=O)[O-])c7F)c7nc(c(-c8cccc(S(=O)(=O)[O-])c8F)c8ccc5[nH]8)C=C7)C=C6)cc4)c3)c2c1
REMARK SMILES IDX 23 1 22 2 21 3 19 4 20 5 18 7 14 8 15 9 91 10 16 11 17 12
REMARK SMILES IDX 13 13 4 14 5 15 93 16 6 17 92 18 7 19 12 20 8 21 11 22 9 23
REMARK SMILES IDX 10 25 3 26 2 27 1 28 24 29 25 30 26 31 27 33 28 34 29 35
REMARK SMILES IDX 90 36 30 37 89 38 31 39 32 40 33 41 83 42 34 43 88 44 82 45
REMARK SMILES IDX 84 46 35 47 87 48 81 49 80 50 36 52 68 53 48 54 67 55 49 56
REMARK SMILES IDX 52 57 66 58 85 59 50 60 51 61 65 63 86 64 53 65 37 66 38 67
REMARK SMILES IDX 46 68 39 69 41 70 47 71 40 72 42 73 43 74 44 75 45 76 69 77
REMARK SMILES IDX 70 78 78 79 71 80 73 81 79 82 72 83 74 84 75 85 76 86 77 87
REMARK SMILES IDX 54 88 55 89 63 90 56 91 58 92 64 93 57 94 59 95 60 96 61 97
REMARK SMILES IDX 62 98
REMARK H PARENT 21 6 8 24 25 32 84 51 52 62
REMARK Flexibility Score: inf
ROOT
ATOM      1  C   UNL A   1      32.278  29.364  24.497  1.00  0.00     0.042 C 
ENDROOT
BRANCH   1   2
ATOM      2  C   UNL A   1      31.037  29.303  23.619  1.00  0.00     0.118 C 
BRANCH   2   3
ATOM      3  N   UNL A   1      31.134  28.327  22.540  1.00  0.00    -0.352 N 
ATOM      4  C   UNL A   1      31.160  26.959  22.438  1.00  0.00     0.251 C 
ATOM      5  O   UNL A   1      31.216  26.507  21.289  1.00  0.00    -0.269 OA
ATOM      6  H   UNL A   1      31.198  28.762  21.659  1.00  0.00     0.163 HD
BRANCH   4   7
ATOM      7  C   UNL A   1      31.173  25.989  23.573  1.00  0.00     0.041 A 
ATOM      8  C   UNL A   1      31.708  23.856  24.612  1.00  0.00     0.064 A 
ATOM      9  C   UNL A   1      30.947  24.183  25.732  1.00  0.00     0.028 A 
ATOM     10  C   UNL A   1      31.902  24.807  23.609  1.00  0.00     0.042 A 
ATOM     11  C   UNL A   1      30.269  25.400  25.769  1.00  0.00     0.003 A 
ATOM     12  C   UNL A   1      30.354  26.277  24.681  1.00  0.00     0.014 A 
BRANCH   8  13
ATOM     13  N   UNL A   1      32.200  22.564  24.360  1.00  0.00    -0.248 NA
ATOM     14  C   UNL A   1      33.503  18.478  24.444  1.00  0.00     0.120 A 
ATOM     15  C   UNL A   1      34.869  18.237  24.577  1.00  0.00     0.048 A 
ATOM     16  C   UNL A   1      33.012  19.784  24.460  1.00  0.00     0.059 A 
ATOM     17  C   UNL A   1      35.746  19.293  24.814  1.00  0.00     0.030 A 
ATOM     18  C   UNL A   1      33.896  20.850  24.685  1.00  0.00     0.027 A 
ATOM     19  C   UNL A   1      35.267  20.602  24.893  1.00  0.00     0.048 A 
ATOM     20  C   UNL A   1      33.407  22.266  24.767  1.00  0.00     0.075 A 
ATOM     21  N   UNL A   1      36.143  21.648  25.203  1.00  0.00    -0.359 N 
ATOM     22  C   UNL A   1      34.393  23.247  25.347  1.00  0.00     0.050 A 
ATOM     23  C   UNL A   1      35.685  22.912  25.478  1.00  0.00     0.014 A 
ATOM     24  H   UNL A   1      37.111  21.473  25.224  1.00  0.00     0.166 HD
ATOM     25  C   UNL A   1      36.699  23.923  25.938  1.00  0.00     0.064 C 
BRANCH  14  26
ATOM     26  O   UNL A   1      32.638  17.448  24.195  1.00  0.00    -0.494 OA
BRANCH  26  27
ATOM     27  C   UNL A   1      33.252  16.153  24.307  1.00  0.00     0.226 C 
ATOM     28  C   UNL A   1      32.678  15.337  25.456  1.00  0.00     0.049 C 
ENDBRANCH  26  27
ENDBRANCH  14  26
ENDBRANCH   8  13
ENDBRANCH   4   7
ENDBRANCH   2   3
ENDBRANCH   1   2
BRANCH   1  29
ATOM     29  C   UNL A   1      31.978  29.603  25.968  1.00  0.00     0.118 C 
BRANCH  29  30
ATOM     30  N   UNL A   1      31.858  31.019  26.307  1.00  0.00    -0.352 N 
ATOM     31  C   UNL A   1      32.640  31.846  27.084  1.00  0.00     0.251 C 
ATOM     32  H   UNL A   1      31.076  31.463  25.908  1.00  0.00     0.163 HD
ATOM     33  O   UNL A   1      32.230  32.967  27.359  1.00  0.00    -0.269 OA
BRANCH  31  34
ATOM     34  C   UNL A   1      33.943  31.383  27.616  1.00  0.00     0.039 A 
ATOM     35  C   UNL A   1      34.228  30.027  27.736  1.00  0.00     0.014 A 
ATOM     36  C   UNL A   1      34.903  32.325  28.005  1.00  0.00     0.014 A 
ATOM     37  C   UNL A   1      35.342  29.617  28.458  1.00  0.00     0.010 A 
ATOM     38  C   UNL A   1      36.089  31.903  28.620  1.00  0.00     0.010 A 
ATOM     39  C   UNL A   1      36.287  30.547  28.920  1.00  0.00    -0.014 A 
BRANCH  39  40
ATOM     40  C   UNL A   1      37.441  30.062  29.728  1.00  0.00     0.031 A 
ATOM     41  C   UNL A   1      38.527  29.219  29.103  1.00  0.00     0.074 A 
ATOM     42  C   UNL A   1      37.563  30.463  31.011  1.00  0.00     0.049 A 
ATOM     43  N   UNL A   1      39.639  28.786  29.642  1.00  0.00    -0.248 NA
ATOM     44  C   UNL A   1      38.351  28.803  27.700  1.00  0.00     0.031 C 
ATOM     45  C   UNL A   1      36.578  31.267  31.741  1.00  0.00     0.029 A 
ATOM     46  N   UNL A   1      38.581  30.293  31.917  1.00  0.00    -0.354 N 
ATOM     47  C   UNL A   1      40.266  28.016  28.668  1.00  0.00     0.074 A 
ATOM     48  C   UNL A   1      39.414  28.033  27.502  1.00  0.00     0.031 C 
ATOM     49  C   UNL A   1      37.074  31.590  32.943  1.00  0.00     0.029 A 
ATOM     50  C   UNL A   1      38.383  30.966  33.101  1.00  0.00     0.049 A 
ATOM     51  H   UNL A   1      39.377  29.741  31.736  1.00  0.00     0.167 HD
ATOM     52  C   UNL A   1      41.458  27.380  28.728  1.00  0.00     0.034 A 
ATOM     53  C   UNL A   1      39.166  31.079  34.192  1.00  0.00     0.034 A 
ATOM     54  C   UNL A   1      42.348  27.427  29.854  1.00  0.00     0.049 A 
ATOM     55  C   UNL A   1      40.490  30.373  34.220  1.00  0.00     0.074 A 
ATOM     56  C   UNL A   1      43.598  26.845  29.981  1.00  0.00     0.029 A 
ATOM     57  N   UNL A   1      42.098  28.105  31.035  1.00  0.00    -0.354 N 
ATOM     58  N   UNL A   1      41.085  29.706  33.263  1.00  0.00    -0.248 NA
ATOM     59  C   UNL A   1      41.251  30.434  35.478  1.00  0.00     0.031 C 
ATOM     60  C   UNL A   1      44.107  27.175  31.239  1.00  0.00     0.029 A 
ATOM     61  C   UNL A   1      43.171  27.958  31.894  1.00  0.00     0.049 A 
ATOM     62  H   UNL A   1      41.280  28.615  31.232  1.00  0.00     0.167 HD
ATOM     63  C   UNL A   1      42.292  29.275  33.797  1.00  0.00     0.074 A 
ATOM     64  C   UNL A   1      42.358  29.776  35.154  1.00  0.00     0.031 C 
ATOM     65  C   UNL A   1      43.247  28.508  33.221  1.00  0.00     0.034 A 
BRANCH  52  66
ATOM     66  C   UNL A   1      41.928  26.620  27.518  1.00  0.00     0.023 A 
ATOM     67  C   UNL A   1      42.714  27.287  26.559  1.00  0.00     0.012 A 
ATOM     68  C   UNL A   1      41.720  25.232  27.408  1.00  0.00     0.148 A 
ATOM     69  C   UNL A   1      43.290  26.581  25.504  1.00  0.00     0.002 A 
ATOM     70  C   UNL A   1      42.318  24.531  26.368  1.00  0.00     0.091 A 
ATOM     71  F   UNL A   1      40.967  24.623  28.335  1.00  0.00    -0.205 F 
ATOM     72  C   UNL A   1      43.101  25.204  25.414  1.00  0.00     0.022 A 
BRANCH  70  73
ATOM     73  S   UNL A   1      42.185  22.749  26.184  1.00  0.00     0.127 S 
ATOM     74  O   UNL A   1      42.871  22.278  27.388  1.00  0.00    -0.237 OA
ATOM     75  O   UNL A   1      40.737  22.549  26.190  1.00  0.00    -0.237 OA
ATOM     76  O   UNL A   1      42.850  22.420  24.932  1.00  0.00    -0.744 OA
ENDBRANCH  70  73
ENDBRANCH  52  66
BRANCH  53  77
ATOM     77  C   UNL A   1      38.734  31.939  35.327  1.00  0.00     0.023 A 
ATOM     78  C   UNL A   1      38.840  33.337  35.207  1.00  0.00     0.012 A 
ATOM     79  C   UNL A   1      38.179  31.387  36.497  1.00  0.00     0.148 A 
ATOM     80  C   UNL A   1      38.409  34.173  36.238  1.00  0.00     0.002 A 
ATOM     81  C   UNL A   1      37.710  32.226  37.500  1.00  0.00     0.091 A 
ATOM     82  F   UNL A   1      38.106  30.052  36.596  1.00  0.00    -0.205 F 
ATOM     83  C   UNL A   1      37.833  33.618  37.378  1.00  0.00     0.022 A 
BRANCH  81  84
ATOM     84  S   UNL A   1      36.854  31.602  38.951  1.00  0.00     0.127 S 
ATOM     85  O   UNL A   1      37.924  31.591  39.946  1.00  0.00    -0.237 OA
ATOM     86  O   UNL A   1      35.827  32.622  39.159  1.00  0.00    -0.237 OA
ATOM     87  O   UNL A   1      36.334  30.297  38.566  1.00  0.00    -0.744 OA
ENDBRANCH  81  84
ENDBRANCH  53  77
BRANCH  65  88
ATOM     88  C   UNL A   1      44.456  28.150  34.034  1.00  0.00     0.023 A 
ATOM     89  C   UNL A   1      45.559  29.025  34.037  1.00  0.00     0.012 A 
ATOM     90  C   UNL A   1      44.440  27.039  34.898  1.00  0.00     0.148 A 
ATOM     91  C   UNL A   1      46.634  28.799  34.894  1.00  0.00     0.002 A 
ATOM     92  C   UNL A   1      45.502  26.839  35.772  1.00  0.00     0.091 A 
ATOM     93  F   UNL A   1      43.376  26.224  34.869  1.00  0.00    -0.205 F 
ATOM     94  C   UNL A   1      46.600  27.715  35.768  1.00  0.00     0.022 A 
BRANCH  92  95
ATOM     95  S   UNL A   1      45.521  25.518  36.988  1.00  0.00     0.127 S 
ATOM     96  O   UNL A   1      46.942  25.437  37.320  1.00  0.00    -0.237 OA
ATOM     97  O   UNL A   1      44.675  26.065  38.049  1.00  0.00    -0.237 OA
ATOM     98  O   UNL A   1      44.977  24.343  36.320  1.00  0.00    -0.744 OA
ENDBRANCH  92  95
ENDBRANCH  65  88
ENDBRANCH  39  40
ENDBRANCH  31  34
ENDBRANCH  29  30
ENDBRANCH   1  29
TORSDOF 16
ENDMDL
MODEL 3
REMARK VINA RESULT:     -12.4      1.744      2.370
REMARK SMILES CCOc1ccc2[nH]c(C)c/c(=N\c3cccc(C(=O)NCCCNC(=O)c4ccc(-c5c6nc(c(-c7cccc(S(=O)(=O)[O-])c7F)c7ccc([nH]7)c(-c7cccc(S(=O)(=O)[O-])c7F)c7nc(c(-c8cccc(S(=O)(=O)[O-])c8F)c8ccc5[nH]8)C=C7)C=C6)cc4)c3)c2c1
REMARK SMILES IDX 23 1 22 2 21 3 19 4 20 5 18 7 14 8 15 9 91 10 16 11 17 12
REMARK SMILES IDX 13 13 4 14 5 15 93 16 6 17 92 18 7 19 12 20 8 21 11 22 9 23
REMARK SMILES IDX 10 25 3 26 2 27 1 28 24 29 25 30 26 31 27 33 28 34 29 35
REMARK SMILES IDX 90 36 30 37 89 38 31 39 32 40 33 41 83 42 34 43 88 44 82 45
REMARK SMILES IDX 84 46 35 47 87 48 81 49 80 50 36 52 68 53 48 54 67 55 49 56
REMARK SMILES IDX 52 57 66 58 85 59 50 60 51 61 65 63 86 64 53 65 37 66 38 67
REMARK SMILES IDX 46 68 39 69 41 70 47 71 40 72 42 73 43 74 44 75 45 76 69 77
REMARK SMILES IDX 70 78 78 79 71 80 73 81 79 82 72 83 74 84 75 85 76 86 77 87
REMARK SMILES IDX 54 88 55 89 63 90 56 91 58 92 64 93 57 94 59 95 60 96 61 97
REMARK SMILES IDX 62 98
REMARK H PARENT 21 6 8 24 25 32 84 51 52 62
REMARK Flexibility Score: inf
ROOT
ATOM      1  C   UNL A   1      33.916  28.267  24.918  1.00  0.00     0.042 C 
ENDROOT
BRANCH   1   2
ATOM      2  C   UNL A   1      32.771  29.016  24.253  1.00  0.00     0.118 C 
BRANCH   2   3
ATOM      3  N   UNL A   1      32.145  28.276  23.165  1.00  0.00    -0.352 N 
ATOM      4  C   UNL A   1      31.562  27.043  23.009  1.00  0.00     0.251 C 
ATOM      5  O   UNL A   1      31.101  26.806  21.887  1.00  0.00    -0.269 OA
ATOM      6  H   UNL A   1      32.139  28.793  22.327  1.00  0.00     0.163 HD
BRANCH   4   7
ATOM      7  C   UNL A   1      31.479  25.969  24.042  1.00  0.00     0.041 A 
ATOM      8  C   UNL A   1      31.946  23.750  24.923  1.00  0.00     0.064 A 
ATOM      9  C   UNL A   1      31.071  23.961  25.986  1.00  0.00     0.028 A 
ATOM     10  C   UNL A   1      32.223  24.795  24.039  1.00  0.00     0.042 A 
ATOM     11  C   UNL A   1      30.371  25.163  26.070  1.00  0.00     0.003 A 
ATOM     12  C   UNL A   1      30.548  26.142  25.084  1.00  0.00     0.014 A 
BRANCH   8  13
ATOM     13  N   UNL A   1      32.485  22.493  24.601  1.00  0.00    -0.248 NA
ATOM     14  C   UNL A   1      33.956  18.466  24.467  1.00  0.00     0.120 A 
ATOM     15  C   UNL A   1      35.334  18.277  24.558  1.00  0.00     0.048 A 
ATOM     16  C   UNL A   1      33.412  19.748  24.554  1.00  0.00     0.059 A 
ATOM     17  C   UNL A   1      36.172  19.357  24.824  1.00  0.00     0.030 A 
ATOM     18  C   UNL A   1      34.257  20.839  24.808  1.00  0.00     0.027 A 
ATOM     19  C   UNL A   1      35.642  20.640  24.974  1.00  0.00     0.048 A 
ATOM     20  C   UNL A   1      33.713  22.229  24.967  1.00  0.00     0.075 A 
ATOM     21  N   UNL A   1      36.481  21.707  25.312  1.00  0.00    -0.359 N 
ATOM     22  C   UNL A   1      34.671  23.223  25.568  1.00  0.00     0.050 A 
ATOM     23  C   UNL A   1      35.979  22.937  25.655  1.00  0.00     0.014 A 
ATOM     24  H   UNL A   1      37.456  21.572  25.303  1.00  0.00     0.166 HD
ATOM     25  C   UNL A   1      36.962  23.968  26.138  1.00  0.00     0.064 C 
BRANCH  14  26
ATOM     26  O   UNL A   1      33.128  17.413  24.191  1.00  0.00    -0.494 OA
BRANCH  26  27
ATOM     27  C   UNL A   1      33.572  16.176  24.774  1.00  0.00     0.226 C 
ATOM     28  C   UNL A   1      32.427  15.379  25.382  1.00  0.00     0.049 C 
ENDBRANCH  26  27
ENDBRANCH  14  26
ENDBRANCH   8  13
ENDBRANCH   4   7
ENDBRANCH   2   3
ENDBRANCH   1   2
BRANCH   1  29
ATOM     29  C   UNL A   1      34.126  28.635  26.378  1.00  0.00     0.118 C 
BRANCH  29  30
ATOM     30  N   UNL A   1      33.812  30.032  26.669  1.00  0.00    -0.352 N 
ATOM     31  C   UNL A   1      34.397  30.947  27.516  1.00  0.00     0.251 C 
ATOM     32  H   UNL A   1      33.040  30.382  26.169  1.00  0.00     0.163 HD
ATOM     33  O   UNL A   1      33.836  32.018  27.715  1.00  0.00    -0.269 OA
BRANCH  31  34
ATOM     34  C   UNL A   1      35.668  30.636  28.212  1.00  0.00     0.039 A 
ATOM     35  C   UNL A   1      36.819  31.378  27.971  1.00  0.00     0.014 A 
ATOM     36  C   UNL A   1      35.712  29.576  29.127  1.00  0.00     0.014 A 
ATOM     37  C   UNL A   1      38.045  30.923  28.440  1.00  0.00     0.010 A 
ATOM     38  C   UNL A   1      36.932  29.196  29.700  1.00  0.00     0.010 A 
ATOM     39  C   UNL A   1      38.124  29.819  29.304  1.00  0.00    -0.014 A 
BRANCH  39  40
ATOM     40  C   UNL A   1      39.466  29.341  29.743  1.00  0.00     0.031 A 
ATOM     41  C   UNL A   1      40.099  29.862  31.012  1.00  0.00     0.074 A 
ATOM     42  C   UNL A   1      40.078  28.361  29.046  1.00  0.00     0.049 A 
ATOM     43  N   UNL A   1      41.218  29.491  31.579  1.00  0.00    -0.248 NA
ATOM     44  C   UNL A   1      39.395  30.933  31.740  1.00  0.00     0.031 C 
ATOM     45  C   UNL A   1      39.582  27.780  27.794  1.00  0.00     0.029 A 
ATOM     46  N   UNL A   1      41.221  27.646  29.307  1.00  0.00    -0.354 N 
ATOM     47  C   UNL A   1      41.375  30.306  32.694  1.00  0.00     0.074 A 
ATOM     48  C   UNL A   1      40.240  31.199  32.728  1.00  0.00     0.031 C 
ATOM     49  C   UNL A   1      40.363  26.749  27.444  1.00  0.00     0.029 A 
ATOM     50  C   UNL A   1      41.453  26.631  28.407  1.00  0.00     0.049 A 
ATOM     51  H   UNL A   1      41.818  27.842  30.065  1.00  0.00     0.167 HD
ATOM     52  C   UNL A   1      42.358  30.293  33.623  1.00  0.00     0.034 A 
ATOM     53  C   UNL A   1      42.428  25.702  28.359  1.00  0.00     0.034 A 
ATOM     54  C   UNL A   1      43.445  29.354  33.642  1.00  0.00     0.049 A 
ATOM     55  C   UNL A   1      43.495  25.704  29.415  1.00  0.00     0.074 A 
ATOM     56  C   UNL A   1      44.463  29.242  34.575  1.00  0.00     0.029 A 
ATOM     57  N   UNL A   1      43.648  28.357  32.703  1.00  0.00    -0.354 N 
ATOM     58  N   UNL A   1      43.583  26.445  30.491  1.00  0.00    -0.248 NA
ATOM     59  C   UNL A   1      44.596  24.743  29.250  1.00  0.00     0.031 C 
ATOM     60  C   UNL A   1      45.280  28.173  34.201  1.00  0.00     0.029 A 
ATOM     61  C   UNL A   1      44.773  27.625  33.035  1.00  0.00     0.049 A 
ATOM     62  H   UNL A   1      43.078  28.195  31.918  1.00  0.00     0.167 HD
ATOM     63  C   UNL A   1      44.742  26.036  31.137  1.00  0.00     0.074 A 
ATOM     64  C   UNL A   1      45.312  24.966  30.346  1.00  0.00     0.031 C 
ATOM     65  C   UNL A   1      45.297  26.526  32.270  1.00  0.00     0.034 A 
BRANCH  52  66
ATOM     66  C   UNL A   1      42.288  31.278  34.757  1.00  0.00     0.023 A 
ATOM     67  C   UNL A   1      41.747  30.861  35.989  1.00  0.00     0.012 A 
ATOM     68  C   UNL A   1      42.885  32.548  34.652  1.00  0.00     0.148 A 
ATOM     69  C   UNL A   1      41.800  31.698  37.103  1.00  0.00     0.002 A 
ATOM     70  C   UNL A   1      42.958  33.367  35.773  1.00  0.00     0.091 A 
ATOM     71  F   UNL A   1      43.393  32.919  33.467  1.00  0.00    -0.205 F 
ATOM     72  C   UNL A   1      42.414  32.943  36.998  1.00  0.00     0.022 A 
BRANCH  70  73
ATOM     73  S   UNL A   1      43.770  34.968  35.766  1.00  0.00     0.127 S 
ATOM     74  O   UNL A   1      43.249  35.556  34.531  1.00  0.00    -0.237 OA
ATOM     75  O   UNL A   1      43.258  35.575  36.993  1.00  0.00    -0.237 OA
ATOM     76  O   UNL A   1      45.200  34.697  35.759  1.00  0.00    -0.744 OA
ENDBRANCH  70  73
ENDBRANCH  52  66
BRANCH  53  77
ATOM     77  C   UNL A   1      42.405  24.659  27.297  1.00  0.00     0.023 A 
ATOM     78  C   UNL A   1      43.275  24.782  26.197  1.00  0.00     0.012 A 
ATOM     79  C   UNL A   1      41.568  23.532  27.392  1.00  0.00     0.148 A 
ATOM     80  C   UNL A   1      43.305  23.803  25.204  1.00  0.00     0.002 A 
ATOM     81  C   UNL A   1      41.636  22.539  26.423  1.00  0.00     0.091 A 
ATOM     82  F   UNL A   1      40.735  23.447  28.440  1.00  0.00    -0.205 F 
ATOM     83  C   UNL A   1      42.495  22.676  25.323  1.00  0.00     0.022 A 
BRANCH  81  84
ATOM     84  S   UNL A   1      40.711  21.004  26.557  1.00  0.00     0.127 S 
ATOM     85  O   UNL A   1      41.445  20.135  25.640  1.00  0.00    -0.237 OA
ATOM     86  O   UNL A   1      40.868  20.679  27.974  1.00  0.00    -0.237 OA
ATOM     87  O   UNL A   1      39.348  21.333  26.163  1.00  0.00    -0.744 OA
ENDBRANCH  81  84
ENDBRANCH  53  77
BRANCH  65  88
ATOM     88  C   UNL A   1      46.588  25.925  32.745  1.00  0.00     0.023 A 
ATOM     89  C   UNL A   1      47.798  26.566  32.419  1.00  0.00     0.012 A 
ATOM     90  C   UNL A   1      46.591  24.827  33.625  1.00  0.00     0.148 A 
ATOM     91  C   UNL A   1      49.000  26.122  32.967  1.00  0.00     0.002 A 
ATOM     92  C   UNL A   1      47.789  24.409  34.191  1.00  0.00     0.091 A 
ATOM     93  F   UNL A   1      45.422  24.238  33.913  1.00  0.00    -0.205 F 
ATOM     94  C   UNL A   1      48.994  25.053  33.860  1.00  0.00     0.022 A 
BRANCH  92  95
ATOM     95  S   UNL A   1      47.879  23.093  35.410  1.00  0.00     0.127 S 
ATOM     96  O   UNL A   1      47.377  21.949  34.652  1.00  0.00    -0.237 OA
ATOM     97  O   UNL A   1      49.310  23.049  35.708  1.00  0.00    -0.237 OA
ATOM     98  O   UNL A   1      47.037  23.513  36.523  1.00  0.00    -0.744 OA
ENDBRANCH  92  95
ENDBRANCH  65  88
ENDBRANCH  39  40
ENDBRANCH  31  34
ENDBRANCH  29  30
ENDBRANCH   1  29
TORSDOF 16
ENDMDL
