MODEL 1
REMARK VINA RESULT:     -11.9      0.000      0.000
REMARK SMILES CC(C)c1noc(C[N@H+]2CCCC[C@H]2C(=O)NCCCNC(=O)c2ccc(-c3c4nc(c(-c5cccc(S(=O)(=O)[O-])c5F)c5ccc([nH]5)c(-c5cccc(S(=O)(=O)[O-])c5F)c5nc(c(-c6cccc(S(=O)(=O)[O-])c6F)c6ccc3[nH]6)C=C5)C=C4)cc2)n1
REMARK SMILES IDX 19 1 18 2 17 3 15 4 16 5 14 7 9 8 10 9 11 11 13 12 12 13
REMARK SMILES IDX 8 14 7 15 4 16 5 17 87 18 6 19 2 20 1 21 3 22 20 23 21 24
REMARK SMILES IDX 22 25 23 27 24 28 25 29 86 30 26 31 85 32 27 33 28 34 29 35
REMARK SMILES IDX 79 36 30 37 84 38 78 39 80 40 31 41 83 42 77 43 76 44 32 46
REMARK SMILES IDX 64 47 44 48 63 49 45 50 48 51 62 52 81 53 46 54 47 55 61 57
REMARK SMILES IDX 82 58 49 59 33 60 34 61 42 62 35 63 37 64 43 65 36 66 38 67
REMARK SMILES IDX 39 68 40 69 41 70 65 71 66 72 74 73 67 74 69 75 75 76 68 77
REMARK SMILES IDX 70 78 71 79 72 80 73 81 50 82 51 83 59 84 52 85 54 86 60 87
REMARK SMILES IDX 53 88 55 89 56 90 57 91 58 92
REMARK H PARENT 17 6 9 10 21 26 80 45 48 56
REMARK Flexibility Score: inf
ROOT
ATOM      1  C   UNL A   1      38.136  20.014  25.041  1.00  0.00     0.042 C 
ENDROOT
BRANCH   1   2
ATOM      2  C   UNL A   1      37.360  21.265  24.630  1.00  0.00     0.118 C 
BRANCH   2   3
ATOM      3  N   UNL A   1      36.419  21.638  25.664  1.00  0.00    -0.351 N 
ATOM      4  C   UNL A   1      35.211  22.256  25.539  1.00  0.00     0.278 C 
ATOM      5  O   UNL A   1      34.845  22.948  26.490  1.00  0.00    -0.268 OA
ATOM      6  H   UNL A   1      36.688  21.414  26.584  1.00  0.00     0.163 HD
BRANCH   4   7
ATOM      7  C   UNL A   1      34.363  22.006  24.266  1.00  0.00     0.274 C 
ATOM      8  N   UNL A   1      32.896  22.027  24.506  1.00  0.00    -0.317 N 
ATOM      9  C   UNL A   1      32.381  23.336  24.916  1.00  0.00     0.263 C 
ATOM     10  H   UNL A   1      32.500  21.858  23.581  1.00  0.00     0.349 HD
ATOM     11  C   UNL A   1      32.758  24.427  23.907  1.00  0.00     0.062 C 
ATOM     12  C   UNL A   1      34.718  23.027  23.180  1.00  0.00     0.076 C 
ATOM     13  C   UNL A   1      34.240  24.429  23.544  1.00  0.00     0.012 C 
BRANCH   8  14
ATOM     14  C   UNL A   1      32.376  20.906  25.316  1.00  0.00     0.364 C 
BRANCH  14  15
ATOM     15  C   UNL A   1      32.574  19.519  24.807  1.00  0.00     0.281 A 
ATOM     16  C   UNL A   1      33.030  17.521  24.391  1.00  0.00     0.174 A 
ATOM     17  N   UNL A   1      32.643  18.002  23.199  1.00  0.00    -0.062 NA
ATOM     18  N   UNL A   1      32.956  18.423  25.426  1.00  0.00    -0.191 NA
ATOM     19  O   UNL A   1      32.320  19.326  23.479  1.00  0.00    -0.333 OA
BRANCH  16  20
ATOM     20  C   UNL A   1      33.507  16.111  24.560  1.00  0.00     0.055 C 
ATOM     21  C   UNL A   1      34.923  16.038  25.135  1.00  0.00     0.016 C 
ATOM     22  C   UNL A   1      32.554  15.295  25.440  1.00  0.00     0.016 C 
ENDBRANCH  16  20
ENDBRANCH  14  15
ENDBRANCH   8  14
ENDBRANCH   4   7
ENDBRANCH   2   3
ENDBRANCH   1   2
BRANCH   1  23
ATOM     23  C   UNL A   1      39.274  20.268  26.030  1.00  0.00     0.118 C 
BRANCH  23  24
ATOM     24  N   UNL A   1      40.285  19.221  26.019  1.00  0.00    -0.352 N 
ATOM     25  C   UNL A   1      41.650  19.323  26.117  1.00  0.00     0.251 C 
ATOM     26  H   UNL A   1      39.938  18.304  25.929  1.00  0.00     0.163 HD
ATOM     27  O   UNL A   1      42.346  18.325  25.934  1.00  0.00    -0.269 OA
BRANCH  25  28
ATOM     28  C   UNL A   1      42.289  20.626  26.411  1.00  0.00     0.039 A 
ATOM     29  C   UNL A   1      42.728  21.412  25.343  1.00  0.00     0.014 A 
ATOM     30  C   UNL A   1      42.466  21.070  27.725  1.00  0.00     0.014 A 
ATOM     31  C   UNL A   1      43.284  22.670  25.589  1.00  0.00     0.010 A 
ATOM     32  C   UNL A   1      42.954  22.354  27.963  1.00  0.00     0.010 A 
ATOM     33  C   UNL A   1      43.367  23.170  26.899  1.00  0.00    -0.014 A 
BRANCH  33  34
ATOM     34  C   UNL A   1      43.851  24.553  27.160  1.00  0.00     0.031 A 
ATOM     35  C   UNL A   1      42.911  25.615  27.667  1.00  0.00     0.074 A 
ATOM     36  C   UNL A   1      45.130  24.871  26.878  1.00  0.00     0.049 A 
ATOM     37  N   UNL A   1      43.152  26.876  27.917  1.00  0.00    -0.248 NA
ATOM     38  C   UNL A   1      41.514  25.216  27.906  1.00  0.00     0.031 C 
ATOM     39  C   UNL A   1      46.126  23.954  26.314  1.00  0.00     0.029 A 
ATOM     40  N   UNL A   1      45.811  26.057  27.002  1.00  0.00    -0.354 N 
ATOM     41  C   UNL A   1      41.940  27.427  28.316  1.00  0.00     0.074 A 
ATOM     42  C   UNL A   1      40.954  26.370  28.243  1.00  0.00     0.031 C 
ATOM     43  C   UNL A   1      47.286  24.610  26.148  1.00  0.00     0.029 A 
ATOM     44  C   UNL A   1      47.113  25.999  26.557  1.00  0.00     0.049 A 
ATOM     45  H   UNL A   1      45.405  26.874  27.375  1.00  0.00     0.167 HD
ATOM     46  C   UNL A   1      41.674  28.688  28.734  1.00  0.00     0.034 A 
ATOM     47  C   UNL A   1      48.056  26.957  26.476  1.00  0.00     0.034 A 
ATOM     48  C   UNL A   1      42.660  29.732  28.835  1.00  0.00     0.049 A 
ATOM     49  C   UNL A   1      47.735  28.345  26.961  1.00  0.00     0.074 A 
ATOM     50  C   UNL A   1      42.501  31.020  29.316  1.00  0.00     0.029 A 
ATOM     51  N   UNL A   1      43.983  29.614  28.443  1.00  0.00    -0.354 N 
ATOM     52  N   UNL A   1      46.622  28.803  27.478  1.00  0.00    -0.248 NA
ATOM     53  C   UNL A   1      48.814  29.342  26.883  1.00  0.00     0.031 C 
ATOM     54  C   UNL A   1      43.721  31.691  29.184  1.00  0.00     0.029 A 
ATOM     55  C   UNL A   1      44.650  30.808  28.660  1.00  0.00     0.049 A 
ATOM     56  H   UNL A   1      44.391  28.801  28.065  1.00  0.00     0.167 HD
ATOM     57  C   UNL A   1      46.878  30.124  27.827  1.00  0.00     0.074 A 
ATOM     58  C   UNL A   1      48.259  30.387  27.484  1.00  0.00     0.031 C 
ATOM     59  C   UNL A   1      46.040  31.043  28.367  1.00  0.00     0.034 A 
BRANCH  46  60
ATOM     60  C   UNL A   1      40.267  29.007  29.169  1.00  0.00     0.023 A 
ATOM     61  C   UNL A   1      39.295  29.321  28.196  1.00  0.00     0.012 A 
ATOM     62  C   UNL A   1      39.884  28.909  30.521  1.00  0.00     0.148 A 
ATOM     63  C   UNL A   1      37.972  29.561  28.565  1.00  0.00     0.002 A 
ATOM     64  C   UNL A   1      38.554  29.105  30.875  1.00  0.00     0.091 A 
ATOM     65  F   UNL A   1      40.825  28.624  31.432  1.00  0.00    -0.205 F 
ATOM     66  C   UNL A   1      37.600  29.442  29.900  1.00  0.00     0.022 A 
BRANCH  64  67
ATOM     67  S   UNL A   1      37.952  28.894  32.555  1.00  0.00     0.127 S 
ATOM     68  O   UNL A   1      38.849  29.776  33.302  1.00  0.00    -0.237 OA
ATOM     69  O   UNL A   1      36.575  29.373  32.449  1.00  0.00    -0.237 OA
ATOM     70  O   UNL A   1      38.084  27.475  32.856  1.00  0.00    -0.744 OA
ENDBRANCH  64  67
ENDBRANCH  46  60
BRANCH  47  71
ATOM     71  C   UNL A   1      49.414  26.635  25.950  1.00  0.00     0.023 A 
ATOM     72  C   UNL A   1      50.312  25.899  26.749  1.00  0.00     0.012 A 
ATOM     73  C   UNL A   1      49.826  27.060  24.673  1.00  0.00     0.148 A 
ATOM     74  C   UNL A   1      51.610  25.635  26.307  1.00  0.00     0.002 A 
ATOM     75  C   UNL A   1      51.098  26.742  24.213  1.00  0.00     0.091 A 
ATOM     76  F   UNL A   1      48.963  27.769  23.931  1.00  0.00    -0.205 F 
ATOM     77  C   UNL A   1      51.999  26.050  25.035  1.00  0.00     0.022 A 
BRANCH  75  78
ATOM     78  S   UNL A   1      51.636  27.119  22.542  1.00  0.00     0.127 S 
ATOM     79  O   UNL A   1      51.784  28.572  22.595  1.00  0.00    -0.237 OA
ATOM     80  O   UNL A   1      52.892  26.374  22.452  1.00  0.00    -0.237 OA
ATOM     81  O   UNL A   1      50.582  26.620  21.669  1.00  0.00    -0.744 OA
ENDBRANCH  75  78
ENDBRANCH  47  71
BRANCH  59  82
ATOM     82  C   UNL A   1      46.602  32.408  28.672  1.00  0.00     0.023 A 
ATOM     83  C   UNL A   1      47.270  32.642  29.890  1.00  0.00     0.012 A 
ATOM     84  C   UNL A   1      46.520  33.444  27.720  1.00  0.00     0.148 A 
ATOM     85  C   UNL A   1      47.809  33.897  30.174  1.00  0.00     0.002 A 
ATOM     86  C   UNL A   1      47.108  34.675  27.987  1.00  0.00     0.091 A 
ATOM     87  F   UNL A   1      45.868  33.208  26.572  1.00  0.00    -0.205 F 
ATOM     88  C   UNL A   1      47.739  34.908  29.218  1.00  0.00     0.022 A 
BRANCH  86  89
ATOM     89  S   UNL A   1      47.153  36.004  26.779  1.00  0.00     0.127 S 
ATOM     90  O   UNL A   1      47.766  37.084  27.549  1.00  0.00    -0.237 OA
ATOM     91  O   UNL A   1      48.006  35.440  25.732  1.00  0.00    -0.237 OA
ATOM     92  O   UNL A   1      45.771  36.231  26.377  1.00  0.00    -0.744 OA
ENDBRANCH  86  89
ENDBRANCH  59  82
ENDBRANCH  33  34
ENDBRANCH  25  28
ENDBRANCH  23  24
ENDBRANCH   1  23
TORSDOF 16
ENDMDL
MODEL 2
REMARK VINA RESULT:     -11.7      6.630     10.120
REMARK SMILES CC(C)c1noc(C[N@H+]2CCCC[C@H]2C(=O)NCCCNC(=O)c2ccc(-c3c4nc(c(-c5cccc(S(=O)(=O)[O-])c5F)c5ccc([nH]5)c(-c5cccc(S(=O)(=O)[O-])c5F)c5nc(c(-c6cccc(S(=O)(=O)[O-])c6F)c6ccc3[nH]6)C=C5)C=C4)cc2)n1
REMARK SMILES IDX 19 1 18 2 17 3 15 4 16 5 14 7 9 8 10 9 11 11 13 12 12 13
REMARK SMILES IDX 8 14 7 15 4 16 5 17 87 18 6 19 2 20 1 21 3 22 20 23 21 24
REMARK SMILES IDX 22 25 23 27 24 28 25 29 86 30 26 31 85 32 27 33 28 34 29 35
REMARK SMILES IDX 79 36 30 37 84 38 78 39 80 40 31 41 83 42 77 43 76 44 32 46
REMARK SMILES IDX 64 47 44 48 63 49 45 50 48 51 62 52 81 53 46 54 47 55 61 57
REMARK SMILES IDX 82 58 49 59 33 60 34 61 42 62 35 63 37 64 43 65 36 66 38 67
REMARK SMILES IDX 39 68 40 69 41 70 65 71 66 72 74 73 67 74 69 75 75 76 68 77
REMARK SMILES IDX 70 78 71 79 72 80 73 81 50 82 51 83 59 84 52 85 54 86 60 87
REMARK SMILES IDX 53 88 55 89 56 90 57 91 58 92
REMARK H PARENT 17 6 9 10 21 26 80 45 48 56
REMARK Flexibility Score: inf
ROOT
ATOM      1  C   UNL A   1      31.425  31.010  26.783  1.00  0.00     0.042 C 
ENDROOT
BRANCH   1   2
ATOM      2  C   UNL A   1      31.256  30.746  25.286  1.00  0.00     0.118 C 
BRANCH   2   3
ATOM      3  N   UNL A   1      32.312  29.880  24.805  1.00  0.00    -0.351 N 
ATOM      4  C   UNL A   1      32.412  28.524  24.893  1.00  0.00     0.278 C 
ATOM      5  O   UNL A   1      33.551  28.058  24.935  1.00  0.00    -0.268 OA
ATOM      6  H   UNL A   1      33.059  30.333  24.351  1.00  0.00     0.163 HD
BRANCH   4   7
ATOM      7  C   UNL A   1      31.121  27.668  24.872  1.00  0.00     0.274 C 
ATOM      8  N   UNL A   1      30.989  26.804  23.669  1.00  0.00    -0.317 N 
ATOM      9  C   UNL A   1      32.006  25.753  23.580  1.00  0.00     0.263 C 
ATOM     10  H   UNL A   1      30.107  26.315  23.822  1.00  0.00     0.349 HD
ATOM     11  C   UNL A   1      32.026  24.885  24.844  1.00  0.00     0.062 C 
ATOM     12  C   UNL A   1      31.034  26.803  26.134  1.00  0.00     0.076 C 
ATOM     13  C   UNL A   1      32.084  25.696  26.135  1.00  0.00     0.012 C 
BRANCH   8  14
ATOM     14  C   UNL A   1      30.771  27.526  22.398  1.00  0.00     0.364 C 
BRANCH  14  15
ATOM     15  C   UNL A   1      29.709  28.571  22.357  1.00  0.00     0.281 A 
ATOM     16  C   UNL A   1      28.481  30.260  22.237  1.00  0.00     0.174 A 
ATOM     17  N   UNL A   1      27.687  29.343  22.813  1.00  0.00    -0.062 NA
ATOM     18  N   UNL A   1      29.732  29.802  21.895  1.00  0.00    -0.191 NA
ATOM     19  O   UNL A   1      28.497  28.213  22.875  1.00  0.00    -0.333 OA
BRANCH  16  20
ATOM     20  C   UNL A   1      28.025  31.666  21.998  1.00  0.00     0.055 C 
ATOM     21  C   UNL A   1      28.860  32.691  22.768  1.00  0.00     0.016 C 
ATOM     22  C   UNL A   1      28.032  32.015  20.505  1.00  0.00     0.016 C 
ENDBRANCH  16  20
ENDBRANCH  14  15
ENDBRANCH   8  14
ENDBRANCH   4   7
ENDBRANCH   2   3
ENDBRANCH   1   2
BRANCH   1  23
ATOM     23  C   UNL A   1      32.860  31.311  27.217  1.00  0.00     0.118 C 
BRANCH  23  24
ATOM     24  N   UNL A   1      33.128  32.734  27.359  1.00  0.00    -0.352 N 
ATOM     25  C   UNL A   1      34.175  33.370  27.977  1.00  0.00     0.251 C 
ATOM     26  H   UNL A   1      32.458  33.330  26.950  1.00  0.00     0.163 HD
ATOM     27  O   UNL A   1      34.142  34.591  28.122  1.00  0.00    -0.269 OA
BRANCH  25  28
ATOM     28  C   UNL A   1      35.325  32.595  28.496  1.00  0.00     0.039 A 
ATOM     29  C   UNL A   1      36.605  33.142  28.384  1.00  0.00     0.014 A 
ATOM     30  C   UNL A   1      35.152  31.336  29.078  1.00  0.00     0.014 A 
ATOM     31  C   UNL A   1      37.702  32.458  28.914  1.00  0.00     0.010 A 
ATOM     32  C   UNL A   1      36.236  30.689  29.669  1.00  0.00     0.010 A 
ATOM     33  C   UNL A   1      37.524  31.243  29.596  1.00  0.00    -0.014 A 
BRANCH  33  34
ATOM     34  C   UNL A   1      38.669  30.565  30.263  1.00  0.00     0.031 A 
ATOM     35  C   UNL A   1      39.101  30.967  31.648  1.00  0.00     0.074 A 
ATOM     36  C   UNL A   1      39.365  29.627  29.590  1.00  0.00     0.049 A 
ATOM     37  N   UNL A   1      40.093  30.508  32.366  1.00  0.00    -0.248 NA
ATOM     38  C   UNL A   1      38.331  32.035  32.308  1.00  0.00     0.031 C 
ATOM     39  C   UNL A   1      39.096  29.196  28.215  1.00  0.00     0.029 A 
ATOM     40  N   UNL A   1      40.456  28.879  29.960  1.00  0.00    -0.354 N 
ATOM     41  C   UNL A   1      40.086  31.245  33.546  1.00  0.00     0.074 A 
ATOM     42  C   UNL A   1      39.010  32.204  33.434  1.00  0.00     0.031 C 
ATOM     43  C   UNL A   1      39.992  28.261  27.862  1.00  0.00     0.029 A 
ATOM     44  C   UNL A   1      40.921  28.047  28.966  1.00  0.00     0.049 A 
ATOM     45  H   UNL A   1      40.869  28.934  30.853  1.00  0.00     0.167 HD
ATOM     46  C   UNL A   1      40.882  31.115  34.634  1.00  0.00     0.034 A 
ATOM     47  C   UNL A   1      41.981  27.216  28.941  1.00  0.00     0.034 A 
ATOM     48  C   UNL A   1      41.934  30.141  34.757  1.00  0.00     0.049 A 
ATOM     49  C   UNL A   1      42.838  27.084  30.171  1.00  0.00     0.074 A 
ATOM     50  C   UNL A   1      42.746  29.886  35.849  1.00  0.00     0.029 A 
ATOM     51  N   UNL A   1      42.328  29.267  33.756  1.00  0.00    -0.354 N 
ATOM     52  N   UNL A   1      42.716  27.682  31.331  1.00  0.00    -0.248 NA
ATOM     53  C   UNL A   1      43.959  26.135  30.101  1.00  0.00     0.031 C 
ATOM     54  C   UNL A   1      43.651  28.881  35.496  1.00  0.00     0.029 A 
ATOM     55  C   UNL A   1      43.377  28.480  34.200  1.00  0.00     0.049 A 
ATOM     56  H   UNL A   1      41.921  29.214  32.861  1.00  0.00     0.167 HD
ATOM     57  C   UNL A   1      43.715  27.151  32.140  1.00  0.00     0.074 A 
ATOM     58  C   UNL A   1      44.417  26.166  31.345  1.00  0.00     0.031 C 
ATOM     59  C   UNL A   1      44.034  27.463  33.421  1.00  0.00     0.034 A 
BRANCH  46  60
ATOM     60  C   UNL A   1      40.618  32.016  35.814  1.00  0.00     0.023 A 
ATOM     61  C   UNL A   1      41.472  33.112  36.054  1.00  0.00     0.012 A 
ATOM     62  C   UNL A   1      39.483  31.834  36.627  1.00  0.00     0.148 A 
ATOM     63  C   UNL A   1      41.217  33.996  37.101  1.00  0.00     0.002 A 
ATOM     64  C   UNL A   1      39.209  32.746  37.641  1.00  0.00     0.091 A 
ATOM     65  F   UNL A   1      38.692  30.777  36.393  1.00  0.00    -0.205 F 
ATOM     66  C   UNL A   1      40.081  33.820  37.886  1.00  0.00     0.022 A 
BRANCH  64  67
ATOM     67  S   UNL A   1      37.730  32.658  38.657  1.00  0.00     0.127 S 
ATOM     68  O   UNL A   1      37.915  33.805  39.546  1.00  0.00    -0.237 OA
ATOM     69  O   UNL A   1      36.668  32.822  37.665  1.00  0.00    -0.237 OA
ATOM     70  O   UNL A   1      37.763  31.356  39.308  1.00  0.00    -0.744 OA
ENDBRANCH  64  67
ENDBRANCH  46  60
BRANCH  47  71
ATOM     71  C   UNL A   1      42.275  26.406  27.723  1.00  0.00     0.023 A 
ATOM     72  C   UNL A   1      42.950  27.002  26.639  1.00  0.00     0.012 A 
ATOM     73  C   UNL A   1      41.882  25.057  27.628  1.00  0.00     0.148 A 
ATOM     74  C   UNL A   1      43.184  26.284  25.465  1.00  0.00     0.002 A 
ATOM     75  C   UNL A   1      42.173  24.331  26.480  1.00  0.00     0.091 A 
ATOM     76  F   UNL A   1      41.231  24.511  28.664  1.00  0.00    -0.205 F 
ATOM     77  C   UNL A   1      42.804  24.947  25.389  1.00  0.00     0.022 A 
BRANCH  75  78
ATOM     78  S   UNL A   1      41.839  22.571  26.348  1.00  0.00     0.127 S 
ATOM     79  O   UNL A   1      42.478  22.239  25.077  1.00  0.00    -0.237 OA
ATOM     80  O   UNL A   1      42.513  22.044  27.535  1.00  0.00    -0.237 OA
ATOM     81  O   UNL A   1      40.387  22.445  26.381  1.00  0.00    -0.744 OA
ENDBRANCH  75  78
ENDBRANCH  47  71
BRANCH  59  82
ATOM     82  C   UNL A   1      45.159  26.698  34.067  1.00  0.00     0.023 A 
ATOM     83  C   UNL A   1      46.488  27.148  33.933  1.00  0.00     0.012 A 
ATOM     84  C   UNL A   1      44.892  25.563  34.859  1.00  0.00     0.148 A 
ATOM     85  C   UNL A   1      47.536  26.457  34.542  1.00  0.00     0.002 A 
ATOM     86  C   UNL A   1      45.934  24.913  35.507  1.00  0.00     0.091 A 
ATOM     87  F   UNL A   1      43.623  25.141  34.962  1.00  0.00    -0.205 F 
ATOM     88  C   UNL A   1      47.258  25.349  35.339  1.00  0.00     0.022 A 
BRANCH  86  89
ATOM     89  S   UNL A   1      45.662  23.537  36.630  1.00  0.00     0.127 S 
ATOM     90  O   UNL A   1      45.054  22.546  35.744  1.00  0.00    -0.237 OA
ATOM     91  O   UNL A   1      47.024  23.216  37.060  1.00  0.00    -0.237 OA
ATOM     92  O   UNL A   1      44.797  24.044  37.687  1.00  0.00    -0.744 OA
ENDBRANCH  86  89
ENDBRANCH  59  82
ENDBRANCH  33  34
ENDBRANCH  25  28
ENDBRANCH  23  24
ENDBRANCH   1  23
TORSDOF 16
ENDMDL
MODEL 3
REMARK VINA RESULT:     -11.7      6.581     11.563
REMARK SMILES CC(C)c1noc(C[N@H+]2CCCC[C@H]2C(=O)NCCCNC(=O)c2ccc(-c3c4nc(c(-c5cccc(S(=O)(=O)[O-])c5F)c5ccc([nH]5)c(-c5cccc(S(=O)(=O)[O-])c5F)c5nc(c(-c6cccc(S(=O)(=O)[O-])c6F)c6ccc3[nH]6)C=C5)C=C4)cc2)n1
REMARK SMILES IDX 19 1 18 2 17 3 15 4 16 5 14 7 9 8 10 9 11 11 13 12 12 13
REMARK SMILES IDX 8 14 7 15 4 16 5 17 87 18 6 19 2 20 1 21 3 22 20 23 21 24
REMARK SMILES IDX 22 25 23 27 24 28 25 29 86 30 26 31 85 32 27 33 28 34 29 35
REMARK SMILES IDX 79 36 30 37 84 38 78 39 80 40 31 41 83 42 77 43 76 44 32 46
REMARK SMILES IDX 64 47 44 48 63 49 45 50 48 51 62 52 81 53 46 54 47 55 61 57
REMARK SMILES IDX 82 58 49 59 33 60 34 61 42 62 35 63 37 64 43 65 36 66 38 67
REMARK SMILES IDX 39 68 40 69 41 70 65 71 66 72 74 73 67 74 69 75 75 76 68 77
REMARK SMILES IDX 70 78 71 79 72 80 73 81 50 82 51 83 59 84 52 85 54 86 60 87
REMARK SMILES IDX 53 88 55 89 56 90 57 91 58 92
REMARK H PARENT 17 6 9 10 21 26 80 45 48 56
REMARK Flexibility Score: inf
ROOT
ATOM      1  C   UNL A   1      31.647  29.383  27.015  1.00  0.00     0.042 C 
ENDROOT
BRANCH   1   2
ATOM      2  C   UNL A   1      32.135  28.074  27.634  1.00  0.00     0.118 C 
BRANCH   2   3
ATOM      3  N   UNL A   1      32.949  27.341  26.687  1.00  0.00    -0.351 N 
ATOM      4  C   UNL A   1      32.572  26.375  25.805  1.00  0.00     0.278 C 
ATOM      5  O   UNL A   1      33.424  25.534  25.512  1.00  0.00    -0.268 OA
ATOM      6  H   UNL A   1      33.906  27.573  26.681  1.00  0.00     0.163 HD
BRANCH   4   7
ATOM      7  C   UNL A   1      31.151  26.426  25.189  1.00  0.00     0.274 C 
ATOM      8  N   UNL A   1      31.140  26.473  23.702  1.00  0.00    -0.317 N 
ATOM      9  C   UNL A   1      31.660  25.259  23.068  1.00  0.00     0.263 C 
ATOM     10  H   UNL A   1      30.146  26.493  23.473  1.00  0.00     0.349 HD
ATOM     11  C   UNL A   1      30.917  24.009  23.554  1.00  0.00     0.062 C 
ATOM     12  C   UNL A   1      30.318  25.233  25.669  1.00  0.00     0.076 C 
ATOM     13  C   UNL A   1      30.816  23.919  25.074  1.00  0.00     0.012 C 
BRANCH   8  14
ATOM     14  C   UNL A   1      31.660  27.722  23.109  1.00  0.00     0.364 C 
BRANCH  14  15
ATOM     15  C   UNL A   1      30.698  28.829  22.845  1.00  0.00     0.281 A 
ATOM     16  C   UNL A   1      29.377  30.450  22.817  1.00  0.00     0.174 A 
ATOM     17  N   UNL A   1      29.135  29.836  21.647  1.00  0.00    -0.062 NA
ATOM     18  N   UNL A   1      30.376  29.879  23.568  1.00  0.00    -0.191 NA
ATOM     19  O   UNL A   1      30.028  28.769  21.656  1.00  0.00    -0.333 OA
BRANCH  16  20
ATOM     20  C   UNL A   1      28.604  31.657  23.253  1.00  0.00     0.055 C 
ATOM     21  C   UNL A   1      28.395  32.659  22.117  1.00  0.00     0.016 C 
ATOM     22  C   UNL A   1      27.248  31.271  23.853  1.00  0.00     0.016 C 
ENDBRANCH  16  20
ENDBRANCH  14  15
ENDBRANCH   8  14
ENDBRANCH   4   7
ENDBRANCH   2   3
ENDBRANCH   1   2
BRANCH   1  23
ATOM     23  C   UNL A   1      32.736  30.207  26.329  1.00  0.00     0.118 C 
BRANCH  23  24
ATOM     24  N   UNL A   1      32.655  31.628  26.633  1.00  0.00    -0.352 N 
ATOM     25  C   UNL A   1      33.470  32.402  27.421  1.00  0.00     0.251 C 
ATOM     26  H   UNL A   1      31.904  32.106  26.210  1.00  0.00     0.163 HD
ATOM     27  O   UNL A   1      33.144  33.561  27.675  1.00  0.00    -0.269 OA
BRANCH  25  28
ATOM     28  C   UNL A   1      34.718  31.844  27.988  1.00  0.00     0.039 A 
ATOM     29  C   UNL A   1      35.850  32.660  28.047  1.00  0.00     0.014 A 
ATOM     30  C   UNL A   1      34.782  30.526  28.450  1.00  0.00     0.014 A 
ATOM     31  C   UNL A   1      37.025  32.178  28.628  1.00  0.00     0.010 A 
ATOM     32  C   UNL A   1      35.933  30.072  29.094  1.00  0.00     0.010 A 
ATOM     33  C   UNL A   1      37.067  30.892  29.192  1.00  0.00    -0.014 A 
BRANCH  33  34
ATOM     34  C   UNL A   1      38.277  30.413  29.914  1.00  0.00     0.031 A 
ATOM     35  C   UNL A   1      39.173  29.366  29.305  1.00  0.00     0.074 A 
ATOM     36  C   UNL A   1      38.535  30.875  31.154  1.00  0.00     0.049 A 
ATOM     37  N   UNL A   1      40.247  28.811  29.804  1.00  0.00    -0.248 NA
ATOM     38  C   UNL A   1      38.807  28.864  27.970  1.00  0.00     0.031 C 
ATOM     39  C   UNL A   1      37.707  31.836  31.888  1.00  0.00     0.029 A 
ATOM     40  N   UNL A   1      39.553  30.585  32.029  1.00  0.00    -0.354 N 
ATOM     41  C   UNL A   1      40.670  27.879  28.863  1.00  0.00     0.074 A 
ATOM     42  C   UNL A   1      39.717  27.919  27.775  1.00  0.00     0.031 C 
ATOM     43  C   UNL A   1      38.252  32.058  33.095  1.00  0.00     0.029 A 
ATOM     44  C   UNL A   1      39.446  31.233  33.239  1.00  0.00     0.049 A 
ATOM     45  H   UNL A   1      40.291  29.970  31.811  1.00  0.00     0.167 HD
ATOM     46  C   UNL A   1      41.766  27.083  28.886  1.00  0.00     0.034 A 
ATOM     47  C   UNL A   1      40.214  31.162  34.343  1.00  0.00     0.034 A 
ATOM     48  C   UNL A   1      42.730  27.064  29.955  1.00  0.00     0.049 A 
ATOM     49  C   UNL A   1      41.433  30.279  34.333  1.00  0.00     0.074 A 
ATOM     50  C   UNL A   1      43.910  26.344  30.034  1.00  0.00     0.029 A 
ATOM     51  N   UNL A   1      42.625  27.787  31.132  1.00  0.00    -0.354 N 
ATOM     52  N   UNL A   1      41.897  29.522  33.370  1.00  0.00    -0.248 NA
ATOM     53  C   UNL A   1      42.256  30.269  35.552  1.00  0.00     0.031 C 
ATOM     54  C   UNL A   1      44.502  26.609  31.274  1.00  0.00     0.029 A 
ATOM     55  C   UNL A   1      43.712  27.524  31.948  1.00  0.00     0.049 A 
ATOM     56  H   UNL A   1      41.886  28.399  31.355  1.00  0.00     0.167 HD
ATOM     57  C   UNL A   1      43.085  28.980  33.849  1.00  0.00     0.074 A 
ATOM     58  C   UNL A   1      43.281  29.515  35.179  1.00  0.00     0.031 C 
ATOM     59  C   UNL A   1      43.928  28.105  33.248  1.00  0.00     0.034 A 
BRANCH  46  60
ATOM     60  C   UNL A   1      42.021  26.196  27.695  1.00  0.00     0.023 A 
ATOM     61  C   UNL A   1      42.735  26.706  26.591  1.00  0.00     0.012 A 
ATOM     62  C   UNL A   1      41.635  24.842  27.701  1.00  0.00     0.148 A 
ATOM     63  C   UNL A   1      43.037  25.890  25.501  1.00  0.00     0.002 A 
ATOM     64  C   UNL A   1      41.980  24.022  26.632  1.00  0.00     0.091 A 
ATOM     65  F   UNL A   1      40.943  24.380  28.752  1.00  0.00    -0.205 F 
ATOM     66  C   UNL A   1      42.670  24.548  25.527  1.00  0.00     0.022 A 
BRANCH  64  67
ATOM     67  S   UNL A   1      41.628  22.261  26.601  1.00  0.00     0.127 S 
ATOM     68  O   UNL A   1      42.317  21.844  25.380  1.00  0.00    -0.237 OA
ATOM     69  O   UNL A   1      42.254  21.803  27.840  1.00  0.00    -0.237 OA
ATOM     70  O   UNL A   1      40.177  22.139  26.567  1.00  0.00    -0.744 OA
ENDBRANCH  64  67
ENDBRANCH  46  60
BRANCH  47  71
ATOM     71  C   UNL A   1      39.883  31.981  35.545  1.00  0.00     0.023 A 
ATOM     72  C   UNL A   1      40.560  33.197  35.767  1.00  0.00     0.012 A 
ATOM     73  C   UNL A   1      38.912  31.559  36.475  1.00  0.00     0.148 A 
ATOM     74  C   UNL A   1      40.312  33.952  36.914  1.00  0.00     0.002 A 
ATOM     75  C   UNL A   1      38.626  32.346  37.583  1.00  0.00     0.091 A 
ATOM     76  F   UNL A   1      38.287  30.394  36.254  1.00  0.00    -0.205 F 
ATOM     77  C   UNL A   1      39.340  33.531  37.817  1.00  0.00     0.022 A 
BRANCH  75  78
ATOM     78  S   UNL A   1      37.300  31.947  38.726  1.00  0.00     0.127 S 
ATOM     79  O   UNL A   1      37.893  32.308  40.011  1.00  0.00    -0.237 OA
ATOM     80  O   UNL A   1      36.229  32.835  38.270  1.00  0.00    -0.237 OA
ATOM     81  O   UNL A   1      37.024  30.530  38.528  1.00  0.00    -0.744 OA
ENDBRANCH  75  78
ENDBRANCH  47  71
BRANCH  59  82
ATOM     82  C   UNL A   1      45.172  27.706  33.999  1.00  0.00     0.023 A 
ATOM     83  C   UNL A   1      46.340  28.487  33.899  1.00  0.00     0.012 A 
ATOM     84  C   UNL A   1      45.163  26.584  34.854  1.00  0.00     0.148 A 
ATOM     85  C   UNL A   1      47.491  28.136  34.604  1.00  0.00     0.002 A 
ATOM     86  C   UNL A   1      46.296  26.273  35.595  1.00  0.00     0.091 A 
ATOM     87  F   UNL A   1      44.048  25.844  34.924  1.00  0.00    -0.205 F 
ATOM     88  C   UNL A   1      47.465  27.037  35.461  1.00  0.00     0.022 A 
BRANCH  86  89
ATOM     89  S   UNL A   1      46.325  24.936  36.795  1.00  0.00     0.127 S 
ATOM     90  O   UNL A   1      46.328  23.759  35.929  1.00  0.00    -0.237 OA
ATOM     91  O   UNL A   1      47.586  25.180  37.497  1.00  0.00    -0.237 OA
ATOM     92  O   UNL A   1      45.133  25.104  37.615  1.00  0.00    -0.744 OA
ENDBRANCH  86  89
ENDBRANCH  59  82
ENDBRANCH  33  34
ENDBRANCH  25  28
ENDBRANCH  23  24
ENDBRANCH   1  23
TORSDOF 16
ENDMDL
