MODEL 1
REMARK VINA RESULT:     -12.0      0.000      0.000
REMARK SMILES Nc1cc(C(=O)NCCCNC(=O)c2ccc(-c3c4nc(c(-c5cccc(S(=O)(=O)[O-])c5F)c5ccc([nH]5)c(-c5cccc(S(=O)(=O)[O-])c5F)c5nc(c(-c6cccc(S(=O)(=O)[O-])c6F)c6ccc3[nH]6)C=C5)C=C4)cc2)nc2ccccc12
REMARK SMILES IDX 10 1 9 2 8 3 7 4 5 5 6 6 4 8 2 9 3 10 83 11 78 12 82 13
REMARK SMILES IDX 77 14 79 15 81 16 80 17 1 18 11 21 12 22 13 24 14 25 15 26
REMARK SMILES IDX 76 27 16 28 75 29 17 30 18 31 19 32 69 33 20 34 74 35 68 36
REMARK SMILES IDX 70 37 21 38 73 39 67 40 66 41 22 43 54 44 34 45 53 46 35 47
REMARK SMILES IDX 38 48 52 49 71 50 36 51 37 52 51 54 72 55 39 56 23 57 24 58
REMARK SMILES IDX 32 59 25 60 27 61 33 62 26 63 28 64 29 65 30 66 31 67 55 68
REMARK SMILES IDX 56 69 64 70 57 71 59 72 65 73 58 74 60 75 61 76 62 77 63 78
REMARK SMILES IDX 40 79 41 80 49 81 42 82 44 83 50 84 43 85 45 86 46 87 47 88
REMARK SMILES IDX 48 89
REMARK H PARENT 7 7 1 19 1 20 11 23 70 42 38 53
REMARK Flexibility Score: inf
ROOT
ATOM      1  C   UNL A   1      33.009  32.578  27.278  1.00  0.00     0.118 C 
ENDROOT
BRANCH   1   2
ATOM      2  C   UNL A   1      31.764  31.805  26.852  1.00  0.00     0.042 C 
BRANCH   2   3
ATOM      3  C   UNL A   1      32.068  30.359  26.462  1.00  0.00     0.118 C 
BRANCH   3   4
ATOM      4  N   UNL A   1      31.610  30.071  25.118  1.00  0.00    -0.351 N 
ATOM      5  C   UNL A   1      31.346  28.906  24.434  1.00  0.00     0.269 C 
ATOM      6  O   UNL A   1      30.927  29.053  23.281  1.00  0.00    -0.268 OA
ATOM      7  H   UNL A   1      31.456  30.881  24.579  1.00  0.00     0.163 HD
BRANCH   5   8
ATOM      8  C   UNL A   1      31.505  27.517  25.000  1.00  0.00     0.130 A 
ATOM      9  C   UNL A   1      30.752  25.481  26.040  1.00  0.00     0.043 A 
ATOM     10  C   UNL A   1      30.484  26.761  25.547  1.00  0.00     0.060 A 
ATOM     11  C   UNL A   1      32.074  24.981  25.966  1.00  0.00     0.023 A 
ATOM     12  C   UNL A   1      33.058  25.840  25.437  1.00  0.00     0.073 A 
ATOM     13  C   UNL A   1      32.464  23.692  26.403  1.00  0.00     0.012 A 
ATOM     14  N   UNL A   1      32.783  27.060  24.961  1.00  0.00    -0.242 NA
ATOM     15  C   UNL A   1      34.379  25.414  25.401  1.00  0.00     0.029 A 
ATOM     16  C   UNL A   1      33.796  23.282  26.350  1.00  0.00     0.001 A 
ATOM     17  C   UNL A   1      34.759  24.150  25.856  1.00  0.00     0.002 A 
BRANCH   9  18
ATOM     18  N   UNL A   1      29.678  24.707  26.481  1.00  0.00    -0.398 N 
ATOM     19  H   UNL A   1      28.858  25.142  26.805  1.00  0.00     0.156 HD
ATOM     20  H   UNL A   1      29.741  23.724  26.467  1.00  0.00     0.156 HD
ENDBRANCH   9  18
ENDBRANCH   5   8
ENDBRANCH   3   4
ENDBRANCH   2   3
ENDBRANCH   1   2
BRANCH   1  21
ATOM     21  N   UNL A   1      32.694  33.947  27.665  1.00  0.00    -0.352 N 
ATOM     22  C   UNL A   1      33.182  34.695  28.713  1.00  0.00     0.251 C 
ATOM     23  H   UNL A   1      32.035  34.404  27.094  1.00  0.00     0.163 HD
ATOM     24  O   UNL A   1      32.633  35.746  29.016  1.00  0.00    -0.269 OA
BRANCH  22  25
ATOM     25  C   UNL A   1      34.348  34.207  29.479  1.00  0.00     0.039 A 
ATOM     26  C   UNL A   1      35.646  34.478  29.039  1.00  0.00     0.014 A 
ATOM     27  C   UNL A   1      34.142  33.462  30.643  1.00  0.00     0.014 A 
ATOM     28  C   UNL A   1      36.728  33.872  29.667  1.00  0.00     0.010 A 
ATOM     29  C   UNL A   1      35.237  32.918  31.320  1.00  0.00     0.010 A 
ATOM     30  C   UNL A   1      36.536  33.080  30.811  1.00  0.00    -0.014 A 
BRANCH  30  31
ATOM     31  C   UNL A   1      37.704  32.439  31.463  1.00  0.00     0.031 A 
ATOM     32  C   UNL A   1      38.174  32.889  32.818  1.00  0.00     0.074 A 
ATOM     33  C   UNL A   1      38.321  31.415  30.842  1.00  0.00     0.049 A 
ATOM     34  N   UNL A   1      39.187  32.455  33.522  1.00  0.00    -0.248 NA
ATOM     35  C   UNL A   1      37.408  33.965  33.471  1.00  0.00     0.031 C 
ATOM     36  C   UNL A   1      37.959  30.891  29.523  1.00  0.00     0.029 A 
ATOM     37  N   UNL A   1      39.371  30.628  31.238  1.00  0.00    -0.354 N 
ATOM     38  C   UNL A   1      39.203  33.221  34.681  1.00  0.00     0.074 A 
ATOM     39  C   UNL A   1      38.102  34.154  34.586  1.00  0.00     0.031 C 
ATOM     40  C   UNL A   1      38.750  29.849  29.234  1.00  0.00     0.029 A 
ATOM     41  C   UNL A   1      39.708  29.663  30.319  1.00  0.00     0.049 A 
ATOM     42  H   UNL A   1      39.839  30.742  32.097  1.00  0.00     0.167 HD
ATOM     43  C   UNL A   1      40.045  33.139  35.738  1.00  0.00     0.034 A 
ATOM     44  C   UNL A   1      40.687  28.739  30.335  1.00  0.00     0.034 A 
ATOM     45  C   UNL A   1      41.117  32.186  35.847  1.00  0.00     0.049 A 
ATOM     46  C   UNL A   1      41.600  28.659  31.520  1.00  0.00     0.074 A 
ATOM     47  C   UNL A   1      42.033  32.036  36.875  1.00  0.00     0.029 A 
ATOM     48  N   UNL A   1      41.407  31.210  34.907  1.00  0.00    -0.354 N 
ATOM     49  N   UNL A   1      41.589  29.383  32.612  1.00  0.00    -0.248 NA
ATOM     50  C   UNL A   1      42.646  27.628  31.489  1.00  0.00     0.031 C 
ATOM     51  C   UNL A   1      42.871  30.961  36.559  1.00  0.00     0.029 A 
ATOM     52  C   UNL A   1      42.474  30.440  35.339  1.00  0.00     0.049 A 
ATOM     53  H   UNL A   1      40.927  31.084  34.058  1.00  0.00     0.167 HD
ATOM     54  C   UNL A   1      42.617  28.890  33.406  1.00  0.00     0.074 A 
ATOM     55  C   UNL A   1      43.218  27.792  32.676  1.00  0.00     0.031 C 
ATOM     56  C   UNL A   1      43.032  29.323  34.621  1.00  0.00     0.034 A 
BRANCH  43  57
ATOM     57  C   UNL A   1      39.808  34.070  36.895  1.00  0.00     0.023 A 
ATOM     58  C   UNL A   1      40.104  35.440  36.742  1.00  0.00     0.012 A 
ATOM     59  C   UNL A   1      39.235  33.615  38.097  1.00  0.00     0.148 A 
ATOM     60  C   UNL A   1      39.845  36.340  37.774  1.00  0.00     0.002 A 
ATOM     61  C   UNL A   1      38.953  34.523  39.111  1.00  0.00     0.091 A 
ATOM     62  F   UNL A   1      38.980  32.305  38.227  1.00  0.00    -0.205 F 
ATOM     63  C   UNL A   1      39.261  35.884  38.953  1.00  0.00     0.022 A 
BRANCH  61  64
ATOM     64  S   UNL A   1      38.159  34.047  40.651  1.00  0.00     0.127 S 
ATOM     65  O   UNL A   1      39.189  33.211  41.266  1.00  0.00    -0.237 OA
ATOM     66  O   UNL A   1      37.953  35.340  41.305  1.00  0.00    -0.237 OA
ATOM     67  O   UNL A   1      36.936  33.353  40.274  1.00  0.00    -0.744 OA
ENDBRANCH  61  64
ENDBRANCH  43  57
BRANCH  44  68
ATOM     68  C   UNL A   1      40.791  27.793  29.193  1.00  0.00     0.023 A 
ATOM     69  C   UNL A   1      39.892  26.714  29.108  1.00  0.00     0.012 A 
ATOM     70  C   UNL A   1      41.682  28.039  28.130  1.00  0.00     0.148 A 
ATOM     71  C   UNL A   1      39.873  25.898  27.977  1.00  0.00     0.002 A 
ATOM     72  C   UNL A   1      41.624  27.252  26.987  1.00  0.00     0.091 A 
ATOM     73  F   UNL A   1      42.524  29.077  28.239  1.00  0.00    -0.205 F 
ATOM     74  C   UNL A   1      40.727  26.175  26.912  1.00  0.00     0.022 A 
BRANCH  72  75
ATOM     75  S   UNL A   1      42.590  27.609  25.515  1.00  0.00     0.127 S 
ATOM     76  O   UNL A   1      43.947  27.658  26.052  1.00  0.00    -0.237 OA
ATOM     77  O   UNL A   1      42.298  26.443  24.681  1.00  0.00    -0.237 OA
ATOM     78  O   UNL A   1      42.078  28.871  24.999  1.00  0.00    -0.744 OA
ENDBRANCH  72  75
ENDBRANCH  44  68
BRANCH  56  79
ATOM     79  C   UNL A   1      44.187  28.605  35.259  1.00  0.00     0.023 A 
ATOM     80  C   UNL A   1      45.502  28.996  34.946  1.00  0.00     0.012 A 
ATOM     81  C   UNL A   1      43.967  27.616  36.238  1.00  0.00     0.148 A 
ATOM     82  C   UNL A   1      46.587  28.404  35.592  1.00  0.00     0.002 A 
ATOM     83  C   UNL A   1      45.051  27.054  36.899  1.00  0.00     0.091 A 
ATOM     84  F   UNL A   1      42.704  27.252  36.504  1.00  0.00    -0.205 F 
ATOM     85  C   UNL A   1      46.361  27.443  36.574  1.00  0.00     0.022 A 
BRANCH  83  86
ATOM     86  S   UNL A   1      44.854  25.860  38.228  1.00  0.00     0.127 S 
ATOM     87  O   UNL A   1      44.063  26.619  39.195  1.00  0.00    -0.237 OA
ATOM     88  O   UNL A   1      44.131  24.774  37.565  1.00  0.00    -0.237 OA
ATOM     89  O   UNL A   1      46.202  25.513  38.658  1.00  0.00    -0.744 OA
ENDBRANCH  83  86
ENDBRANCH  56  79
ENDBRANCH  30  31
ENDBRANCH  22  25
ENDBRANCH   1  21
TORSDOF 14
ENDMDL
MODEL 2
REMARK VINA RESULT:     -12.0      1.481      1.817
REMARK SMILES Nc1cc(C(=O)NCCCNC(=O)c2ccc(-c3c4nc(c(-c5cccc(S(=O)(=O)[O-])c5F)c5ccc([nH]5)c(-c5cccc(S(=O)(=O)[O-])c5F)c5nc(c(-c6cccc(S(=O)(=O)[O-])c6F)c6ccc3[nH]6)C=C5)C=C4)cc2)nc2ccccc12
REMARK SMILES IDX 10 1 9 2 8 3 7 4 5 5 6 6 4 8 2 9 3 10 83 11 78 12 82 13
REMARK SMILES IDX 77 14 79 15 81 16 80 17 1 18 11 21 12 22 13 24 14 25 15 26
REMARK SMILES IDX 76 27 16 28 75 29 17 30 18 31 19 32 69 33 20 34 74 35 68 36
REMARK SMILES IDX 70 37 21 38 73 39 67 40 66 41 22 43 54 44 34 45 53 46 35 47
REMARK SMILES IDX 38 48 52 49 71 50 36 51 37 52 51 54 72 55 39 56 23 57 24 58
REMARK SMILES IDX 32 59 25 60 27 61 33 62 26 63 28 64 29 65 30 66 31 67 55 68
REMARK SMILES IDX 56 69 64 70 57 71 59 72 65 73 58 74 60 75 61 76 62 77 63 78
REMARK SMILES IDX 40 79 41 80 49 81 42 82 44 83 50 84 43 85 45 86 46 87 47 88
REMARK SMILES IDX 48 89
REMARK H PARENT 7 7 1 19 1 20 11 23 70 42 38 53
REMARK Flexibility Score: inf
ROOT
ATOM      1  C   UNL A   1      32.759  32.454  26.922  1.00  0.00     0.118 C 
ENDROOT
BRANCH   1   2
ATOM      2  C   UNL A   1      31.459  31.758  26.528  1.00  0.00     0.042 C 
BRANCH   2   3
ATOM      3  C   UNL A   1      31.632  30.255  26.315  1.00  0.00     0.118 C 
BRANCH   3   4
ATOM      4  N   UNL A   1      31.511  29.906  24.914  1.00  0.00    -0.351 N 
ATOM      5  C   UNL A   1      31.485  28.711  24.231  1.00  0.00     0.269 C 
ATOM      6  O   UNL A   1      31.331  28.803  23.009  1.00  0.00    -0.268 OA
ATOM      7  H   UNL A   1      31.431  30.691  24.324  1.00  0.00     0.163 HD
BRANCH   5   8
ATOM      8  C   UNL A   1      31.601  27.349  24.870  1.00  0.00     0.130 A 
ATOM      9  C   UNL A   1      30.787  25.396  26.017  1.00  0.00     0.043 A 
ATOM     10  C   UNL A   1      30.558  26.657  25.458  1.00  0.00     0.060 A 
ATOM     11  C   UNL A   1      32.091  24.850  25.967  1.00  0.00     0.023 A 
ATOM     12  C   UNL A   1      33.101  25.648  25.392  1.00  0.00     0.073 A 
ATOM     13  C   UNL A   1      32.440  23.574  26.471  1.00  0.00     0.012 A 
ATOM     14  N   UNL A   1      32.863  26.849  24.852  1.00  0.00    -0.242 NA
ATOM     15  C   UNL A   1      34.406  25.177  25.376  1.00  0.00     0.029 A 
ATOM     16  C   UNL A   1      33.758  23.119  26.437  1.00  0.00     0.001 A 
ATOM     17  C   UNL A   1      34.747  23.928  25.897  1.00  0.00     0.002 A 
BRANCH   9  18
ATOM     18  N   UNL A   1      29.689  24.682  26.500  1.00  0.00    -0.398 N 
ATOM     19  H   UNL A   1      29.757  23.711  26.644  1.00  0.00     0.156 HD
ATOM     20  H   UNL A   1      28.845  25.151  26.698  1.00  0.00     0.156 HD
ENDBRANCH   9  18
ENDBRANCH   5   8
ENDBRANCH   3   4
ENDBRANCH   2   3
ENDBRANCH   1   2
BRANCH   1  21
ATOM     21  N   UNL A   1      32.532  33.828  27.350  1.00  0.00    -0.352 N 
ATOM     22  C   UNL A   1      33.084  34.517  28.407  1.00  0.00     0.251 C 
ATOM     23  H   UNL A   1      31.890  34.338  26.806  1.00  0.00     0.163 HD
ATOM     24  O   UNL A   1      32.605  35.591  28.749  1.00  0.00    -0.269 OA
BRANCH  22  25
ATOM     25  C   UNL A   1      34.236  33.942  29.135  1.00  0.00     0.039 A 
ATOM     26  C   UNL A   1      35.536  34.360  28.844  1.00  0.00     0.014 A 
ATOM     27  C   UNL A   1      34.012  32.967  30.111  1.00  0.00     0.014 A 
ATOM     28  C   UNL A   1      36.618  33.693  29.408  1.00  0.00     0.010 A 
ATOM     29  C   UNL A   1      35.100  32.351  30.736  1.00  0.00     0.010 A 
ATOM     30  C   UNL A   1      36.412  32.677  30.355  1.00  0.00    -0.014 A 
BRANCH  30  31
ATOM     31  C   UNL A   1      37.580  31.974  30.942  1.00  0.00     0.031 A 
ATOM     32  C   UNL A   1      38.002  32.232  32.361  1.00  0.00     0.074 A 
ATOM     33  C   UNL A   1      38.241  31.067  30.197  1.00  0.00     0.049 A 
ATOM     34  N   UNL A   1      39.008  31.724  33.025  1.00  0.00    -0.248 NA
ATOM     35  C   UNL A   1      37.190  33.183  33.141  1.00  0.00     0.031 C 
ATOM     36  C   UNL A   1      37.927  30.734  28.806  1.00  0.00     0.029 A 
ATOM     37  N   UNL A   1      39.302  30.255  30.505  1.00  0.00    -0.354 N 
ATOM     38  C   UNL A   1      38.973  32.312  34.282  1.00  0.00     0.074 A 
ATOM     39  C   UNL A   1      37.850  33.223  34.292  1.00  0.00     0.031 C 
ATOM     40  C   UNL A   1      38.754  29.764  28.391  1.00  0.00     0.029 A 
ATOM     41  C   UNL A   1      39.688  29.444  29.465  1.00  0.00     0.049 A 
ATOM     42  H   UNL A   1      39.743  30.254  31.385  1.00  0.00     0.167 HD
ATOM     43  C   UNL A   1      39.790  32.096  35.341  1.00  0.00     0.034 A 
ATOM     44  C   UNL A   1      40.692  28.550  29.376  1.00  0.00     0.034 A 
ATOM     45  C   UNL A   1      40.884  31.163  35.342  1.00  0.00     0.049 A 
ATOM     46  C   UNL A   1      41.576  28.319  30.563  1.00  0.00     0.074 A 
ATOM     47  C   UNL A   1      41.777  30.885  36.363  1.00  0.00     0.029 A 
ATOM     48  N   UNL A   1      41.225  30.342  34.278  1.00  0.00    -0.354 N 
ATOM     49  N   UNL A   1      41.516  28.875  31.749  1.00  0.00    -0.248 NA
ATOM     50  C   UNL A   1      42.650  27.328  30.413  1.00  0.00     0.031 C 
ATOM     51  C   UNL A   1      42.652  29.888  35.919  1.00  0.00     0.029 A 
ATOM     52  C   UNL A   1      42.301  29.543  34.625  1.00  0.00     0.049 A 
ATOM     53  H   UNL A   1      40.770  30.330  33.406  1.00  0.00     0.167 HD
ATOM     54  C   UNL A   1      42.536  28.296  32.492  1.00  0.00     0.074 A 
ATOM     55  C   UNL A   1      43.187  27.330  31.628  1.00  0.00     0.031 C 
ATOM     56  C   UNL A   1      42.908  28.556  33.769  1.00  0.00     0.034 A 
BRANCH  43  57
ATOM     57  C   UNL A   1      39.498  32.842  36.613  1.00  0.00     0.023 A 
ATOM     58  C   UNL A   1      40.116  34.090  36.832  1.00  0.00     0.012 A 
ATOM     59  C   UNL A   1      38.569  32.354  37.553  1.00  0.00     0.148 A 
ATOM     60  C   UNL A   1      39.825  34.834  37.974  1.00  0.00     0.002 A 
ATOM     61  C   UNL A   1      38.264  33.115  38.675  1.00  0.00     0.091 A 
ATOM     62  F   UNL A   1      38.009  31.156  37.333  1.00  0.00    -0.205 F 
ATOM     63  C   UNL A   1      38.893  34.352  38.889  1.00  0.00     0.022 A 
BRANCH  61  64
ATOM     64  S   UNL A   1      37.043  32.607  39.892  1.00  0.00     0.127 S 
ATOM     65  O   UNL A   1      35.831  32.531  39.077  1.00  0.00    -0.237 OA
ATOM     66  O   UNL A   1      37.564  31.313  40.332  1.00  0.00    -0.237 OA
ATOM     67  O   UNL A   1      37.041  33.644  40.915  1.00  0.00    -0.744 OA
ENDBRANCH  61  64
ENDBRANCH  43  57
BRANCH  44  68
ATOM     68  C   UNL A   1      40.851  27.784  28.112  1.00  0.00     0.023 A 
ATOM     69  C   UNL A   1      41.473  28.396  27.009  1.00  0.00     0.012 A 
ATOM     70  C   UNL A   1      40.514  26.418  28.049  1.00  0.00     0.148 A 
ATOM     71  C   UNL A   1      41.766  27.656  25.863  1.00  0.00     0.002 A 
ATOM     72  C   UNL A   1      40.851  25.677  26.924  1.00  0.00     0.091 A 
ATOM     73  F   UNL A   1      39.926  25.862  29.118  1.00  0.00    -0.205 F 
ATOM     74  C   UNL A   1      41.468  26.296  25.826  1.00  0.00     0.022 A 
BRANCH  72  75
ATOM     75  S   UNL A   1      40.630  23.896  26.833  1.00  0.00     0.127 S 
ATOM     76  O   UNL A   1      39.212  23.788  26.500  1.00  0.00    -0.237 OA
ATOM     77  O   UNL A   1      41.546  23.540  25.751  1.00  0.00    -0.237 OA
ATOM     78  O   UNL A   1      41.003  23.381  28.143  1.00  0.00    -0.744 OA
ENDBRANCH  72  75
ENDBRANCH  44  68
BRANCH  56  79
ATOM     79  C   UNL A   1      44.066  27.779  34.329  1.00  0.00     0.023 A 
ATOM     80  C   UNL A   1      45.364  28.313  34.240  1.00  0.00     0.012 A 
ATOM     81  C   UNL A   1      43.852  26.575  35.030  1.00  0.00     0.148 A 
ATOM     82  C   UNL A   1      46.441  27.653  34.830  1.00  0.00     0.002 A 
ATOM     83  C   UNL A   1      44.924  25.939  35.642  1.00  0.00     0.091 A 
ATOM     84  F   UNL A   1      42.607  26.081  35.085  1.00  0.00    -0.205 F 
ATOM     85  C   UNL A   1      46.220  26.474  35.539  1.00  0.00     0.022 A 
BRANCH  83  86
ATOM     86  S   UNL A   1      44.725  24.456  36.635  1.00  0.00     0.127 S 
ATOM     87  O   UNL A   1      43.829  24.924  37.691  1.00  0.00    -0.237 OA
ATOM     88  O   UNL A   1      44.114  23.526  35.684  1.00  0.00    -0.237 OA
ATOM     89  O   UNL A   1      46.063  24.082  37.071  1.00  0.00    -0.744 OA
ENDBRANCH  83  86
ENDBRANCH  56  79
ENDBRANCH  30  31
ENDBRANCH  22  25
ENDBRANCH   1  21
TORSDOF 14
ENDMDL
MODEL 3
REMARK VINA RESULT:     -12.0      2.094      2.752
REMARK SMILES Nc1cc(C(=O)NCCCNC(=O)c2ccc(-c3c4nc(c(-c5cccc(S(=O)(=O)[O-])c5F)c5ccc([nH]5)c(-c5cccc(S(=O)(=O)[O-])c5F)c5nc(c(-c6cccc(S(=O)(=O)[O-])c6F)c6ccc3[nH]6)C=C5)C=C4)cc2)nc2ccccc12
REMARK SMILES IDX 10 1 9 2 8 3 7 4 5 5 6 6 4 8 2 9 3 10 83 11 78 12 82 13
REMARK SMILES IDX 77 14 79 15 81 16 80 17 1 18 11 21 12 22 13 24 14 25 15 26
REMARK SMILES IDX 76 27 16 28 75 29 17 30 18 31 19 32 69 33 20 34 74 35 68 36
REMARK SMILES IDX 70 37 21 38 73 39 67 40 66 41 22 43 54 44 34 45 53 46 35 47
REMARK SMILES IDX 38 48 52 49 71 50 36 51 37 52 51 54 72 55 39 56 23 57 24 58
REMARK SMILES IDX 32 59 25 60 27 61 33 62 26 63 28 64 29 65 30 66 31 67 55 68
REMARK SMILES IDX 56 69 64 70 57 71 59 72 65 73 58 74 60 75 61 76 62 77 63 78
REMARK SMILES IDX 40 79 41 80 49 81 42 82 44 83 50 84 43 85 45 86 46 87 47 88
REMARK SMILES IDX 48 89
REMARK H PARENT 7 7 1 19 1 20 11 23 70 42 38 53
REMARK Flexibility Score: inf
ROOT
ATOM      1  C   UNL A   1      32.128  30.100  26.368  1.00  0.00     0.118 C 
ENDROOT
BRANCH   1   2
ATOM      2  C   UNL A   1      32.190  29.702  24.896  1.00  0.00     0.042 C 
BRANCH   2   3
ATOM      3  C   UNL A   1      30.808  29.523  24.270  1.00  0.00     0.118 C 
BRANCH   3   4
ATOM      4  N   UNL A   1      30.870  28.675  23.097  1.00  0.00    -0.351 N 
ATOM      5  C   UNL A   1      31.053  27.323  22.910  1.00  0.00     0.269 C 
ATOM      6  O   UNL A   1      31.011  26.941  21.736  1.00  0.00    -0.268 OA
ATOM      7  H   UNL A   1      30.757  29.171  22.253  1.00  0.00     0.163 HD
BRANCH   5   8
ATOM      8  C   UNL A   1      31.264  26.320  24.017  1.00  0.00     0.130 A 
ATOM      9  C   UNL A   1      30.597  24.935  25.868  1.00  0.00     0.043 A 
ATOM     10  C   UNL A   1      30.282  25.872  24.880  1.00  0.00     0.060 A 
ATOM     11  C   UNL A   1      31.926  24.459  25.963  1.00  0.00     0.023 A 
ATOM     12  C   UNL A   1      32.871  25.007  25.071  1.00  0.00     0.073 A 
ATOM     13  C   UNL A   1      32.361  23.490  26.899  1.00  0.00     0.012 A 
ATOM     14  N   UNL A   1      32.550  25.897  24.125  1.00  0.00    -0.242 NA
ATOM     15  C   UNL A   1      34.198  24.614  25.167  1.00  0.00     0.029 A 
ATOM     16  C   UNL A   1      33.700  23.104  26.972  1.00  0.00     0.001 A 
ATOM     17  C   UNL A   1      34.623  23.676  26.110  1.00  0.00     0.002 A 
BRANCH   9  18
ATOM     18  N   UNL A   1      29.557  24.425  26.647  1.00  0.00    -0.398 N 
ATOM     19  H   UNL A   1      28.938  25.037  27.105  1.00  0.00     0.156 HD
ATOM     20  H   UNL A   1      29.443  23.451  26.740  1.00  0.00     0.156 HD
ENDBRANCH   9  18
ENDBRANCH   5   8
ENDBRANCH   3   4
ENDBRANCH   2   3
ENDBRANCH   1   2
BRANCH   1  21
ATOM     21  N   UNL A   1      32.026  31.544  26.537  1.00  0.00    -0.352 N 
ATOM     22  C   UNL A   1      32.834  32.401  27.251  1.00  0.00     0.251 C 
ATOM     23  H   UNL A   1      31.269  31.970  26.073  1.00  0.00     0.163 HD
ATOM     24  O   UNL A   1      32.464  33.548  27.466  1.00  0.00    -0.269 OA
BRANCH  22  25
ATOM     25  C   UNL A   1      34.130  31.918  27.775  1.00  0.00     0.039 A 
ATOM     26  C   UNL A   1      34.309  30.567  28.081  1.00  0.00     0.014 A 
ATOM     27  C   UNL A   1      35.173  32.827  27.971  1.00  0.00     0.014 A 
ATOM     28  C   UNL A   1      35.466  30.154  28.731  1.00  0.00     0.010 A 
ATOM     29  C   UNL A   1      36.367  32.395  28.553  1.00  0.00     0.010 A 
ATOM     30  C   UNL A   1      36.506  31.065  28.980  1.00  0.00    -0.014 A 
BRANCH  30  31
ATOM     31  C   UNL A   1      37.731  30.605  29.680  1.00  0.00     0.031 A 
ATOM     32  C   UNL A   1      38.015  31.026  31.095  1.00  0.00     0.074 A 
ATOM     33  C   UNL A   1      38.574  29.769  29.044  1.00  0.00     0.049 A 
ATOM     34  N   UNL A   1      39.045  30.736  31.847  1.00  0.00    -0.248 NA
ATOM     35  C   UNL A   1      37.014  31.882  31.754  1.00  0.00     0.031 C 
ATOM     36  C   UNL A   1      38.408  29.294  27.669  1.00  0.00     0.029 A 
ATOM     37  N   UNL A   1      39.729  29.165  29.469  1.00  0.00    -0.354 N 
ATOM     38  C   UNL A   1      38.836  31.396  33.051  1.00  0.00     0.074 A 
ATOM     39  C   UNL A   1      37.584  32.109  32.931  1.00  0.00     0.031 C 
ATOM     40  C   UNL A   1      39.403  28.446  27.375  1.00  0.00     0.029 A 
ATOM     41  C   UNL A   1      40.306  28.358  28.518  1.00  0.00     0.049 A 
ATOM     42  H   UNL A   1      40.108  29.297  30.369  1.00  0.00     0.167 HD
ATOM     43  C   UNL A   1      39.607  31.390  34.164  1.00  0.00     0.034 A 
ATOM     44  C   UNL A   1      41.443  27.637  28.551  1.00  0.00     0.034 A 
ATOM     45  C   UNL A   1      40.834  30.652  34.296  1.00  0.00     0.049 A 
ATOM     46  C   UNL A   1      42.274  27.636  29.798  1.00  0.00     0.074 A 
ATOM     47  C   UNL A   1      41.692  30.595  35.381  1.00  0.00     0.029 A 
ATOM     48  N   UNL A   1      41.369  29.826  33.319  1.00  0.00    -0.354 N 
ATOM     49  N   UNL A   1      42.051  28.256  30.931  1.00  0.00    -0.248 NA
ATOM     50  C   UNL A   1      43.500  26.827  29.782  1.00  0.00     0.031 C 
ATOM     51  C   UNL A   1      42.741  29.726  35.063  1.00  0.00     0.029 A 
ATOM     52  C   UNL A   1      42.533  29.239  33.783  1.00  0.00     0.049 A 
ATOM     53  H   UNL A   1      40.978  29.679  32.428  1.00  0.00     0.167 HD
ATOM     54  C   UNL A   1      43.101  27.904  31.770  1.00  0.00     0.074 A 
ATOM     55  C   UNL A   1      43.951  27.000  31.019  1.00  0.00     0.031 C 
ATOM     56  C   UNL A   1      43.344  28.308  33.040  1.00  0.00     0.034 A 
BRANCH  43  57
ATOM     57  C   UNL A   1      39.119  32.165  35.357  1.00  0.00     0.023 A 
ATOM     58  C   UNL A   1      39.263  33.567  35.369  1.00  0.00     0.012 A 
ATOM     59  C   UNL A   1      38.461  31.527  36.426  1.00  0.00     0.148 A 
ATOM     60  C   UNL A   1      38.772  34.321  36.433  1.00  0.00     0.002 A 
ATOM     61  C   UNL A   1      37.949  32.288  37.471  1.00  0.00     0.091 A 
ATOM     62  F   UNL A   1      38.352  30.190  36.403  1.00  0.00    -0.205 F 
ATOM     63  C   UNL A   1      38.107  33.684  37.477  1.00  0.00     0.022 A 
BRANCH  61  64
ATOM     64  S   UNL A   1      37.034  31.571  38.841  1.00  0.00     0.127 S 
ATOM     65  O   UNL A   1      37.993  31.709  39.937  1.00  0.00    -0.237 OA
ATOM     66  O   UNL A   1      35.872  32.455  38.934  1.00  0.00    -0.237 OA
ATOM     67  O   UNL A   1      36.730  30.203  38.448  1.00  0.00    -0.744 OA
ENDBRANCH  61  64
ENDBRANCH  43  57
BRANCH  44  68
ATOM     68  C   UNL A   1      41.803  26.822  27.361  1.00  0.00     0.023 A 
ATOM     69  C   UNL A   1      42.510  27.421  26.304  1.00  0.00     0.012 A 
ATOM     70  C   UNL A   1      41.568  25.433  27.340  1.00  0.00     0.148 A 
ATOM     71  C   UNL A   1      42.986  26.648  25.245  1.00  0.00     0.002 A 
ATOM     72  C   UNL A   1      42.086  24.663  26.307  1.00  0.00     0.091 A 
ATOM     73  F   UNL A   1      40.895  24.890  28.365  1.00  0.00    -0.205 F 
ATOM     74  C   UNL A   1      42.787  25.270  25.253  1.00  0.00     0.022 A 
BRANCH  72  75
ATOM     75  S   UNL A   1      41.996  22.869  26.296  1.00  0.00     0.127 S 
ATOM     76  O   UNL A   1      42.646  22.545  25.029  1.00  0.00    -0.237 OA
ATOM     77  O   UNL A   1      42.769  22.527  27.491  1.00  0.00    -0.237 OA
ATOM     78  O   UNL A   1      40.580  22.540  26.372  1.00  0.00    -0.744 OA
ENDBRANCH  72  75
ENDBRANCH  44  68
BRANCH  56  79
ATOM     79  C   UNL A   1      44.572  27.772  33.719  1.00  0.00     0.023 A 
ATOM     80  C   UNL A   1      45.770  28.508  33.663  1.00  0.00     0.012 A 
ATOM     81  C   UNL A   1      44.510  26.596  34.492  1.00  0.00     0.148 A 
ATOM     82  C   UNL A   1      46.898  28.075  34.359  1.00  0.00     0.002 A 
ATOM     83  C   UNL A   1      45.628  26.188  35.208  1.00  0.00     0.091 A 
ATOM     84  F   UNL A   1      43.361  25.906  34.515  1.00  0.00    -0.205 F 
ATOM     85  C   UNL A   1      46.824  26.923  35.139  1.00  0.00     0.022 A 
BRANCH  83  86
ATOM     86  S   UNL A   1      45.607  24.757  36.295  1.00  0.00     0.127 S 
ATOM     87  O   UNL A   1      46.955  24.792  36.859  1.00  0.00    -0.237 OA
ATOM     88  O   UNL A   1      44.541  25.100  37.237  1.00  0.00    -0.237 OA
ATOM     89  O   UNL A   1      45.315  23.611  35.444  1.00  0.00    -0.744 OA
ENDBRANCH  83  86
ENDBRANCH  56  79
ENDBRANCH  30  31
ENDBRANCH  22  25
ENDBRANCH   1  21
TORSDOF 14
ENDMDL
