MODEL 1
REMARK VINA RESULT:     -12.0      0.000      0.000
REMARK SMILES CN(C(=O)N1CCC(C(=O)NCCCNC(=O)c2ccc(-c3c4nc(c(-c5cccc(S(=O)(=O)[O-])c5F)c5ccc([nH]5)c(-c5cccc(S(=O)(=O)[O-])c5F)c5nc(c(-c6cccc(S(=O)(=O)[O-])c6F)c6ccc3[nH]6)C=C5)C=C4)cc2)CC1)[C@H]1CCSC1
REMARK SMILES IDX 13 1 12 2 11 3 9 4 10 5 8 7 3 8 4 9 5 10 6 11 82 12 7 13
REMARK SMILES IDX 81 14 2 15 1 16 83 17 84 18 87 19 85 20 86 21 14 22 15 23
REMARK SMILES IDX 16 24 17 26 18 27 19 28 80 29 20 30 79 31 21 32 22 33 23 34
REMARK SMILES IDX 73 35 24 36 78 37 72 38 74 39 25 40 77 41 71 42 70 43 26 45
REMARK SMILES IDX 58 46 38 47 57 48 39 49 42 50 56 51 75 52 40 53 41 54 55 56
REMARK SMILES IDX 76 57 43 58 27 59 28 60 36 61 29 62 31 63 37 64 30 65 32 66
REMARK SMILES IDX 33 67 34 68 35 69 59 70 60 71 68 72 61 73 63 74 69 75 62 76
REMARK SMILES IDX 64 77 65 78 66 79 67 80 44 81 45 82 53 83 46 84 48 85 54 86
REMARK SMILES IDX 47 87 49 88 50 89 51 90 52 91
REMARK H PARENT 11 6 15 25 74 44 42 55
REMARK Flexibility Score: inf
ROOT
ATOM      1  C   UNL A   1      31.676  31.896  26.595  1.00  0.00     0.042 C 
ENDROOT
BRANCH   1   2
ATOM      2  C   UNL A   1      31.852  30.399  26.403  1.00  0.00     0.117 C 
BRANCH   2   3
ATOM      3  N   UNL A   1      32.044  30.040  25.004  1.00  0.00    -0.356 N 
ATOM      4  C   UNL A   1      32.102  28.826  24.394  1.00  0.00     0.223 C 
ATOM      5  O   UNL A   1      32.268  28.800  23.172  1.00  0.00    -0.275 OA
ATOM      6  H   UNL A   1      32.147  30.807  24.396  1.00  0.00     0.163 HD
BRANCH   4   7
ATOM      7  C   UNL A   1      31.928  27.531  25.173  1.00  0.00     0.082 C 
ATOM      8  C   UNL A   1      32.352  23.675  24.303  1.00  0.00     0.320 C 
ATOM      9  O   UNL A   1      31.936  23.782  23.152  1.00  0.00    -0.248 OA
ATOM     10  N   UNL A   1      32.081  24.659  25.234  1.00  0.00    -0.325 N 
ATOM     11  C   UNL A   1      30.767  25.283  25.229  1.00  0.00     0.122 C 
ATOM     12  C   UNL A   1      33.133  25.406  25.908  1.00  0.00     0.122 C 
ATOM     13  C   UNL A   1      30.793  26.668  24.606  1.00  0.00     0.035 C 
ATOM     14  C   UNL A   1      33.275  26.814  25.346  1.00  0.00     0.035 C 
BRANCH   8  15
ATOM     15  N   UNL A   1      33.043  22.556  24.758  1.00  0.00    -0.324 N 
ATOM     16  C   UNL A   1      32.434  21.477  25.527  1.00  0.00     0.149 C 
BRANCH  15  17
ATOM     17  C   UNL A   1      34.468  22.365  24.432  1.00  0.00     0.097 C 
ATOM     18  C   UNL A   1      35.096  23.391  23.482  1.00  0.00     0.037 C 
ATOM     19  C   UNL A   1      35.391  22.296  25.648  1.00  0.00     0.094 C 
ATOM     20  C   UNL A   1      36.548  22.968  23.310  1.00  0.00     0.072 C 
ATOM     21  S   UNL A   1      37.069  22.346  24.941  1.00  0.00    -0.160 SA
ENDBRANCH  15  17
ENDBRANCH   8  15
ENDBRANCH   4   7
ENDBRANCH   2   3
ENDBRANCH   1   2
BRANCH   1  22
ATOM     22  C   UNL A   1      32.785  32.541  27.410  1.00  0.00     0.118 C 
BRANCH  22  23
ATOM     23  N   UNL A   1      32.543  33.957  27.669  1.00  0.00    -0.352 N 
ATOM     24  C   UNL A   1      33.103  34.784  28.610  1.00  0.00     0.251 C 
ATOM     25  H   UNL A   1      31.878  34.382  27.081  1.00  0.00     0.163 HD
ATOM     26  O   UNL A   1      32.626  35.901  28.802  1.00  0.00    -0.269 OA
BRANCH  24  27
ATOM     27  C   UNL A   1      34.266  34.326  29.398  1.00  0.00     0.039 A 
ATOM     28  C   UNL A   1      34.053  33.713  30.635  1.00  0.00     0.014 A 
ATOM     29  C   UNL A   1      35.564  34.492  28.911  1.00  0.00     0.014 A 
ATOM     30  C   UNL A   1      35.141  33.204  31.349  1.00  0.00     0.010 A 
ATOM     31  C   UNL A   1      36.631  33.898  29.572  1.00  0.00     0.010 A 
ATOM     32  C   UNL A   1      36.434  33.254  30.803  1.00  0.00    -0.014 A 
BRANCH  32  33
ATOM     33  C   UNL A   1      37.596  32.637  31.493  1.00  0.00     0.031 A 
ATOM     34  C   UNL A   1      38.328  31.485  30.855  1.00  0.00     0.074 A 
ATOM     35  C   UNL A   1      37.930  33.046  32.733  1.00  0.00     0.049 A 
ATOM     36  N   UNL A   1      39.307  30.764  31.334  1.00  0.00    -0.248 NA
ATOM     37  C   UNL A   1      37.879  31.068  29.516  1.00  0.00     0.031 C 
ATOM     38  C   UNL A   1      37.247  34.097  33.491  1.00  0.00     0.029 A 
ATOM     39  N   UNL A   1      38.909  32.604  33.589  1.00  0.00    -0.354 N 
ATOM     40  C   UNL A   1      39.563  29.788  30.380  1.00  0.00     0.074 A 
ATOM     41  C   UNL A   1      38.611  29.984  29.309  1.00  0.00     0.031 C 
ATOM     42  C   UNL A   1      37.830  34.223  34.694  1.00  0.00     0.029 A 
ATOM     43  C   UNL A   1      38.901  33.239  34.810  1.00  0.00     0.049 A 
ATOM     44  H   UNL A   1      39.555  31.900  33.350  1.00  0.00     0.167 HD
ATOM     45  C   UNL A   1      40.521  28.830  30.379  1.00  0.00     0.034 A 
ATOM     46  C   UNL A   1      39.661  33.041  35.905  1.00  0.00     0.034 A 
ATOM     47  C   UNL A   1      41.489  28.664  31.428  1.00  0.00     0.049 A 
ATOM     48  C   UNL A   1      40.741  31.993  35.864  1.00  0.00     0.074 A 
ATOM     49  C   UNL A   1      42.557  27.784  31.481  1.00  0.00     0.029 A 
ATOM     50  N   UNL A   1      41.505  29.384  32.612  1.00  0.00    -0.354 N 
ATOM     51  N   UNL A   1      41.067  31.181  34.888  1.00  0.00    -0.248 NA
ATOM     52  C   UNL A   1      41.581  31.858  37.063  1.00  0.00     0.031 C 
ATOM     53  C   UNL A   1      43.197  27.949  32.713  1.00  0.00     0.029 A 
ATOM     54  C   UNL A   1      42.555  28.961  33.409  1.00  0.00     0.049 A 
ATOM     55  H   UNL A   1      40.864  30.091  32.852  1.00  0.00     0.167 HD
ATOM     56  C   UNL A   1      42.173  30.469  35.337  1.00  0.00     0.074 A 
ATOM     57  C   UNL A   1      42.472  30.959  36.668  1.00  0.00     0.031 C 
ATOM     58  C   UNL A   1      42.873  29.492  34.710  1.00  0.00     0.034 A 
BRANCH  45  59
ATOM     59  C   UNL A   1      40.596  27.913  29.185  1.00  0.00     0.023 A 
ATOM     60  C   UNL A   1      39.704  26.826  29.080  1.00  0.00     0.012 A 
ATOM     61  C   UNL A   1      41.509  28.160  28.141  1.00  0.00     0.148 A 
ATOM     62  C   UNL A   1      39.745  25.977  27.975  1.00  0.00     0.002 A 
ATOM     63  C   UNL A   1      41.509  27.339  27.019  1.00  0.00     0.091 A 
ATOM     64  F   UNL A   1      42.363  29.186  28.266  1.00  0.00    -0.205 F 
ATOM     65  C   UNL A   1      40.638  26.239  26.941  1.00  0.00     0.022 A 
BRANCH  63  66
ATOM     66  S   UNL A   1      42.562  27.641  25.595  1.00  0.00     0.127 S 
ATOM     67  O   UNL A   1      42.302  26.455  24.779  1.00  0.00    -0.237 OA
ATOM     68  O   UNL A   1      42.005  28.883  25.060  1.00  0.00    -0.237 OA
ATOM     69  O   UNL A   1      43.918  27.755  26.114  1.00  0.00    -0.744 OA
ENDBRANCH  63  66
ENDBRANCH  45  59
BRANCH  46  70
ATOM     70  C   UNL A   1      39.465  33.891  37.113  1.00  0.00     0.023 A 
ATOM     71  C   UNL A   1      39.925  35.223  37.104  1.00  0.00     0.012 A 
ATOM     72  C   UNL A   1      38.811  33.399  38.259  1.00  0.00     0.148 A 
ATOM     73  C   UNL A   1      39.771  36.037  38.226  1.00  0.00     0.002 A 
ATOM     74  C   UNL A   1      38.612  34.232  39.354  1.00  0.00     0.091 A 
ATOM     75  F   UNL A   1      38.389  32.127  38.250  1.00  0.00    -0.205 F 
ATOM     76  C   UNL A   1      39.107  35.545  39.346  1.00  0.00     0.022 A 
BRANCH  74  77
ATOM     77  S   UNL A   1      37.660  33.726  40.791  1.00  0.00     0.127 S 
ATOM     78  O   UNL A   1      36.448  33.194  40.174  1.00  0.00    -0.237 OA
ATOM     79  O   UNL A   1      38.537  32.721  41.394  1.00  0.00    -0.237 OA
ATOM     80  O   UNL A   1      37.484  34.929  41.592  1.00  0.00    -0.744 OA
ENDBRANCH  74  77
ENDBRANCH  46  70
BRANCH  58  81
ATOM     81  C   UNL A   1      44.065  28.913  35.425  1.00  0.00     0.023 A 
ATOM     82  C   UNL A   1      45.333  29.512  35.289  1.00  0.00     0.012 A 
ATOM     83  C   UNL A   1      43.908  27.817  36.298  1.00  0.00     0.148 A 
ATOM     84  C   UNL A   1      46.432  29.009  35.984  1.00  0.00     0.002 A 
ATOM     85  C   UNL A   1      44.996  27.355  37.028  1.00  0.00     0.091 A 
ATOM     86  F   UNL A   1      42.697  27.250  36.401  1.00  0.00    -0.205 F 
ATOM     87  C   UNL A   1      46.262  27.941  36.862  1.00  0.00     0.022 A 
BRANCH  85  88
ATOM     88  S   UNL A   1      44.851  26.053  38.255  1.00  0.00     0.127 S 
ATOM     89  O   UNL A   1      43.876  26.623  39.182  1.00  0.00    -0.237 OA
ATOM     90  O   UNL A   1      44.352  24.932  37.457  1.00  0.00    -0.237 OA
ATOM     91  O   UNL A   1      46.189  25.859  38.799  1.00  0.00    -0.744 OA
ENDBRANCH  85  88
ENDBRANCH  58  81
ENDBRANCH  32  33
ENDBRANCH  24  27
ENDBRANCH  22  23
ENDBRANCH   1  22
TORSDOF 15
ENDMDL
MODEL 2
REMARK VINA RESULT:     -12.0      5.584      9.058
REMARK SMILES CN(C(=O)N1CCC(C(=O)NCCCNC(=O)c2ccc(-c3c4nc(c(-c5cccc(S(=O)(=O)[O-])c5F)c5ccc([nH]5)c(-c5cccc(S(=O)(=O)[O-])c5F)c5nc(c(-c6cccc(S(=O)(=O)[O-])c6F)c6ccc3[nH]6)C=C5)C=C4)cc2)CC1)[C@H]1CCSC1
REMARK SMILES IDX 13 1 12 2 11 3 9 4 10 5 8 7 3 8 4 9 5 10 6 11 82 12 7 13
REMARK SMILES IDX 81 14 2 15 1 16 83 17 84 18 87 19 85 20 86 21 14 22 15 23
REMARK SMILES IDX 16 24 17 26 18 27 19 28 80 29 20 30 79 31 21 32 22 33 23 34
REMARK SMILES IDX 73 35 24 36 78 37 72 38 74 39 25 40 77 41 71 42 70 43 26 45
REMARK SMILES IDX 58 46 38 47 57 48 39 49 42 50 56 51 75 52 40 53 41 54 55 56
REMARK SMILES IDX 76 57 43 58 27 59 28 60 36 61 29 62 31 63 37 64 30 65 32 66
REMARK SMILES IDX 33 67 34 68 35 69 59 70 60 71 68 72 61 73 63 74 69 75 62 76
REMARK SMILES IDX 64 77 65 78 66 79 67 80 44 81 45 82 53 83 46 84 48 85 54 86
REMARK SMILES IDX 47 87 49 88 50 89 51 90 52 91
REMARK H PARENT 11 6 15 25 74 44 42 55
REMARK Flexibility Score: inf
ROOT
ATOM      1  C   UNL A   1      35.341  21.571  24.841  1.00  0.00     0.042 C 
ENDROOT
BRANCH   1   2
ATOM      2  C   UNL A   1      34.246  20.731  25.479  1.00  0.00     0.117 C 
BRANCH   2   3
ATOM      3  N   UNL A   1      33.879  21.215  26.804  1.00  0.00    -0.356 N 
ATOM      4  C   UNL A   1      33.199  22.328  27.189  1.00  0.00     0.223 C 
ATOM      5  O   UNL A   1      33.013  22.502  28.396  1.00  0.00    -0.275 OA
ATOM      6  H   UNL A   1      34.172  20.638  27.545  1.00  0.00     0.163 HD
BRANCH   4   7
ATOM      7  C   UNL A   1      32.641  23.315  26.177  1.00  0.00     0.082 C 
ATOM      8  C   UNL A   1      31.589  27.148  26.305  1.00  0.00     0.320 C 
ATOM      9  O   UNL A   1      31.143  27.094  27.448  1.00  0.00    -0.248 OA
ATOM     10  N   UNL A   1      31.765  25.988  25.573  1.00  0.00    -0.325 N 
ATOM     11  C   UNL A   1      30.764  24.938  25.676  1.00  0.00     0.122 C 
ATOM     12  C   UNL A   1      33.066  25.575  25.070  1.00  0.00     0.122 C 
ATOM     13  C   UNL A   1      31.230  23.786  26.551  1.00  0.00     0.035 C 
ATOM     14  C   UNL A   1      33.653  24.434  25.892  1.00  0.00     0.035 C 
BRANCH   8  15
ATOM     15  N   UNL A   1      31.871  28.346  25.657  1.00  0.00    -0.324 N 
ATOM     16  C   UNL A   1      31.142  28.836  24.493  1.00  0.00     0.149 C 
BRANCH  15  17
ATOM     17  C   UNL A   1      32.926  29.245  26.160  1.00  0.00     0.097 C 
ATOM     18  C   UNL A   1      32.481  30.349  27.126  1.00  0.00     0.037 C 
ATOM     19  C   UNL A   1      34.093  28.533  26.841  1.00  0.00     0.094 C 
ATOM     20  C   UNL A   1      33.740  31.125  27.482  1.00  0.00     0.072 C 
ATOM     21  S   UNL A   1      35.065  29.878  27.590  1.00  0.00    -0.160 SA
ENDBRANCH  15  17
ENDBRANCH   8  15
ENDBRANCH   4   7
ENDBRANCH   2   3
ENDBRANCH   1   2
BRANCH   1  22
ATOM     22  C   UNL A   1      36.460  21.944  25.800  1.00  0.00     0.118 C 
BRANCH  22  23
ATOM     23  N   UNL A   1      37.509  20.932  25.860  1.00  0.00    -0.352 N 
ATOM     24  C   UNL A   1      38.855  21.077  26.089  1.00  0.00     0.251 C 
ATOM     25  H   UNL A   1      37.208  20.006  25.713  1.00  0.00     0.163 HD
ATOM     26  O   UNL A   1      39.611  20.125  25.906  1.00  0.00    -0.269 OA
BRANCH  24  27
ATOM     27  C   UNL A   1      39.391  22.377  26.541  1.00  0.00     0.039 A 
ATOM     28  C   UNL A   1      40.436  22.399  27.468  1.00  0.00     0.014 A 
ATOM     29  C   UNL A   1      38.870  23.572  26.042  1.00  0.00     0.014 A 
ATOM     30  C   UNL A   1      41.004  23.622  27.837  1.00  0.00     0.010 A 
ATOM     31  C   UNL A   1      39.500  24.775  26.333  1.00  0.00     0.010 A 
ATOM     32  C   UNL A   1      40.568  24.816  27.241  1.00  0.00    -0.014 A 
BRANCH  32  33
ATOM     33  C   UNL A   1      41.216  26.119  27.542  1.00  0.00     0.031 A 
ATOM     34  C   UNL A   1      42.647  26.362  27.140  1.00  0.00     0.074 A 
ATOM     35  C   UNL A   1      40.550  27.044  28.262  1.00  0.00     0.049 A 
ATOM     36  N   UNL A   1      43.408  27.396  27.386  1.00  0.00    -0.248 NA
ATOM     37  C   UNL A   1      43.322  25.288  26.391  1.00  0.00     0.031 C 
ATOM     38  C   UNL A   1      39.187  26.896  28.779  1.00  0.00     0.029 A 
ATOM     39  N   UNL A   1      40.941  28.281  28.711  1.00  0.00    -0.354 N 
ATOM     40  C   UNL A   1      44.656  27.082  26.862  1.00  0.00     0.074 A 
ATOM     41  C   UNL A   1      44.562  25.746  26.317  1.00  0.00     0.031 C 
ATOM     42  C   UNL A   1      38.855  27.999  29.468  1.00  0.00     0.029 A 
ATOM     43  C   UNL A   1      39.989  28.916  29.476  1.00  0.00     0.049 A 
ATOM     44  H   UNL A   1      41.819  28.676  28.504  1.00  0.00     0.167 HD
ATOM     45  C   UNL A   1      45.773  27.846  26.812  1.00  0.00     0.034 A 
ATOM     46  C   UNL A   1      40.031  30.097  30.123  1.00  0.00     0.034 A 
ATOM     47  C   UNL A   1      45.850  29.189  27.320  1.00  0.00     0.049 A 
ATOM     48  C   UNL A   1      41.273  30.942  30.022  1.00  0.00     0.074 A 
ATOM     49  C   UNL A   1      46.905  30.080  27.238  1.00  0.00     0.029 A 
ATOM     50  N   UNL A   1      44.836  29.832  28.013  1.00  0.00    -0.354 N 
ATOM     51  N   UNL A   1      42.392  30.691  29.388  1.00  0.00    -0.248 NA
ATOM     52  C   UNL A   1      41.245  32.247  30.697  1.00  0.00     0.031 C 
ATOM     53  C   UNL A   1      46.542  31.250  27.911  1.00  0.00     0.029 A 
ATOM     54  C   UNL A   1      45.245  31.104  28.376  1.00  0.00     0.049 A 
ATOM     55  H   UNL A   1      43.956  29.442  28.217  1.00  0.00     0.167 HD
ATOM     56  C   UNL A   1      43.185  31.821  29.551  1.00  0.00     0.074 A 
ATOM     57  C   UNL A   1      42.409  32.765  30.330  1.00  0.00     0.031 C 
ATOM     58  C   UNL A   1      44.444  32.053  29.105  1.00  0.00     0.034 A 
BRANCH  45  59
ATOM     59  C   UNL A   1      46.994  27.264  26.146  1.00  0.00     0.023 A 
ATOM     60  C   UNL A   1      47.183  27.435  24.759  1.00  0.00     0.012 A 
ATOM     61  C   UNL A   1      47.981  26.598  26.900  1.00  0.00     0.148 A 
ATOM     62  C   UNL A   1      48.313  26.921  24.126  1.00  0.00     0.002 A 
ATOM     63  C   UNL A   1      49.129  26.133  26.271  1.00  0.00     0.091 A 
ATOM     64  F   UNL A   1      47.776  26.427  28.214  1.00  0.00    -0.205 F 
ATOM     65  C   UNL A   1      49.290  26.280  24.883  1.00  0.00     0.022 A 
BRANCH  63  66
ATOM     66  S   UNL A   1      50.486  25.369  27.167  1.00  0.00     0.127 S 
ATOM     67  O   UNL A   1      49.823  24.221  27.784  1.00  0.00    -0.237 OA
ATOM     68  O   UNL A   1      51.413  25.029  26.088  1.00  0.00    -0.237 OA
ATOM     69  O   UNL A   1      50.975  26.379  28.095  1.00  0.00    -0.744 OA
ENDBRANCH  63  66
ENDBRANCH  45  59
BRANCH  46  70
ATOM     70  C   UNL A   1      38.838  30.578  30.877  1.00  0.00     0.023 A 
ATOM     71  C   UNL A   1      38.650  30.166  32.211  1.00  0.00     0.012 A 
ATOM     72  C   UNL A   1      37.903  31.452  30.290  1.00  0.00     0.148 A 
ATOM     73  C   UNL A   1      37.534  30.587  32.935  1.00  0.00     0.002 A 
ATOM     74  C   UNL A   1      36.822  31.911  31.034  1.00  0.00     0.091 A 
ATOM     75  F   UNL A   1      38.096  31.824  29.016  1.00  0.00    -0.205 F 
ATOM     76  C   UNL A   1      36.626  31.465  32.350  1.00  0.00     0.022 A 
BRANCH  74  77
ATOM     77  S   UNL A   1      35.671  33.139  30.408  1.00  0.00     0.127 S 
ATOM     78  O   UNL A   1      34.385  32.478  30.617  1.00  0.00    -0.237 OA
ATOM     79  O   UNL A   1      35.932  34.275  31.294  1.00  0.00    -0.237 OA
ATOM     80  O   UNL A   1      36.047  33.362  29.019  1.00  0.00    -0.744 OA
ENDBRANCH  74  77
ENDBRANCH  46  70
BRANCH  58  81
ATOM     81  C   UNL A   1      45.056  33.398  29.400  1.00  0.00     0.023 A 
ATOM     82  C   UNL A   1      45.815  33.590  30.570  1.00  0.00     0.012 A 
ATOM     83  C   UNL A   1      44.941  34.451  28.470  1.00  0.00     0.148 A 
ATOM     84  C   UNL A   1      46.423  34.818  30.827  1.00  0.00     0.002 A 
ATOM     85  C   UNL A   1      45.593  35.655  28.707  1.00  0.00     0.091 A 
ATOM     86  F   UNL A   1      44.200  34.255  27.369  1.00  0.00    -0.205 F 
ATOM     87  C   UNL A   1      46.323  35.845  29.892  1.00  0.00     0.022 A 
BRANCH  85  88
ATOM     88  S   UNL A   1      45.605  36.996  27.513  1.00  0.00     0.127 S 
ATOM     89  O   UNL A   1      46.483  37.967  28.164  1.00  0.00    -0.237 OA
ATOM     90  O   UNL A   1      46.177  36.352  26.330  1.00  0.00    -0.237 OA
ATOM     91  O   UNL A   1      44.217  37.414  27.362  1.00  0.00    -0.744 OA
ENDBRANCH  85  88
ENDBRANCH  58  81
ENDBRANCH  32  33
ENDBRANCH  24  27
ENDBRANCH  22  23
ENDBRANCH   1  22
TORSDOF 15
ENDMDL
MODEL 3
REMARK VINA RESULT:     -11.8      5.687      9.155
REMARK SMILES CN(C(=O)N1CCC(C(=O)NCCCNC(=O)c2ccc(-c3c4nc(c(-c5cccc(S(=O)(=O)[O-])c5F)c5ccc([nH]5)c(-c5cccc(S(=O)(=O)[O-])c5F)c5nc(c(-c6cccc(S(=O)(=O)[O-])c6F)c6ccc3[nH]6)C=C5)C=C4)cc2)CC1)[C@H]1CCSC1
REMARK SMILES IDX 13 1 12 2 11 3 9 4 10 5 8 7 3 8 4 9 5 10 6 11 82 12 7 13
REMARK SMILES IDX 81 14 2 15 1 16 83 17 84 18 87 19 85 20 86 21 14 22 15 23
REMARK SMILES IDX 16 24 17 26 18 27 19 28 80 29 20 30 79 31 21 32 22 33 23 34
REMARK SMILES IDX 73 35 24 36 78 37 72 38 74 39 25 40 77 41 71 42 70 43 26 45
REMARK SMILES IDX 58 46 38 47 57 48 39 49 42 50 56 51 75 52 40 53 41 54 55 56
REMARK SMILES IDX 76 57 43 58 27 59 28 60 36 61 29 62 31 63 37 64 30 65 32 66
REMARK SMILES IDX 33 67 34 68 35 69 59 70 60 71 68 72 61 73 63 74 69 75 62 76
REMARK SMILES IDX 64 77 65 78 66 79 67 80 44 81 45 82 53 83 46 84 48 85 54 86
REMARK SMILES IDX 47 87 49 88 50 89 51 90 52 91
REMARK H PARENT 11 6 15 25 74 44 42 55
REMARK Flexibility Score: inf
ROOT
ATOM      1  C   UNL A   1      35.718  21.511  24.573  1.00  0.00     0.042 C 
ENDROOT
BRANCH   1   2
ATOM      2  C   UNL A   1      34.373  20.967  25.028  1.00  0.00     0.117 C 
BRANCH   2   3
ATOM      3  N   UNL A   1      34.047  21.372  26.390  1.00  0.00    -0.356 N 
ATOM      4  C   UNL A   1      33.300  22.408  26.857  1.00  0.00     0.223 C 
ATOM      5  O   UNL A   1      33.172  22.524  28.079  1.00  0.00    -0.275 OA
ATOM      6  H   UNL A   1      34.431  20.797  27.091  1.00  0.00     0.163 HD
BRANCH   4   7
ATOM      7  C   UNL A   1      32.601  23.378  25.918  1.00  0.00     0.082 C 
ATOM      8  C   UNL A   1      31.685  27.244  26.076  1.00  0.00     0.320 C 
ATOM      9  O   UNL A   1      31.440  27.243  27.280  1.00  0.00    -0.248 OA
ATOM     10  N   UNL A   1      31.703  26.055  25.370  1.00  0.00    -0.325 N 
ATOM     11  C   UNL A   1      30.708  25.041  25.682  1.00  0.00     0.122 C 
ATOM     12  C   UNL A   1      32.888  25.584  24.668  1.00  0.00     0.122 C 
ATOM     13  C   UNL A   1      31.288  23.906  26.508  1.00  0.00     0.035 C 
ATOM     14  C   UNL A   1      33.578  24.454  25.421  1.00  0.00     0.035 C 
BRANCH   8  15
ATOM     15  N   UNL A   1      31.882  28.410  25.344  1.00  0.00    -0.324 N 
ATOM     16  C   UNL A   1      33.096  29.215  25.403  1.00  0.00     0.149 C 
BRANCH  15  17
ATOM     17  C   UNL A   1      30.860  28.888  24.394  1.00  0.00     0.097 C 
ATOM     18  C   UNL A   1      30.423  30.350  24.538  1.00  0.00     0.037 C 
ATOM     19  C   UNL A   1      31.226  28.698  22.923  1.00  0.00     0.094 C 
ATOM     20  C   UNL A   1      29.375  30.581  23.459  1.00  0.00     0.072 C 
ATOM     21  S   UNL A   1      29.939  29.618  22.019  1.00  0.00    -0.160 SA
ENDBRANCH  15  17
ENDBRANCH   8  15
ENDBRANCH   4   7
ENDBRANCH   2   3
ENDBRANCH   1   2
BRANCH   1  22
ATOM     22  C   UNL A   1      36.676  21.804  25.716  1.00  0.00     0.118 C 
BRANCH  22  23
ATOM     23  N   UNL A   1      37.753  20.825  25.813  1.00  0.00    -0.352 N 
ATOM     24  C   UNL A   1      39.086  21.012  26.078  1.00  0.00     0.251 C 
ATOM     25  H   UNL A   1      37.484  19.890  25.665  1.00  0.00     0.163 HD
ATOM     26  O   UNL A   1      39.876  20.083  25.923  1.00  0.00    -0.269 OA
BRANCH  24  27
ATOM     27  C   UNL A   1      39.571  22.332  26.535  1.00  0.00     0.039 A 
ATOM     28  C   UNL A   1      40.600  22.392  27.478  1.00  0.00     0.014 A 
ATOM     29  C   UNL A   1      39.017  23.507  26.025  1.00  0.00     0.014 A 
ATOM     30  C   UNL A   1      41.119  23.634  27.853  1.00  0.00     0.010 A 
ATOM     31  C   UNL A   1      39.600  24.732  26.322  1.00  0.00     0.010 A 
ATOM     32  C   UNL A   1      40.652  24.811  27.247  1.00  0.00    -0.014 A 
BRANCH  32  33
ATOM     33  C   UNL A   1      41.250  26.137  27.554  1.00  0.00     0.031 A 
ATOM     34  C   UNL A   1      42.671  26.434  27.156  1.00  0.00     0.074 A 
ATOM     35  C   UNL A   1      40.548  27.033  28.275  1.00  0.00     0.049 A 
ATOM     36  N   UNL A   1      43.393  27.495  27.408  1.00  0.00    -0.248 NA
ATOM     37  C   UNL A   1      43.388  25.390  26.405  1.00  0.00     0.031 C 
ATOM     38  C   UNL A   1      39.190  26.831  28.789  1.00  0.00     0.029 A 
ATOM     39  N   UNL A   1      40.891  28.282  28.730  1.00  0.00    -0.354 N 
ATOM     40  C   UNL A   1      44.653  27.231  26.885  1.00  0.00     0.074 A 
ATOM     41  C   UNL A   1      44.611  25.894  26.335  1.00  0.00     0.031 C 
ATOM     42  C   UNL A   1      38.816  27.918  29.481  1.00  0.00     0.029 A 
ATOM     43  C   UNL A   1      39.915  28.878  29.495  1.00  0.00     0.049 A 
ATOM     44  H   UNL A   1      41.754  28.711  28.527  1.00  0.00     0.167 HD
ATOM     45  C   UNL A   1      45.740  28.036  26.842  1.00  0.00     0.034 A 
ATOM     46  C   UNL A   1      39.910  30.057  30.147  1.00  0.00     0.034 A 
ATOM     47  C   UNL A   1      45.765  29.379  27.354  1.00  0.00     0.049 A 
ATOM     48  C   UNL A   1      41.120  30.948  30.052  1.00  0.00     0.074 A 
ATOM     49  C   UNL A   1      46.787  30.310  27.278  1.00  0.00     0.029 A 
ATOM     50  N   UNL A   1      44.726  29.981  28.047  1.00  0.00    -0.354 N 
ATOM     51  N   UNL A   1      42.250  30.742  29.420  1.00  0.00    -0.248 NA
ATOM     52  C   UNL A   1      41.041  32.249  30.732  1.00  0.00     0.031 C 
ATOM     53  C   UNL A   1      46.378  31.462  27.955  1.00  0.00     0.029 A 
ATOM     54  C   UNL A   1      45.087  31.266  28.416  1.00  0.00     0.049 A 
ATOM     55  H   UNL A   1      43.861  29.558  28.248  1.00  0.00     0.167 HD
ATOM     56  C   UNL A   1      42.998  31.901  29.589  1.00  0.00     0.074 A 
ATOM     57  C   UNL A   1      42.186  32.812  30.369  1.00  0.00     0.031 C 
ATOM     58  C   UNL A   1      44.249  32.181  29.147  1.00  0.00     0.034 A 
BRANCH  45  59
ATOM     59  C   UNL A   1      46.983  27.503  26.176  1.00  0.00     0.023 A 
ATOM     60  C   UNL A   1      47.221  27.778  24.813  1.00  0.00     0.012 A 
ATOM     61  C   UNL A   1      47.944  26.779  26.911  1.00  0.00     0.148 A 
ATOM     62  C   UNL A   1      48.372  27.310  24.183  1.00  0.00     0.002 A 
ATOM     63  C   UNL A   1      49.113  26.360  26.289  1.00  0.00     0.091 A 
ATOM     64  F   UNL A   1      47.693  26.510  28.200  1.00  0.00    -0.205 F 
ATOM     65  C   UNL A   1      49.323  26.611  24.922  1.00  0.00     0.022 A 
BRANCH  63  66
ATOM     66  S   UNL A   1      50.437  25.527  27.171  1.00  0.00     0.127 S 
ATOM     67  O   UNL A   1      49.755  24.334  27.671  1.00  0.00    -0.237 OA
ATOM     68  O   UNL A   1      51.405  25.273  26.104  1.00  0.00    -0.237 OA
ATOM     69  O   UNL A   1      50.890  26.460  28.193  1.00  0.00    -0.744 OA
ENDBRANCH  63  66
ENDBRANCH  45  59
BRANCH  46  70
ATOM     70  C   UNL A   1      38.698  30.490  30.900  1.00  0.00     0.023 A 
ATOM     71  C   UNL A   1      38.613  30.232  32.282  1.00  0.00     0.012 A 
ATOM     72  C   UNL A   1      37.643  31.170  30.262  1.00  0.00     0.148 A 
ATOM     73  C   UNL A   1      37.484  30.611  33.008  1.00  0.00     0.002 A 
ATOM     74  C   UNL A   1      36.545  31.592  31.002  1.00  0.00     0.091 A 
ATOM     75  F   UNL A   1      37.740  31.397  28.944  1.00  0.00    -0.205 F 
ATOM     76  C   UNL A   1      36.455  31.298  32.371  1.00  0.00     0.022 A 
BRANCH  74  77
ATOM     77  S   UNL A   1      35.231  32.591  30.294  1.00  0.00     0.127 S 
ATOM     78  O   UNL A   1      34.299  32.698  31.414  1.00  0.00    -0.237 OA
ATOM     79  O   UNL A   1      35.939  33.829  29.962  1.00  0.00    -0.237 OA
ATOM     80  O   UNL A   1      34.747  31.848  29.139  1.00  0.00    -0.744 OA
ENDBRANCH  74  77
ENDBRANCH  46  70
BRANCH  58  81
ATOM     81  C   UNL A   1      44.809  33.547  29.448  1.00  0.00     0.023 A 
ATOM     82  C   UNL A   1      45.489  33.783  30.659  1.00  0.00     0.012 A 
ATOM     83  C   UNL A   1      44.728  34.577  28.489  1.00  0.00     0.148 A 
ATOM     84  C   UNL A   1      46.049  35.031  30.925  1.00  0.00     0.002 A 
ATOM     85  C   UNL A   1      45.336  35.801  28.738  1.00  0.00     0.091 A 
ATOM     86  F   UNL A   1      44.063  34.338  27.349  1.00  0.00    -0.205 F 
ATOM     87  C   UNL A   1      45.985  36.035  29.962  1.00  0.00     0.022 A 
BRANCH  85  88
ATOM     88  S   UNL A   1      45.391  37.116  27.517  1.00  0.00     0.127 S 
ATOM     89  O   UNL A   1      43.973  37.431  27.353  1.00  0.00    -0.237 OA
ATOM     90  O   UNL A   1      46.169  38.146  28.208  1.00  0.00    -0.237 OA
ATOM     91  O   UNL A   1      46.045  36.551  26.344  1.00  0.00    -0.744 OA
ENDBRANCH  85  88
ENDBRANCH  58  81
ENDBRANCH  32  33
ENDBRANCH  24  27
ENDBRANCH  22  23
ENDBRANCH   1  22
TORSDOF 15
ENDMDL
