MODEL 1
REMARK VINA RESULT:     -12.7      0.000      0.000
REMARK SMILES O=C(Nc1ccc2c(c1)OCO2)N[C@H]1C=C[C@@H](C(=O)NCCCNC(=O)c2ccc(-c3c4nc(c(-c5cccc(S(=O)(=O)[O-])c5F)c5ccc([nH]5)c(-c5cccc(S(=O)(=O)[O-])c5F)c5nc(c(-c6cccc(S(=O)(=O)[O-])c6F)c6ccc3[nH]6)C=C5)C=C4)cc2)C1
REMARK SMILES IDX 22 1 21 2 20 3 18 4 19 5 17 7 14 8 15 9 90 10 16 11 13 12
REMARK SMILES IDX 1 13 2 14 3 15 4 18 5 19 9 20 6 21 8 22 7 23 10 24 12 25
REMARK SMILES IDX 11 26 23 27 24 28 25 29 26 31 27 32 28 33 89 34 29 35 88 36
REMARK SMILES IDX 30 37 31 38 32 39 82 40 33 41 87 42 81 43 83 44 34 45 86 46
REMARK SMILES IDX 80 47 79 48 35 50 67 51 47 52 66 53 48 54 51 55 65 56 84 57
REMARK SMILES IDX 49 58 50 59 64 61 85 62 52 63 36 64 37 65 45 66 38 67 40 68
REMARK SMILES IDX 46 69 39 70 41 71 42 72 43 73 44 74 68 75 69 76 77 77 70 78
REMARK SMILES IDX 72 79 78 80 71 81 73 82 74 83 75 84 76 85 53 86 54 87 62 88
REMARK SMILES IDX 55 89 57 90 63 91 56 92 58 93 59 94 60 95 61 96
REMARK H PARENT 20 6 3 16 13 17 24 30 83 49 51 60
REMARK Flexibility Score: inf
ROOT
ATOM      1  C   UNL A   1      31.708  28.582  25.694  1.00  0.00     0.042 C 
ENDROOT
BRANCH   1   2
ATOM      2  C   UNL A   1      31.808  27.501  26.762  1.00  0.00     0.117 C 
BRANCH   2   3
ATOM      3  N   UNL A   1      30.994  26.342  26.444  1.00  0.00    -0.356 N 
ATOM      4  C   UNL A   1      31.273  25.013  26.498  1.00  0.00     0.227 C 
ATOM      5  O   UNL A   1      30.350  24.238  26.225  1.00  0.00    -0.274 OA
ATOM      6  H   UNL A   1      30.082  26.556  26.139  1.00  0.00     0.163 HD
BRANCH   4   7
ATOM      7  C   UNL A   1      32.642  24.455  26.899  1.00  0.00     0.103 C 
ATOM      8  C   UNL A   1      33.887  22.382  26.406  1.00  0.00     0.107 C 
ATOM      9  C   UNL A   1      34.365  23.538  25.599  1.00  0.00    -0.006 C 
ATOM     10  C   UNL A   1      32.700  22.953  27.205  1.00  0.00     0.047 C 
ATOM     11  C   UNL A   1      33.693  24.665  25.858  1.00  0.00    -0.016 C 
BRANCH   8  12
ATOM     12  N   UNL A   1      33.502  21.200  25.652  1.00  0.00    -0.332 N 
ATOM     13  O   UNL A   1      31.843  21.968  24.258  1.00  0.00    -0.248 OA
ATOM     14  C   UNL A   1      32.575  21.068  24.663  1.00  0.00     0.319 C 
ATOM     15  N   UNL A   1      32.543  19.868  24.013  1.00  0.00    -0.308 N 
ATOM     16  H   UNL A   1      32.070  19.892  23.149  1.00  0.00     0.171 HD
ATOM     17  H   UNL A   1      33.982  20.374  25.890  1.00  0.00     0.165 HD
BRANCH  15  18
ATOM     18  C   UNL A   1      33.058  18.604  24.347  1.00  0.00     0.046 A 
ATOM     19  C   UNL A   1      34.408  18.251  24.152  1.00  0.00     0.030 A 
ATOM     20  C   UNL A   1      32.175  17.691  24.936  1.00  0.00     0.076 A 
ATOM     21  C   UNL A   1      34.872  16.980  24.501  1.00  0.00     0.053 A 
ATOM     22  C   UNL A   1      32.650  16.430  25.230  1.00  0.00     0.167 A 
ATOM     23  C   UNL A   1      33.963  16.090  25.020  1.00  0.00     0.165 A 
ATOM     24  O   UNL A   1      31.920  15.396  25.727  1.00  0.00    -0.454 OA
ATOM     25  O   UNL A   1      34.231  14.815  25.383  1.00  0.00    -0.454 OA
ATOM     26  C   UNL A   1      32.915  14.333  25.724  1.00  0.00     0.468 C 
ENDBRANCH  15  18
ENDBRANCH   8  12
ENDBRANCH   4   7
ENDBRANCH   2   3
ENDBRANCH   1   2
BRANCH   1  27
ATOM     27  C   UNL A   1      32.948  29.459  25.580  1.00  0.00     0.118 C 
BRANCH  27  28
ATOM     28  N   UNL A   1      32.694  30.835  25.986  1.00  0.00    -0.352 N 
ATOM     29  C   UNL A   1      33.284  31.589  26.968  1.00  0.00     0.251 C 
ATOM     30  H   UNL A   1      31.988  31.295  25.476  1.00  0.00     0.163 HD
ATOM     31  O   UNL A   1      32.783  32.666  27.286  1.00  0.00    -0.269 OA
BRANCH  29  32
ATOM     32  C   UNL A   1      34.506  31.114  27.655  1.00  0.00     0.039 A 
ATOM     33  C   UNL A   1      35.550  32.018  27.879  1.00  0.00     0.014 A 
ATOM     34  C   UNL A   1      34.642  29.782  28.050  1.00  0.00     0.014 A 
ATOM     35  C   UNL A   1      36.702  31.598  28.550  1.00  0.00     0.010 A 
ATOM     36  C   UNL A   1      35.751  29.387  28.794  1.00  0.00     0.010 A 
ATOM     37  C   UNL A   1      36.799  30.286  29.041  1.00  0.00    -0.014 A 
BRANCH  37  38
ATOM     38  C   UNL A   1      37.984  29.833  29.815  1.00  0.00     0.031 A 
ATOM     39  C   UNL A   1      38.210  30.333  31.219  1.00  0.00     0.074 A 
ATOM     40  C   UNL A   1      38.904  29.045  29.222  1.00  0.00     0.049 A 
ATOM     41  N   UNL A   1      39.206  30.086  32.031  1.00  0.00    -0.248 NA
ATOM     42  C   UNL A   1      37.204  31.256  31.770  1.00  0.00     0.031 C 
ATOM     43  C   UNL A   1      38.839  28.554  27.842  1.00  0.00     0.029 A 
ATOM     44  N   UNL A   1      40.085  28.535  29.698  1.00  0.00    -0.354 N 
ATOM     45  C   UNL A   1      38.973  30.859  33.165  1.00  0.00     0.074 A 
ATOM     46  C   UNL A   1      37.757  31.603  32.923  1.00  0.00     0.031 C 
ATOM     47  C   UNL A   1      39.921  27.799  27.590  1.00  0.00     0.029 A 
ATOM     48  C   UNL A   1      40.769  27.775  28.778  1.00  0.00     0.049 A 
ATOM     49  H   UNL A   1      40.413  28.699  30.612  1.00  0.00     0.167 HD
ATOM     50  C   UNL A   1      39.692  30.928  34.310  1.00  0.00     0.034 A 
ATOM     51  C   UNL A   1      41.945  27.128  28.883  1.00  0.00     0.034 A 
ATOM     52  C   UNL A   1      40.874  30.148  34.564  1.00  0.00     0.049 A 
ATOM     53  C   UNL A   1      42.701  27.186  30.183  1.00  0.00     0.074 A 
ATOM     54  C   UNL A   1      41.612  30.058  35.730  1.00  0.00     0.029 A 
ATOM     55  N   UNL A   1      41.499  29.336  33.632  1.00  0.00    -0.354 N 
ATOM     56  N   UNL A   1      42.377  27.788  31.301  1.00  0.00    -0.248 NA
ATOM     57  C   UNL A   1      43.969  26.445  30.243  1.00  0.00     0.031 C 
ATOM     58  C   UNL A   1      42.706  29.221  35.492  1.00  0.00     0.029 A 
ATOM     59  C   UNL A   1      42.628  28.758  34.188  1.00  0.00     0.049 A 
ATOM     60  H   UNL A   1      41.188  29.189  32.709  1.00  0.00     0.167 HD
ATOM     61  C   UNL A   1      43.383  27.470  32.209  1.00  0.00     0.074 A 
ATOM     62  C   UNL A   1      44.315  26.607  31.512  1.00  0.00     0.031 C 
ATOM     63  C   UNL A   1      43.525  27.865  33.499  1.00  0.00     0.034 A 
BRANCH  50  64
ATOM     64  C   UNL A   1      39.204  31.858  35.392  1.00  0.00     0.023 A 
ATOM     65  C   UNL A   1      38.241  31.413  36.322  1.00  0.00     0.012 A 
ATOM     66  C   UNL A   1      39.733  33.158  35.519  1.00  0.00     0.148 A 
ATOM     67  C   UNL A   1      37.779  32.259  37.330  1.00  0.00     0.002 A 
ATOM     68  C   UNL A   1      39.304  33.979  36.555  1.00  0.00     0.091 A 
ATOM     69  F   UNL A   1      40.631  33.574  34.616  1.00  0.00    -0.205 F 
ATOM     70  C   UNL A   1      38.317  33.538  37.452  1.00  0.00     0.022 A 
BRANCH  68  71
ATOM     71  S   UNL A   1      39.998  35.611  36.846  1.00  0.00     0.127 S 
ATOM     72  O   UNL A   1      41.418  35.304  37.002  1.00  0.00    -0.237 OA
ATOM     73  O   UNL A   1      39.660  36.315  35.608  1.00  0.00    -0.237 OA
ATOM     74  O   UNL A   1      39.331  36.122  38.035  1.00  0.00    -0.744 OA
ENDBRANCH  68  71
ENDBRANCH  50  64
BRANCH  51  75
ATOM     75  C   UNL A   1      42.442  26.286  27.759  1.00  0.00     0.023 A 
ATOM     76  C   UNL A   1      43.349  26.854  26.840  1.00  0.00     0.012 A 
ATOM     77  C   UNL A   1      42.032  24.951  27.585  1.00  0.00     0.148 A 
ATOM     78  C   UNL A   1      43.812  26.118  25.750  1.00  0.00     0.002 A 
ATOM     79  C   UNL A   1      42.523  24.213  26.513  1.00  0.00     0.091 A 
ATOM     80  F   UNL A   1      41.163  24.433  28.465  1.00  0.00    -0.205 F 
ATOM     81  C   UNL A   1      43.406  24.797  25.591  1.00  0.00     0.022 A 
BRANCH  79  82
ATOM     82  S   UNL A   1      42.113  22.482  26.267  1.00  0.00     0.127 S 
ATOM     83  O   UNL A   1      42.692  21.861  27.456  1.00  0.00    -0.237 OA
ATOM     84  O   UNL A   1      40.648  22.518  26.241  1.00  0.00    -0.237 OA
ATOM     85  O   UNL A   1      42.714  22.113  24.997  1.00  0.00    -0.744 OA
ENDBRANCH  79  82
ENDBRANCH  51  75
BRANCH  63  86
ATOM     86  C   UNL A   1      44.715  27.344  34.262  1.00  0.00     0.023 A 
ATOM     87  C   UNL A   1      45.944  28.029  34.203  1.00  0.00     0.012 A 
ATOM     88  C   UNL A   1      44.591  26.216  35.097  1.00  0.00     0.148 A 
ATOM     89  C   UNL A   1      47.042  27.580  34.938  1.00  0.00     0.002 A 
ATOM     90  C   UNL A   1      45.673  25.805  35.867  1.00  0.00     0.091 A 
ATOM     91  F   UNL A   1      43.418  25.566  35.126  1.00  0.00    -0.205 F 
ATOM     92  C   UNL A   1      46.903  26.477  35.778  1.00  0.00     0.022 A 
BRANCH  90  93
ATOM     93  S   UNL A   1      45.557  24.460  37.052  1.00  0.00     0.127 S 
ATOM     94  O   UNL A   1      44.549  24.968  37.981  1.00  0.00    -0.237 OA
ATOM     95  O   UNL A   1      45.110  23.347  36.214  1.00  0.00    -0.237 OA
ATOM     96  O   UNL A   1      46.894  24.299  37.608  1.00  0.00    -0.744 OA
ENDBRANCH  90  93
ENDBRANCH  63  86
ENDBRANCH  37  38
ENDBRANCH  29  32
ENDBRANCH  27  28
ENDBRANCH   1  27
TORSDOF 15
ENDMDL
MODEL 2
REMARK VINA RESULT:     -12.7      4.213      9.558
REMARK SMILES O=C(Nc1ccc2c(c1)OCO2)N[C@H]1C=C[C@@H](C(=O)NCCCNC(=O)c2ccc(-c3c4nc(c(-c5cccc(S(=O)(=O)[O-])c5F)c5ccc([nH]5)c(-c5cccc(S(=O)(=O)[O-])c5F)c5nc(c(-c6cccc(S(=O)(=O)[O-])c6F)c6ccc3[nH]6)C=C5)C=C4)cc2)C1
REMARK SMILES IDX 22 1 21 2 20 3 18 4 19 5 17 7 14 8 15 9 90 10 16 11 13 12
REMARK SMILES IDX 1 13 2 14 3 15 4 18 5 19 9 20 6 21 8 22 7 23 10 24 12 25
REMARK SMILES IDX 11 26 23 27 24 28 25 29 26 31 27 32 28 33 89 34 29 35 88 36
REMARK SMILES IDX 30 37 31 38 32 39 82 40 33 41 87 42 81 43 83 44 34 45 86 46
REMARK SMILES IDX 80 47 79 48 35 50 67 51 47 52 66 53 48 54 51 55 65 56 84 57
REMARK SMILES IDX 49 58 50 59 64 61 85 62 52 63 36 64 37 65 45 66 38 67 40 68
REMARK SMILES IDX 46 69 39 70 41 71 42 72 43 73 44 74 68 75 69 76 77 77 70 78
REMARK SMILES IDX 72 79 78 80 71 81 73 82 74 83 75 84 76 85 53 86 54 87 62 88
REMARK SMILES IDX 55 89 57 90 63 91 56 92 58 93 59 94 60 95 61 96
REMARK H PARENT 20 6 3 16 13 17 24 30 83 49 51 60
REMARK Flexibility Score: inf
ROOT
ATOM      1  C   UNL A   1      31.339  31.681  26.528  1.00  0.00     0.042 C 
ENDROOT
BRANCH   1   2
ATOM      2  C   UNL A   1      31.643  30.188  26.539  1.00  0.00     0.117 C 
BRANCH   2   3
ATOM      3  N   UNL A   1      32.808  29.873  27.344  1.00  0.00    -0.356 N 
ATOM      4  C   UNL A   1      33.799  28.960  27.162  1.00  0.00     0.227 C 
ATOM      5  O   UNL A   1      34.714  28.957  27.992  1.00  0.00    -0.274 OA
ATOM      6  H   UNL A   1      32.897  30.414  28.162  1.00  0.00     0.163 HD
BRANCH   4   7
ATOM      7  C   UNL A   1      33.837  27.981  25.985  1.00  0.00     0.103 C 
ATOM      8  C   UNL A   1      32.363  27.517  24.061  1.00  0.00     0.107 C 
ATOM      9  C   UNL A   1      33.548  28.337  23.685  1.00  0.00    -0.006 C 
ATOM     10  C   UNL A   1      32.499  27.347  25.586  1.00  0.00     0.047 C 
ATOM     11  C   UNL A   1      34.351  28.595  24.723  1.00  0.00    -0.016 C 
BRANCH   8  12
ATOM     12  N   UNL A   1      31.069  28.074  23.700  1.00  0.00    -0.332 N 
ATOM     13  O   UNL A   1      29.697  26.232  23.611  1.00  0.00    -0.248 OA
ATOM     14  C   UNL A   1      29.874  27.445  23.528  1.00  0.00     0.319 C 
ATOM     15  N   UNL A   1      28.782  28.246  23.354  1.00  0.00    -0.308 N 
ATOM     16  H   UNL A   1      27.922  27.790  23.504  1.00  0.00     0.171 HD
ATOM     17  H   UNL A   1      31.055  29.049  23.560  1.00  0.00     0.165 HD
BRANCH  15  18
ATOM     18  C   UNL A   1      28.657  29.600  23.000  1.00  0.00     0.046 A 
ATOM     19  C   UNL A   1      28.941  30.654  23.890  1.00  0.00     0.030 A 
ATOM     20  C   UNL A   1      28.271  29.881  21.683  1.00  0.00     0.076 A 
ATOM     21  C   UNL A   1      28.800  31.985  23.490  1.00  0.00     0.053 A 
ATOM     22  C   UNL A   1      28.099  31.202  21.329  1.00  0.00     0.167 A 
ATOM     23  C   UNL A   1      28.361  32.222  22.209  1.00  0.00     0.165 A 
ATOM     24  O   UNL A   1      27.654  31.657  20.127  1.00  0.00    -0.454 OA
ATOM     25  O   UNL A   1      28.142  33.442  21.667  1.00  0.00    -0.454 OA
ATOM     26  C   UNL A   1      27.584  33.088  20.385  1.00  0.00     0.468 C 
ENDBRANCH  15  18
ENDBRANCH   8  12
ENDBRANCH   4   7
ENDBRANCH   2   3
ENDBRANCH   1   2
BRANCH   1  27
ATOM     27  C   UNL A   1      32.577  32.566  26.480  1.00  0.00     0.118 C 
BRANCH  27  28
ATOM     28  N   UNL A   1      32.383  33.829  27.179  1.00  0.00    -0.352 N 
ATOM     29  C   UNL A   1      32.984  34.312  28.314  1.00  0.00     0.251 C 
ATOM     30  H   UNL A   1      31.716  34.430  26.774  1.00  0.00     0.163 HD
ATOM     31  O   UNL A   1      32.530  35.319  28.856  1.00  0.00    -0.269 OA
BRANCH  29  32
ATOM     32  C   UNL A   1      34.160  33.629  28.896  1.00  0.00     0.039 A 
ATOM     33  C   UNL A   1      35.415  34.237  28.794  1.00  0.00     0.014 A 
ATOM     34  C   UNL A   1      34.039  32.382  29.514  1.00  0.00     0.014 A 
ATOM     35  C   UNL A   1      36.535  33.622  29.360  1.00  0.00     0.010 A 
ATOM     36  C   UNL A   1      35.138  31.814  30.154  1.00  0.00     0.010 A 
ATOM     37  C   UNL A   1      36.400  32.420  30.073  1.00  0.00    -0.014 A 
BRANCH  37  38
ATOM     38  C   UNL A   1      37.563  31.780  30.742  1.00  0.00     0.031 A 
ATOM     39  C   UNL A   1      38.383  30.746  30.013  1.00  0.00     0.074 A 
ATOM     40  C   UNL A   1      37.825  32.062  32.034  1.00  0.00     0.049 A 
ATOM     41  N   UNL A   1      39.403  30.049  30.445  1.00  0.00    -0.248 NA
ATOM     42  C   UNL A   1      37.986  30.431  28.631  1.00  0.00     0.031 C 
ATOM     43  C   UNL A   1      37.060  32.988  32.874  1.00  0.00     0.029 A 
ATOM     44  N   UNL A   1      38.796  31.581  32.876  1.00  0.00    -0.354 N 
ATOM     45  C   UNL A   1      39.735  29.180  29.409  1.00  0.00     0.074 A 
ATOM     46  C   UNL A   1      38.792  29.420  28.340  1.00  0.00     0.031 C 
ATOM     47  C   UNL A   1      37.602  33.023  34.102  1.00  0.00     0.029 A 
ATOM     48  C   UNL A   1      38.734  32.102  34.147  1.00  0.00     0.049 A 
ATOM     49  H   UNL A   1      39.473  30.923  32.595  1.00  0.00     0.167 HD
ATOM     50  C   UNL A   1      40.745  28.281  29.345  1.00  0.00     0.034 A 
ATOM     51  C   UNL A   1      39.505  31.867  35.225  1.00  0.00     0.034 A 
ATOM     52  C   UNL A   1      41.711  28.081  30.393  1.00  0.00     0.049 A 
ATOM     53  C   UNL A   1      40.648  30.896  35.111  1.00  0.00     0.074 A 
ATOM     54  C   UNL A   1      42.837  27.280  30.384  1.00  0.00     0.029 A 
ATOM     55  N   UNL A   1      41.655  28.679  31.642  1.00  0.00    -0.354 N 
ATOM     56  N   UNL A   1      41.049  30.209  34.069  1.00  0.00    -0.248 NA
ATOM     57  C   UNL A   1      41.466  30.694  36.316  1.00  0.00     0.031 C 
ATOM     58  C   UNL A   1      43.443  27.362  31.643  1.00  0.00     0.029 A 
ATOM     59  C   UNL A   1      42.714  28.246  32.422  1.00  0.00     0.049 A 
ATOM     60  H   UNL A   1      40.965  29.318  31.934  1.00  0.00     0.167 HD
ATOM     61  C   UNL A   1      42.186  29.521  34.481  1.00  0.00     0.074 A 
ATOM     62  C   UNL A   1      42.418  29.890  35.863  1.00  0.00     0.031 C 
ATOM     63  C   UNL A   1      42.961  28.654  33.782  1.00  0.00     0.034 A 
BRANCH  50  64
ATOM     64  C   UNL A   1      40.880  27.462  28.086  1.00  0.00     0.023 A 
ATOM     65  C   UNL A   1      41.497  28.018  26.946  1.00  0.00     0.012 A 
ATOM     66  C   UNL A   1      40.437  26.125  28.044  1.00  0.00     0.148 A 
ATOM     67  C   UNL A   1      41.629  27.276  25.773  1.00  0.00     0.002 A 
ATOM     68  C   UNL A   1      40.616  25.375  26.888  1.00  0.00     0.091 A 
ATOM     69  F   UNL A   1      39.833  25.616  29.128  1.00  0.00    -0.205 F 
ATOM     70  C   UNL A   1      41.199  25.951  25.747  1.00  0.00     0.022 A 
BRANCH  68  71
ATOM     71  S   UNL A   1      40.171  23.637  26.785  1.00  0.00     0.127 S 
ATOM     72  O   UNL A   1      38.772  23.714  26.369  1.00  0.00    -0.237 OA
ATOM     73  O   UNL A   1      41.086  23.145  25.753  1.00  0.00    -0.237 OA
ATOM     74  O   UNL A   1      40.403  23.085  28.112  1.00  0.00    -0.744 OA
ENDBRANCH  68  71
ENDBRANCH  50  64
BRANCH  51  75
ATOM     75  C   UNL A   1      39.289  32.633  36.485  1.00  0.00     0.023 A 
ATOM     76  C   UNL A   1      39.984  33.846  36.664  1.00  0.00     0.012 A 
ATOM     77  C   UNL A   1      38.421  32.180  37.496  1.00  0.00     0.148 A 
ATOM     78  C   UNL A   1      39.843  34.580  37.842  1.00  0.00     0.002 A 
ATOM     79  C   UNL A   1      38.263  32.933  38.655  1.00  0.00     0.091 A 
ATOM     80  F   UNL A   1      37.776  31.020  37.309  1.00  0.00    -0.205 F 
ATOM     81  C   UNL A   1      38.978  34.127  38.833  1.00  0.00     0.022 A 
BRANCH  79  82
ATOM     82  S   UNL A   1      37.115  32.467  39.955  1.00  0.00     0.127 S 
ATOM     83  O   UNL A   1      35.849  32.387  39.230  1.00  0.00    -0.237 OA
ATOM     84  O   UNL A   1      37.658  31.177  40.393  1.00  0.00    -0.237 OA
ATOM     85  O   UNL A   1      37.211  33.515  40.958  1.00  0.00    -0.744 OA
ENDBRANCH  79  82
ENDBRANCH  51  75
BRANCH  63  86
ATOM     86  C   UNL A   1      44.158  28.066  34.481  1.00  0.00     0.023 A 
ATOM     87  C   UNL A   1      45.393  28.743  34.455  1.00  0.00     0.012 A 
ATOM     88  C   UNL A   1      44.039  26.877  35.228  1.00  0.00     0.148 A 
ATOM     89  C   UNL A   1      46.498  28.230  35.132  1.00  0.00     0.002 A 
ATOM     90  C   UNL A   1      45.130  26.399  35.944  1.00  0.00     0.091 A 
ATOM     91  F   UNL A   1      42.861  26.236  35.226  1.00  0.00    -0.205 F 
ATOM     92  C   UNL A   1      46.364  27.066  35.886  1.00  0.00     0.022 A 
BRANCH  90  93
ATOM     93  S   UNL A   1      45.022  24.966  37.022  1.00  0.00     0.127 S 
ATOM     94  O   UNL A   1      46.392  24.865  37.522  1.00  0.00    -0.237 OA
ATOM     95  O   UNL A   1      44.040  25.400  38.016  1.00  0.00    -0.237 OA
ATOM     96  O   UNL A   1      44.581  23.862  36.179  1.00  0.00    -0.744 OA
ENDBRANCH  90  93
ENDBRANCH  63  86
ENDBRANCH  37  38
ENDBRANCH  29  32
ENDBRANCH  27  28
ENDBRANCH   1  27
TORSDOF 15
ENDMDL
MODEL 3
REMARK VINA RESULT:     -12.7      2.032      2.774
REMARK SMILES O=C(Nc1ccc2c(c1)OCO2)N[C@H]1C=C[C@@H](C(=O)NCCCNC(=O)c2ccc(-c3c4nc(c(-c5cccc(S(=O)(=O)[O-])c5F)c5ccc([nH]5)c(-c5cccc(S(=O)(=O)[O-])c5F)c5nc(c(-c6cccc(S(=O)(=O)[O-])c6F)c6ccc3[nH]6)C=C5)C=C4)cc2)C1
REMARK SMILES IDX 22 1 21 2 20 3 18 4 19 5 17 7 14 8 15 9 90 10 16 11 13 12
REMARK SMILES IDX 1 13 2 14 3 15 4 18 5 19 9 20 6 21 8 22 7 23 10 24 12 25
REMARK SMILES IDX 11 26 23 27 24 28 25 29 26 31 27 32 28 33 89 34 29 35 88 36
REMARK SMILES IDX 30 37 31 38 32 39 82 40 33 41 87 42 81 43 83 44 34 45 86 46
REMARK SMILES IDX 80 47 79 48 35 50 67 51 47 52 66 53 48 54 51 55 65 56 84 57
REMARK SMILES IDX 49 58 50 59 64 61 85 62 52 63 36 64 37 65 45 66 38 67 40 68
REMARK SMILES IDX 46 69 39 70 41 71 42 72 43 73 44 74 68 75 69 76 77 77 70 78
REMARK SMILES IDX 72 79 78 80 71 81 73 82 74 83 75 84 76 85 53 86 54 87 62 88
REMARK SMILES IDX 55 89 57 90 63 91 56 92 58 93 59 94 60 95 61 96
REMARK H PARENT 20 6 3 16 13 17 24 30 83 49 51 60
REMARK Flexibility Score: inf
ROOT
ATOM      1  C   UNL A   1      32.457  28.352  26.024  1.00  0.00     0.042 C 
ENDROOT
BRANCH   1   2
ATOM      2  C   UNL A   1      31.670  27.476  26.990  1.00  0.00     0.117 C 
BRANCH   2   3
ATOM      3  N   UNL A   1      30.989  26.389  26.311  1.00  0.00    -0.356 N 
ATOM      4  C   UNL A   1      31.266  25.059  26.254  1.00  0.00     0.227 C 
ATOM      5  O   UNL A   1      30.462  24.347  25.642  1.00  0.00    -0.274 OA
ATOM      6  H   UNL A   1      30.189  26.661  25.805  1.00  0.00     0.163 HD
BRANCH   4   7
ATOM      7  C   UNL A   1      32.487  24.423  26.926  1.00  0.00     0.103 C 
ATOM      8  C   UNL A   1      33.717  22.302  26.647  1.00  0.00     0.107 C 
ATOM      9  C   UNL A   1      34.412  23.452  26.004  1.00  0.00    -0.006 C 
ATOM     10  C   UNL A   1      32.410  22.913  27.185  1.00  0.00     0.047 C 
ATOM     11  C   UNL A   1      33.750  24.605  26.149  1.00  0.00    -0.016 C 
BRANCH   8  12
ATOM     12  N   UNL A   1      33.457  21.159  25.787  1.00  0.00    -0.332 N 
ATOM     13  O   UNL A   1      32.074  22.015  24.162  1.00  0.00    -0.248 OA
ATOM     14  C   UNL A   1      32.715  21.086  24.647  1.00  0.00     0.319 C 
ATOM     15  N   UNL A   1      32.783  19.914  23.949  1.00  0.00    -0.308 N 
ATOM     16  H   UNL A   1      32.468  19.983  23.018  1.00  0.00     0.171 HD
ATOM     17  H   UNL A   1      33.880  20.316  26.068  1.00  0.00     0.165 HD
BRANCH  15  18
ATOM     18  C   UNL A   1      33.219  18.629  24.312  1.00  0.00     0.046 A 
ATOM     19  C   UNL A   1      34.560  18.213  24.196  1.00  0.00     0.030 A 
ATOM     20  C   UNL A   1      32.262  17.758  24.847  1.00  0.00     0.076 A 
ATOM     21  C   UNL A   1      34.944  16.923  24.570  1.00  0.00     0.053 A 
ATOM     22  C   UNL A   1      32.660  16.478  25.167  1.00  0.00     0.167 A 
ATOM     23  C   UNL A   1      33.965  16.077  25.034  1.00  0.00     0.165 A 
ATOM     24  O   UNL A   1      31.855  15.479  25.620  1.00  0.00    -0.454 OA
ATOM     25  O   UNL A   1      34.153  14.791  25.411  1.00  0.00    -0.454 OA
ATOM     26  C   UNL A   1      32.798  14.371  25.674  1.00  0.00     0.468 C 
ENDBRANCH  15  18
ENDBRANCH   8  12
ENDBRANCH   4   7
ENDBRANCH   2   3
ENDBRANCH   1   2
BRANCH   1  27
ATOM     27  C   UNL A   1      33.794  28.834  26.572  1.00  0.00     0.118 C 
BRANCH  27  28
ATOM     28  N   UNL A   1      33.734  30.208  27.052  1.00  0.00    -0.352 N 
ATOM     29  C   UNL A   1      34.563  30.878  27.915  1.00  0.00     0.251 C 
ATOM     30  H   UNL A   1      32.979  30.737  26.704  1.00  0.00     0.163 HD
ATOM     31  O   UNL A   1      34.220  31.976  28.351  1.00  0.00    -0.269 OA
BRANCH  29  32
ATOM     32  C   UNL A   1      35.855  30.290  28.333  1.00  0.00     0.039 A 
ATOM     33  C   UNL A   1      36.968  30.442  27.500  1.00  0.00     0.014 A 
ATOM     34  C   UNL A   1      35.969  29.568  29.522  1.00  0.00     0.014 A 
ATOM     35  C   UNL A   1      38.204  29.918  27.888  1.00  0.00     0.010 A 
ATOM     36  C   UNL A   1      37.218  29.123  29.948  1.00  0.00     0.010 A 
ATOM     37  C   UNL A   1      38.347  29.281  29.132  1.00  0.00    -0.014 A 
BRANCH  37  38
ATOM     38  C   UNL A   1      39.664  28.774  29.597  1.00  0.00     0.031 A 
ATOM     39  C   UNL A   1      40.390  29.468  30.721  1.00  0.00     0.074 A 
ATOM     40  C   UNL A   1      40.248  27.747  28.948  1.00  0.00     0.049 A 
ATOM     41  N   UNL A   1      41.564  29.200  31.233  1.00  0.00    -0.248 NA
ATOM     42  C   UNL A   1      39.726  30.634  31.326  1.00  0.00     0.031 C 
ATOM     43  C   UNL A   1      39.682  27.038  27.796  1.00  0.00     0.029 A 
ATOM     44  N   UNL A   1      41.458  27.132  29.151  1.00  0.00    -0.354 N 
ATOM     45  C   UNL A   1      41.800  30.190  32.182  1.00  0.00     0.074 A 
ATOM     46  C   UNL A   1      40.660  31.079  32.155  1.00  0.00     0.031 C 
ATOM     47  C   UNL A   1      40.534  26.074  27.408  1.00  0.00     0.029 A 
ATOM     48  C   UNL A   1      41.716  26.114  28.263  1.00  0.00     0.049 A 
ATOM     49  H   UNL A   1      42.082  27.396  29.865  1.00  0.00     0.167 HD
ATOM     50  C   UNL A   1      42.858  30.335  33.015  1.00  0.00     0.034 A 
ATOM     51  C   UNL A   1      42.785  25.302  28.154  1.00  0.00     0.034 A 
ATOM     52  C   UNL A   1      43.966  29.420  33.072  1.00  0.00     0.049 A 
ATOM     53  C   UNL A   1      43.926  25.457  29.122  1.00  0.00     0.074 A 
ATOM     54  C   UNL A   1      45.031  29.411  33.954  1.00  0.00     0.029 A 
ATOM     55  N   UNL A   1      44.160  28.359  32.202  1.00  0.00    -0.354 N 
ATOM     56  N   UNL A   1      44.054  26.295  30.122  1.00  0.00    -0.248 NA
ATOM     57  C   UNL A   1      45.056  24.531  28.965  1.00  0.00     0.031 C 
ATOM     58  C   UNL A   1      45.890  28.368  33.594  1.00  0.00     0.029 A 
ATOM     59  C   UNL A   1      45.339  27.702  32.510  1.00  0.00     0.049 A 
ATOM     60  H   UNL A   1      43.550  28.108  31.471  1.00  0.00     0.167 HD
ATOM     61  C   UNL A   1      45.260  25.974  30.736  1.00  0.00     0.074 A 
ATOM     62  C   UNL A   1      45.814  24.853  30.003  1.00  0.00     0.031 C 
ATOM     63  C   UNL A   1      45.859  26.560  31.802  1.00  0.00     0.034 A 
BRANCH  50  64
ATOM     64  C   UNL A   1      42.855  31.512  33.958  1.00  0.00     0.023 A 
ATOM     65  C   UNL A   1      43.387  32.751  33.542  1.00  0.00     0.012 A 
ATOM     66  C   UNL A   1      42.283  31.407  35.241  1.00  0.00     0.148 A 
ATOM     67  C   UNL A   1      43.393  33.849  34.400  1.00  0.00     0.002 A 
ATOM     68  C   UNL A   1      42.247  32.519  36.074  1.00  0.00     0.091 A 
ATOM     69  F   UNL A   1      41.800  30.219  35.631  1.00  0.00    -0.205 F 
ATOM     70  C   UNL A   1      42.814  33.736  35.662  1.00  0.00     0.022 A 
BRANCH  68  71
ATOM     71  S   UNL A   1      41.449  32.496  37.684  1.00  0.00     0.127 S 
ATOM     72  O   UNL A   1      40.091  32.085  37.334  1.00  0.00    -0.237 OA
ATOM     73  O   UNL A   1      42.227  31.483  38.399  1.00  0.00    -0.237 OA
ATOM     74  O   UNL A   1      41.580  33.845  38.214  1.00  0.00    -0.744 OA
ENDBRANCH  68  71
ENDBRANCH  50  64
BRANCH  51  75
ATOM     75  C   UNL A   1      42.792  24.201  27.150  1.00  0.00     0.023 A 
ATOM     76  C   UNL A   1      43.462  24.408  25.926  1.00  0.00     0.012 A 
ATOM     77  C   UNL A   1      42.149  22.971  27.383  1.00  0.00     0.148 A 
ATOM     78  C   UNL A   1      43.464  23.422  24.940  1.00  0.00     0.002 A 
ATOM     79  C   UNL A   1      42.182  21.981  26.407  1.00  0.00     0.091 A 
ATOM     80  F   UNL A   1      41.510  22.798  28.549  1.00  0.00    -0.205 F 
ATOM     81  C   UNL A   1      42.831  22.207  25.183  1.00  0.00     0.022 A 
BRANCH  79  82
ATOM     82  S   UNL A   1      41.457  20.357  26.659  1.00  0.00     0.127 S 
ATOM     83  O   UNL A   1      41.831  19.663  25.429  1.00  0.00    -0.237 OA
ATOM     84  O   UNL A   1      42.155  19.897  27.864  1.00  0.00    -0.237 OA
ATOM     85  O   UNL A   1      40.036  20.588  26.856  1.00  0.00    -0.744 OA
ENDBRANCH  79  82
ENDBRANCH  51  75
BRANCH  63  86
ATOM     86  C   UNL A   1      47.170  25.985  32.272  1.00  0.00     0.023 A 
ATOM     87  C   UNL A   1      48.380  26.441  31.714  1.00  0.00     0.012 A 
ATOM     88  C   UNL A   1      47.204  25.043  33.319  1.00  0.00     0.148 A 
ATOM     89  C   UNL A   1      49.602  25.946  32.170  1.00  0.00     0.002 A 
ATOM     90  C   UNL A   1      48.426  24.594  33.804  1.00  0.00     0.091 A 
ATOM     91  F   UNL A   1      46.041  24.606  33.825  1.00  0.00    -0.205 F 
ATOM     92  C   UNL A   1      49.625  25.033  33.221  1.00  0.00     0.022 A 
BRANCH  90  93
ATOM     93  S   UNL A   1      48.556  23.497  35.222  1.00  0.00     0.127 S 
ATOM     94  O   UNL A   1      50.004  23.346  35.349  1.00  0.00    -0.237 OA
ATOM     95  O   UNL A   1      47.928  24.286  36.282  1.00  0.00    -0.237 OA
ATOM     96  O   UNL A   1      47.831  22.286  34.860  1.00  0.00    -0.744 OA
ENDBRANCH  90  93
ENDBRANCH  63  86
ENDBRANCH  37  38
ENDBRANCH  29  32
ENDBRANCH  27  28
ENDBRANCH   1  27
TORSDOF 15
ENDMDL
