MODEL 1
REMARK VINA RESULT:     -12.0      0.000      0.000
REMARK SMILES Cc1ccc(Cl)c(Nc2ccccc2C(=O)N[C@@H](C)C(=O)NCCCNC(=O)c2ccc(-c3c4nc(c(-c5cccc(S(=O)(=O)[O-])c5F)c5ccc([nH]5)c(-c5cccc(S(=O)(=O)[O-])c5F)c5nc(c(-c6cccc(S(=O)(=O)[O-])c6F)c6ccc3[nH]6)C=C5)C=C4)cc2)c1Cl
REMARK SMILES IDX 23 1 22 2 20 3 21 4 18 6 19 7 17 8 15 9 16 10 14 12 9 13
REMARK SMILES IDX 10 14 11 15 13 16 12 17 8 18 7 20 1 21 2 22 3 23 92 24 4 25
REMARK SMILES IDX 93 26 5 27 6 28 24 29 25 30 26 31 27 32 28 34 29 35 30 36
REMARK SMILES IDX 91 37 31 38 90 39 32 40 33 41 34 42 84 43 35 44 89 45 83 46
REMARK SMILES IDX 85 47 36 48 88 49 82 50 81 51 37 53 69 54 49 55 68 56 50 57
REMARK SMILES IDX 53 58 67 59 86 60 51 61 52 62 66 64 87 65 54 66 38 67 39 68
REMARK SMILES IDX 47 69 40 70 42 71 48 72 41 73 43 74 44 75 45 76 46 77 70 78
REMARK SMILES IDX 71 79 79 80 72 81 74 82 80 83 73 84 75 85 76 86 77 87 78 88
REMARK SMILES IDX 55 89 56 90 64 91 57 92 59 93 65 94 58 95 60 96 61 97 62 98
REMARK SMILES IDX 63 99
REMARK H PARENT 22 5 17 11 8 19 26 33 85 52 53 63
REMARK Flexibility Score: inf
ROOT
ATOM      1  C   UNL A   1      37.016  20.842  24.756  1.00  0.00     0.117 C 
ENDROOT
BRANCH   1   2
ATOM      2  N   UNL A   1      37.493  22.204  24.555  1.00  0.00    -0.354 N 
ATOM      3  C   UNL A   1      36.667  23.088  23.913  1.00  0.00     0.242 C 
ATOM      4  O   UNL A   1      36.642  23.054  22.684  1.00  0.00    -0.273 OA
ATOM      5  H   UNL A   1      38.384  22.480  24.872  1.00  0.00     0.163 HD
BRANCH   3   6
ATOM      6  C   UNL A   1      35.858  24.109  24.750  1.00  0.00     0.168 C 
ATOM      7  C   UNL A   1      35.462  23.630  26.137  1.00  0.00     0.041 C 
BRANCH   6   8
ATOM      8  N   UNL A   1      34.700  24.425  23.928  1.00  0.00    -0.340 N 
ATOM      9  C   UNL A   1      34.015  25.616  23.849  1.00  0.00     0.254 C 
ATOM     10  O   UNL A   1      33.655  25.964  22.722  1.00  0.00    -0.269 OA
ATOM     11  H   UNL A   1      34.365  23.696  23.356  1.00  0.00     0.164 HD
BRANCH   9  12
ATOM     12  C   UNL A   1      33.418  26.313  25.028  1.00  0.00     0.063 A 
ATOM     13  C   UNL A   1      32.272  26.011  25.790  1.00  0.00     0.051 A 
ATOM     14  C   UNL A   1      31.906  26.910  26.823  1.00  0.00     0.027 A 
ATOM     15  C   UNL A   1      32.672  28.027  27.154  1.00  0.00     0.002 A 
ATOM     16  C   UNL A   1      34.188  27.448  25.394  1.00  0.00     0.016 A 
ATOM     17  C   UNL A   1      33.832  28.286  26.449  1.00  0.00     0.001 A 
BRANCH  13  18
ATOM     18  N   UNL A   1      31.480  24.848  25.737  1.00  0.00    -0.352 N 
ATOM     19  H   UNL A   1      30.596  24.968  26.152  1.00  0.00     0.167 HD
BRANCH  18  20
ATOM     20  C   UNL A   1      31.674  23.541  25.218  1.00  0.00     0.077 A 
ATOM     21  C   UNL A   1      33.423  20.188  25.887  1.00  0.00     0.046 C 
ATOM     22  C   UNL A   1      32.612  21.269  25.221  1.00  0.00    -0.030 A 
ATOM     23  C   UNL A   1      32.257  21.111  23.873  1.00  0.00     0.006 A 
ATOM     24  C   UNL A   1      32.272  22.462  25.904  1.00  0.00     0.069 A 
ATOM     25  C   UNL A   1      31.591  22.126  23.200  1.00  0.00     0.023 A 
ATOM     26  Cl  UNL A   1      32.505  22.506  27.626  1.00  0.00    -0.082 Cl
ATOM     27  C   UNL A   1      31.319  23.324  23.860  1.00  0.00     0.066 A 
ATOM     28  Cl  UNL A   1      30.554  24.581  22.934  1.00  0.00    -0.082 Cl
ENDBRANCH  18  20
ENDBRANCH  13  18
ENDBRANCH   9  12
ENDBRANCH   6   8
ENDBRANCH   3   6
ENDBRANCH   1   2
BRANCH   1  29
ATOM     29  C   UNL A   1      38.131  19.809  24.959  1.00  0.00     0.042 C 
BRANCH  29  30
ATOM     30  C   UNL A   1      39.171  20.199  26.006  1.00  0.00     0.118 C 
BRANCH  30  31
ATOM     31  N   UNL A   1      40.293  19.269  26.028  1.00  0.00    -0.352 N 
ATOM     32  C   UNL A   1      41.641  19.527  26.026  1.00  0.00     0.251 C 
ATOM     33  H   UNL A   1      40.049  18.315  26.050  1.00  0.00     0.163 HD
ATOM     34  O   UNL A   1      42.429  18.627  25.748  1.00  0.00    -0.269 OA
BRANCH  32  35
ATOM     35  C   UNL A   1      42.141  20.880  26.350  1.00  0.00     0.039 A 
ATOM     36  C   UNL A   1      42.440  21.199  27.678  1.00  0.00     0.014 A 
ATOM     37  C   UNL A   1      42.270  21.847  25.350  1.00  0.00     0.014 A 
ATOM     38  C   UNL A   1      42.916  22.474  27.993  1.00  0.00     0.010 A 
ATOM     39  C   UNL A   1      42.816  23.091  25.655  1.00  0.00     0.010 A 
ATOM     40  C   UNL A   1      43.128  23.425  26.981  1.00  0.00    -0.014 A 
BRANCH  40  41
ATOM     41  C   UNL A   1      43.664  24.777  27.285  1.00  0.00     0.031 A 
ATOM     42  C   UNL A   1      42.748  25.853  27.806  1.00  0.00     0.074 A 
ATOM     43  C   UNL A   1      44.952  25.062  27.008  1.00  0.00     0.049 A 
ATOM     44  N   UNL A   1      43.014  27.107  28.072  1.00  0.00    -0.248 NA
ATOM     45  C   UNL A   1      41.341  25.482  28.030  1.00  0.00     0.031 C 
ATOM     46  C   UNL A   1      45.919  24.131  26.425  1.00  0.00     0.029 A 
ATOM     47  N   UNL A   1      45.662  26.227  27.155  1.00  0.00    -0.354 N 
ATOM     48  C   UNL A   1      41.805  27.680  28.449  1.00  0.00     0.074 A 
ATOM     49  C   UNL A   1      40.798  26.648  28.349  1.00  0.00     0.031 C 
ATOM     50  C   UNL A   1      47.097  24.757  26.270  1.00  0.00     0.029 A 
ATOM     51  C   UNL A   1      46.963  26.141  26.715  1.00  0.00     0.049 A 
ATOM     52  H   UNL A   1      45.278  27.048  27.539  1.00  0.00     0.167 HD
ATOM     53  C   UNL A   1      41.559  28.944  28.870  1.00  0.00     0.034 A 
ATOM     54  C   UNL A   1      47.937  27.072  26.674  1.00  0.00     0.034 A 
ATOM     55  C   UNL A   1      42.575  29.951  29.022  1.00  0.00     0.049 A 
ATOM     56  C   UNL A   1      47.650  28.452  27.203  1.00  0.00     0.074 A 
ATOM     57  C   UNL A   1      42.447  31.231  29.533  1.00  0.00     0.029 A 
ATOM     58  N   UNL A   1      43.903  29.795  28.660  1.00  0.00    -0.354 N 
ATOM     59  N   UNL A   1      46.540  28.927  27.712  1.00  0.00    -0.248 NA
ATOM     60  C   UNL A   1      48.763  29.413  27.189  1.00  0.00     0.031 C 
ATOM     61  C   UNL A   1      43.697  31.855  29.463  1.00  0.00     0.029 A 
ATOM     62  C   UNL A   1      44.607  30.956  28.933  1.00  0.00     0.049 A 
ATOM     63  H   UNL A   1      44.289  28.980  28.268  1.00  0.00     0.167 HD
ATOM     64  C   UNL A   1      46.830  30.224  28.118  1.00  0.00     0.074 A 
ATOM     65  C   UNL A   1      48.227  30.454  27.812  1.00  0.00     0.031 C 
ATOM     66  C   UNL A   1      46.012  31.147  28.682  1.00  0.00     0.034 A 
BRANCH  53  67
ATOM     67  C   UNL A   1      40.145  29.294  29.254  1.00  0.00     0.023 A 
ATOM     68  C   UNL A   1      39.225  29.672  28.255  1.00  0.00     0.012 A 
ATOM     69  C   UNL A   1      39.708  29.192  30.590  1.00  0.00     0.148 A 
ATOM     70  C   UNL A   1      37.905  29.979  28.580  1.00  0.00     0.002 A 
ATOM     71  C   UNL A   1      38.378  29.456  30.901  1.00  0.00     0.091 A 
ATOM     72  F   UNL A   1      40.599  28.851  31.532  1.00  0.00    -0.205 F 
ATOM     73  C   UNL A   1      37.480  29.860  29.900  1.00  0.00     0.022 A 
BRANCH  71  74
ATOM     74  S   UNL A   1      37.711  29.254  32.557  1.00  0.00     0.127 S 
ATOM     75  O   UNL A   1      38.607  30.104  33.341  1.00  0.00    -0.237 OA
ATOM     76  O   UNL A   1      36.352  29.776  32.408  1.00  0.00    -0.237 OA
ATOM     77  O   UNL A   1      37.785  27.829  32.849  1.00  0.00    -0.744 OA
ENDBRANCH  71  74
ENDBRANCH  53  67
BRANCH  54  78
ATOM     78  C   UNL A   1      49.299  26.707  26.192  1.00  0.00     0.023 A 
ATOM     79  C   UNL A   1      50.120  25.896  27.001  1.00  0.00     0.012 A 
ATOM     80  C   UNL A   1      49.779  27.135  24.940  1.00  0.00     0.148 A 
ATOM     81  C   UNL A   1      51.406  25.547  26.590  1.00  0.00     0.002 A 
ATOM     82  C   UNL A   1      51.042  26.738  24.511  1.00  0.00     0.091 A 
ATOM     83  F   UNL A   1      48.989  27.914  24.189  1.00  0.00    -0.205 F 
ATOM     84  C   UNL A   1      51.863  25.960  25.342  1.00  0.00     0.022 A 
BRANCH  82  85
ATOM     85  S   UNL A   1      51.662  27.116  22.867  1.00  0.00     0.127 S 
ATOM     86  O   UNL A   1      51.890  28.558  22.959  1.00  0.00    -0.237 OA
ATOM     87  O   UNL A   1      52.881  26.305  22.813  1.00  0.00    -0.237 OA
ATOM     88  O   UNL A   1      50.619  26.695  21.949  1.00  0.00    -0.744 OA
ENDBRANCH  82  85
ENDBRANCH  54  78
BRANCH  66  89
ATOM     89  C   UNL A   1      46.611  32.477  29.057  1.00  0.00     0.023 A 
ATOM     90  C   UNL A   1      47.291  32.622  30.282  1.00  0.00     0.012 A 
ATOM     91  C   UNL A   1      46.566  33.561  28.157  1.00  0.00     0.148 A 
ATOM     92  C   UNL A   1      47.889  33.836  30.620  1.00  0.00     0.002 A 
ATOM     93  C   UNL A   1      47.207  34.751  28.480  1.00  0.00     0.091 A 
ATOM     94  F   UNL A   1      45.897  33.409  27.005  1.00  0.00    -0.205 F 
ATOM     95  C   UNL A   1      47.857  34.895  29.715  1.00  0.00     0.022 A 
BRANCH  93  96
ATOM     96  S   UNL A   1      47.301  36.130  27.332  1.00  0.00     0.127 S 
ATOM     97  O   UNL A   1      48.090  37.098  28.092  1.00  0.00    -0.237 OA
ATOM     98  O   UNL A   1      47.998  35.538  26.189  1.00  0.00    -0.237 OA
ATOM     99  O   UNL A   1      45.923  36.520  27.061  1.00  0.00    -0.744 OA
ENDBRANCH  93  96
ENDBRANCH  66  89
ENDBRANCH  40  41
ENDBRANCH  32  35
ENDBRANCH  30  31
ENDBRANCH  29  30
ENDBRANCH   1  29
TORSDOF 17
ENDMDL
MODEL 2
REMARK VINA RESULT:     -11.9      5.423     10.295
REMARK SMILES Cc1ccc(Cl)c(Nc2ccccc2C(=O)N[C@@H](C)C(=O)NCCCNC(=O)c2ccc(-c3c4nc(c(-c5cccc(S(=O)(=O)[O-])c5F)c5ccc([nH]5)c(-c5cccc(S(=O)(=O)[O-])c5F)c5nc(c(-c6cccc(S(=O)(=O)[O-])c6F)c6ccc3[nH]6)C=C5)C=C4)cc2)c1Cl
REMARK SMILES IDX 23 1 22 2 20 3 21 4 18 6 19 7 17 8 15 9 16 10 14 12 9 13
REMARK SMILES IDX 10 14 11 15 13 16 12 17 8 18 7 20 1 21 2 22 3 23 92 24 4 25
REMARK SMILES IDX 93 26 5 27 6 28 24 29 25 30 26 31 27 32 28 34 29 35 30 36
REMARK SMILES IDX 91 37 31 38 90 39 32 40 33 41 34 42 84 43 35 44 89 45 83 46
REMARK SMILES IDX 85 47 36 48 88 49 82 50 81 51 37 53 69 54 49 55 68 56 50 57
REMARK SMILES IDX 53 58 67 59 86 60 51 61 52 62 66 64 87 65 54 66 38 67 39 68
REMARK SMILES IDX 47 69 40 70 42 71 48 72 41 73 43 74 44 75 45 76 46 77 70 78
REMARK SMILES IDX 71 79 79 80 72 81 74 82 80 83 73 84 75 85 76 86 77 87 78 88
REMARK SMILES IDX 55 89 56 90 64 91 57 92 59 93 65 94 58 95 60 96 61 97 62 98
REMARK SMILES IDX 63 99
REMARK H PARENT 22 5 17 11 8 19 26 33 85 52 53 63
REMARK Flexibility Score: inf
ROOT
ATOM      1  C   UNL A   1      31.063  28.370  24.157  1.00  0.00     0.117 C 
ENDROOT
BRANCH   1   2
ATOM      2  N   UNL A   1      30.861  27.310  25.136  1.00  0.00    -0.354 N 
ATOM      3  C   UNL A   1      30.221  26.170  24.728  1.00  0.00     0.242 C 
ATOM      4  O   UNL A   1      28.992  26.190  24.689  1.00  0.00    -0.273 OA
ATOM      5  H   UNL A   1      31.176  27.411  26.064  1.00  0.00     0.163 HD
BRANCH   3   6
ATOM      6  C   UNL A   1      31.059  24.912  24.395  1.00  0.00     0.168 C 
ATOM      7  C   UNL A   1      30.684  24.216  23.097  1.00  0.00     0.041 C 
BRANCH   6   8
ATOM      8  N   UNL A   1      30.895  24.043  25.550  1.00  0.00    -0.340 N 
ATOM      9  C   UNL A   1      31.853  23.640  26.453  1.00  0.00     0.254 C 
ATOM     10  O   UNL A   1      31.507  23.607  27.636  1.00  0.00    -0.269 OA
ATOM     11  H   UNL A   1      29.985  23.700  25.707  1.00  0.00     0.164 HD
BRANCH   9  12
ATOM     12  C   UNL A   1      33.125  22.955  26.068  1.00  0.00     0.063 A 
ATOM     13  C   UNL A   1      33.343  21.720  25.427  1.00  0.00     0.051 A 
ATOM     14  C   UNL A   1      34.684  21.290  25.255  1.00  0.00     0.027 A 
ATOM     15  C   UNL A   1      35.777  22.071  25.628  1.00  0.00     0.002 A 
ATOM     16  C   UNL A   1      34.254  23.737  26.424  1.00  0.00     0.016 A 
ATOM     17  C   UNL A   1      35.561  23.312  26.197  1.00  0.00     0.001 A 
BRANCH  13  18
ATOM     18  N   UNL A   1      32.391  20.881  24.816  1.00  0.00    -0.352 N 
ATOM     19  H   UNL A   1      31.475  21.236  24.877  1.00  0.00     0.167 HD
BRANCH  18  20
ATOM     20  C   UNL A   1      32.459  19.640  24.132  1.00  0.00     0.077 A 
ATOM     21  C   UNL A   1      33.535  15.972  24.503  1.00  0.00     0.046 C 
ATOM     22  C   UNL A   1      33.019  17.257  23.909  1.00  0.00    -0.030 A 
ATOM     23  C   UNL A   1      32.864  17.342  22.517  1.00  0.00     0.006 A 
ATOM     24  C   UNL A   1      32.765  18.392  24.717  1.00  0.00     0.069 A 
ATOM     25  C   UNL A   1      32.480  18.537  21.927  1.00  0.00     0.023 A 
ATOM     26  Cl  UNL A   1      32.723  18.170  26.440  1.00  0.00    -0.082 Cl
ATOM     27  C   UNL A   1      32.297  19.669  22.722  1.00  0.00     0.066 A 
ATOM     28  Cl  UNL A   1      31.895  21.151  21.907  1.00  0.00    -0.082 Cl
ENDBRANCH  18  20
ENDBRANCH  13  18
ENDBRANCH   9  12
ENDBRANCH   6   8
ENDBRANCH   3   6
ENDBRANCH   1   2
BRANCH   1  29
ATOM     29  C   UNL A   1      32.536  28.707  23.891  1.00  0.00     0.042 C 
BRANCH  29  30
ATOM     30  C   UNL A   1      33.277  29.293  25.090  1.00  0.00     0.118 C 
BRANCH  30  31
ATOM     31  N   UNL A   1      32.622  30.490  25.600  1.00  0.00    -0.352 N 
ATOM     32  C   UNL A   1      32.866  31.195  26.752  1.00  0.00     0.251 C 
ATOM     33  H   UNL A   1      31.899  30.847  25.035  1.00  0.00     0.163 HD
ATOM     34  O   UNL A   1      32.027  31.993  27.162  1.00  0.00    -0.269 OA
BRANCH  32  35
ATOM     35  C   UNL A   1      34.126  30.990  27.498  1.00  0.00     0.039 A 
ATOM     36  C   UNL A   1      34.417  29.725  28.016  1.00  0.00     0.014 A 
ATOM     37  C   UNL A   1      34.996  32.059  27.727  1.00  0.00     0.014 A 
ATOM     38  C   UNL A   1      35.606  29.521  28.720  1.00  0.00     0.010 A 
ATOM     39  C   UNL A   1      36.215  31.836  28.362  1.00  0.00     0.010 A 
ATOM     40  C   UNL A   1      36.526  30.571  28.881  1.00  0.00    -0.014 A 
BRANCH  40  41
ATOM     41  C   UNL A   1      37.813  30.373  29.598  1.00  0.00     0.031 A 
ATOM     42  C   UNL A   1      38.902  29.537  28.979  1.00  0.00     0.074 A 
ATOM     43  C   UNL A   1      37.967  30.869  30.842  1.00  0.00     0.049 A 
ATOM     44  N   UNL A   1      40.066  29.200  29.472  1.00  0.00    -0.248 NA
ATOM     45  C   UNL A   1      38.639  28.982  27.640  1.00  0.00     0.031 C 
ATOM     46  C   UNL A   1      36.955  31.625  31.583  1.00  0.00     0.029 A 
ATOM     47  N   UNL A   1      39.023  30.787  31.713  1.00  0.00    -0.354 N 
ATOM     48  C   UNL A   1      40.651  28.362  28.530  1.00  0.00     0.074 A 
ATOM     49  C   UNL A   1      39.702  28.216  27.449  1.00  0.00     0.031 C 
ATOM     50  C   UNL A   1      37.443  31.943  32.794  1.00  0.00     0.029 A 
ATOM     51  C   UNL A   1      38.787  31.391  32.927  1.00  0.00     0.049 A 
ATOM     52  H   UNL A   1      39.871  30.338  31.492  1.00  0.00     0.167 HD
ATOM     53  C   UNL A   1      41.878  27.788  28.548  1.00  0.00     0.034 A 
ATOM     54  C   UNL A   1      39.566  31.488  34.023  1.00  0.00     0.034 A 
ATOM     55  C   UNL A   1      42.839  27.983  29.600  1.00  0.00     0.049 A 
ATOM     56  C   UNL A   1      40.947  30.891  33.991  1.00  0.00     0.074 A 
ATOM     57  C   UNL A   1      44.144  27.527  29.668  1.00  0.00     0.029 A 
ATOM     58  N   UNL A   1      42.599  28.686  30.769  1.00  0.00    -0.354 N 
ATOM     59  N   UNL A   1      41.544  30.241  33.022  1.00  0.00    -0.248 NA
ATOM     60  C   UNL A   1      41.777  31.075  35.191  1.00  0.00     0.031 C 
ATOM     61  C   UNL A   1      44.688  27.941  30.888  1.00  0.00     0.029 A 
ATOM     62  C   UNL A   1      43.730  28.675  31.568  1.00  0.00     0.049 A 
ATOM     63  H   UNL A   1      41.751  29.128  30.998  1.00  0.00     0.167 HD
ATOM     64  C   UNL A   1      42.832  29.978  33.476  1.00  0.00     0.074 A 
ATOM     65  C   UNL A   1      42.933  30.554  34.801  1.00  0.00     0.031 C 
ATOM     66  C   UNL A   1      43.836  29.308  32.857  1.00  0.00     0.034 A 
BRANCH  53  67
ATOM     67  C   UNL A   1      42.276  26.943  27.366  1.00  0.00     0.023 A 
ATOM     68  C   UNL A   1      42.925  27.543  26.268  1.00  0.00     0.012 A 
ATOM     69  C   UNL A   1      42.063  25.549  27.364  1.00  0.00     0.148 A 
ATOM     70  C   UNL A   1      43.323  26.780  25.172  1.00  0.00     0.002 A 
ATOM     71  C   UNL A   1      42.504  24.788  26.287  1.00  0.00     0.091 A 
ATOM     72  F   UNL A   1      41.426  24.997  28.406  1.00  0.00    -0.205 F 
ATOM     73  C   UNL A   1      43.123  25.402  25.187  1.00  0.00     0.022 A 
BRANCH  71  74
ATOM     74  S   UNL A   1      42.365  22.997  26.245  1.00  0.00     0.127 S 
ATOM     75  O   UNL A   1      43.176  22.612  27.399  1.00  0.00    -0.237 OA
ATOM     76  O   UNL A   1      40.926  22.795  26.417  1.00  0.00    -0.237 OA
ATOM     77  O   UNL A   1      42.885  22.584  24.949  1.00  0.00    -0.744 OA
ENDBRANCH  71  74
ENDBRANCH  53  67
BRANCH  54  78
ATOM     78  C   UNL A   1      39.091  32.252  35.211  1.00  0.00     0.023 A 
ATOM     79  C   UNL A   1      39.214  33.656  35.218  1.00  0.00     0.012 A 
ATOM     80  C   UNL A   1      38.504  31.610  36.317  1.00  0.00     0.148 A 
ATOM     81  C   UNL A   1      38.795  34.403  36.319  1.00  0.00     0.002 A 
ATOM     82  C   UNL A   1      38.038  32.364  37.389  1.00  0.00     0.091 A 
ATOM     83  F   UNL A   1      38.405  30.273  36.297  1.00  0.00    -0.205 F 
ATOM     84  C   UNL A   1      38.200  33.759  37.400  1.00  0.00     0.022 A 
BRANCH  82  85
ATOM     85  S   UNL A   1      37.143  31.632  38.764  1.00  0.00     0.127 S 
ATOM     86  O   UNL A   1      38.078  31.837  39.870  1.00  0.00    -0.237 OA
ATOM     87  O   UNL A   1      35.939  32.466  38.816  1.00  0.00    -0.237 OA
ATOM     88  O   UNL A   1      36.902  30.252  38.384  1.00  0.00    -0.744 OA
ENDBRANCH  82  85
ENDBRANCH  54  78
BRANCH  66  89
ATOM     89  C   UNL A   1      45.154  29.202  33.578  1.00  0.00     0.023 A 
ATOM     90  C   UNL A   1      46.132  30.202  33.408  1.00  0.00     0.012 A 
ATOM     91  C   UNL A   1      45.390  28.150  34.485  1.00  0.00     0.148 A 
ATOM     92  C   UNL A   1      47.338  30.138  34.105  1.00  0.00     0.002 A 
ATOM     93  C   UNL A   1      46.574  28.120  35.213  1.00  0.00     0.091 A 
ATOM     94  F   UNL A   1      44.456  27.197  34.619  1.00  0.00    -0.205 F 
ATOM     95  C   UNL A   1      47.554  29.106  35.015  1.00  0.00     0.022 A 
BRANCH  93  96
ATOM     96  S   UNL A   1      46.891  26.884  36.478  1.00  0.00     0.127 S 
ATOM     97  O   UNL A   1      48.304  27.114  36.773  1.00  0.00    -0.237 OA
ATOM     98  O   UNL A   1      45.971  27.285  37.544  1.00  0.00    -0.237 OA
ATOM     99  O   UNL A   1      46.579  25.598  35.867  1.00  0.00    -0.744 OA
ENDBRANCH  93  96
ENDBRANCH  66  89
ENDBRANCH  40  41
ENDBRANCH  32  35
ENDBRANCH  30  31
ENDBRANCH  29  30
ENDBRANCH   1  29
TORSDOF 17
ENDMDL
MODEL 3
REMARK VINA RESULT:     -11.7      4.781      7.947
REMARK SMILES Cc1ccc(Cl)c(Nc2ccccc2C(=O)N[C@@H](C)C(=O)NCCCNC(=O)c2ccc(-c3c4nc(c(-c5cccc(S(=O)(=O)[O-])c5F)c5ccc([nH]5)c(-c5cccc(S(=O)(=O)[O-])c5F)c5nc(c(-c6cccc(S(=O)(=O)[O-])c6F)c6ccc3[nH]6)C=C5)C=C4)cc2)c1Cl
REMARK SMILES IDX 23 1 22 2 20 3 21 4 18 6 19 7 17 8 15 9 16 10 14 12 9 13
REMARK SMILES IDX 10 14 11 15 13 16 12 17 8 18 7 20 1 21 2 22 3 23 92 24 4 25
REMARK SMILES IDX 93 26 5 27 6 28 24 29 25 30 26 31 27 32 28 34 29 35 30 36
REMARK SMILES IDX 91 37 31 38 90 39 32 40 33 41 34 42 84 43 35 44 89 45 83 46
REMARK SMILES IDX 85 47 36 48 88 49 82 50 81 51 37 53 69 54 49 55 68 56 50 57
REMARK SMILES IDX 53 58 67 59 86 60 51 61 52 62 66 64 87 65 54 66 38 67 39 68
REMARK SMILES IDX 47 69 40 70 42 71 48 72 41 73 43 74 44 75 45 76 46 77 70 78
REMARK SMILES IDX 71 79 79 80 72 81 74 82 80 83 73 84 75 85 76 86 77 87 78 88
REMARK SMILES IDX 55 89 56 90 64 91 57 92 59 93 65 94 58 95 60 96 61 97 62 98
REMARK SMILES IDX 63 99
REMARK H PARENT 22 5 17 11 8 19 26 33 85 52 53 63
REMARK Flexibility Score: inf
ROOT
ATOM      1  C   UNL A   1      31.695  28.966  25.122  1.00  0.00     0.117 C 
ENDROOT
BRANCH   1   2
ATOM      2  N   UNL A   1      31.052  27.708  25.475  1.00  0.00    -0.354 N 
ATOM      3  C   UNL A   1      30.651  26.882  24.457  1.00  0.00     0.242 C 
ATOM      4  O   UNL A   1      29.577  27.129  23.914  1.00  0.00    -0.273 OA
ATOM      5  H   UNL A   1      30.909  27.458  26.417  1.00  0.00     0.163 HD
BRANCH   3   6
ATOM      6  C   UNL A   1      31.530  25.664  24.085  1.00  0.00     0.168 C 
ATOM      7  C   UNL A   1      31.266  25.080  22.706  1.00  0.00     0.041 C 
BRANCH   6   8
ATOM      8  N   UNL A   1      31.288  24.696  25.144  1.00  0.00    -0.340 N 
ATOM      9  C   UNL A   1      32.193  24.176  26.042  1.00  0.00     0.254 C 
ATOM     10  O   UNL A   1      31.795  24.044  27.202  1.00  0.00    -0.269 OA
ATOM     11  H   UNL A   1      30.361  24.374  25.231  1.00  0.00     0.164 HD
BRANCH   9  12
ATOM     12  C   UNL A   1      33.457  23.485  25.645  1.00  0.00     0.063 A 
ATOM     13  C   UNL A   1      33.662  22.262  24.977  1.00  0.00     0.051 A 
ATOM     14  C   UNL A   1      34.998  21.820  24.799  1.00  0.00     0.027 A 
ATOM     15  C   UNL A   1      36.100  22.579  25.191  1.00  0.00     0.002 A 
ATOM     16  C   UNL A   1      34.595  24.245  26.021  1.00  0.00     0.016 A 
ATOM     17  C   UNL A   1      35.897  23.809  25.787  1.00  0.00     0.001 A 
BRANCH  13  18
ATOM     18  N   UNL A   1      32.702  21.449  24.345  1.00  0.00    -0.352 N 
ATOM     19  H   UNL A   1      31.924  21.958  24.021  1.00  0.00     0.167 HD
BRANCH  18  20
ATOM     20  C   UNL A   1      32.607  20.060  24.070  1.00  0.00     0.077 A 
ATOM     21  C   UNL A   1      33.491  16.581  25.435  1.00  0.00     0.046 C 
ATOM     22  C   UNL A   1      32.986  17.675  24.531  1.00  0.00    -0.030 A 
ATOM     23  C   UNL A   1      32.663  17.358  23.203  1.00  0.00     0.006 A 
ATOM     24  C   UNL A   1      32.905  19.018  24.974  1.00  0.00     0.069 A 
ATOM     25  C   UNL A   1      32.283  18.356  22.317  1.00  0.00     0.023 A 
ATOM     26  Cl  UNL A   1      33.066  19.322  26.678  1.00  0.00    -0.082 Cl
ATOM     27  C   UNL A   1      32.271  19.685  22.742  1.00  0.00     0.066 A 
ATOM     28  Cl  UNL A   1      31.863  20.890  21.558  1.00  0.00    -0.082 Cl
ENDBRANCH  18  20
ENDBRANCH  13  18
ENDBRANCH   9  12
ENDBRANCH   6   8
ENDBRANCH   3   6
ENDBRANCH   1   2
BRANCH   1  29
ATOM     29  C   UNL A   1      33.215  28.866  24.943  1.00  0.00     0.042 C 
BRANCH  29  30
ATOM     30  C   UNL A   1      34.016  29.024  26.233  1.00  0.00     0.118 C 
BRANCH  30  31
ATOM     31  N   UNL A   1      33.856  30.352  26.812  1.00  0.00    -0.352 N 
ATOM     32  C   UNL A   1      34.548  30.946  27.837  1.00  0.00     0.251 C 
ATOM     33  H   UNL A   1      33.148  30.904  26.407  1.00  0.00     0.163 HD
ATOM     34  O   UNL A   1      34.082  31.943  28.382  1.00  0.00    -0.269 OA
BRANCH  32  35
ATOM     35  C   UNL A   1      35.840  30.386  28.288  1.00  0.00     0.039 A 
ATOM     36  C   UNL A   1      36.984  30.598  27.514  1.00  0.00     0.014 A 
ATOM     37  C   UNL A   1      35.911  29.612  29.449  1.00  0.00     0.014 A 
ATOM     38  C   UNL A   1      38.209  30.075  27.933  1.00  0.00     0.010 A 
ATOM     39  C   UNL A   1      37.146  29.158  29.903  1.00  0.00     0.010 A 
ATOM     40  C   UNL A   1      38.305  29.368  29.143  1.00  0.00    -0.014 A 
BRANCH  40  41
ATOM     41  C   UNL A   1      39.603  28.829  29.627  1.00  0.00     0.031 A 
ATOM     42  C   UNL A   1      40.338  29.519  30.746  1.00  0.00     0.074 A 
ATOM     43  C   UNL A   1      40.162  27.774  29.001  1.00  0.00     0.049 A 
ATOM     44  N   UNL A   1      41.505  29.237  31.265  1.00  0.00    -0.248 NA
ATOM     45  C   UNL A   1      39.689  30.699  31.343  1.00  0.00     0.031 C 
ATOM     46  C   UNL A   1      39.590  27.070  27.852  1.00  0.00     0.029 A 
ATOM     47  N   UNL A   1      41.352  27.129  29.226  1.00  0.00    -0.354 N 
ATOM     48  C   UNL A   1      41.750  30.225  32.211  1.00  0.00     0.074 A 
ATOM     49  C   UNL A   1      40.624  31.132  32.175  1.00  0.00     0.031 C 
ATOM     50  C   UNL A   1      40.424  26.086  27.478  1.00  0.00     0.029 A 
ATOM     51  C   UNL A   1      41.603  26.107  28.339  1.00  0.00     0.049 A 
ATOM     52  H   UNL A   1      41.969  27.373  29.953  1.00  0.00     0.167 HD
ATOM     53  C   UNL A   1      42.802  30.352  33.055  1.00  0.00     0.034 A 
ATOM     54  C   UNL A   1      42.662  25.281  28.231  1.00  0.00     0.034 A 
ATOM     55  C   UNL A   1      43.892  29.416  33.125  1.00  0.00     0.049 A 
ATOM     56  C   UNL A   1      43.790  25.409  29.220  1.00  0.00     0.074 A 
ATOM     57  C   UNL A   1      44.955  29.398  34.010  1.00  0.00     0.029 A 
ATOM     58  N   UNL A   1      44.060  28.334  32.276  1.00  0.00    -0.354 N 
ATOM     59  N   UNL A   1      43.924  26.249  30.217  1.00  0.00    -0.248 NA
ATOM     60  C   UNL A   1      44.895  24.446  29.095  1.00  0.00     0.031 C 
ATOM     61  C   UNL A   1      45.777  28.315  33.684  1.00  0.00     0.029 A 
ATOM     62  C   UNL A   1      45.212  27.644  32.612  1.00  0.00     0.049 A 
ATOM     63  H   UNL A   1      43.451  28.092  31.542  1.00  0.00     0.167 HD
ATOM     64  C   UNL A   1      45.101  25.891  30.864  1.00  0.00     0.074 A 
ATOM     65  C   UNL A   1      45.634  24.746  30.155  1.00  0.00     0.031 C 
ATOM     66  C   UNL A   1      45.695  26.466  31.938  1.00  0.00     0.034 A 
BRANCH  53  67
ATOM     67  C   UNL A   1      42.797  31.514  34.015  1.00  0.00     0.023 A 
ATOM     68  C   UNL A   1      43.376  32.739  33.626  1.00  0.00     0.012 A 
ATOM     69  C   UNL A   1      42.171  31.415  35.273  1.00  0.00     0.148 A 
ATOM     70  C   UNL A   1      43.366  33.836  34.486  1.00  0.00     0.002 A 
ATOM     71  C   UNL A   1      42.124  32.527  36.107  1.00  0.00     0.091 A 
ATOM     72  F   UNL A   1      41.643  30.237  35.635  1.00  0.00    -0.205 F 
ATOM     73  C   UNL A   1      42.730  33.733  35.721  1.00  0.00     0.022 A 
BRANCH  71  74
ATOM     74  S   UNL A   1      41.260  32.521  37.683  1.00  0.00     0.127 S 
ATOM     75  O   UNL A   1      39.952  31.992  37.299  1.00  0.00    -0.237 OA
ATOM     76  O   UNL A   1      42.078  31.605  38.480  1.00  0.00    -0.237 OA
ATOM     77  O   UNL A   1      41.265  33.901  38.149  1.00  0.00    -0.744 OA
ENDBRANCH  71  74
ENDBRANCH  53  67
BRANCH  54  78
ATOM     78  C   UNL A   1      42.670  24.205  27.199  1.00  0.00     0.023 A 
ATOM     79  C   UNL A   1      43.329  24.433  25.975  1.00  0.00     0.012 A 
ATOM     80  C   UNL A   1      42.052  22.961  27.425  1.00  0.00     0.148 A 
ATOM     81  C   UNL A   1      43.344  23.455  24.980  1.00  0.00     0.002 A 
ATOM     82  C   UNL A   1      42.117  21.970  26.451  1.00  0.00     0.091 A 
ATOM     83  F   UNL A   1      41.421  22.767  28.591  1.00  0.00    -0.205 F 
ATOM     84  C   UNL A   1      42.746  22.221  25.221  1.00  0.00     0.022 A 
BRANCH  82  85
ATOM     85  S   UNL A   1      41.488  20.309  26.725  1.00  0.00     0.127 S 
ATOM     86  O   UNL A   1      40.054  20.556  26.877  1.00  0.00    -0.237 OA
ATOM     87  O   UNL A   1      41.865  19.637  25.478  1.00  0.00    -0.237 OA
ATOM     88  O   UNL A   1      42.177  19.819  27.904  1.00  0.00    -0.744 OA
ENDBRANCH  82  85
ENDBRANCH  54  78
BRANCH  66  89
ATOM     89  C   UNL A   1      46.964  25.841  32.454  1.00  0.00     0.023 A 
ATOM     90  C   UNL A   1      46.916  24.951  33.546  1.00  0.00     0.012 A 
ATOM     91  C   UNL A   1      48.192  26.075  31.805  1.00  0.00     0.148 A 
ATOM     92  C   UNL A   1      48.078  24.331  34.005  1.00  0.00     0.002 A 
ATOM     93  C   UNL A   1      49.336  25.414  32.236  1.00  0.00     0.091 A 
ATOM     94  F   UNL A   1      48.221  26.939  30.780  1.00  0.00    -0.205 F 
ATOM     95  C   UNL A   1      49.284  24.552  33.343  1.00  0.00     0.022 A 
BRANCH  93  96
ATOM     96  S   UNL A   1      50.910  25.562  31.381  1.00  0.00     0.127 S 
ATOM     97  O   UNL A   1      50.561  25.118  30.033  1.00  0.00    -0.237 OA
ATOM     98  O   UNL A   1      51.194  26.994  31.498  1.00  0.00    -0.237 OA
ATOM     99  O   UNL A   1      51.840  24.704  32.103  1.00  0.00    -0.744 OA
ENDBRANCH  93  96
ENDBRANCH  66  89
ENDBRANCH  40  41
ENDBRANCH  32  35
ENDBRANCH  30  31
ENDBRANCH  29  30
ENDBRANCH   1  29
TORSDOF 17
ENDMDL
