MODEL 1
REMARK VINA RESULT:     -12.0      0.000      0.000
REMARK SMILES CCC([NH3+])(CC)C(=O)N1Cc2nc[nH]c2C[C@H]1C(=O)NCCCNC(=O)c1ccc(-c2c3nc(c(-c4cccc(S(=O)(=O)[O-])c4F)c4ccc([nH]4)c(-c4cccc(S(=O)(=O)[O-])c4F)c4nc(c(-c5cccc(S(=O)(=O)[O-])c5F)c5ccc2[nH]5)C=C4)C=C3)cc1
REMARK SMILES IDX 22 1 21 2 20 3 18 4 19 5 17 7 9 8 10 9 11 10 16 11 12 12
REMARK SMILES IDX 15 13 13 14 14 15 7 17 8 18 3 19 2 20 1 21 4 22 5 26 6 27
REMARK SMILES IDX 23 28 24 29 25 30 26 32 27 33 28 34 89 35 29 36 88 37 30 38
REMARK SMILES IDX 31 39 32 40 82 41 33 42 87 43 81 44 83 45 34 46 86 47 80 48
REMARK SMILES IDX 79 49 35 51 67 52 47 53 66 54 48 55 51 56 65 57 84 58 49 59
REMARK SMILES IDX 50 60 64 62 85 63 52 64 36 65 37 66 45 67 38 68 40 69 46 70
REMARK SMILES IDX 39 71 41 72 42 73 43 74 44 75 68 76 69 77 77 78 70 79 72 80
REMARK SMILES IDX 78 81 71 82 73 83 74 84 75 85 76 86 53 87 54 88 62 89 55 90
REMARK SMILES IDX 57 91 63 92 56 93 58 94 59 95 60 96 61 97
REMARK H PARENT 20 6 14 16 4 23 4 24 4 25 24 31 83 50 51 61
REMARK Flexibility Score: inf
ROOT
ATOM      1  C   UNL A   1      33.796  30.543  27.619  1.00  0.00     0.042 C 
ENDROOT
BRANCH   1   2
ATOM      2  C   UNL A   1      32.604  30.471  26.661  1.00  0.00     0.117 C 
BRANCH   2   3
ATOM      3  N   UNL A   1      32.982  30.047  25.323  1.00  0.00    -0.354 N 
ATOM      4  C   UNL A   1      32.441  29.198  24.416  1.00  0.00     0.243 C 
ATOM      5  O   UNL A   1      33.085  29.044  23.370  1.00  0.00    -0.273 OA
ATOM      6  H   UNL A   1      33.814  30.470  25.006  1.00  0.00     0.163 HD
BRANCH   4   7
ATOM      7  C   UNL A   1      31.141  28.383  24.591  1.00  0.00     0.181 C 
ATOM      8  N   UNL A   1      30.347  28.060  23.366  1.00  0.00    -0.319 N 
ATOM      9  C   UNL A   1      30.671  26.819  22.632  1.00  0.00     0.178 C 
ATOM     10  C   UNL A   1      31.135  25.753  23.564  1.00  0.00     0.081 A 
ATOM     11  C   UNL A   1      31.214  27.220  25.620  1.00  0.00     0.091 C 
ATOM     12  N   UNL A   1      31.572  24.510  23.179  1.00  0.00    -0.240 NA
ATOM     13  C   UNL A   1      31.370  25.939  24.903  1.00  0.00     0.042 A 
ATOM     14  C   UNL A   1      32.044  23.955  24.274  1.00  0.00     0.197 A 
ATOM     15  N   UNL A   1      31.897  24.770  25.365  1.00  0.00    -0.348 N 
ATOM     16  H   UNL A   1      32.126  24.554  26.298  1.00  0.00     0.167 HD
BRANCH   8  17
ATOM     17  C   UNL A   1      29.182  28.701  22.958  1.00  0.00     0.284 C 
ATOM     18  O   UNL A   1      28.109  28.091  23.076  1.00  0.00    -0.268 OA
BRANCH  17  19
ATOM     19  C   UNL A   1      29.168  30.153  22.337  1.00  0.00     0.173 C 
BRANCH  19  20
ATOM     20  C   UNL A   1      28.003  30.229  21.289  1.00  0.00     0.075 C 
ATOM     21  C   UNL A   1      27.948  31.484  20.413  1.00  0.00     0.011 C 
ENDBRANCH  19  20
BRANCH  19  22
ATOM     22  N   UNL A   1      30.423  30.428  21.617  1.00  0.00    -0.345 N 
ATOM     23  H   UNL A   1      30.667  31.413  21.724  1.00  0.00     0.345 HD
ATOM     24  H   UNL A   1      30.300  30.214  20.627  1.00  0.00     0.345 HD
ATOM     25  H   UNL A   1      31.168  29.849  22.000  1.00  0.00     0.345 HD
ENDBRANCH  19  22
BRANCH  19  26
ATOM     26  C   UNL A   1      28.943  31.294  23.361  1.00  0.00     0.075 C 
ATOM     27  C   UNL A   1      27.501  31.454  23.825  1.00  0.00     0.011 C 
ENDBRANCH  19  26
ENDBRANCH  17  19
ENDBRANCH   8  17
ENDBRANCH   4   7
ENDBRANCH   2   3
ENDBRANCH   1   2
BRANCH   1  28
ATOM     28  C   UNL A   1      34.274  31.955  27.877  1.00  0.00     0.118 C 
BRANCH  28  29
ATOM     29  N   UNL A   1      34.325  32.301  29.307  1.00  0.00    -0.352 N 
ATOM     30  C   UNL A   1      35.254  31.861  30.244  1.00  0.00     0.251 C 
ATOM     31  H   UNL A   1      33.625  32.912  29.635  1.00  0.00     0.163 HD
ATOM     32  O   UNL A   1      35.050  31.927  31.442  1.00  0.00    -0.269 OA
BRANCH  30  33
ATOM     33  C   UNL A   1      36.516  31.318  29.711  1.00  0.00     0.039 A 
ATOM     34  C   UNL A   1      37.645  32.112  29.495  1.00  0.00     0.014 A 
ATOM     35  C   UNL A   1      36.584  29.934  29.677  1.00  0.00     0.014 A 
ATOM     36  C   UNL A   1      38.882  31.479  29.369  1.00  0.00     0.010 A 
ATOM     37  C   UNL A   1      37.812  29.362  29.840  1.00  0.00     0.010 A 
ATOM     38  C   UNL A   1      38.964  30.096  29.588  1.00  0.00    -0.014 A 
BRANCH  38  39
ATOM     39  C   UNL A   1      40.232  29.378  29.644  1.00  0.00     0.031 A 
ATOM     40  C   UNL A   1      40.776  29.126  31.008  1.00  0.00     0.074 A 
ATOM     41  C   UNL A   1      40.761  28.783  28.550  1.00  0.00     0.049 A 
ATOM     42  N   UNL A   1      41.812  29.676  31.552  1.00  0.00    -0.248 NA
ATOM     43  C   UNL A   1      40.015  28.266  31.927  1.00  0.00     0.031 C 
ATOM     44  C   UNL A   1      40.183  28.660  27.198  1.00  0.00     0.029 A 
ATOM     45  N   UNL A   1      41.876  28.015  28.453  1.00  0.00    -0.354 N 
ATOM     46  C   UNL A   1      41.977  29.047  32.785  1.00  0.00     0.074 A 
ATOM     47  C   UNL A   1      40.738  28.361  33.046  1.00  0.00     0.031 C 
ATOM     48  C   UNL A   1      40.783  27.648  26.537  1.00  0.00     0.029 A 
ATOM     49  C   UNL A   1      41.926  27.223  27.313  1.00  0.00     0.049 A 
ATOM     50  H   UNL A   1      42.588  28.020  29.134  1.00  0.00     0.167 HD
ATOM     51  C   UNL A   1      43.207  28.932  33.362  1.00  0.00     0.034 A 
ATOM     52  C   UNL A   1      42.837  26.264  27.031  1.00  0.00     0.034 A 
ATOM     53  C   UNL A   1      44.173  29.770  32.694  1.00  0.00     0.049 A 
ATOM     54  C   UNL A   1      44.027  26.557  27.859  1.00  0.00     0.074 A 
ATOM     55  C   UNL A   1      44.295  31.122  32.445  1.00  0.00     0.029 A 
ATOM     56  N   UNL A   1      45.020  29.144  31.811  1.00  0.00    -0.354 N 
ATOM     57  N   UNL A   1      44.749  27.634  27.717  1.00  0.00    -0.248 NA
ATOM     58  C   UNL A   1      44.146  25.884  29.140  1.00  0.00     0.031 C 
ATOM     59  C   UNL A   1      44.818  31.200  31.120  1.00  0.00     0.029 A 
ATOM     60  C   UNL A   1      45.055  29.898  30.668  1.00  0.00     0.049 A 
ATOM     61  H   UNL A   1      45.512  28.307  31.970  1.00  0.00     0.167 HD
ATOM     62  C   UNL A   1      45.041  28.026  29.017  1.00  0.00     0.074 A 
ATOM     63  C   UNL A   1      44.749  26.850  29.838  1.00  0.00     0.031 C 
ATOM     64  C   UNL A   1      45.207  29.343  29.339  1.00  0.00     0.034 A 
BRANCH  51  65
ATOM     65  C   UNL A   1      43.666  27.811  34.273  1.00  0.00     0.023 A 
ATOM     66  C   UNL A   1      44.281  28.183  35.493  1.00  0.00     0.012 A 
ATOM     67  C   UNL A   1      43.785  26.456  33.893  1.00  0.00     0.148 A 
ATOM     68  C   UNL A   1      45.030  27.277  36.252  1.00  0.00     0.002 A 
ATOM     69  C   UNL A   1      44.465  25.540  34.691  1.00  0.00     0.091 A 
ATOM     70  F   UNL A   1      43.361  26.057  32.692  1.00  0.00    -0.205 F 
ATOM     71  C   UNL A   1      45.119  25.952  35.852  1.00  0.00     0.022 A 
BRANCH  69  72
ATOM     72  S   UNL A   1      44.570  23.801  34.246  1.00  0.00     0.127 S 
ATOM     73  O   UNL A   1      45.283  23.870  32.973  1.00  0.00    -0.237 OA
ATOM     74  O   UNL A   1      45.343  23.254  35.361  1.00  0.00    -0.237 OA
ATOM     75  O   UNL A   1      43.192  23.331  34.189  1.00  0.00    -0.744 OA
ENDBRANCH  69  72
ENDBRANCH  51  65
BRANCH  52  76
ATOM     76  C   UNL A   1      42.659  24.992  26.300  1.00  0.00     0.023 A 
ATOM     77  C   UNL A   1      43.608  24.600  25.339  1.00  0.00     0.012 A 
ATOM     78  C   UNL A   1      41.720  24.035  26.746  1.00  0.00     0.148 A 
ATOM     79  C   UNL A   1      43.649  23.284  24.866  1.00  0.00     0.002 A 
ATOM     80  C   UNL A   1      41.763  22.729  26.271  1.00  0.00     0.091 A 
ATOM     81  F   UNL A   1      40.846  24.386  27.700  1.00  0.00    -0.205 F 
ATOM     82  C   UNL A   1      42.736  22.345  25.340  1.00  0.00     0.022 A 
BRANCH  80  83
ATOM     83  S   UNL A   1      40.637  21.454  26.858  1.00  0.00     0.127 S 
ATOM     84  O   UNL A   1      39.338  21.989  26.447  1.00  0.00    -0.237 OA
ATOM     85  O   UNL A   1      41.087  20.288  26.105  1.00  0.00    -0.237 OA
ATOM     86  O   UNL A   1      40.832  21.393  28.302  1.00  0.00    -0.744 OA
ENDBRANCH  80  83
ENDBRANCH  52  76
BRANCH  64  87
ATOM     87  C   UNL A   1      45.302  30.349  28.215  1.00  0.00     0.023 A 
ATOM     88  C   UNL A   1      44.163  30.879  27.574  1.00  0.00     0.012 A 
ATOM     89  C   UNL A   1      46.557  30.917  27.943  1.00  0.00     0.148 A 
ATOM     90  C   UNL A   1      44.274  31.943  26.674  1.00  0.00     0.002 A 
ATOM     91  C   UNL A   1      46.659  32.006  27.085  1.00  0.00     0.091 A 
ATOM     92  F   UNL A   1      47.631  30.405  28.564  1.00  0.00    -0.205 F 
ATOM     93  C   UNL A   1      45.521  32.517  26.442  1.00  0.00     0.022 A 
BRANCH  91  94
ATOM     94  S   UNL A   1      48.213  32.871  26.849  1.00  0.00     0.127 S 
ATOM     95  O   UNL A   1      48.469  33.408  28.184  1.00  0.00    -0.237 OA
ATOM     96  O   UNL A   1      49.113  31.792  26.439  1.00  0.00    -0.237 OA
ATOM     97  O   UNL A   1      47.965  33.865  25.810  1.00  0.00    -0.744 OA
ENDBRANCH  91  94
ENDBRANCH  64  87
ENDBRANCH  38  39
ENDBRANCH  30  33
ENDBRANCH  28  29
ENDBRANCH   1  28
TORSDOF 18
ENDMDL
MODEL 2
REMARK VINA RESULT:     -11.9      3.447      8.072
REMARK SMILES CCC([NH3+])(CC)C(=O)N1Cc2nc[nH]c2C[C@H]1C(=O)NCCCNC(=O)c1ccc(-c2c3nc(c(-c4cccc(S(=O)(=O)[O-])c4F)c4ccc([nH]4)c(-c4cccc(S(=O)(=O)[O-])c4F)c4nc(c(-c5cccc(S(=O)(=O)[O-])c5F)c5ccc2[nH]5)C=C4)C=C3)cc1
REMARK SMILES IDX 22 1 21 2 20 3 18 4 19 5 17 7 9 8 10 9 11 10 16 11 12 12
REMARK SMILES IDX 15 13 13 14 14 15 7 17 8 18 3 19 2 20 1 21 4 22 5 26 6 27
REMARK SMILES IDX 23 28 24 29 25 30 26 32 27 33 28 34 89 35 29 36 88 37 30 38
REMARK SMILES IDX 31 39 32 40 82 41 33 42 87 43 81 44 83 45 34 46 86 47 80 48
REMARK SMILES IDX 79 49 35 51 67 52 47 53 66 54 48 55 51 56 65 57 84 58 49 59
REMARK SMILES IDX 50 60 64 62 85 63 52 64 36 65 37 66 45 67 38 68 40 69 46 70
REMARK SMILES IDX 39 71 41 72 42 73 43 74 44 75 68 76 69 77 77 78 70 79 72 80
REMARK SMILES IDX 78 81 71 82 73 83 74 84 75 85 76 86 53 87 54 88 62 89 55 90
REMARK SMILES IDX 57 91 63 92 56 93 58 94 59 95 60 96 61 97
REMARK H PARENT 20 6 14 16 4 23 4 24 4 25 24 31 83 50 51 61
REMARK Flexibility Score: inf
ROOT
ATOM      1  C   UNL A   1      38.494  20.811  25.235  1.00  0.00     0.042 C 
ENDROOT
BRANCH   1   2
ATOM      2  C   UNL A   1      37.960  22.244  25.298  1.00  0.00     0.117 C 
BRANCH   2   3
ATOM      3  N   UNL A   1      37.213  22.618  24.109  1.00  0.00    -0.354 N 
ATOM      4  C   UNL A   1      35.893  22.718  23.818  1.00  0.00     0.243 C 
ATOM      5  O   UNL A   1      35.619  23.028  22.651  1.00  0.00    -0.273 OA
ATOM      6  H   UNL A   1      37.793  22.851  23.347  1.00  0.00     0.163 HD
BRANCH   4   7
ATOM      7  C   UNL A   1      34.722  22.434  24.784  1.00  0.00     0.181 C 
ATOM      8  N   UNL A   1      33.341  22.787  24.333  1.00  0.00    -0.319 N 
ATOM      9  C   UNL A   1      32.572  21.773  23.581  1.00  0.00     0.178 C 
ATOM     10  C   UNL A   1      32.916  20.396  24.036  1.00  0.00     0.081 A 
ATOM     11  C   UNL A   1      34.807  21.091  25.562  1.00  0.00     0.091 C 
ATOM     12  N   UNL A   1      32.420  19.241  23.487  1.00  0.00    -0.240 NA
ATOM     13  C   UNL A   1      33.915  20.100  24.930  1.00  0.00     0.042 A 
ATOM     14  C   UNL A   1      33.099  18.268  24.055  1.00  0.00     0.197 A 
ATOM     15  N   UNL A   1      33.990  18.739  24.982  1.00  0.00    -0.348 N 
ATOM     16  H   UNL A   1      34.569  18.203  25.570  1.00  0.00     0.167 HD
BRANCH   8  17
ATOM     17  C   UNL A   1      32.614  23.903  24.732  1.00  0.00     0.284 C 
ATOM     18  O   UNL A   1      31.975  23.834  25.792  1.00  0.00    -0.268 OA
BRANCH  17  19
ATOM     19  C   UNL A   1      32.551  25.239  23.891  1.00  0.00     0.173 C 
BRANCH  19  20
ATOM     20  C   UNL A   1      33.784  26.126  24.282  1.00  0.00     0.075 C 
ATOM     21  C   UNL A   1      33.734  26.804  25.654  1.00  0.00     0.011 C 
ENDBRANCH  19  20
BRANCH  19  22
ATOM     22  N   UNL A   1      31.338  26.007  24.219  1.00  0.00    -0.345 N 
ATOM     23  H   UNL A   1      30.986  26.463  23.376  1.00  0.00     0.345 HD
ATOM     24  H   UNL A   1      31.563  26.715  24.919  1.00  0.00     0.345 HD
ATOM     25  H   UNL A   1      30.626  25.378  24.588  1.00  0.00     0.345 HD
ENDBRANCH  19  22
BRANCH  19  26
ATOM     26  C   UNL A   1      32.592  25.041  22.355  1.00  0.00     0.075 C 
ATOM     27  C   UNL A   1      31.909  26.145  21.556  1.00  0.00     0.011 C 
ENDBRANCH  19  26
ENDBRANCH  17  19
ENDBRANCH   8  17
ENDBRANCH   4   7
ENDBRANCH   2   3
ENDBRANCH   1   2
BRANCH   1  28
ATOM     28  C   UNL A   1      39.443  20.473  26.363  1.00  0.00     0.118 C 
BRANCH  28  29
ATOM     29  N   UNL A   1      40.443  19.456  26.000  1.00  0.00    -0.352 N 
ATOM     30  C   UNL A   1      41.813  19.646  25.843  1.00  0.00     0.251 C 
ATOM     31  H   UNL A   1      40.107  18.543  25.854  1.00  0.00     0.163 HD
ATOM     32  O   UNL A   1      42.514  18.854  25.241  1.00  0.00    -0.269 OA
BRANCH  30  33
ATOM     33  C   UNL A   1      42.382  20.859  26.458  1.00  0.00     0.039 A 
ATOM     34  C   UNL A   1      42.831  21.945  25.702  1.00  0.00     0.014 A 
ATOM     35  C   UNL A   1      42.208  20.950  27.829  1.00  0.00     0.014 A 
ATOM     36  C   UNL A   1      42.983  23.176  26.342  1.00  0.00     0.010 A 
ATOM     37  C   UNL A   1      42.085  22.199  28.364  1.00  0.00     0.010 A 
ATOM     38  C   UNL A   1      42.563  23.306  27.674  1.00  0.00    -0.014 A 
BRANCH  38  39
ATOM     39  C   UNL A   1      42.525  24.587  28.369  1.00  0.00     0.031 A 
ATOM     40  C   UNL A   1      41.294  25.401  28.167  1.00  0.00     0.074 A 
ATOM     41  C   UNL A   1      43.441  24.911  29.312  1.00  0.00     0.049 A 
ATOM     42  N   UNL A   1      41.185  26.502  27.497  1.00  0.00    -0.248 NA
ATOM     43  C   UNL A   1      40.008  24.873  28.646  1.00  0.00     0.031 C 
ATOM     44  C   UNL A   1      44.529  24.081  29.864  1.00  0.00     0.029 A 
ATOM     45  N   UNL A   1      43.497  26.013  30.102  1.00  0.00    -0.354 N 
ATOM     46  C   UNL A   1      39.873  26.934  27.682  1.00  0.00     0.074 A 
ATOM     47  C   UNL A   1      39.155  25.800  28.203  1.00  0.00     0.031 C 
ATOM     48  C   UNL A   1      44.920  24.577  31.056  1.00  0.00     0.029 A 
ATOM     49  C   UNL A   1      44.293  25.866  31.231  1.00  0.00     0.049 A 
ATOM     50  H   UNL A   1      43.015  26.846  29.891  1.00  0.00     0.167 HD
ATOM     51  C   UNL A   1      39.549  28.258  27.635  1.00  0.00     0.034 A 
ATOM     52  C   UNL A   1      44.415  26.741  32.256  1.00  0.00     0.034 A 
ATOM     53  C   UNL A   1      40.638  29.038  27.098  1.00  0.00     0.049 A 
ATOM     54  C   UNL A   1      43.989  28.059  31.739  1.00  0.00     0.074 A 
ATOM     55  C   UNL A   1      41.343  29.054  25.912  1.00  0.00     0.029 A 
ATOM     56  N   UNL A   1      41.413  29.716  28.009  1.00  0.00    -0.354 N 
ATOM     57  N   UNL A   1      44.624  28.695  30.794  1.00  0.00    -0.248 NA
ATOM     58  C   UNL A   1      42.608  28.457  31.947  1.00  0.00     0.031 C 
ATOM     59  C   UNL A   1      42.695  29.300  26.298  1.00  0.00     0.029 A 
ATOM     60  C   UNL A   1      42.724  29.493  27.683  1.00  0.00     0.049 A 
ATOM     61  H   UNL A   1      41.085  30.262  28.759  1.00  0.00     0.167 HD
ATOM     62  C   UNL A   1      43.616  29.224  29.998  1.00  0.00     0.074 A 
ATOM     63  C   UNL A   1      42.409  29.148  30.821  1.00  0.00     0.031 C 
ATOM     64  C   UNL A   1      43.793  29.399  28.654  1.00  0.00     0.034 A 
BRANCH  51  65
ATOM     65  C   UNL A   1      38.428  28.933  28.399  1.00  0.00     0.023 A 
ATOM     66  C   UNL A   1      37.544  29.752  27.656  1.00  0.00     0.012 A 
ATOM     67  C   UNL A   1      38.356  29.038  29.806  1.00  0.00     0.148 A 
ATOM     68  C   UNL A   1      36.691  30.673  28.274  1.00  0.00     0.002 A 
ATOM     69  C   UNL A   1      37.450  29.898  30.419  1.00  0.00     0.091 A 
ATOM     70  F   UNL A   1      39.251  28.410  30.571  1.00  0.00    -0.205 F 
ATOM     71  C   UNL A   1      36.640  30.743  29.659  1.00  0.00     0.022 A 
BRANCH  69  72
ATOM     72  S   UNL A   1      37.308  29.995  32.209  1.00  0.00     0.127 S 
ATOM     73  O   UNL A   1      38.579  30.620  32.567  1.00  0.00    -0.237 OA
ATOM     74  O   UNL A   1      36.130  30.847  32.370  1.00  0.00    -0.237 OA
ATOM     75  O   UNL A   1      37.116  28.622  32.657  1.00  0.00    -0.744 OA
ENDBRANCH  69  72
ENDBRANCH  51  65
BRANCH  52  76
ATOM     76  C   UNL A   1      44.627  26.471  33.693  1.00  0.00     0.023 A 
ATOM     77  C   UNL A   1      45.898  26.675  34.262  1.00  0.00     0.012 A 
ATOM     78  C   UNL A   1      43.526  26.289  34.559  1.00  0.00     0.148 A 
ATOM     79  C   UNL A   1      46.061  26.739  35.650  1.00  0.00     0.002 A 
ATOM     80  C   UNL A   1      43.694  26.350  35.938  1.00  0.00     0.091 A 
ATOM     81  F   UNL A   1      42.304  26.146  34.026  1.00  0.00    -0.205 F 
ATOM     82  C   UNL A   1      44.959  26.590  36.488  1.00  0.00     0.022 A 
BRANCH  80  83
ATOM     83  S   UNL A   1      42.314  26.198  37.082  1.00  0.00     0.127 S 
ATOM     84  O   UNL A   1      41.855  24.834  36.818  1.00  0.00    -0.237 OA
ATOM     85  O   UNL A   1      42.972  26.385  38.371  1.00  0.00    -0.237 OA
ATOM     86  O   UNL A   1      41.366  27.236  36.696  1.00  0.00    -0.744 OA
ENDBRANCH  80  83
ENDBRANCH  52  76
BRANCH  64  87
ATOM     87  C   UNL A   1      45.183  29.229  28.087  1.00  0.00     0.023 A 
ATOM     88  C   UNL A   1      46.178  30.222  28.209  1.00  0.00     0.012 A 
ATOM     89  C   UNL A   1      45.548  27.962  27.604  1.00  0.00     0.148 A 
ATOM     90  C   UNL A   1      47.503  29.961  27.846  1.00  0.00     0.002 A 
ATOM     91  C   UNL A   1      46.875  27.691  27.289  1.00  0.00     0.091 A 
ATOM     92  F   UNL A   1      44.592  27.026  27.498  1.00  0.00    -0.205 F 
ATOM     93  C   UNL A   1      47.854  28.690  27.401  1.00  0.00     0.022 A 
BRANCH  91  94
ATOM     94  S   UNL A   1      47.413  26.040  26.838  1.00  0.00     0.127 S 
ATOM     95  O   UNL A   1      46.647  25.792  25.618  1.00  0.00    -0.237 OA
ATOM     96  O   UNL A   1      48.850  26.224  26.633  1.00  0.00    -0.237 OA
ATOM     97  O   UNL A   1      47.079  25.186  27.973  1.00  0.00    -0.744 OA
ENDBRANCH  91  94
ENDBRANCH  64  87
ENDBRANCH  38  39
ENDBRANCH  30  33
ENDBRANCH  28  29
ENDBRANCH   1  28
TORSDOF 18
ENDMDL
MODEL 3
REMARK VINA RESULT:     -11.9      3.328      7.379
REMARK SMILES CCC([NH3+])(CC)C(=O)N1Cc2nc[nH]c2C[C@H]1C(=O)NCCCNC(=O)c1ccc(-c2c3nc(c(-c4cccc(S(=O)(=O)[O-])c4F)c4ccc([nH]4)c(-c4cccc(S(=O)(=O)[O-])c4F)c4nc(c(-c5cccc(S(=O)(=O)[O-])c5F)c5ccc2[nH]5)C=C4)C=C3)cc1
REMARK SMILES IDX 22 1 21 2 20 3 18 4 19 5 17 7 9 8 10 9 11 10 16 11 12 12
REMARK SMILES IDX 15 13 13 14 14 15 7 17 8 18 3 19 2 20 1 21 4 22 5 26 6 27
REMARK SMILES IDX 23 28 24 29 25 30 26 32 27 33 28 34 89 35 29 36 88 37 30 38
REMARK SMILES IDX 31 39 32 40 82 41 33 42 87 43 81 44 83 45 34 46 86 47 80 48
REMARK SMILES IDX 79 49 35 51 67 52 47 53 66 54 48 55 51 56 65 57 84 58 49 59
REMARK SMILES IDX 50 60 64 62 85 63 52 64 36 65 37 66 45 67 38 68 40 69 46 70
REMARK SMILES IDX 39 71 41 72 42 73 43 74 44 75 68 76 69 77 77 78 70 79 72 80
REMARK SMILES IDX 78 81 71 82 73 83 74 84 75 85 76 86 53 87 54 88 62 89 55 90
REMARK SMILES IDX 57 91 63 92 56 93 58 94 59 95 60 96 61 97
REMARK H PARENT 20 6 14 16 4 23 4 24 4 25 24 31 83 50 51 61
REMARK Flexibility Score: inf
ROOT
ATOM      1  C   UNL A   1      32.054  31.765  26.841  1.00  0.00     0.042 C 
ENDROOT
BRANCH   1   2
ATOM      2  C   UNL A   1      32.356  30.265  26.890  1.00  0.00     0.117 C 
BRANCH   2   3
ATOM      3  N   UNL A   1      33.048  29.792  25.703  1.00  0.00    -0.354 N 
ATOM      4  C   UNL A   1      32.665  29.101  24.602  1.00  0.00     0.243 C 
ATOM      5  O   UNL A   1      33.564  28.826  23.797  1.00  0.00    -0.273 OA
ATOM      6  H   UNL A   1      34.005  30.026  25.696  1.00  0.00     0.163 HD
BRANCH   4   7
ATOM      7  C   UNL A   1      31.240  28.590  24.296  1.00  0.00     0.181 C 
ATOM      8  N   UNL A   1      30.833  28.467  22.862  1.00  0.00    -0.319 N 
ATOM      9  C   UNL A   1      31.115  27.195  22.164  1.00  0.00     0.178 C 
ATOM     10  C   UNL A   1      31.027  26.040  23.102  1.00  0.00     0.081 A 
ATOM     11  C   UNL A   1      30.739  27.425  25.195  1.00  0.00     0.091 C 
ATOM     12  N   UNL A   1      31.300  24.737  22.770  1.00  0.00    -0.240 NA
ATOM     13  C   UNL A   1      30.851  26.152  24.459  1.00  0.00     0.042 A 
ATOM     14  C   UNL A   1      31.271  24.076  23.907  1.00  0.00     0.197 A 
ATOM     15  N   UNL A   1      30.950  24.889  24.962  1.00  0.00    -0.348 N 
ATOM     16  H   UNL A   1      30.818  24.615  25.898  1.00  0.00     0.167 HD
BRANCH   8  17
ATOM     17  C   UNL A   1      30.020  29.354  22.167  1.00  0.00     0.284 C 
ATOM     18  O   UNL A   1      30.526  30.010  21.245  1.00  0.00    -0.268 OA
BRANCH  17  19
ATOM     19  C   UNL A   1      28.494  29.577  22.510  1.00  0.00     0.173 C 
BRANCH  19  20
ATOM     20  C   UNL A   1      27.883  28.203  22.958  1.00  0.00     0.075 C 
ATOM     21  C   UNL A   1      26.533  28.253  23.677  1.00  0.00     0.011 C 
ENDBRANCH  19  20
BRANCH  19  22
ATOM     22  N   UNL A   1      27.748  30.018  21.318  1.00  0.00    -0.345 N 
ATOM     23  H   UNL A   1      27.230  29.229  20.931  1.00  0.00     0.345 HD
ATOM     24  H   UNL A   1      28.403  30.372  20.620  1.00  0.00     0.345 HD
ATOM     25  H   UNL A   1      27.098  30.758  21.579  1.00  0.00     0.345 HD
ENDBRANCH  19  22
BRANCH  19  26
ATOM     26  C   UNL A   1      28.226  30.594  23.646  1.00  0.00     0.075 C 
ATOM     27  C   UNL A   1      28.077  32.039  23.182  1.00  0.00     0.011 C 
ENDBRANCH  19  26
ENDBRANCH  17  19
ENDBRANCH   8  17
ENDBRANCH   4   7
ENDBRANCH   2   3
ENDBRANCH   1   2
BRANCH   1  28
ATOM     28  C   UNL A   1      33.148  32.618  27.443  1.00  0.00     0.118 C 
BRANCH  28  29
ATOM     29  N   UNL A   1      32.689  33.957  27.848  1.00  0.00    -0.352 N 
ATOM     30  C   UNL A   1      33.130  34.701  28.938  1.00  0.00     0.251 C 
ATOM     31  H   UNL A   1      31.995  34.371  27.286  1.00  0.00     0.163 HD
ATOM     32  O   UNL A   1      32.493  35.634  29.388  1.00  0.00    -0.269 OA
BRANCH  30  33
ATOM     33  C   UNL A   1      34.426  34.307  29.519  1.00  0.00     0.039 A 
ATOM     34  C   UNL A   1      34.532  33.388  30.566  1.00  0.00     0.014 A 
ATOM     35  C   UNL A   1      35.534  34.714  28.795  1.00  0.00     0.014 A 
ATOM     36  C   UNL A   1      35.770  32.784  30.791  1.00  0.00     0.010 A 
ATOM     37  C   UNL A   1      36.640  33.916  28.839  1.00  0.00     0.010 A 
ATOM     38  C   UNL A   1      36.816  33.023  29.888  1.00  0.00    -0.014 A 
BRANCH  38  39
ATOM     39  C   UNL A   1      38.087  32.309  29.944  1.00  0.00     0.031 A 
ATOM     40  C   UNL A   1      38.093  30.944  29.345  1.00  0.00     0.074 A 
ATOM     41  C   UNL A   1      39.234  32.928  30.307  1.00  0.00     0.049 A 
ATOM     42  N   UNL A   1      38.178  29.816  29.970  1.00  0.00    -0.248 NA
ATOM     43  C   UNL A   1      37.844  30.802  27.903  1.00  0.00     0.031 C 
ATOM     44  C   UNL A   1      39.455  34.355  30.610  1.00  0.00     0.029 A 
ATOM     45  N   UNL A   1      40.498  32.434  30.329  1.00  0.00    -0.354 N 
ATOM     46  C   UNL A   1      38.246  28.836  28.982  1.00  0.00     0.074 A 
ATOM     47  C   UNL A   1      37.822  29.474  27.764  1.00  0.00     0.031 C 
ATOM     48  C   UNL A   1      40.767  34.648  30.490  1.00  0.00     0.029 A 
ATOM     49  C   UNL A   1      41.491  33.407  30.342  1.00  0.00     0.049 A 
ATOM     50  H   UNL A   1      40.694  31.469  30.335  1.00  0.00     0.167 HD
ATOM     51  C   UNL A   1      38.891  27.654  29.199  1.00  0.00     0.034 A 
ATOM     52  C   UNL A   1      42.823  33.207  30.221  1.00  0.00     0.034 A 
ATOM     53  C   UNL A   1      39.192  27.478  30.599  1.00  0.00     0.049 A 
ATOM     54  C   UNL A   1      43.074  31.797  30.591  1.00  0.00     0.074 A 
ATOM     55  C   UNL A   1      38.452  27.415  31.763  1.00  0.00     0.029 A 
ATOM     56  N   UNL A   1      40.484  27.744  30.987  1.00  0.00    -0.354 N 
ATOM     57  N   UNL A   1      42.861  31.324  31.788  1.00  0.00    -0.248 NA
ATOM     58  C   UNL A   1      43.124  30.813  29.525  1.00  0.00     0.031 C 
ATOM     59  C   UNL A   1      39.228  28.126  32.725  1.00  0.00     0.029 A 
ATOM     60  C   UNL A   1      40.426  28.516  32.116  1.00  0.00     0.049 A 
ATOM     61  H   UNL A   1      41.302  27.436  30.535  1.00  0.00     0.167 HD
ATOM     62  C   UNL A   1      42.296  30.074  31.568  1.00  0.00     0.074 A 
ATOM     63  C   UNL A   1      42.595  29.769  30.169  1.00  0.00     0.031 C 
ATOM     64  C   UNL A   1      41.393  29.541  32.444  1.00  0.00     0.034 A 
BRANCH  51  65
ATOM     65  C   UNL A   1      39.598  26.815  28.154  1.00  0.00     0.023 A 
ATOM     66  C   UNL A   1      39.336  25.424  28.159  1.00  0.00     0.012 A 
ATOM     67  C   UNL A   1      40.689  27.250  27.369  1.00  0.00     0.148 A 
ATOM     68  C   UNL A   1      40.155  24.513  27.482  1.00  0.00     0.002 A 
ATOM     69  C   UNL A   1      41.453  26.348  26.633  1.00  0.00     0.091 A 
ATOM     70  F   UNL A   1      41.090  28.522  27.425  1.00  0.00    -0.205 F 
ATOM     71  C   UNL A   1      41.213  24.976  26.714  1.00  0.00     0.022 A 
BRANCH  69  72
ATOM     72  S   UNL A   1      42.806  26.898  25.584  1.00  0.00     0.127 S 
ATOM     73  O   UNL A   1      43.804  27.286  26.577  1.00  0.00    -0.237 OA
ATOM     74  O   UNL A   1      43.116  25.681  24.834  1.00  0.00    -0.237 OA
ATOM     75  O   UNL A   1      42.253  27.974  24.771  1.00  0.00    -0.744 OA
ENDBRANCH  69  72
ENDBRANCH  51  65
BRANCH  52  76
ATOM     76  C   UNL A   1      43.840  34.062  29.574  1.00  0.00     0.023 A 
ATOM     77  C   UNL A   1      44.720  34.822  30.366  1.00  0.00     0.012 A 
ATOM     78  C   UNL A   1      44.132  33.913  28.199  1.00  0.00     0.148 A 
ATOM     79  C   UNL A   1      45.878  35.382  29.816  1.00  0.00     0.002 A 
ATOM     80  C   UNL A   1      45.283  34.475  27.657  1.00  0.00     0.091 A 
ATOM     81  F   UNL A   1      43.327  33.148  27.449  1.00  0.00    -0.205 F 
ATOM     82  C   UNL A   1      46.167  35.199  28.467  1.00  0.00     0.022 A 
BRANCH  80  83
ATOM     83  S   UNL A   1      45.739  34.255  25.931  1.00  0.00     0.127 S 
ATOM     84  O   UNL A   1      46.011  32.818  25.873  1.00  0.00    -0.237 OA
ATOM     85  O   UNL A   1      44.522  34.677  25.244  1.00  0.00    -0.237 OA
ATOM     86  O   UNL A   1      46.911  35.097  25.724  1.00  0.00    -0.744 OA
ENDBRANCH  80  83
ENDBRANCH  52  76
BRANCH  64  87
ATOM     87  C   UNL A   1      41.197  30.228  33.776  1.00  0.00     0.023 A 
ATOM     88  C   UNL A   1      42.130  30.118  34.829  1.00  0.00     0.012 A 
ATOM     89  C   UNL A   1      40.156  31.162  33.890  1.00  0.00     0.148 A 
ATOM     90  C   UNL A   1      42.019  30.914  35.974  1.00  0.00     0.002 A 
ATOM     91  C   UNL A   1      40.075  31.985  35.008  1.00  0.00     0.091 A 
ATOM     92  F   UNL A   1      39.280  31.259  32.878  1.00  0.00    -0.205 F 
ATOM     93  C   UNL A   1      41.000  31.859  36.056  1.00  0.00     0.022 A 
BRANCH  91  94
ATOM     94  S   UNL A   1      38.869  33.309  35.112  1.00  0.00     0.127 S 
ATOM     95  O   UNL A   1      39.131  33.857  36.441  1.00  0.00    -0.237 OA
ATOM     96  O   UNL A   1      39.262  34.179  34.002  1.00  0.00    -0.237 OA
ATOM     97  O   UNL A   1      37.565  32.679  34.939  1.00  0.00    -0.744 OA
ENDBRANCH  91  94
ENDBRANCH  64  87
ENDBRANCH  38  39
ENDBRANCH  30  33
ENDBRANCH  28  29
ENDBRANCH   1  28
TORSDOF 18
ENDMDL
