MODEL 1
REMARK VINA RESULT:     -11.8      0.000      0.000
REMARK SMILES CC1(C(=O)N2CC[C@H](C(=O)NCCCNC(=O)c3ccc(-c4c5nc(c(-c6cccc(S(=O)(=O)[O-])c6F)c6ccc([nH]6)c(-c6cccc(S(=O)(=O)[O-])c6F)c6nc(c(-c7cccc(S(=O)(=O)[O-])c7F)c7ccc4[nH]7)C=C6)C=C5)cc3)C2)CCCC1
REMARK SMILES IDX 13 1 12 2 11 3 9 4 10 5 8 7 5 8 6 9 81 10 7 11 3 12 4 13
REMARK SMILES IDX 2 14 1 15 82 16 85 17 83 18 84 19 14 20 15 21 16 22 17 24
REMARK SMILES IDX 18 25 19 26 80 27 20 28 79 29 21 30 22 31 23 32 73 33 24 34
REMARK SMILES IDX 78 35 72 36 74 37 25 38 77 39 71 40 70 41 26 43 58 44 38 45
REMARK SMILES IDX 57 46 39 47 42 48 56 49 75 50 40 51 41 52 55 54 76 55 43 56
REMARK SMILES IDX 27 57 28 58 36 59 29 60 31 61 37 62 30 63 32 64 33 65 34 66
REMARK SMILES IDX 35 67 59 68 60 69 68 70 61 71 63 72 69 73 62 74 64 75 65 76
REMARK SMILES IDX 66 77 67 78 44 79 45 80 53 81 46 82 48 83 54 84 47 85 49 86
REMARK SMILES IDX 50 87 51 88 52 89
REMARK H PARENT 11 6 15 23 74 42 42 53
REMARK Flexibility Score: inf
ROOT
ATOM      1  C   UNL A   1      31.656  31.833  26.621  1.00  0.00     0.042 C 
ENDROOT
BRANCH   1   2
ATOM      2  C   UNL A   1      31.798  30.328  26.459  1.00  0.00     0.117 C 
BRANCH   2   3
ATOM      3  N   UNL A   1      32.298  29.936  25.156  1.00  0.00    -0.356 N 
ATOM      4  C   UNL A   1      31.895  28.948  24.312  1.00  0.00     0.224 C 
ATOM      5  O   UNL A   1      32.466  28.871  23.220  1.00  0.00    -0.275 OA
ATOM      6  H   UNL A   1      33.055  30.473  24.828  1.00  0.00     0.163 HD
BRANCH   4   7
ATOM      7  C   UNL A   1      30.804  27.948  24.667  1.00  0.00     0.099 C 
ATOM      8  N   UNL A   1      31.054  25.669  25.281  1.00  0.00    -0.341 N 
ATOM      9  C   UNL A   1      30.153  25.688  24.146  1.00  0.00     0.120 C 
ATOM     10  C   UNL A   1      31.155  27.017  25.829  1.00  0.00     0.133 C 
ATOM     11  C   UNL A   1      30.401  27.039  23.501  1.00  0.00     0.037 C 
BRANCH   8  12
ATOM     12  C   UNL A   1      31.546  24.596  25.995  1.00  0.00     0.228 C 
ATOM     13  O   UNL A   1      31.127  24.404  27.143  1.00  0.00    -0.274 OA
BRANCH  12  14
ATOM     14  C   UNL A   1      32.791  23.821  25.476  1.00  0.00     0.047 C 
ATOM     15  C   UNL A   1      32.515  22.502  24.748  1.00  0.00     0.022 C 
ATOM     16  C   UNL A   1      33.797  23.564  26.625  1.00  0.00     0.016 C 
ATOM     17  C   UNL A   1      33.617  24.776  24.593  1.00  0.00     0.016 C 
ATOM     18  C   UNL A   1      35.173  23.498  25.964  1.00  0.00     0.001 C 
ATOM     19  C   UNL A   1      35.070  24.327  24.692  1.00  0.00     0.001 C 
ENDBRANCH  12  14
ENDBRANCH   8  12
ENDBRANCH   4   7
ENDBRANCH   2   3
ENDBRANCH   1   2
BRANCH   1  20
ATOM     20  C   UNL A   1      32.850  32.495  27.286  1.00  0.00     0.118 C 
BRANCH  20  21
ATOM     21  N   UNL A   1      32.596  33.889  27.633  1.00  0.00    -0.352 N 
ATOM     22  C   UNL A   1      33.140  34.672  28.622  1.00  0.00     0.251 C 
ATOM     23  H   UNL A   1      31.929  34.340  27.068  1.00  0.00     0.163 HD
ATOM     24  O   UNL A   1      32.642  35.772  28.862  1.00  0.00    -0.269 OA
BRANCH  22  25
ATOM     25  C   UNL A   1      34.300  34.197  29.407  1.00  0.00     0.039 A 
ATOM     26  C   UNL A   1      34.078  33.426  30.551  1.00  0.00     0.014 A 
ATOM     27  C   UNL A   1      35.604  34.515  29.023  1.00  0.00     0.014 A 
ATOM     28  C   UNL A   1      35.165  32.915  31.264  1.00  0.00     0.010 A 
ATOM     29  C   UNL A   1      36.680  33.917  29.669  1.00  0.00     0.010 A 
ATOM     30  C   UNL A   1      36.476  33.121  30.804  1.00  0.00    -0.014 A 
BRANCH  30  31
ATOM     31  C   UNL A   1      37.645  32.511  31.486  1.00  0.00     0.031 A 
ATOM     32  C   UNL A   1      38.381  31.361  30.853  1.00  0.00     0.074 A 
ATOM     33  C   UNL A   1      37.981  32.922  32.726  1.00  0.00     0.049 A 
ATOM     34  N   UNL A   1      39.369  30.650  31.330  1.00  0.00    -0.248 NA
ATOM     35  C   UNL A   1      37.920  30.927  29.524  1.00  0.00     0.031 C 
ATOM     36  C   UNL A   1      37.286  33.961  33.488  1.00  0.00     0.029 A 
ATOM     37  N   UNL A   1      38.967  32.490  33.576  1.00  0.00    -0.354 N 
ATOM     38  C   UNL A   1      39.623  29.665  30.383  1.00  0.00     0.074 A 
ATOM     39  C   UNL A   1      38.652  29.841  29.324  1.00  0.00     0.031 C 
ATOM     40  C   UNL A   1      37.863  34.083  34.692  1.00  0.00     0.029 A 
ATOM     41  C   UNL A   1      38.945  33.109  34.803  1.00  0.00     0.049 A 
ATOM     42  H   UNL A   1      39.628  31.802  33.331  1.00  0.00     0.167 HD
ATOM     43  C   UNL A   1      40.591  28.719  30.377  1.00  0.00     0.034 A 
ATOM     44  C   UNL A   1      39.695  32.906  35.904  1.00  0.00     0.034 A 
ATOM     45  C   UNL A   1      41.572  28.568  31.417  1.00  0.00     0.049 A 
ATOM     46  C   UNL A   1      40.795  31.882  35.860  1.00  0.00     0.074 A 
ATOM     47  C   UNL A   1      42.655  27.708  31.462  1.00  0.00     0.029 A 
ATOM     48  N   UNL A   1      41.582  29.283  32.605  1.00  0.00    -0.354 N 
ATOM     49  N   UNL A   1      41.127  31.071  34.885  1.00  0.00    -0.248 NA
ATOM     50  C   UNL A   1      41.647  31.769  37.052  1.00  0.00     0.031 C 
ATOM     51  C   UNL A   1      43.295  27.876  32.693  1.00  0.00     0.029 A 
ATOM     52  C   UNL A   1      42.639  28.872  33.398  1.00  0.00     0.049 A 
ATOM     53  H   UNL A   1      40.931  29.981  32.849  1.00  0.00     0.167 HD
ATOM     54  C   UNL A   1      42.244  30.374  35.331  1.00  0.00     0.074 A 
ATOM     55  C   UNL A   1      42.544  30.875  36.657  1.00  0.00     0.031 C 
ATOM     56  C   UNL A   1      42.951  29.403  34.702  1.00  0.00     0.034 A 
BRANCH  43  57
ATOM     57  C   UNL A   1      40.654  27.798  29.184  1.00  0.00     0.023 A 
ATOM     58  C   UNL A   1      39.814  26.666  29.125  1.00  0.00     0.012 A 
ATOM     59  C   UNL A   1      41.526  28.061  28.109  1.00  0.00     0.148 A 
ATOM     60  C   UNL A   1      39.877  25.784  28.048  1.00  0.00     0.002 A 
ATOM     61  C   UNL A   1      41.547  27.207  27.013  1.00  0.00     0.091 A 
ATOM     62  F   UNL A   1      42.334  29.130  28.187  1.00  0.00    -0.205 F 
ATOM     63  C   UNL A   1      40.737  26.060  26.988  1.00  0.00     0.022 A 
BRANCH  61  64
ATOM     64  S   UNL A   1      42.556  27.523  25.561  1.00  0.00     0.127 S 
ATOM     65  O   UNL A   1      43.900  27.541  26.135  1.00  0.00    -0.237 OA
ATOM     66  O   UNL A   1      42.266  26.357  24.726  1.00  0.00    -0.237 OA
ATOM     67  O   UNL A   1      42.088  28.790  25.017  1.00  0.00    -0.744 OA
ENDBRANCH  61  64
ENDBRANCH  43  57
BRANCH  44  68
ATOM     68  C   UNL A   1      39.448  33.727  37.122  1.00  0.00     0.023 A 
ATOM     69  C   UNL A   1      39.854  35.075  37.151  1.00  0.00     0.012 A 
ATOM     70  C   UNL A   1      38.757  33.192  38.227  1.00  0.00     0.148 A 
ATOM     71  C   UNL A   1      39.599  35.868  38.270  1.00  0.00     0.002 A 
ATOM     72  C   UNL A   1      38.453  34.003  39.312  1.00  0.00     0.091 A 
ATOM     73  F   UNL A   1      38.385  31.905  38.178  1.00  0.00    -0.205 F 
ATOM     74  C   UNL A   1      38.889  35.337  39.345  1.00  0.00     0.022 A 
BRANCH  72  75
ATOM     75  S   UNL A   1      37.421  33.448  40.673  1.00  0.00     0.127 S 
ATOM     76  O   UNL A   1      37.280  34.669  41.461  1.00  0.00    -0.237 OA
ATOM     77  O   UNL A   1      36.208  33.020  39.973  1.00  0.00    -0.237 OA
ATOM     78  O   UNL A   1      38.156  32.366  41.313  1.00  0.00    -0.744 OA
ENDBRANCH  72  75
ENDBRANCH  44  68
BRANCH  56  79
ATOM     79  C   UNL A   1      44.146  28.831  35.421  1.00  0.00     0.023 A 
ATOM     80  C   UNL A   1      45.422  29.402  35.237  1.00  0.00     0.012 A 
ATOM     81  C   UNL A   1      43.988  27.772  36.337  1.00  0.00     0.148 A 
ATOM     82  C   UNL A   1      46.526  28.904  35.928  1.00  0.00     0.002 A 
ATOM     83  C   UNL A   1      45.084  27.317  37.061  1.00  0.00     0.091 A 
ATOM     84  F   UNL A   1      42.771  27.231  36.485  1.00  0.00    -0.205 F 
ATOM     85  C   UNL A   1      46.355  27.873  36.848  1.00  0.00     0.022 A 
BRANCH  83  86
ATOM     86  S   UNL A   1      44.941  26.062  38.338  1.00  0.00     0.127 S 
ATOM     87  O   UNL A   1      46.329  25.930  38.780  1.00  0.00    -0.237 OA
ATOM     88  O   UNL A   1      44.051  26.704  39.305  1.00  0.00    -0.237 OA
ATOM     89  O   UNL A   1      44.380  24.886  37.686  1.00  0.00    -0.744 OA
ENDBRANCH  83  86
ENDBRANCH  56  79
ENDBRANCH  30  31
ENDBRANCH  22  25
ENDBRANCH  20  21
ENDBRANCH   1  20
TORSDOF 15
ENDMDL
MODEL 2
REMARK VINA RESULT:     -11.7      6.618     11.755
REMARK SMILES CC1(C(=O)N2CC[C@H](C(=O)NCCCNC(=O)c3ccc(-c4c5nc(c(-c6cccc(S(=O)(=O)[O-])c6F)c6ccc([nH]6)c(-c6cccc(S(=O)(=O)[O-])c6F)c6nc(c(-c7cccc(S(=O)(=O)[O-])c7F)c7ccc4[nH]7)C=C6)C=C5)cc3)C2)CCCC1
REMARK SMILES IDX 13 1 12 2 11 3 9 4 10 5 8 7 5 8 6 9 81 10 7 11 3 12 4 13
REMARK SMILES IDX 2 14 1 15 82 16 85 17 83 18 84 19 14 20 15 21 16 22 17 24
REMARK SMILES IDX 18 25 19 26 80 27 20 28 79 29 21 30 22 31 23 32 73 33 24 34
REMARK SMILES IDX 78 35 72 36 74 37 25 38 77 39 71 40 70 41 26 43 58 44 38 45
REMARK SMILES IDX 57 46 39 47 42 48 56 49 75 50 40 51 41 52 55 54 76 55 43 56
REMARK SMILES IDX 27 57 28 58 36 59 29 60 31 61 37 62 30 63 32 64 33 65 34 66
REMARK SMILES IDX 35 67 59 68 60 69 68 70 61 71 63 72 69 73 62 74 64 75 65 76
REMARK SMILES IDX 66 77 67 78 44 79 45 80 53 81 46 82 48 83 54 84 47 85 49 86
REMARK SMILES IDX 50 87 51 88 52 89
REMARK H PARENT 11 6 15 23 74 42 42 53
REMARK Flexibility Score: inf
ROOT
ATOM      1  C   UNL A   1      37.785  20.028  24.636  1.00  0.00     0.042 C 
ENDROOT
BRANCH   1   2
ATOM      2  C   UNL A   1      36.340  20.272  25.044  1.00  0.00     0.117 C 
BRANCH   2   3
ATOM      3  N   UNL A   1      36.157  21.492  25.806  1.00  0.00    -0.356 N 
ATOM      4  C   UNL A   1      35.322  22.547  25.603  1.00  0.00     0.224 C 
ATOM      5  O   UNL A   1      35.328  23.443  26.453  1.00  0.00    -0.275 OA
ATOM      6  H   UNL A   1      36.733  21.571  26.601  1.00  0.00     0.163 HD
BRANCH   4   7
ATOM      7  C   UNL A   1      34.418  22.667  24.384  1.00  0.00     0.099 C 
ATOM      8  N   UNL A   1      33.470  24.633  23.455  1.00  0.00    -0.341 N 
ATOM      9  C   UNL A   1      32.364  23.738  23.729  1.00  0.00     0.120 C 
ATOM     10  C   UNL A   1      34.714  23.875  23.495  1.00  0.00     0.133 C 
ATOM     11  C   UNL A   1      32.929  22.749  24.732  1.00  0.00     0.037 C 
BRANCH   8  12
ATOM     12  C   UNL A   1      33.458  25.914  22.941  1.00  0.00     0.228 C 
ATOM     13  O   UNL A   1      33.819  26.086  21.771  1.00  0.00    -0.274 OA
BRANCH  12  14
ATOM     14  C   UNL A   1      33.266  27.132  23.889  1.00  0.00     0.047 C 
ATOM     15  C   UNL A   1      33.951  28.435  23.468  1.00  0.00     0.022 C 
ATOM     16  C   UNL A   1      33.695  26.778  25.334  1.00  0.00     0.016 C 
ATOM     17  C   UNL A   1      31.753  27.346  24.094  1.00  0.00     0.016 C 
ATOM     18  C   UNL A   1      32.848  27.663  26.247  1.00  0.00     0.001 C 
ATOM     19  C   UNL A   1      31.576  27.975  25.470  1.00  0.00     0.001 C 
ENDBRANCH  12  14
ENDBRANCH   8  12
ENDBRANCH   4   7
ENDBRANCH   2   3
ENDBRANCH   1   2
BRANCH   1  20
ATOM     20  C   UNL A   1      38.799  20.448  25.685  1.00  0.00     0.118 C 
BRANCH  20  21
ATOM     21  N   UNL A   1      39.809  19.423  25.928  1.00  0.00    -0.352 N 
ATOM     22  C   UNL A   1      41.150  19.544  26.199  1.00  0.00     0.251 C 
ATOM     23  H   UNL A   1      39.476  18.498  25.894  1.00  0.00     0.163 HD
ATOM     24  O   UNL A   1      41.862  18.540  26.181  1.00  0.00    -0.269 OA
BRANCH  22  25
ATOM     25  C   UNL A   1      41.744  20.867  26.488  1.00  0.00     0.039 A 
ATOM     26  C   UNL A   1      41.993  21.748  25.433  1.00  0.00     0.014 A 
ATOM     27  C   UNL A   1      42.064  21.239  27.796  1.00  0.00     0.014 A 
ATOM     28  C   UNL A   1      42.492  23.026  25.699  1.00  0.00     0.010 A 
ATOM     29  C   UNL A   1      42.456  22.544  28.068  1.00  0.00     0.010 A 
ATOM     30  C   UNL A   1      42.687  23.450  27.024  1.00  0.00    -0.014 A 
BRANCH  30  31
ATOM     31  C   UNL A   1      43.125  24.833  27.342  1.00  0.00     0.031 A 
ATOM     32  C   UNL A   1      42.159  25.816  27.946  1.00  0.00     0.074 A 
ATOM     33  C   UNL A   1      44.362  25.236  26.988  1.00  0.00     0.049 A 
ATOM     34  N   UNL A   1      42.334  27.083  28.218  1.00  0.00    -0.248 NA
ATOM     35  C   UNL A   1      40.807  25.321  28.250  1.00  0.00     0.031 C 
ATOM     36  C   UNL A   1      45.358  24.408  26.308  1.00  0.00     0.029 A 
ATOM     37  N   UNL A   1      44.977  26.456  27.120  1.00  0.00    -0.354 N 
ATOM     38  C   UNL A   1      41.109  27.545  28.686  1.00  0.00     0.074 A 
ATOM     39  C   UNL A   1      40.187  26.432  28.617  1.00  0.00     0.031 C 
ATOM     40  C   UNL A   1      46.457  25.141  26.078  1.00  0.00     0.029 A 
ATOM     41  C   UNL A   1      46.232  26.501  26.560  1.00  0.00     0.049 A 
ATOM     42  H   UNL A   1      44.561  27.225  27.571  1.00  0.00     0.167 HD
ATOM     43  C   UNL A   1      40.786  28.772  29.159  1.00  0.00     0.034 A 
ATOM     44  C   UNL A   1      47.100  27.523  26.430  1.00  0.00     0.034 A 
ATOM     45  C   UNL A   1      41.714  29.865  29.255  1.00  0.00     0.049 A 
ATOM     46  C   UNL A   1      46.740  28.866  27.002  1.00  0.00     0.074 A 
ATOM     47  C   UNL A   1      41.517  31.117  29.809  1.00  0.00     0.029 A 
ATOM     48  N   UNL A   1      43.013  29.844  28.769  1.00  0.00    -0.354 N 
ATOM     49  N   UNL A   1      45.632  29.237  27.596  1.00  0.00    -0.248 NA
ATOM     50  C   UNL A   1      47.761  29.919  26.922  1.00  0.00     0.031 C 
ATOM     51  C   UNL A   1      42.683  31.866  29.623  1.00  0.00     0.029 A 
ATOM     52  C   UNL A   1      43.624  31.067  28.994  1.00  0.00     0.049 A 
ATOM     53  H   UNL A   1      43.439  29.073  28.329  1.00  0.00     0.167 HD
ATOM     54  C   UNL A   1      45.832  30.556  27.988  1.00  0.00     0.074 A 
ATOM     55  C   UNL A   1      47.177  30.910  27.582  1.00  0.00     0.031 C 
ATOM     56  C   UNL A   1      44.976  31.397  28.618  1.00  0.00     0.034 A 
BRANCH  43  57
ATOM     57  C   UNL A   1      39.372  28.978  29.644  1.00  0.00     0.023 A 
ATOM     58  C   UNL A   1      39.005  28.556  30.938  1.00  0.00     0.012 A 
ATOM     59  C   UNL A   1      38.412  29.611  28.830  1.00  0.00     0.148 A 
ATOM     60  C   UNL A   1      37.697  28.708  31.395  1.00  0.00     0.002 A 
ATOM     61  C   UNL A   1      37.123  29.808  29.311  1.00  0.00     0.091 A 
ATOM     62  F   UNL A   1      38.769  29.990  27.594  1.00  0.00    -0.205 F 
ATOM     63  C   UNL A   1      36.758  29.342  30.585  1.00  0.00     0.022 A 
BRANCH  61  64
ATOM     64  S   UNL A   1      35.867  30.691  28.378  1.00  0.00     0.127 S 
ATOM     65  O   UNL A   1      36.614  31.857  27.910  1.00  0.00    -0.237 OA
ATOM     66  O   UNL A   1      35.526  29.727  27.332  1.00  0.00    -0.237 OA
ATOM     67  O   UNL A   1      34.792  30.970  29.320  1.00  0.00    -0.744 OA
ENDBRANCH  61  64
ENDBRANCH  43  57
BRANCH  44  68
ATOM     68  C   UNL A   1      48.412  27.292  25.762  1.00  0.00     0.023 A 
ATOM     69  C   UNL A   1      49.501  26.803  26.509  1.00  0.00     0.012 A 
ATOM     70  C   UNL A   1      48.563  27.496  24.376  1.00  0.00     0.148 A 
ATOM     71  C   UNL A   1      50.725  26.547  25.892  1.00  0.00     0.002 A 
ATOM     72  C   UNL A   1      49.767  27.182  23.759  1.00  0.00     0.091 A 
ATOM     73  F   UNL A   1      47.515  27.966  23.687  1.00  0.00    -0.205 F 
ATOM     74  C   UNL A   1      50.856  26.724  24.517  1.00  0.00     0.022 A 
BRANCH  72  75
ATOM     75  S   UNL A   1      49.980  27.241  21.976  1.00  0.00     0.127 S 
ATOM     76  O   UNL A   1      48.929  26.336  21.518  1.00  0.00    -0.237 OA
ATOM     77  O   UNL A   1      49.743  28.658  21.693  1.00  0.00    -0.237 OA
ATOM     78  O   UNL A   1      51.345  26.800  21.725  1.00  0.00    -0.744 OA
ENDBRANCH  72  75
ENDBRANCH  44  68
BRANCH  56  79
ATOM     79  C   UNL A   1      45.472  32.782  28.946  1.00  0.00     0.023 A 
ATOM     80  C   UNL A   1      46.191  33.014  30.136  1.00  0.00     0.012 A 
ATOM     81  C   UNL A   1      45.285  33.841  28.034  1.00  0.00     0.148 A 
ATOM     82  C   UNL A   1      46.687  34.284  30.427  1.00  0.00     0.002 A 
ATOM     83  C   UNL A   1      45.829  35.090  28.307  1.00  0.00     0.091 A 
ATOM     84  F   UNL A   1      44.583  33.606  26.917  1.00  0.00    -0.205 F 
ATOM     85  C   UNL A   1      46.518  35.317  29.509  1.00  0.00     0.022 A 
BRANCH  83  86
ATOM     86  S   UNL A   1      45.747  36.453  27.140  1.00  0.00     0.127 S 
ATOM     87  O   UNL A   1      46.418  35.885  25.972  1.00  0.00    -0.237 OA
ATOM     88  O   UNL A   1      44.305  36.640  26.984  1.00  0.00    -0.237 OA
ATOM     89  O   UNL A   1      46.438  37.569  27.774  1.00  0.00    -0.744 OA
ENDBRANCH  83  86
ENDBRANCH  56  79
ENDBRANCH  30  31
ENDBRANCH  22  25
ENDBRANCH  20  21
ENDBRANCH   1  20
TORSDOF 15
ENDMDL
MODEL 3
REMARK VINA RESULT:     -11.6      5.740      9.202
REMARK SMILES CC1(C(=O)N2CC[C@H](C(=O)NCCCNC(=O)c3ccc(-c4c5nc(c(-c6cccc(S(=O)(=O)[O-])c6F)c6ccc([nH]6)c(-c6cccc(S(=O)(=O)[O-])c6F)c6nc(c(-c7cccc(S(=O)(=O)[O-])c7F)c7ccc4[nH]7)C=C6)C=C5)cc3)C2)CCCC1
REMARK SMILES IDX 13 1 12 2 11 3 9 4 10 5 8 7 5 8 6 9 81 10 7 11 3 12 4 13
REMARK SMILES IDX 2 14 1 15 82 16 85 17 83 18 84 19 14 20 15 21 16 22 17 24
REMARK SMILES IDX 18 25 19 26 80 27 20 28 79 29 21 30 22 31 23 32 73 33 24 34
REMARK SMILES IDX 78 35 72 36 74 37 25 38 77 39 71 40 70 41 26 43 58 44 38 45
REMARK SMILES IDX 57 46 39 47 42 48 56 49 75 50 40 51 41 52 55 54 76 55 43 56
REMARK SMILES IDX 27 57 28 58 36 59 29 60 31 61 37 62 30 63 32 64 33 65 34 66
REMARK SMILES IDX 35 67 59 68 60 69 68 70 61 71 63 72 69 73 62 74 64 75 65 76
REMARK SMILES IDX 66 77 67 78 44 79 45 80 53 81 46 82 48 83 54 84 47 85 49 86
REMARK SMILES IDX 50 87 51 88 52 89
REMARK H PARENT 11 6 15 23 74 42 42 53
REMARK Flexibility Score: inf
ROOT
ATOM      1  C   UNL A   1      36.003  20.716  25.007  1.00  0.00     0.042 C 
ENDROOT
BRANCH   1   2
ATOM      2  C   UNL A   1      35.124  21.365  26.065  1.00  0.00     0.117 C 
BRANCH   2   3
ATOM      3  N   UNL A   1      33.725  21.004  25.949  1.00  0.00    -0.356 N 
ATOM      4  C   UNL A   1      32.692  21.649  25.343  1.00  0.00     0.224 C 
ATOM      5  O   UNL A   1      31.595  21.080  25.342  1.00  0.00    -0.275 OA
ATOM      6  H   UNL A   1      33.483  20.153  26.380  1.00  0.00     0.163 HD
BRANCH   4   7
ATOM      7  C   UNL A   1      32.832  23.021  24.699  1.00  0.00     0.099 C 
ATOM      8  N   UNL A   1      31.734  25.037  25.300  1.00  0.00    -0.341 N 
ATOM      9  C   UNL A   1      31.443  24.817  23.898  1.00  0.00     0.120 C 
ATOM     10  C   UNL A   1      32.851  24.184  25.691  1.00  0.00     0.133 C 
ATOM     11  C   UNL A   1      31.726  23.341  23.689  1.00  0.00     0.037 C 
BRANCH   8  12
ATOM     12  C   UNL A   1      31.313  26.049  26.138  1.00  0.00     0.228 C 
ATOM     13  O   UNL A   1      30.202  25.953  26.673  1.00  0.00    -0.274 OA
BRANCH  12  14
ATOM     14  C   UNL A   1      32.092  27.395  26.185  1.00  0.00     0.047 C 
ATOM     15  C   UNL A   1      33.611  27.307  26.024  1.00  0.00     0.022 C 
ATOM     16  C   UNL A   1      31.764  28.174  27.483  1.00  0.00     0.016 C 
ATOM     17  C   UNL A   1      31.480  28.341  25.133  1.00  0.00     0.016 C 
ATOM     18  C   UNL A   1      31.937  29.652  27.134  1.00  0.00     0.001 C 
ATOM     19  C   UNL A   1      31.694  29.763  25.636  1.00  0.00     0.001 C 
ENDBRANCH  12  14
ENDBRANCH   8  12
ENDBRANCH   4   7
ENDBRANCH   2   3
ENDBRANCH   1   2
BRANCH   1  20
ATOM     20  C   UNL A   1      37.432  21.230  24.995  1.00  0.00     0.118 C 
BRANCH  20  21
ATOM     21  N   UNL A   1      38.380  20.261  25.534  1.00  0.00    -0.352 N 
ATOM     22  C   UNL A   1      39.585  20.453  26.166  1.00  0.00     0.251 C 
ATOM     23  H   UNL A   1      38.113  19.320  25.430  1.00  0.00     0.163 HD
ATOM     24  O   UNL A   1      40.319  19.486  26.371  1.00  0.00    -0.269 OA
BRANCH  22  25
ATOM     25  C   UNL A   1      40.012  21.807  26.579  1.00  0.00     0.039 A 
ATOM     26  C   UNL A   1      41.035  21.940  27.521  1.00  0.00     0.014 A 
ATOM     27  C   UNL A   1      39.403  22.945  26.046  1.00  0.00     0.014 A 
ATOM     28  C   UNL A   1      41.494  23.213  27.870  1.00  0.00     0.010 A 
ATOM     29  C   UNL A   1      39.932  24.202  26.312  1.00  0.00     0.010 A 
ATOM     30  C   UNL A   1      40.975  24.354  27.236  1.00  0.00    -0.014 A 
BRANCH  30  31
ATOM     31  C   UNL A   1      41.508  25.711  27.517  1.00  0.00     0.031 A 
ATOM     32  C   UNL A   1      42.923  26.064  27.147  1.00  0.00     0.074 A 
ATOM     33  C   UNL A   1      40.753  26.593  28.202  1.00  0.00     0.049 A 
ATOM     34  N   UNL A   1      43.587  27.165  27.382  1.00  0.00    -0.248 NA
ATOM     35  C   UNL A   1      43.708  25.029  26.453  1.00  0.00     0.031 C 
ATOM     36  C   UNL A   1      39.401  26.338  28.703  1.00  0.00     0.029 A 
ATOM     37  N   UNL A   1      41.030  27.868  28.626  1.00  0.00    -0.354 N 
ATOM     38  C   UNL A   1      44.874  26.944  26.904  1.00  0.00     0.074 A 
ATOM     39  C   UNL A   1      44.909  25.585  26.407  1.00  0.00     0.031 C 
ATOM     40  C   UNL A   1      38.968  27.419  29.369  1.00  0.00     0.029 A 
ATOM     41  C   UNL A   1      40.022  28.429  29.375  1.00  0.00     0.049 A 
ATOM     42  H   UNL A   1      41.869  28.337  28.416  1.00  0.00     0.167 HD
ATOM     43  C   UNL A   1      45.923  27.798  26.854  1.00  0.00     0.034 A 
ATOM     44  C   UNL A   1      39.956  29.614  30.013  1.00  0.00     0.034 A 
ATOM     45  C   UNL A   1      45.873  29.157  27.320  1.00  0.00     0.049 A 
ATOM     46  C   UNL A   1      41.114  30.567  29.906  1.00  0.00     0.074 A 
ATOM     47  C   UNL A   1      46.846  30.136  27.227  1.00  0.00     0.029 A 
ATOM     48  N   UNL A   1      44.798  29.726  27.985  1.00  0.00    -0.354 N 
ATOM     49  N   UNL A   1      42.264  30.400  29.302  1.00  0.00    -0.248 NA
ATOM     50  C   UNL A   1      40.951  31.885  30.536  1.00  0.00     0.031 C 
ATOM     51  C   UNL A   1      46.374  31.284  27.869  1.00  0.00     0.029 A 
ATOM     52  C   UNL A   1      45.089  31.037  28.325  1.00  0.00     0.049 A 
ATOM     53  H   UNL A   1      43.951  29.265  28.187  1.00  0.00     0.167 HD
ATOM     54  C   UNL A   1      42.952  31.600  29.450  1.00  0.00     0.074 A 
ATOM     55  C   UNL A   1      42.077  32.492  30.184  1.00  0.00     0.031 C 
ATOM     56  C   UNL A   1      44.197  31.928  29.024  1.00  0.00     0.034 A 
BRANCH  43  57
ATOM     57  C   UNL A   1      47.202  27.291  26.236  1.00  0.00     0.023 A 
ATOM     58  C   UNL A   1      47.472  27.541  24.874  1.00  0.00     0.012 A 
ATOM     59  C   UNL A   1      48.151  26.589  27.006  1.00  0.00     0.148 A 
ATOM     60  C   UNL A   1      48.633  27.054  24.275  1.00  0.00     0.002 A 
ATOM     61  C   UNL A   1      49.331  26.153  26.416  1.00  0.00     0.091 A 
ATOM     62  F   UNL A   1      47.873  26.342  28.295  1.00  0.00    -0.205 F 
ATOM     63  C   UNL A   1      49.566  26.369  25.048  1.00  0.00     0.022 A 
BRANCH  61  64
ATOM     64  S   UNL A   1      50.633  25.338  27.346  1.00  0.00     0.127 S 
ATOM     65  O   UNL A   1      49.930  24.170  27.874  1.00  0.00    -0.237 OA
ATOM     66  O   UNL A   1      51.615  25.038  26.303  1.00  0.00    -0.237 OA
ATOM     67  O   UNL A   1      51.080  26.305  28.339  1.00  0.00    -0.744 OA
ENDBRANCH  61  64
ENDBRANCH  43  57
BRANCH  44  68
ATOM     68  C   UNL A   1      38.725  29.972  30.772  1.00  0.00     0.023 A 
ATOM     69  C   UNL A   1      38.593  29.580  32.117  1.00  0.00     0.012 A 
ATOM     70  C   UNL A   1      37.713  30.755  30.180  1.00  0.00     0.148 A 
ATOM     71  C   UNL A   1      37.463  29.937  32.853  1.00  0.00     0.002 A 
ATOM     72  C   UNL A   1      36.620  31.158  30.935  1.00  0.00     0.091 A 
ATOM     73  F   UNL A   1      37.859  31.112  28.897  1.00  0.00    -0.205 F 
ATOM     74  C   UNL A   1      36.483  30.736  32.267  1.00  0.00     0.022 A 
BRANCH  72  75
ATOM     75  S   UNL A   1      35.385  32.302  30.310  1.00  0.00     0.127 S 
ATOM     76  O   UNL A   1      36.196  33.477  29.998  1.00  0.00    -0.237 OA
ATOM     77  O   UNL A   1      34.870  31.580  29.145  1.00  0.00    -0.237 OA
ATOM     78  O   UNL A   1      34.419  32.471  31.387  1.00  0.00    -0.744 OA
ENDBRANCH  72  75
ENDBRANCH  44  68
BRANCH  56  79
ATOM     79  C   UNL A   1      44.686  33.325  29.307  1.00  0.00     0.023 A 
ATOM     80  C   UNL A   1      45.324  33.617  30.529  1.00  0.00     0.012 A 
ATOM     81  C   UNL A   1      44.577  34.331  28.326  1.00  0.00     0.148 A 
ATOM     82  C   UNL A   1      45.816  34.897  30.782  1.00  0.00     0.002 A 
ATOM     83  C   UNL A   1      45.117  35.589  28.565  1.00  0.00     0.091 A 
ATOM     84  F   UNL A   1      43.951  34.039  27.177  1.00  0.00    -0.205 F 
ATOM     85  C   UNL A   1      45.724  35.878  29.798  1.00  0.00     0.022 A 
BRANCH  83  86
ATOM     86  S   UNL A   1      45.134  36.884  27.320  1.00  0.00     0.127 S 
ATOM     87  O   UNL A   1      45.925  36.264  26.258  1.00  0.00    -0.237 OA
ATOM     88  O   UNL A   1      43.712  37.036  27.013  1.00  0.00    -0.237 OA
ATOM     89  O   UNL A   1      45.744  38.045  27.954  1.00  0.00    -0.744 OA
ENDBRANCH  83  86
ENDBRANCH  56  79
ENDBRANCH  30  31
ENDBRANCH  22  25
ENDBRANCH  20  21
ENDBRANCH   1  20
TORSDOF 15
ENDMDL
