MODEL 1
REMARK VINA RESULT:     -12.4      0.000      0.000
REMARK SMILES Cc1cc(NCc2ccc(C(=O)NCCCNC(=O)c3ccc(-c4c5nc(c(-c6cccc(S(=O)(=O)[O-])c6F)c6ccc([nH]6)c(-c6cccc(S(=O)(=O)[O-])c6F)c6nc(c(-c7cccc(S(=O)(=O)[O-])c7F)c7ccc4[nH]7)C=C6)C=C5)cc3)o2)ccc1F
REMARK SMILES IDX 15 1 14 2 13 3 11 4 12 5 10 7 7 8 8 9 83 10 9 11 6 12 5 13
REMARK SMILES IDX 4 15 1 16 2 17 3 18 86 19 85 20 87 21 84 22 16 23 17 24
REMARK SMILES IDX 18 25 19 27 20 28 21 29 82 30 22 31 81 32 23 33 24 34 25 35
REMARK SMILES IDX 75 36 26 37 80 38 74 39 76 40 27 41 79 42 73 43 72 44 28 46
REMARK SMILES IDX 60 47 40 48 59 49 41 50 44 51 58 52 77 53 42 54 43 55 57 57
REMARK SMILES IDX 78 58 45 59 29 60 30 61 38 62 31 63 33 64 39 65 32 66 34 67
REMARK SMILES IDX 35 68 36 69 37 70 61 71 62 72 70 73 63 74 65 75 71 76 64 77
REMARK SMILES IDX 66 78 67 79 68 80 69 81 46 82 47 83 55 84 48 85 50 86 56 87
REMARK SMILES IDX 49 88 51 89 52 90 53 91 54 92
REMARK H PARENT 13 6 5 14 17 26 76 45 44 56
REMARK Flexibility Score: inf
ROOT
ATOM      1  C   UNL A   1      36.157  22.594  25.959  1.00  0.00     0.042 C 
ENDROOT
BRANCH   1   2
ATOM      2  C   UNL A   1      35.758  21.852  24.682  1.00  0.00     0.118 C 
BRANCH   2   3
ATOM      3  N   UNL A   1      35.078  20.605  24.980  1.00  0.00    -0.349 N 
ATOM      4  C   UNL A   1      33.731  20.327  24.965  1.00  0.00     0.286 C 
ATOM      5  O   UNL A   1      33.399  19.150  25.121  1.00  0.00    -0.266 OA
ATOM      6  H   UNL A   1      35.663  19.852  25.226  1.00  0.00     0.163 HD
BRANCH   4   7
ATOM      7  C   UNL A   1      32.767  21.392  24.745  1.00  0.00     0.191 A 
ATOM      8  C   UNL A   1      31.376  22.954  25.462  1.00  0.00     0.124 A 
ATOM      9  C   UNL A   1      31.305  22.990  24.092  1.00  0.00     0.048 A 
ATOM     10  O   UNL A   1      32.259  22.001  25.864  1.00  0.00    -0.454 OA
ATOM     11  C   UNL A   1      32.206  22.001  23.634  1.00  0.00     0.056 A 
BRANCH   8  12
ATOM     12  C   UNL A   1      30.720  23.724  26.544  1.00  0.00     0.188 C 
BRANCH  12  13
ATOM     13  N   UNL A   1      30.653  25.148  26.283  1.00  0.00    -0.378 N 
ATOM     14  H   UNL A   1      29.774  25.517  26.036  1.00  0.00     0.161 HD
BRANCH  13  15
ATOM     15  C   UNL A   1      31.708  26.036  26.349  1.00  0.00     0.035 A 
ATOM     16  C   UNL A   1      32.096  29.756  27.150  1.00  0.00     0.047 C 
ATOM     17  C   UNL A   1      32.417  28.353  26.744  1.00  0.00    -0.013 A 
ATOM     18  C   UNL A   1      31.435  27.353  26.752  1.00  0.00     0.032 A 
ATOM     19  C   UNL A   1      33.698  28.018  26.314  1.00  0.00     0.126 A 
ATOM     20  C   UNL A   1      34.003  26.724  25.914  1.00  0.00     0.041 A 
ATOM     21  F   UNL A   1      34.657  28.955  26.267  1.00  0.00    -0.207 F 
ATOM     22  C   UNL A   1      33.008  25.740  25.926  1.00  0.00     0.029 A 
ENDBRANCH  13  15
ENDBRANCH  12  13
ENDBRANCH   8  12
ENDBRANCH   4   7
ENDBRANCH   2   3
ENDBRANCH   1   2
BRANCH   1  23
ATOM     23  C   UNL A   1      37.435  23.368  25.750  1.00  0.00     0.118 C 
BRANCH  23  24
ATOM     24  N   UNL A   1      38.617  22.573  26.076  1.00  0.00    -0.352 N 
ATOM     25  C   UNL A   1      39.860  23.030  26.485  1.00  0.00     0.251 C 
ATOM     26  H   UNL A   1      38.519  21.596  25.994  1.00  0.00     0.163 HD
ATOM     27  O   UNL A   1      40.860  22.352  26.346  1.00  0.00    -0.269 OA
BRANCH  25  28
ATOM     28  C   UNL A   1      39.929  24.393  27.053  1.00  0.00     0.039 A 
ATOM     29  C   UNL A   1      40.442  25.479  26.336  1.00  0.00     0.014 A 
ATOM     30  C   UNL A   1      39.473  24.561  28.352  1.00  0.00     0.014 A 
ATOM     31  C   UNL A   1      40.454  26.740  26.937  1.00  0.00     0.010 A 
ATOM     32  C   UNL A   1      39.248  25.811  28.836  1.00  0.00     0.010 A 
ATOM     33  C   UNL A   1      39.847  26.887  28.188  1.00  0.00    -0.014 A 
BRANCH  33  34
ATOM     34  C   UNL A   1      39.914  28.066  29.032  1.00  0.00     0.031 A 
ATOM     35  C   UNL A   1      38.997  29.191  28.865  1.00  0.00     0.074 A 
ATOM     36  C   UNL A   1      40.786  27.995  30.063  1.00  0.00     0.049 A 
ATOM     37  N   UNL A   1      39.281  30.403  29.184  1.00  0.00    -0.248 NA
ATOM     38  C   UNL A   1      37.668  29.041  28.285  1.00  0.00     0.031 C 
ATOM     39  C   UNL A   1      40.910  28.823  31.249  1.00  0.00     0.029 A 
ATOM     40  N   UNL A   1      41.868  27.133  30.158  1.00  0.00    -0.354 N 
ATOM     41  C   UNL A   1      38.091  31.095  29.222  1.00  0.00     0.074 A 
ATOM     42  C   UNL A   1      37.157  30.260  28.498  1.00  0.00     0.031 C 
ATOM     43  C   UNL A   1      42.120  28.606  31.802  1.00  0.00     0.029 A 
ATOM     44  C   UNL A   1      42.870  27.736  30.903  1.00  0.00     0.049 A 
ATOM     45  H   UNL A   1      41.918  26.234  29.759  1.00  0.00     0.167 HD
ATOM     46  C   UNL A   1      37.991  32.189  30.037  1.00  0.00     0.034 A 
ATOM     47  C   UNL A   1      44.043  28.048  30.272  1.00  0.00     0.034 A 
ATOM     48  C   UNL A   1      39.252  32.408  30.750  1.00  0.00     0.049 A 
ATOM     49  C   UNL A   1      44.207  29.543  30.183  1.00  0.00     0.074 A 
ATOM     50  C   UNL A   1      39.641  32.114  32.048  1.00  0.00     0.029 A 
ATOM     51  N   UNL A   1      40.420  32.675  30.043  1.00  0.00    -0.354 N 
ATOM     52  N   UNL A   1      43.211  30.386  30.136  1.00  0.00    -0.248 NA
ATOM     53  C   UNL A   1      45.506  30.202  30.211  1.00  0.00     0.031 C 
ATOM     54  C   UNL A   1      41.058  32.139  32.098  1.00  0.00     0.029 A 
ATOM     55  C   UNL A   1      41.531  32.473  30.840  1.00  0.00     0.049 A 
ATOM     56  H   UNL A   1      40.452  32.968  29.103  1.00  0.00     0.167 HD
ATOM     57  C   UNL A   1      43.698  31.664  30.233  1.00  0.00     0.074 A 
ATOM     58  C   UNL A   1      45.140  31.495  30.246  1.00  0.00     0.031 C 
ATOM     59  C   UNL A   1      42.876  32.750  30.341  1.00  0.00     0.034 A 
BRANCH  46  60
ATOM     60  C   UNL A   1      36.677  32.842  30.441  1.00  0.00     0.023 A 
ATOM     61  C   UNL A   1      36.227  32.889  31.778  1.00  0.00     0.012 A 
ATOM     62  C   UNL A   1      35.834  33.472  29.493  1.00  0.00     0.148 A 
ATOM     63  C   UNL A   1      35.103  33.624  32.178  1.00  0.00     0.002 A 
ATOM     64  C   UNL A   1      34.695  34.182  29.887  1.00  0.00     0.091 A 
ATOM     65  F   UNL A   1      36.110  33.393  28.186  1.00  0.00    -0.205 F 
ATOM     66  C   UNL A   1      34.339  34.286  31.231  1.00  0.00     0.022 A 
BRANCH  64  67
ATOM     67  S   UNL A   1      33.674  34.973  28.637  1.00  0.00     0.127 S 
ATOM     68  O   UNL A   1      34.598  35.913  28.011  1.00  0.00    -0.237 OA
ATOM     69  O   UNL A   1      33.219  33.851  27.823  1.00  0.00    -0.237 OA
ATOM     70  O   UNL A   1      32.614  35.608  29.424  1.00  0.00    -0.744 OA
ENDBRANCH  64  67
ENDBRANCH  46  60
BRANCH  47  71
ATOM     71  C   UNL A   1      44.391  27.054  29.193  1.00  0.00     0.023 A 
ATOM     72  C   UNL A   1      45.305  26.011  29.434  1.00  0.00     0.012 A 
ATOM     73  C   UNL A   1      44.183  27.467  27.855  1.00  0.00     0.148 A 
ATOM     74  C   UNL A   1      46.068  25.480  28.380  1.00  0.00     0.002 A 
ATOM     75  C   UNL A   1      45.013  27.005  26.833  1.00  0.00     0.091 A 
ATOM     76  F   UNL A   1      43.267  28.420  27.615  1.00  0.00    -0.205 F 
ATOM     77  C   UNL A   1      45.958  26.007  27.090  1.00  0.00     0.022 A 
BRANCH  75  78
ATOM     78  S   UNL A   1      45.083  27.916  25.279  1.00  0.00     0.127 S 
ATOM     79  O   UNL A   1      45.540  29.235  25.701  1.00  0.00    -0.237 OA
ATOM     80  O   UNL A   1      46.008  27.138  24.459  1.00  0.00    -0.237 OA
ATOM     81  O   UNL A   1      43.706  27.867  24.786  1.00  0.00    -0.744 OA
ENDBRANCH  75  78
ENDBRANCH  47  71
BRANCH  59  82
ATOM     82  C   UNL A   1      43.255  34.204  30.147  1.00  0.00     0.023 A 
ATOM     83  C   UNL A   1      43.440  35.005  31.308  1.00  0.00     0.012 A 
ATOM     84  C   UNL A   1      43.328  34.873  28.918  1.00  0.00     0.148 A 
ATOM     85  C   UNL A   1      43.658  36.382  31.254  1.00  0.00     0.002 A 
ATOM     86  C   UNL A   1      43.662  36.228  28.863  1.00  0.00     0.091 A 
ATOM     87  F   UNL A   1      43.017  34.244  27.780  1.00  0.00    -0.205 F 
ATOM     88  C   UNL A   1      43.793  36.996  30.022  1.00  0.00     0.022 A 
BRANCH  86  89
ATOM     89  S   UNL A   1      44.034  36.949  27.264  1.00  0.00     0.127 S 
ATOM     90  O   UNL A   1      44.520  38.279  27.626  1.00  0.00    -0.237 OA
ATOM     91  O   UNL A   1      45.018  36.033  26.697  1.00  0.00    -0.237 OA
ATOM     92  O   UNL A   1      42.741  36.946  26.580  1.00  0.00    -0.744 OA
ENDBRANCH  86  89
ENDBRANCH  59  82
ENDBRANCH  33  34
ENDBRANCH  25  28
ENDBRANCH  23  24
ENDBRANCH   1  23
TORSDOF 16
ENDMDL
MODEL 2
REMARK VINA RESULT:     -12.2      1.870      2.239
REMARK SMILES Cc1cc(NCc2ccc(C(=O)NCCCNC(=O)c3ccc(-c4c5nc(c(-c6cccc(S(=O)(=O)[O-])c6F)c6ccc([nH]6)c(-c6cccc(S(=O)(=O)[O-])c6F)c6nc(c(-c7cccc(S(=O)(=O)[O-])c7F)c7ccc4[nH]7)C=C6)C=C5)cc3)o2)ccc1F
REMARK SMILES IDX 15 1 14 2 13 3 11 4 12 5 10 7 7 8 8 9 83 10 9 11 6 12 5 13
REMARK SMILES IDX 4 15 1 16 2 17 3 18 86 19 85 20 87 21 84 22 16 23 17 24
REMARK SMILES IDX 18 25 19 27 20 28 21 29 82 30 22 31 81 32 23 33 24 34 25 35
REMARK SMILES IDX 75 36 26 37 80 38 74 39 76 40 27 41 79 42 73 43 72 44 28 46
REMARK SMILES IDX 60 47 40 48 59 49 41 50 44 51 58 52 77 53 42 54 43 55 57 57
REMARK SMILES IDX 78 58 45 59 29 60 30 61 38 62 31 63 33 64 39 65 32 66 34 67
REMARK SMILES IDX 35 68 36 69 37 70 61 71 62 72 70 73 63 74 65 75 71 76 64 77
REMARK SMILES IDX 66 78 67 79 68 80 69 81 46 82 47 83 55 84 48 85 50 86 56 87
REMARK SMILES IDX 49 88 51 89 52 90 53 91 54 92
REMARK H PARENT 13 6 5 14 17 26 76 45 44 56
REMARK Flexibility Score: inf
ROOT
ATOM      1  C   UNL A   1      36.857  22.911  25.272  1.00  0.00     0.042 C 
ENDROOT
BRANCH   1   2
ATOM      2  C   UNL A   1      35.792  22.242  26.144  1.00  0.00     0.118 C 
BRANCH   2   3
ATOM      3  N   UNL A   1      35.529  20.881  25.715  1.00  0.00    -0.349 N 
ATOM      4  C   UNL A   1      34.471  20.390  24.986  1.00  0.00     0.286 C 
ATOM      5  O   UNL A   1      34.536  19.214  24.624  1.00  0.00    -0.266 OA
ATOM      6  H   UNL A   1      36.203  20.215  25.984  1.00  0.00     0.163 HD
BRANCH   4   7
ATOM      7  C   UNL A   1      33.352  21.255  24.649  1.00  0.00     0.191 A 
ATOM      8  C   UNL A   1      31.586  22.472  25.187  1.00  0.00     0.124 A 
ATOM      9  C   UNL A   1      31.704  22.565  23.823  1.00  0.00     0.048 A 
ATOM     10  O   UNL A   1      32.579  21.692  25.694  1.00  0.00    -0.454 OA
ATOM     11  C   UNL A   1      32.842  21.799  23.482  1.00  0.00     0.056 A 
BRANCH   8  12
ATOM     12  C   UNL A   1      30.642  23.039  26.177  1.00  0.00     0.188 C 
BRANCH  12  13
ATOM     13  N   UNL A   1      31.161  24.201  26.873  1.00  0.00    -0.378 N 
ATOM     14  H   UNL A   1      30.966  24.269  27.836  1.00  0.00     0.161 HD
BRANCH  13  15
ATOM     15  C   UNL A   1      31.903  25.219  26.311  1.00  0.00     0.035 A 
ATOM     16  C   UNL A   1      31.110  28.510  24.529  1.00  0.00     0.047 C 
ATOM     17  C   UNL A   1      31.870  27.355  25.102  1.00  0.00    -0.013 A 
ATOM     18  C   UNL A   1      31.213  26.326  25.790  1.00  0.00     0.032 A 
ATOM     19  C   UNL A   1      33.249  27.263  24.931  1.00  0.00     0.126 A 
ATOM     20  C   UNL A   1      33.961  26.186  25.440  1.00  0.00     0.041 A 
ATOM     21  F   UNL A   1      33.906  28.217  24.256  1.00  0.00    -0.207 F 
ATOM     22  C   UNL A   1      33.288  25.166  26.120  1.00  0.00     0.029 A 
ENDBRANCH  13  15
ENDBRANCH  12  13
ENDBRANCH   8  12
ENDBRANCH   4   7
ENDBRANCH   2   3
ENDBRANCH   1   2
BRANCH   1  23
ATOM     23  C   UNL A   1      37.761  23.782  26.108  1.00  0.00     0.118 C 
BRANCH  23  24
ATOM     24  N   UNL A   1      39.055  23.149  26.356  1.00  0.00    -0.352 N 
ATOM     25  C   UNL A   1      40.270  23.771  26.601  1.00  0.00     0.251 C 
ATOM     26  H   UNL A   1      39.066  22.165  26.347  1.00  0.00     0.163 HD
ATOM     27  O   UNL A   1      41.324  23.200  26.400  1.00  0.00    -0.269 OA
BRANCH  25  28
ATOM     28  C   UNL A   1      40.233  25.172  27.071  1.00  0.00     0.039 A 
ATOM     29  C   UNL A   1      40.515  26.253  26.230  1.00  0.00     0.014 A 
ATOM     30  C   UNL A   1      39.917  25.383  28.405  1.00  0.00     0.014 A 
ATOM     31  C   UNL A   1      40.440  27.549  26.746  1.00  0.00     0.010 A 
ATOM     32  C   UNL A   1      39.595  26.631  28.837  1.00  0.00     0.010 A 
ATOM     33  C   UNL A   1      39.972  27.718  28.054  1.00  0.00    -0.014 A 
BRANCH  33  34
ATOM     34  C   UNL A   1      39.989  28.958  28.809  1.00  0.00     0.031 A 
ATOM     35  C   UNL A   1      38.896  29.924  28.736  1.00  0.00     0.074 A 
ATOM     36  C   UNL A   1      41.013  29.093  29.682  1.00  0.00     0.049 A 
ATOM     37  N   UNL A   1      39.038  31.185  28.937  1.00  0.00    -0.248 NA
ATOM     38  C   UNL A   1      37.531  29.541  28.395  1.00  0.00     0.031 C 
ATOM     39  C   UNL A   1      41.193  30.021  30.783  1.00  0.00     0.029 A 
ATOM     40  N   UNL A   1      42.215  28.403  29.642  1.00  0.00    -0.354 N 
ATOM     41  C   UNL A   1      37.778  31.702  29.135  1.00  0.00     0.074 A 
ATOM     42  C   UNL A   1      36.880  30.688  28.623  1.00  0.00     0.031 C 
ATOM     43  C   UNL A   1      42.494  30.022  31.138  1.00  0.00     0.029 A 
ATOM     44  C   UNL A   1      43.218  29.199  30.175  1.00  0.00     0.049 A 
ATOM     45  H   UNL A   1      42.339  27.492  29.290  1.00  0.00     0.167 HD
ATOM     46  C   UNL A   1      37.640  32.831  29.894  1.00  0.00     0.034 A 
ATOM     47  C   UNL A   1      44.215  29.623  29.340  1.00  0.00     0.034 A 
ATOM     48  C   UNL A   1      38.949  33.283  30.373  1.00  0.00     0.049 A 
ATOM     49  C   UNL A   1      44.133  31.116  29.144  1.00  0.00     0.074 A 
ATOM     50  C   UNL A   1      39.578  33.151  31.602  1.00  0.00     0.029 A 
ATOM     51  N   UNL A   1      39.937  33.657  29.468  1.00  0.00    -0.354 N 
ATOM     52  N   UNL A   1      43.025  31.802  29.218  1.00  0.00    -0.248 NA
ATOM     53  C   UNL A   1      45.304  31.952  28.919  1.00  0.00     0.031 C 
ATOM     54  C   UNL A   1      40.964  33.381  31.413  1.00  0.00     0.029 A 
ATOM     55  C   UNL A   1      41.177  33.678  30.077  1.00  0.00     0.049 A 
ATOM     56  H   UNL A   1      39.775  33.876  28.521  1.00  0.00     0.167 HD
ATOM     57  C   UNL A   1      43.319  33.140  29.162  1.00  0.00     0.074 A 
ATOM     58  C   UNL A   1      44.754  33.179  28.944  1.00  0.00     0.031 C 
ATOM     59  C   UNL A   1      42.368  34.103  29.347  1.00  0.00     0.034 A 
BRANCH  46  60
ATOM     60  C   UNL A   1      36.321  33.321  30.475  1.00  0.00     0.023 A 
ATOM     61  C   UNL A   1      35.952  33.101  31.819  1.00  0.00     0.012 A 
ATOM     62  C   UNL A   1      35.392  34.058  29.702  1.00  0.00     0.148 A 
ATOM     63  C   UNL A   1      34.818  33.683  32.402  1.00  0.00     0.002 A 
ATOM     64  C   UNL A   1      34.244  34.615  30.275  1.00  0.00     0.091 A 
ATOM     65  F   UNL A   1      35.592  34.230  28.389  1.00  0.00    -0.205 F 
ATOM     66  C   UNL A   1      33.966  34.456  31.631  1.00  0.00     0.022 A 
BRANCH  64  67
ATOM     67  S   UNL A   1      33.111  35.553  29.242  1.00  0.00     0.127 S 
ATOM     68  O   UNL A   1      32.531  34.526  28.382  1.00  0.00    -0.237 OA
ATOM     69  O   UNL A   1      32.222  36.183  30.212  1.00  0.00    -0.237 OA
ATOM     70  O   UNL A   1      33.993  36.491  28.543  1.00  0.00    -0.744 OA
ENDBRANCH  64  67
ENDBRANCH  46  60
BRANCH  47  71
ATOM     71  C   UNL A   1      44.537  28.607  28.275  1.00  0.00     0.023 A 
ATOM     72  C   UNL A   1      44.006  28.723  26.977  1.00  0.00     0.012 A 
ATOM     73  C   UNL A   1      44.949  27.328  28.719  1.00  0.00     0.148 A 
ATOM     74  C   UNL A   1      43.790  27.576  26.195  1.00  0.00     0.002 A 
ATOM     75  C   UNL A   1      44.640  26.187  27.977  1.00  0.00     0.091 A 
ATOM     76  F   UNL A   1      45.513  27.223  29.933  1.00  0.00    -0.205 F 
ATOM     77  C   UNL A   1      44.061  26.306  26.710  1.00  0.00     0.022 A 
BRANCH  75  78
ATOM     78  S   UNL A   1      44.691  24.575  28.783  1.00  0.00     0.127 S 
ATOM     79  O   UNL A   1      46.093  24.452  29.167  1.00  0.00    -0.237 OA
ATOM     80  O   UNL A   1      43.725  24.698  29.873  1.00  0.00    -0.237 OA
ATOM     81  O   UNL A   1      44.253  23.650  27.737  1.00  0.00    -0.744 OA
ENDBRANCH  75  78
ENDBRANCH  47  71
BRANCH  59  82
ATOM     82  C   UNL A   1      42.485  35.576  29.013  1.00  0.00     0.023 A 
ATOM     83  C   UNL A   1      41.769  36.062  27.884  1.00  0.00     0.012 A 
ATOM     84  C   UNL A   1      43.333  36.494  29.646  1.00  0.00     0.148 A 
ATOM     85  C   UNL A   1      41.904  37.364  27.400  1.00  0.00     0.002 A 
ATOM     86  C   UNL A   1      43.378  37.827  29.233  1.00  0.00     0.091 A 
ATOM     87  F   UNL A   1      44.164  36.098  30.616  1.00  0.00    -0.205 F 
ATOM     88  C   UNL A   1      42.697  38.261  28.093  1.00  0.00     0.022 A 
BRANCH  86  89
ATOM     89  S   UNL A   1      44.244  39.011  30.263  1.00  0.00     0.127 S 
ATOM     90  O   UNL A   1      43.804  40.289  29.710  1.00  0.00    -0.237 OA
ATOM     91  O   UNL A   1      43.780  38.695  31.610  1.00  0.00    -0.237 OA
ATOM     92  O   UNL A   1      45.654  38.704  30.023  1.00  0.00    -0.744 OA
ENDBRANCH  86  89
ENDBRANCH  59  82
ENDBRANCH  33  34
ENDBRANCH  25  28
ENDBRANCH  23  24
ENDBRANCH   1  23
TORSDOF 16
ENDMDL
MODEL 3
REMARK VINA RESULT:     -12.0      1.941      2.538
REMARK SMILES Cc1cc(NCc2ccc(C(=O)NCCCNC(=O)c3ccc(-c4c5nc(c(-c6cccc(S(=O)(=O)[O-])c6F)c6ccc([nH]6)c(-c6cccc(S(=O)(=O)[O-])c6F)c6nc(c(-c7cccc(S(=O)(=O)[O-])c7F)c7ccc4[nH]7)C=C6)C=C5)cc3)o2)ccc1F
REMARK SMILES IDX 15 1 14 2 13 3 11 4 12 5 10 7 7 8 8 9 83 10 9 11 6 12 5 13
REMARK SMILES IDX 4 15 1 16 2 17 3 18 86 19 85 20 87 21 84 22 16 23 17 24
REMARK SMILES IDX 18 25 19 27 20 28 21 29 82 30 22 31 81 32 23 33 24 34 25 35
REMARK SMILES IDX 75 36 26 37 80 38 74 39 76 40 27 41 79 42 73 43 72 44 28 46
REMARK SMILES IDX 60 47 40 48 59 49 41 50 44 51 58 52 77 53 42 54 43 55 57 57
REMARK SMILES IDX 78 58 45 59 29 60 30 61 38 62 31 63 33 64 39 65 32 66 34 67
REMARK SMILES IDX 35 68 36 69 37 70 61 71 62 72 70 73 63 74 65 75 71 76 64 77
REMARK SMILES IDX 66 78 67 79 68 80 69 81 46 82 47 83 55 84 48 85 50 86 56 87
REMARK SMILES IDX 49 88 51 89 52 90 53 91 54 92
REMARK H PARENT 13 6 5 14 17 26 76 45 44 56
REMARK Flexibility Score: inf
ROOT
ATOM      1  C   UNL A   1      36.727  23.698  25.025  1.00  0.00     0.042 C 
ENDROOT
BRANCH   1   2
ATOM      2  C   UNL A   1      36.098  22.343  25.361  1.00  0.00     0.118 C 
BRANCH   2   3
ATOM      3  N   UNL A   1      35.383  22.385  26.623  1.00  0.00    -0.349 N 
ATOM      4  C   UNL A   1      34.072  22.725  26.865  1.00  0.00     0.286 C 
ATOM      5  O   UNL A   1      33.650  22.551  28.011  1.00  0.00    -0.266 OA
ATOM      6  H   UNL A   1      35.909  22.133  27.416  1.00  0.00     0.163 HD
BRANCH   4   7
ATOM      7  C   UNL A   1      33.240  23.238  25.790  1.00  0.00     0.191 A 
ATOM      8  C   UNL A   1      32.520  24.864  24.476  1.00  0.00     0.124 A 
ATOM      9  C   UNL A   1      31.826  23.742  24.098  1.00  0.00     0.048 A 
ATOM     10  O   UNL A   1      33.379  24.568  25.488  1.00  0.00    -0.454 OA
ATOM     11  C   UNL A   1      32.297  22.701  24.929  1.00  0.00     0.056 A 
BRANCH   8  12
ATOM     12  C   UNL A   1      32.531  26.270  24.010  1.00  0.00     0.188 C 
BRANCH  12  13
ATOM     13  N   UNL A   1      31.731  27.158  24.831  1.00  0.00    -0.378 N 
ATOM     14  H   UNL A   1      30.753  27.073  24.760  1.00  0.00     0.161 HD
BRANCH  13  15
ATOM     15  C   UNL A   1      32.214  28.112  25.704  1.00  0.00     0.035 A 
ATOM     16  C   UNL A   1      31.377  31.759  26.495  1.00  0.00     0.047 C 
ATOM     17  C   UNL A   1      32.058  30.428  26.502  1.00  0.00    -0.013 A 
ATOM     18  C   UNL A   1      31.574  29.361  25.733  1.00  0.00     0.032 A 
ATOM     19  C   UNL A   1      33.214  30.231  27.253  1.00  0.00     0.126 A 
ATOM     20  C   UNL A   1      33.868  29.006  27.252  1.00  0.00     0.041 A 
ATOM     21  F   UNL A   1      33.721  31.237  27.981  1.00  0.00    -0.207 F 
ATOM     22  C   UNL A   1      33.372  27.955  26.474  1.00  0.00     0.029 A 
ENDBRANCH  13  15
ENDBRANCH  12  13
ENDBRANCH   8  12
ENDBRANCH   4   7
ENDBRANCH   2   3
ENDBRANCH   1   2
BRANCH   1  23
ATOM     23  C   UNL A   1      37.467  24.253  26.216  1.00  0.00     0.118 C 
BRANCH  23  24
ATOM     24  N   UNL A   1      38.780  23.632  26.383  1.00  0.00    -0.352 N 
ATOM     25  C   UNL A   1      39.948  24.228  26.833  1.00  0.00     0.251 C 
ATOM     26  H   UNL A   1      38.842  22.678  26.147  1.00  0.00     0.163 HD
ATOM     27  O   UNL A   1      41.038  23.763  26.565  1.00  0.00    -0.269 OA
BRANCH  25  28
ATOM     28  C   UNL A   1      39.817  25.478  27.611  1.00  0.00     0.039 A 
ATOM     29  C   UNL A   1      39.130  25.536  28.828  1.00  0.00     0.014 A 
ATOM     30  C   UNL A   1      40.398  26.619  27.077  1.00  0.00     0.014 A 
ATOM     31  C   UNL A   1      39.068  26.752  29.513  1.00  0.00     0.010 A 
ATOM     32  C   UNL A   1      40.560  27.725  27.852  1.00  0.00     0.010 A 
ATOM     33  C   UNL A   1      39.795  27.836  29.010  1.00  0.00    -0.014 A 
BRANCH  33  34
ATOM     34  C   UNL A   1      39.715  29.206  29.483  1.00  0.00     0.031 A 
ATOM     35  C   UNL A   1      38.713  30.141  28.976  1.00  0.00     0.074 A 
ATOM     36  C   UNL A   1      40.534  29.516  30.513  1.00  0.00     0.049 A 
ATOM     37  N   UNL A   1      38.873  31.417  28.943  1.00  0.00    -0.248 NA
ATOM     38  C   UNL A   1      37.435  29.704  28.429  1.00  0.00     0.031 C 
ATOM     39  C   UNL A   1      40.521  30.653  31.415  1.00  0.00     0.029 A 
ATOM     40  N   UNL A   1      41.680  28.826  30.879  1.00  0.00    -0.354 N 
ATOM     41  C   UNL A   1      37.628  31.970  28.750  1.00  0.00     0.074 A 
ATOM     42  C   UNL A   1      36.809  30.876  28.270  1.00  0.00     0.031 C 
ATOM     43  C   UNL A   1      41.715  30.722  32.039  1.00  0.00     0.029 A 
ATOM     44  C   UNL A   1      42.584  29.711  31.446  1.00  0.00     0.049 A 
ATOM     45  H   UNL A   1      41.829  27.861  30.756  1.00  0.00     0.167 HD
ATOM     46  C   UNL A   1      37.389  33.234  29.214  1.00  0.00     0.034 A 
ATOM     47  C   UNL A   1      43.758  29.946  30.783  1.00  0.00     0.034 A 
ATOM     48  C   UNL A   1      38.587  33.769  29.867  1.00  0.00     0.049 A 
ATOM     49  C   UNL A   1      43.796  31.364  30.274  1.00  0.00     0.074 A 
ATOM     50  C   UNL A   1      38.931  33.894  31.204  1.00  0.00     0.029 A 
ATOM     51  N   UNL A   1      39.763  33.939  29.144  1.00  0.00    -0.354 N 
ATOM     52  N   UNL A   1      42.734  32.056  29.962  1.00  0.00    -0.248 NA
ATOM     53  C   UNL A   1      45.029  32.128  30.146  1.00  0.00     0.031 C 
ATOM     54  C   UNL A   1      40.335  34.071  31.283  1.00  0.00     0.029 A 
ATOM     55  C   UNL A   1      40.844  34.081  29.994  1.00  0.00     0.049 A 
ATOM     56  H   UNL A   1      39.819  33.956  28.161  1.00  0.00     0.167 HD
ATOM     57  C   UNL A   1      43.102  33.351  29.701  1.00  0.00     0.074 A 
ATOM     58  C   UNL A   1      44.550  33.336  29.800  1.00  0.00     0.031 C 
ATOM     59  C   UNL A   1      42.184  34.337  29.472  1.00  0.00     0.034 A 
BRANCH  46  60
ATOM     60  C   UNL A   1      36.004  33.842  29.379  1.00  0.00     0.023 A 
ATOM     61  C   UNL A   1      35.182  34.176  28.282  1.00  0.00     0.012 A 
ATOM     62  C   UNL A   1      35.441  34.084  30.656  1.00  0.00     0.148 A 
ATOM     63  C   UNL A   1      33.849  34.585  28.425  1.00  0.00     0.002 A 
ATOM     64  C   UNL A   1      34.120  34.520  30.801  1.00  0.00     0.091 A 
ATOM     65  F   UNL A   1      36.174  33.905  31.762  1.00  0.00    -0.205 F 
ATOM     66  C   UNL A   1      33.310  34.746  29.690  1.00  0.00     0.022 A 
BRANCH  64  67
ATOM     67  S   UNL A   1      33.460  34.795  32.450  1.00  0.00     0.127 S 
ATOM     68  O   UNL A   1      33.472  33.456  33.031  1.00  0.00    -0.237 OA
ATOM     69  O   UNL A   1      34.383  35.771  33.018  1.00  0.00    -0.237 OA
ATOM     70  O   UNL A   1      32.119  35.323  32.190  1.00  0.00    -0.744 OA
ENDBRANCH  64  67
ENDBRANCH  46  60
BRANCH  47  71
ATOM     71  C   UNL A   1      44.248  28.727  30.044  1.00  0.00     0.023 A 
ATOM     72  C   UNL A   1      45.187  27.855  30.624  1.00  0.00     0.012 A 
ATOM     73  C   UNL A   1      44.138  28.751  28.632  1.00  0.00     0.148 A 
ATOM     74  C   UNL A   1      46.065  27.117  29.812  1.00  0.00     0.002 A 
ATOM     75  C   UNL A   1      45.077  28.093  27.837  1.00  0.00     0.091 A 
ATOM     76  F   UNL A   1      43.201  29.537  28.077  1.00  0.00    -0.205 F 
ATOM     77  C   UNL A   1      46.043  27.270  28.423  1.00  0.00     0.022 A 
BRANCH  75  78
ATOM     78  S   UNL A   1      45.238  28.558  26.103  1.00  0.00     0.127 S 
ATOM     79  O   UNL A   1      43.957  28.148  25.540  1.00  0.00    -0.237 OA
ATOM     80  O   UNL A   1      45.501  29.994  26.149  1.00  0.00    -0.237 OA
ATOM     81  O   UNL A   1      46.391  27.783  25.642  1.00  0.00    -0.744 OA
ENDBRANCH  75  78
ENDBRANCH  47  71
BRANCH  59  82
ATOM     82  C   UNL A   1      42.445  35.707  28.880  1.00  0.00     0.023 A 
ATOM     83  C   UNL A   1      41.917  35.986  27.589  1.00  0.00     0.012 A 
ATOM     84  C   UNL A   1      43.265  36.697  29.437  1.00  0.00     0.148 A 
ATOM     85  C   UNL A   1      42.204  37.157  26.887  1.00  0.00     0.002 A 
ATOM     86  C   UNL A   1      43.454  37.917  28.785  1.00  0.00     0.091 A 
ATOM     87  F   UNL A   1      43.932  36.469  30.573  1.00  0.00    -0.205 F 
ATOM     88  C   UNL A   1      42.960  38.141  27.498  1.00  0.00     0.022 A 
BRANCH  86  89
ATOM     89  S   UNL A   1      44.259  39.246  29.679  1.00  0.00     0.127 S 
ATOM     90  O   UNL A   1      43.392  39.409  30.844  1.00  0.00    -0.237 OA
ATOM     91  O   UNL A   1      45.597  38.723  29.936  1.00  0.00    -0.237 OA
ATOM     92  O   UNL A   1      44.218  40.364  28.737  1.00  0.00    -0.744 OA
ENDBRANCH  86  89
ENDBRANCH  59  82
ENDBRANCH  33  34
ENDBRANCH  25  28
ENDBRANCH  23  24
ENDBRANCH   1  23
TORSDOF 16
ENDMDL
