MODEL 1
REMARK VINA RESULT:     -12.1      0.000      0.000
REMARK SMILES C[C@@H](O)[C@@H](NC(=O)c1csc(-c2ccsc2)n1)C(=O)NCCCNC(=O)c1ccc(-c2c3nc(c(-c4cccc(S(=O)(=O)[O-])c4F)c4ccc([nH]4)c(-c4cccc(S(=O)(=O)[O-])c4F)c4nc(c(-c5cccc(S(=O)(=O)[O-])c5F)c5ccc2[nH]5)C=C4)C=C3)cc1
REMARK SMILES IDX 22 1 21 2 20 3 18 4 19 5 4 7 2 8 1 9 3 10 5 12 6 13 7 15
REMARK SMILES IDX 8 16 9 17 17 18 10 19 11 20 12 21 13 22 16 23 14 24 15 25
REMARK SMILES IDX 23 26 24 27 25 28 26 30 27 31 28 32 89 33 29 34 88 35 30 36
REMARK SMILES IDX 31 37 32 38 82 39 33 40 87 41 81 42 83 43 34 44 86 45 80 46
REMARK SMILES IDX 79 47 35 49 67 50 47 51 66 52 48 53 51 54 65 55 84 56 49 57
REMARK SMILES IDX 50 58 64 60 85 61 52 62 36 63 37 64 45 65 38 66 40 67 46 68
REMARK SMILES IDX 39 69 41 70 42 71 43 72 44 73 68 74 69 75 77 76 70 77 72 78
REMARK SMILES IDX 78 79 71 80 73 81 74 82 75 83 76 84 53 85 54 86 62 87 55 88
REMARK SMILES IDX 57 89 63 90 56 91 58 92 59 93 60 94 61 95
REMARK H PARENT 20 6 3 11 5 14 24 29 83 48 51 59
REMARK Flexibility Score: inf
ROOT
ATOM      1  C   UNL A   1      31.432  30.764  26.074  1.00  0.00     0.042 C 
ENDROOT
BRANCH   1   2
ATOM      2  C   UNL A   1      31.614  29.554  25.176  1.00  0.00     0.117 C 
BRANCH   2   3
ATOM      3  N   UNL A   1      30.942  29.729  23.903  1.00  0.00    -0.354 N 
ATOM      4  C   UNL A   1      30.811  28.878  22.847  1.00  0.00     0.245 C 
ATOM      5  O   UNL A   1      30.291  29.339  21.827  1.00  0.00    -0.273 OA
ATOM      6  H   UNL A   1      30.510  30.606  23.783  1.00  0.00     0.163 HD
BRANCH   4   7
ATOM      7  C   UNL A   1      31.442  27.472  22.866  1.00  0.00     0.200 C 
BRANCH   7   8
ATOM      8  C   UNL A   1      30.266  26.521  23.284  1.00  0.00     0.143 C 
ATOM      9  C   UNL A   1      30.441  25.810  24.621  1.00  0.00     0.041 C 
BRANCH   8  10
ATOM     10  O   UNL A   1      29.049  27.266  23.405  1.00  0.00    -0.391 OA
ATOM     11  H   UNL A   1      29.245  28.153  23.743  1.00  0.00     0.211 HD
ENDBRANCH   8  10
ENDBRANCH   7   8
BRANCH   7  12
ATOM     12  N   UNL A   1      32.108  27.038  21.617  1.00  0.00    -0.337 N 
ATOM     13  C   UNL A   1      32.721  25.851  21.283  1.00  0.00     0.271 C 
ATOM     14  H   UNL A   1      32.114  27.714  20.902  1.00  0.00     0.164 HD
ATOM     15  O   UNL A   1      32.933  25.632  20.090  1.00  0.00    -0.267 OA
BRANCH  13  16
ATOM     16  C   UNL A   1      33.288  25.004  22.329  1.00  0.00     0.139 A 
ATOM     17  C   UNL A   1      33.998  25.543  23.390  1.00  0.00     0.101 A 
ATOM     18  N   UNL A   1      33.132  23.624  22.388  1.00  0.00    -0.231 NA
ATOM     19  S   UNL A   1      34.176  24.374  24.624  1.00  0.00    -0.122 S 
ATOM     20  C   UNL A   1      33.489  23.189  23.583  1.00  0.00     0.125 A 
BRANCH  20  21
ATOM     21  C   UNL A   1      33.294  21.761  24.000  1.00  0.00     0.021 A 
ATOM     22  C   UNL A   1      33.957  21.145  25.101  1.00  0.00     0.023 A 
ATOM     23  C   UNL A   1      32.464  20.878  23.341  1.00  0.00     0.076 A 
ATOM     24  C   UNL A   1      33.568  19.834  25.272  1.00  0.00     0.065 A 
ATOM     25  S   UNL A   1      32.471  19.325  24.063  1.00  0.00    -0.152 S 
ENDBRANCH  20  21
ENDBRANCH  13  16
ENDBRANCH   7  12
ENDBRANCH   4   7
ENDBRANCH   2   3
ENDBRANCH   1   2
BRANCH   1  26
ATOM     26  C   UNL A   1      32.692  31.162  26.830  1.00  0.00     0.118 C 
BRANCH  26  27
ATOM     27  N   UNL A   1      32.748  32.584  27.150  1.00  0.00    -0.352 N 
ATOM     28  C   UNL A   1      33.715  33.254  27.862  1.00  0.00     0.251 C 
ATOM     29  H   UNL A   1      32.001  33.131  26.815  1.00  0.00     0.163 HD
ATOM     30  O   UNL A   1      33.559  34.431  28.173  1.00  0.00    -0.269 OA
BRANCH  28  31
ATOM     31  C   UNL A   1      34.928  32.518  28.270  1.00  0.00     0.039 A 
ATOM     32  C   UNL A   1      36.161  33.170  28.260  1.00  0.00     0.014 A 
ATOM     33  C   UNL A   1      34.816  31.210  28.753  1.00  0.00     0.014 A 
ATOM     34  C   UNL A   1      37.277  32.534  28.808  1.00  0.00     0.010 A 
ATOM     35  C   UNL A   1      35.905  30.617  29.376  1.00  0.00     0.010 A 
ATOM     36  C   UNL A   1      37.147  31.270  29.409  1.00  0.00    -0.014 A 
BRANCH  36  37
ATOM     37  C   UNL A   1      38.290  30.607  30.084  1.00  0.00     0.031 A 
ATOM     38  C   UNL A   1      38.668  31.009  31.484  1.00  0.00     0.074 A 
ATOM     39  C   UNL A   1      39.052  29.728  29.402  1.00  0.00     0.049 A 
ATOM     40  N   UNL A   1      39.684  30.621  32.207  1.00  0.00    -0.248 NA
ATOM     41  C   UNL A   1      37.810  32.009  32.144  1.00  0.00     0.031 C 
ATOM     42  C   UNL A   1      38.845  29.328  28.007  1.00  0.00     0.029 A 
ATOM     43  N   UNL A   1      40.176  29.036  29.780  1.00  0.00    -0.354 N 
ATOM     44  C   UNL A   1      39.615  31.357  33.384  1.00  0.00     0.074 A 
ATOM     45  C   UNL A   1      38.480  32.244  33.263  1.00  0.00     0.031 C 
ATOM     46  C   UNL A   1      39.804  28.457  27.651  1.00  0.00     0.029 A 
ATOM     47  C   UNL A   1      40.707  28.254  28.780  1.00  0.00     0.049 A 
ATOM     48  H   UNL A   1      40.564  29.091  30.683  1.00  0.00     0.167 HD
ATOM     49  C   UNL A   1      40.401  31.277  34.482  1.00  0.00     0.034 A 
ATOM     50  C   UNL A   1      41.799  27.463  28.774  1.00  0.00     0.034 A 
ATOM     51  C   UNL A   1      41.483  30.343  34.626  1.00  0.00     0.049 A 
ATOM     52  C   UNL A   1      42.608  27.333  30.037  1.00  0.00     0.074 A 
ATOM     53  C   UNL A   1      42.278  30.112  35.734  1.00  0.00     0.029 A 
ATOM     54  N   UNL A   1      41.918  29.480  33.632  1.00  0.00    -0.354 N 
ATOM     55  N   UNL A   1      42.426  27.918  31.197  1.00  0.00    -0.248 NA
ATOM     56  C   UNL A   1      43.749  26.407  30.005  1.00  0.00     0.031 C 
ATOM     57  C   UNL A   1      43.197  29.108  35.409  1.00  0.00     0.029 A 
ATOM     58  C   UNL A   1      42.967  28.710  34.101  1.00  0.00     0.049 A 
ATOM     59  H   UNL A   1      41.535  29.423  32.727  1.00  0.00     0.167 HD
ATOM     60  C   UNL A   1      43.405  27.404  32.040  1.00  0.00     0.074 A 
ATOM     61  C   UNL A   1      44.164  26.445  31.263  1.00  0.00     0.031 C 
ATOM     62  C   UNL A   1      43.665  27.712  33.334  1.00  0.00     0.034 A 
BRANCH  49  63
ATOM     63  C   UNL A   1      40.067  32.169  35.646  1.00  0.00     0.023 A 
ATOM     64  C   UNL A   1      40.768  33.382  35.808  1.00  0.00     0.012 A 
ATOM     65  C   UNL A   1      39.034  31.843  36.545  1.00  0.00     0.148 A 
ATOM     66  C   UNL A   1      40.469  34.242  36.863  1.00  0.00     0.002 A 
ATOM     67  C   UNL A   1      38.713  32.725  37.571  1.00  0.00     0.091 A 
ATOM     68  F   UNL A   1      38.395  30.674  36.391  1.00  0.00    -0.205 F 
ATOM     69  C   UNL A   1      39.435  33.919  37.738  1.00  0.00     0.022 A 
BRANCH  67  70
ATOM     70  S   UNL A   1      37.350  32.436  38.706  1.00  0.00     0.127 S 
ATOM     71  O   UNL A   1      37.441  30.992  38.915  1.00  0.00    -0.237 OA
ATOM     72  O   UNL A   1      37.736  33.246  39.862  1.00  0.00    -0.237 OA
ATOM     73  O   UNL A   1      36.152  32.895  38.017  1.00  0.00    -0.744 OA
ENDBRANCH  67  70
ENDBRANCH  49  63
BRANCH  50  74
ATOM     74  C   UNL A   1      42.136  26.664  27.563  1.00  0.00     0.023 A 
ATOM     75  C   UNL A   1      42.793  27.292  26.487  1.00  0.00     0.012 A 
ATOM     76  C   UNL A   1      41.840  25.289  27.477  1.00  0.00     0.148 A 
ATOM     77  C   UNL A   1      43.122  26.576  25.336  1.00  0.00     0.002 A 
ATOM     78  C   UNL A   1      42.218  24.570  26.348  1.00  0.00     0.091 A 
ATOM     79  F   UNL A   1      41.200  24.709  28.503  1.00  0.00    -0.205 F 
ATOM     80  C   UNL A   1      42.844  25.213  25.270  1.00  0.00     0.022 A 
BRANCH  78  81
ATOM     81  S   UNL A   1      42.019  22.787  26.246  1.00  0.00     0.127 S 
ATOM     82  O   UNL A   1      42.647  22.487  24.963  1.00  0.00    -0.237 OA
ATOM     83  O   UNL A   1      42.763  22.325  27.420  1.00  0.00    -0.237 OA
ATOM     84  O   UNL A   1      40.583  22.555  26.326  1.00  0.00    -0.744 OA
ENDBRANCH  78  81
ENDBRANCH  50  74
BRANCH  62  85
ATOM     85  C   UNL A   1      44.795  26.986  34.012  1.00  0.00     0.023 A 
ATOM     86  C   UNL A   1      46.104  27.502  33.925  1.00  0.00     0.012 A 
ATOM     87  C   UNL A   1      44.549  25.848  34.803  1.00  0.00     0.148 A 
ATOM     88  C   UNL A   1      47.154  26.880  34.597  1.00  0.00     0.002 A 
ATOM     89  C   UNL A   1      45.594  25.259  35.505  1.00  0.00     0.091 A 
ATOM     90  F   UNL A   1      43.301  25.361  34.855  1.00  0.00    -0.205 F 
ATOM     91  C   UNL A   1      46.898  25.768  35.396  1.00  0.00     0.022 A 
BRANCH  89  92
ATOM     92  S   UNL A   1      45.335  23.882  36.629  1.00  0.00     0.127 S 
ATOM     93  O   UNL A   1      44.665  22.913  35.763  1.00  0.00    -0.237 OA
ATOM     94  O   UNL A   1      46.702  23.521  37.004  1.00  0.00    -0.237 OA
ATOM     95  O   UNL A   1      44.531  24.408  37.724  1.00  0.00    -0.744 OA
ENDBRANCH  89  92
ENDBRANCH  62  85
ENDBRANCH  36  37
ENDBRANCH  28  31
ENDBRANCH  26  27
ENDBRANCH   1  26
TORSDOF 18
ENDMDL
MODEL 2
REMARK VINA RESULT:     -11.9      5.263      7.858
REMARK SMILES C[C@@H](O)[C@@H](NC(=O)c1csc(-c2ccsc2)n1)C(=O)NCCCNC(=O)c1ccc(-c2c3nc(c(-c4cccc(S(=O)(=O)[O-])c4F)c4ccc([nH]4)c(-c4cccc(S(=O)(=O)[O-])c4F)c4nc(c(-c5cccc(S(=O)(=O)[O-])c5F)c5ccc2[nH]5)C=C4)C=C3)cc1
REMARK SMILES IDX 22 1 21 2 20 3 18 4 19 5 4 7 2 8 1 9 3 10 5 12 6 13 7 15
REMARK SMILES IDX 8 16 9 17 17 18 10 19 11 20 12 21 13 22 16 23 14 24 15 25
REMARK SMILES IDX 23 26 24 27 25 28 26 30 27 31 28 32 89 33 29 34 88 35 30 36
REMARK SMILES IDX 31 37 32 38 82 39 33 40 87 41 81 42 83 43 34 44 86 45 80 46
REMARK SMILES IDX 79 47 35 49 67 50 47 51 66 52 48 53 51 54 65 55 84 56 49 57
REMARK SMILES IDX 50 58 64 60 85 61 52 62 36 63 37 64 45 65 38 66 40 67 46 68
REMARK SMILES IDX 39 69 41 70 42 71 43 72 44 73 68 74 69 75 77 76 70 77 72 78
REMARK SMILES IDX 78 79 71 80 73 81 74 82 75 83 76 84 53 85 54 86 62 87 55 88
REMARK SMILES IDX 57 89 63 90 56 91 58 92 59 93 60 94 61 95
REMARK H PARENT 20 6 3 11 5 14 24 29 83 48 51 59
REMARK Flexibility Score: inf
ROOT
ATOM      1  C   UNL A   1      36.123  22.128  24.135  1.00  0.00     0.042 C 
ENDROOT
BRANCH   1   2
ATOM      2  C   UNL A   1      35.602  23.539  23.932  1.00  0.00     0.117 C 
BRANCH   2   3
ATOM      3  N   UNL A   1      34.516  23.572  22.973  1.00  0.00    -0.354 N 
ATOM      4  C   UNL A   1      33.460  24.427  22.862  1.00  0.00     0.245 C 
ATOM      5  O   UNL A   1      32.605  24.142  22.019  1.00  0.00    -0.273 OA
ATOM      6  H   UNL A   1      34.545  22.862  22.292  1.00  0.00     0.163 HD
BRANCH   4   7
ATOM      7  C   UNL A   1      33.256  25.586  23.858  1.00  0.00     0.200 C 
BRANCH   7   8
ATOM      8  C   UNL A   1      33.246  26.875  22.964  1.00  0.00     0.143 C 
ATOM      9  C   UNL A   1      33.924  28.098  23.569  1.00  0.00     0.041 C 
BRANCH   8  10
ATOM     10  O   UNL A   1      33.937  26.626  21.733  1.00  0.00    -0.391 OA
ATOM     11  H   UNL A   1      34.348  27.448  21.422  1.00  0.00     0.211 HD
ENDBRANCH   8  10
ENDBRANCH   7   8
BRANCH   7  12
ATOM     12  N   UNL A   1      32.066  25.492  24.735  1.00  0.00    -0.337 N 
ATOM     13  C   UNL A   1      31.820  24.720  25.847  1.00  0.00     0.271 C 
ATOM     14  H   UNL A   1      31.324  26.085  24.477  1.00  0.00     0.164 HD
ATOM     15  O   UNL A   1      30.876  25.041  26.570  1.00  0.00    -0.267 OA
BRANCH  13  16
ATOM     16  C   UNL A   1      32.520  23.450  26.023  1.00  0.00     0.139 A 
ATOM     17  C   UNL A   1      33.351  23.227  27.110  1.00  0.00     0.101 A 
ATOM     18  N   UNL A   1      32.385  22.359  25.173  1.00  0.00    -0.231 NA
ATOM     19  S   UNL A   1      33.691  21.558  27.248  1.00  0.00    -0.122 S 
ATOM     20  C   UNL A   1      32.891  21.284  25.749  1.00  0.00     0.125 A 
BRANCH  20  21
ATOM     21  C   UNL A   1      32.764  19.920  25.138  1.00  0.00     0.021 A 
ATOM     22  C   UNL A   1      32.499  19.674  23.759  1.00  0.00     0.023 A 
ATOM     23  C   UNL A   1      32.866  18.747  25.858  1.00  0.00     0.076 A 
ATOM     24  C   UNL A   1      32.463  18.327  23.470  1.00  0.00     0.065 A 
ATOM     25  S   UNL A   1      32.665  17.363  24.869  1.00  0.00    -0.152 S 
ENDBRANCH  20  21
ENDBRANCH  13  16
ENDBRANCH   7  12
ENDBRANCH   4   7
ENDBRANCH   2   3
ENDBRANCH   1   2
BRANCH   1  26
ATOM     26  C   UNL A   1      36.735  21.891  25.509  1.00  0.00     0.118 C 
BRANCH  26  27
ATOM     27  N   UNL A   1      37.693  20.791  25.533  1.00  0.00    -0.352 N 
ATOM     28  C   UNL A   1      39.011  20.824  25.922  1.00  0.00     0.251 C 
ATOM     29  H   UNL A   1      37.353  19.917  25.232  1.00  0.00     0.163 HD
ATOM     30  O   UNL A   1      39.736  19.848  25.758  1.00  0.00    -0.269 OA
BRANCH  28  31
ATOM     31  C   UNL A   1      39.540  22.069  26.515  1.00  0.00     0.039 A 
ATOM     32  C   UNL A   1      40.588  21.998  27.433  1.00  0.00     0.014 A 
ATOM     33  C   UNL A   1      39.054  23.305  26.080  1.00  0.00     0.014 A 
ATOM     34  C   UNL A   1      41.204  23.177  27.860  1.00  0.00     0.010 A 
ATOM     35  C   UNL A   1      39.725  24.467  26.437  1.00  0.00     0.010 A 
ATOM     36  C   UNL A   1      40.804  24.416  27.332  1.00  0.00    -0.014 A 
BRANCH  36  37
ATOM     37  C   UNL A   1      41.499  25.678  27.692  1.00  0.00     0.031 A 
ATOM     38  C   UNL A   1      40.765  26.740  28.466  1.00  0.00     0.074 A 
ATOM     39  C   UNL A   1      42.743  25.912  27.230  1.00  0.00     0.049 A 
ATOM     40  N   UNL A   1      41.160  27.942  28.793  1.00  0.00    -0.248 NA
ATOM     41  C   UNL A   1      39.391  26.424  28.895  1.00  0.00     0.031 C 
ATOM     42  C   UNL A   1      43.523  25.000  26.389  1.00  0.00     0.029 A 
ATOM     43  N   UNL A   1      43.561  27.006  27.377  1.00  0.00    -0.354 N 
ATOM     44  C   UNL A   1      40.075  28.538  29.425  1.00  0.00     0.074 A 
ATOM     45  C   UNL A   1      38.992  27.581  29.401  1.00  0.00     0.031 C 
ATOM     46  C   UNL A   1      44.706  25.568  26.101  1.00  0.00     0.029 A 
ATOM     47  C   UNL A   1      44.762  26.891  26.714  1.00  0.00     0.049 A 
ATOM     48  H   UNL A   1      43.312  27.797  27.907  1.00  0.00     0.167 HD
ATOM     49  C   UNL A   1      39.998  29.757  30.007  1.00  0.00     0.034 A 
ATOM     50  C   UNL A   1      45.791  27.756  26.613  1.00  0.00     0.034 A 
ATOM     51  C   UNL A   1      41.099  30.675  30.093  1.00  0.00     0.049 A 
ATOM     52  C   UNL A   1      45.707  29.073  27.339  1.00  0.00     0.074 A 
ATOM     53  C   UNL A   1      41.155  31.893  30.746  1.00  0.00     0.029 A 
ATOM     54  N   UNL A   1      42.342  30.473  29.512  1.00  0.00    -0.354 N 
ATOM     55  N   UNL A   1      44.730  29.550  28.072  1.00  0.00    -0.248 NA
ATOM     56  C   UNL A   1      46.881  29.954  27.257  1.00  0.00     0.031 C 
ATOM     57  C   UNL A   1      42.434  32.430  30.559  1.00  0.00     0.029 A 
ATOM     58  C   UNL A   1      43.174  31.541  29.796  1.00  0.00     0.049 A 
ATOM     59  H   UNL A   1      42.594  29.686  28.977  1.00  0.00     0.167 HD
ATOM     60  C   UNL A   1      45.183  30.768  28.566  1.00  0.00     0.074 A 
ATOM     61  C   UNL A   1      46.532  30.945  28.067  1.00  0.00     0.031 C 
ATOM     62  C   UNL A   1      44.536  31.667  29.346  1.00  0.00     0.034 A 
BRANCH  49  63
ATOM     63  C   UNL A   1      38.700  30.133  30.668  1.00  0.00     0.023 A 
ATOM     64  C   UNL A   1      38.465  29.732  31.999  1.00  0.00     0.012 A 
ATOM     65  C   UNL A   1      37.741  30.921  30.004  1.00  0.00     0.148 A 
ATOM     66  C   UNL A   1      37.282  30.081  32.650  1.00  0.00     0.002 A 
ATOM     67  C   UNL A   1      36.583  31.302  30.673  1.00  0.00     0.091 A 
ATOM     68  F   UNL A   1      37.972  31.272  28.731  1.00  0.00    -0.205 F 
ATOM     69  C   UNL A   1      36.347  30.875  31.990  1.00  0.00     0.022 A 
BRANCH  67  70
ATOM     70  S   UNL A   1      35.351  32.383  29.937  1.00  0.00     0.127 S 
ATOM     71  O   UNL A   1      36.164  33.535  29.548  1.00  0.00    -0.237 OA
ATOM     72  O   UNL A   1      34.863  31.576  28.818  1.00  0.00    -0.237 OA
ATOM     73  O   UNL A   1      34.366  32.633  30.979  1.00  0.00    -0.744 OA
ENDBRANCH  67  70
ENDBRANCH  49  63
BRANCH  50  74
ATOM     74  C   UNL A   1      47.023  27.367  25.873  1.00  0.00     0.023 A 
ATOM     75  C   UNL A   1      48.006  26.601  26.530  1.00  0.00     0.012 A 
ATOM     76  C   UNL A   1      47.219  27.720  24.523  1.00  0.00     0.148 A 
ATOM     77  C   UNL A   1      49.174  26.220  25.869  1.00  0.00     0.002 A 
ATOM     78  C   UNL A   1      48.362  27.293  23.855  1.00  0.00     0.091 A 
ATOM     79  F   UNL A   1      46.282  28.463  23.916  1.00  0.00    -0.205 F 
ATOM     80  C   UNL A   1      49.348  26.556  24.529  1.00  0.00     0.022 A 
BRANCH  78  81
ATOM     81  S   UNL A   1      48.592  27.567  22.094  1.00  0.00     0.127 S 
ATOM     82  O   UNL A   1      47.336  28.210  21.722  1.00  0.00    -0.237 OA
ATOM     83  O   UNL A   1      49.766  28.442  22.068  1.00  0.00    -0.237 OA
ATOM     84  O   UNL A   1      48.827  26.245  21.527  1.00  0.00    -0.744 OA
ENDBRANCH  78  81
ENDBRANCH  50  74
BRANCH  62  85
ATOM     85  C   UNL A   1      45.281  32.913  29.742  1.00  0.00     0.023 A 
ATOM     86  C   UNL A   1      46.082  32.904  30.902  1.00  0.00     0.012 A 
ATOM     87  C   UNL A   1      45.257  34.058  28.924  1.00  0.00     0.148 A 
ATOM     88  C   UNL A   1      46.828  34.028  31.253  1.00  0.00     0.002 A 
ATOM     89  C   UNL A   1      46.038  35.158  29.257  1.00  0.00     0.091 A 
ATOM     90  F   UNL A   1      44.471  34.053  27.837  1.00  0.00    -0.205 F 
ATOM     91  C   UNL A   1      46.817  35.148  30.425  1.00  0.00     0.022 A 
BRANCH  89  92
ATOM     92  S   UNL A   1      46.153  36.605  28.198  1.00  0.00     0.127 S 
ATOM     93  O   UNL A   1      47.233  37.356  28.836  1.00  0.00    -0.237 OA
ATOM     94  O   UNL A   1      46.501  36.019  26.903  1.00  0.00    -0.237 OA
ATOM     95  O   UNL A   1      44.839  37.233  28.239  1.00  0.00    -0.744 OA
ENDBRANCH  89  92
ENDBRANCH  62  85
ENDBRANCH  36  37
ENDBRANCH  28  31
ENDBRANCH  26  27
ENDBRANCH   1  26
TORSDOF 18
ENDMDL
MODEL 3
REMARK VINA RESULT:     -11.9      2.072      3.460
REMARK SMILES C[C@@H](O)[C@@H](NC(=O)c1csc(-c2ccsc2)n1)C(=O)NCCCNC(=O)c1ccc(-c2c3nc(c(-c4cccc(S(=O)(=O)[O-])c4F)c4ccc([nH]4)c(-c4cccc(S(=O)(=O)[O-])c4F)c4nc(c(-c5cccc(S(=O)(=O)[O-])c5F)c5ccc2[nH]5)C=C4)C=C3)cc1
REMARK SMILES IDX 22 1 21 2 20 3 18 4 19 5 4 7 2 8 1 9 3 10 5 12 6 13 7 15
REMARK SMILES IDX 8 16 9 17 17 18 10 19 11 20 12 21 13 22 16 23 14 24 15 25
REMARK SMILES IDX 23 26 24 27 25 28 26 30 27 31 28 32 89 33 29 34 88 35 30 36
REMARK SMILES IDX 31 37 32 38 82 39 33 40 87 41 81 42 83 43 34 44 86 45 80 46
REMARK SMILES IDX 79 47 35 49 67 50 47 51 66 52 48 53 51 54 65 55 84 56 49 57
REMARK SMILES IDX 50 58 64 60 85 61 52 62 36 63 37 64 45 65 38 66 40 67 46 68
REMARK SMILES IDX 39 69 41 70 42 71 43 72 44 73 68 74 69 75 77 76 70 77 72 78
REMARK SMILES IDX 78 79 71 80 73 81 74 82 75 83 76 84 53 85 54 86 62 87 55 88
REMARK SMILES IDX 57 89 63 90 56 91 58 92 59 93 60 94 61 95
REMARK H PARENT 20 6 3 11 5 14 24 29 83 48 51 59
REMARK Flexibility Score: inf
ROOT
ATOM      1  C   UNL A   1      31.870  28.661  26.454  1.00  0.00     0.042 C 
ENDROOT
BRANCH   1   2
ATOM      2  C   UNL A   1      32.478  27.272  26.511  1.00  0.00     0.117 C 
BRANCH   2   3
ATOM      3  N   UNL A   1      31.464  26.255  26.708  1.00  0.00    -0.354 N 
ATOM      4  C   UNL A   1      31.490  24.917  26.446  1.00  0.00     0.245 C 
ATOM      5  O   UNL A   1      30.429  24.304  26.594  1.00  0.00    -0.273 OA
ATOM      6  H   UNL A   1      30.618  26.583  27.091  1.00  0.00     0.163 HD
BRANCH   4   7
ATOM      7  C   UNL A   1      32.732  24.244  25.830  1.00  0.00     0.200 C 
BRANCH   7   8
ATOM      8  C   UNL A   1      33.103  23.103  26.841  1.00  0.00     0.143 C 
ATOM      9  C   UNL A   1      32.846  21.683  26.351  1.00  0.00     0.041 C 
BRANCH   8  10
ATOM     10  O   UNL A   1      34.501  23.153  27.149  1.00  0.00    -0.391 OA
ATOM     11  H   UNL A   1      34.973  22.495  26.614  1.00  0.00     0.211 HD
ENDBRANCH   8  10
ENDBRANCH   7   8
BRANCH   7  12
ATOM     12  N   UNL A   1      32.584  23.748  24.442  1.00  0.00    -0.337 N 
ATOM     13  C   UNL A   1      32.716  24.391  23.232  1.00  0.00     0.271 C 
ATOM     14  H   UNL A   1      32.353  22.794  24.373  1.00  0.00     0.164 HD
ATOM     15  O   UNL A   1      32.837  23.695  22.223  1.00  0.00    -0.267 OA
BRANCH  13  16
ATOM     16  C   UNL A   1      32.494  25.832  23.145  1.00  0.00     0.139 A 
ATOM     17  C   UNL A   1      33.542  26.714  22.933  1.00  0.00     0.101 A 
ATOM     18  N   UNL A   1      31.244  26.437  23.211  1.00  0.00    -0.231 NA
ATOM     19  S   UNL A   1      32.932  28.245  22.483  1.00  0.00    -0.122 S 
ATOM     20  C   UNL A   1      31.335  27.689  22.804  1.00  0.00     0.125 A 
BRANCH  20  21
ATOM     21  C   UNL A   1      30.126  28.558  22.624  1.00  0.00     0.021 A 
ATOM     22  C   UNL A   1      30.131  29.824  21.971  1.00  0.00     0.023 A 
ATOM     23  C   UNL A   1      28.872  28.230  23.099  1.00  0.00     0.076 A 
ATOM     24  C   UNL A   1      28.875  30.389  21.925  1.00  0.00     0.065 A 
ATOM     25  S   UNL A   1      27.710  29.435  22.736  1.00  0.00    -0.152 S 
ENDBRANCH  20  21
ENDBRANCH  13  16
ENDBRANCH   7  12
ENDBRANCH   4   7
ENDBRANCH   2   3
ENDBRANCH   1   2
BRANCH   1  26
ATOM     26  C   UNL A   1      32.803  29.717  25.877  1.00  0.00     0.118 C 
BRANCH  26  27
ATOM     27  N   UNL A   1      32.504  31.067  26.339  1.00  0.00    -0.352 N 
ATOM     28  C   UNL A   1      33.215  31.834  27.232  1.00  0.00     0.251 C 
ATOM     29  H   UNL A   1      31.692  31.481  25.967  1.00  0.00     0.163 HD
ATOM     30  O   UNL A   1      32.767  32.903  27.634  1.00  0.00    -0.269 OA
BRANCH  28  31
ATOM     31  C   UNL A   1      34.514  31.328  27.718  1.00  0.00     0.039 A 
ATOM     32  C   UNL A   1      35.557  32.226  27.948  1.00  0.00     0.014 A 
ATOM     33  C   UNL A   1      34.656  29.973  28.033  1.00  0.00     0.014 A 
ATOM     34  C   UNL A   1      36.723  31.776  28.570  1.00  0.00     0.010 A 
ATOM     35  C   UNL A   1      35.779  29.548  28.731  1.00  0.00     0.010 A 
ATOM     36  C   UNL A   1      36.825  30.443  29.004  1.00  0.00    -0.014 A 
BRANCH  36  37
ATOM     37  C   UNL A   1      38.011  29.955  29.752  1.00  0.00     0.031 A 
ATOM     38  C   UNL A   1      38.270  30.452  31.149  1.00  0.00     0.074 A 
ATOM     39  C   UNL A   1      38.908  29.157  29.138  1.00  0.00     0.049 A 
ATOM     40  N   UNL A   1      39.294  30.223  31.928  1.00  0.00    -0.248 NA
ATOM     41  C   UNL A   1      37.265  31.358  31.732  1.00  0.00     0.031 C 
ATOM     42  C   UNL A   1      38.816  28.685  27.754  1.00  0.00     0.029 A 
ATOM     43  N   UNL A   1      40.091  28.628  29.590  1.00  0.00    -0.354 N 
ATOM     44  C   UNL A   1      39.079  30.985  33.069  1.00  0.00     0.074 A 
ATOM     45  C   UNL A   1      37.848  31.715  32.867  1.00  0.00     0.031 C 
ATOM     46  C   UNL A   1      39.892  27.931  27.473  1.00  0.00     0.029 A 
ATOM     47  C   UNL A   1      40.761  27.885  28.645  1.00  0.00     0.049 A 
ATOM     48  H   UNL A   1      40.427  28.765  30.505  1.00  0.00     0.167 HD
ATOM     49  C   UNL A   1      39.818  31.045  34.201  1.00  0.00     0.034 A 
ATOM     50  C   UNL A   1      41.943  27.241  28.716  1.00  0.00     0.034 A 
ATOM     51  C   UNL A   1      41.001  30.262  34.428  1.00  0.00     0.049 A 
ATOM     52  C   UNL A   1      42.704  27.259  30.015  1.00  0.00     0.074 A 
ATOM     53  C   UNL A   1      41.768  30.174  35.575  1.00  0.00     0.029 A 
ATOM     54  N   UNL A   1      41.586  29.427  33.488  1.00  0.00    -0.354 N 
ATOM     55  N   UNL A   1      42.397  27.857  31.142  1.00  0.00    -0.248 NA
ATOM     56  C   UNL A   1      43.953  26.485  30.067  1.00  0.00     0.031 C 
ATOM     57  C   UNL A   1      42.819  29.284  35.330  1.00  0.00     0.029 A 
ATOM     58  C   UNL A   1      42.701  28.814  34.031  1.00  0.00     0.049 A 
ATOM     59  H   UNL A   1      41.255  29.290  32.571  1.00  0.00     0.167 HD
ATOM     60  C   UNL A   1      43.393  27.503  32.044  1.00  0.00     0.074 A 
ATOM     61  C   UNL A   1      44.302  26.621  31.339  1.00  0.00     0.031 C 
ATOM     62  C   UNL A   1      43.554  27.887  33.334  1.00  0.00     0.034 A 
BRANCH  49  63
ATOM     63  C   UNL A   1      39.321  31.928  35.314  1.00  0.00     0.023 A 
ATOM     64  C   UNL A   1      38.395  31.410  36.242  1.00  0.00     0.012 A 
ATOM     65  C   UNL A   1      39.803  33.240  35.477  1.00  0.00     0.148 A 
ATOM     66  C   UNL A   1      37.930  32.193  37.297  1.00  0.00     0.002 A 
ATOM     67  C   UNL A   1      39.368  34.001  36.556  1.00  0.00     0.091 A 
ATOM     68  F   UNL A   1      40.665  33.723  34.572  1.00  0.00    -0.205 F 
ATOM     69  C   UNL A   1      38.424  33.485  37.460  1.00  0.00     0.022 A 
BRANCH  67  70
ATOM     70  S   UNL A   1      39.999  35.649  36.896  1.00  0.00     0.127 S 
ATOM     71  O   UNL A   1      39.330  35.967  38.157  1.00  0.00    -0.237 OA
ATOM     72  O   UNL A   1      41.439  35.408  37.013  1.00  0.00    -0.237 OA
ATOM     73  O   UNL A   1      39.613  36.468  35.756  1.00  0.00    -0.744 OA
ENDBRANCH  67  70
ENDBRANCH  49  63
BRANCH  50  74
ATOM     74  C   UNL A   1      42.432  26.448  27.554  1.00  0.00     0.023 A 
ATOM     75  C   UNL A   1      43.270  27.067  26.605  1.00  0.00     0.012 A 
ATOM     76  C   UNL A   1      42.104  25.088  27.393  1.00  0.00     0.148 A 
ATOM     77  C   UNL A   1      43.745  26.358  25.502  1.00  0.00     0.002 A 
ATOM     78  C   UNL A   1      42.624  24.372  26.320  1.00  0.00     0.091 A 
ATOM     79  F   UNL A   1      41.293  24.517  28.296  1.00  0.00    -0.205 F 
ATOM     80  C   UNL A   1      43.432  25.008  25.364  1.00  0.00     0.022 A 
BRANCH  78  81
ATOM     81  S   UNL A   1      42.379  22.601  26.149  1.00  0.00     0.127 S 
ATOM     82  O   UNL A   1      40.923  22.501  26.096  1.00  0.00    -0.237 OA
ATOM     83  O   UNL A   1      43.064  22.313  24.887  1.00  0.00    -0.237 OA
ATOM     84  O   UNL A   1      43.018  22.010  27.318  1.00  0.00    -0.744 OA
ENDBRANCH  78  81
ENDBRANCH  50  74
BRANCH  62  85
ATOM     85  C   UNL A   1      44.734  27.335  34.087  1.00  0.00     0.023 A 
ATOM     86  C   UNL A   1      45.960  28.029  34.060  1.00  0.00     0.012 A 
ATOM     87  C   UNL A   1      44.605  26.184  34.886  1.00  0.00     0.148 A 
ATOM     88  C   UNL A   1      47.048  27.569  34.800  1.00  0.00     0.002 A 
ATOM     89  C   UNL A   1      45.680  25.756  35.655  1.00  0.00     0.091 A 
ATOM     90  F   UNL A   1      43.436  25.527  34.880  1.00  0.00    -0.205 F 
ATOM     91  C   UNL A   1      46.905  26.442  35.606  1.00  0.00     0.022 A 
BRANCH  89  92
ATOM     92  S   UNL A   1      45.553  24.370  36.791  1.00  0.00     0.127 S 
ATOM     93  O   UNL A   1      46.905  24.314  37.345  1.00  0.00    -0.237 OA
ATOM     94  O   UNL A   1      44.528  24.827  37.729  1.00  0.00    -0.237 OA
ATOM     95  O   UNL A   1      45.158  23.227  35.979  1.00  0.00    -0.744 OA
ENDBRANCH  89  92
ENDBRANCH  62  85
ENDBRANCH  36  37
ENDBRANCH  28  31
ENDBRANCH  26  27
ENDBRANCH   1  26
TORSDOF 18
ENDMDL
