MODEL 1
REMARK VINA RESULT:     -12.8      0.000      0.000
REMARK SMILES Cc1nc(-c2ccccc2Cl)nc2sc(C(=O)NCCCNC(=O)c3ccc(-c4c5nc(c(-c6cccc(S(=O)(=O)[O-])c6F)c6ccc([nH]6)c(-c6cccc(S(=O)(=O)[O-])c6F)c6nc(c(-c7cccc(S(=O)(=O)[O-])c7F)c7ccc4[nH]7)C=C6)C=C5)cc3)c(N)c12
REMARK SMILES IDX 21 1 20 2 19 3 18 4 16 5 17 6 15 8 1 9 2 10 3 11 90 12 4 13
REMARK SMILES IDX 13 14 88 15 12 16 14 17 5 18 6 19 10 20 7 21 9 22 11 23 8 24
REMARK SMILES IDX 89 25 22 28 23 29 24 31 25 32 26 33 87 34 27 35 86 36 28 37
REMARK SMILES IDX 29 38 30 39 80 40 31 41 85 42 79 43 81 44 32 45 84 46 78 47
REMARK SMILES IDX 77 48 33 50 65 51 45 52 64 53 46 54 49 55 63 56 82 57 47 58
REMARK SMILES IDX 48 59 62 61 83 62 50 63 34 64 35 65 43 66 36 67 38 68 44 69
REMARK SMILES IDX 37 70 39 71 40 72 41 73 42 74 66 75 67 76 75 77 68 78 70 79
REMARK SMILES IDX 76 80 69 81 71 82 72 83 73 84 74 85 51 86 52 87 60 88 53 89
REMARK SMILES IDX 55 90 61 91 54 92 56 93 57 94 58 95 59 96
REMARK H PARENT 18 7 89 26 89 27 22 30 81 49 49 60
REMARK Flexibility Score: inf
ROOT
ATOM      1  C   UNL A   1      38.571  20.553  25.402  1.00  0.00     0.118 C 
ENDROOT
BRANCH   1   2
ATOM      2  C   UNL A   1      37.207  20.135  24.904  1.00  0.00     0.042 C 
BRANCH   2   3
ATOM      3  C   UNL A   1      36.093  21.082  25.380  1.00  0.00     0.118 C 
BRANCH   3   4
ATOM      4  N   UNL A   1      34.813  20.415  25.605  1.00  0.00    -0.351 N 
ATOM      5  C   UNL A   1      33.514  20.850  25.397  1.00  0.00     0.263 C 
ATOM      6  O   UNL A   1      32.642  19.979  25.379  1.00  0.00    -0.268 OA
ATOM      7  H   UNL A   1      34.885  19.501  25.966  1.00  0.00     0.163 HD
BRANCH   5   8
ATOM      8  C   UNL A   1      33.201  22.250  25.136  1.00  0.00     0.118 A 
ATOM      9  C   UNL A   1      32.617  25.357  21.710  1.00  0.00     0.067 C 
ATOM     10  C   UNL A   1      32.845  25.446  23.187  1.00  0.00     0.052 A 
ATOM     11  N   UNL A   1      32.981  26.705  23.716  1.00  0.00    -0.233 NA
ATOM     12  C   UNL A   1      32.941  24.334  24.050  1.00  0.00     0.056 A 
ATOM     13  C   UNL A   1      33.101  26.843  25.051  1.00  0.00     0.162 A 
ATOM     14  C   UNL A   1      32.974  24.656  25.392  1.00  0.00     0.130 A 
ATOM     15  C   UNL A   1      33.031  22.896  23.913  1.00  0.00     0.067 A 
ATOM     16  N   UNL A   1      33.063  25.862  25.944  1.00  0.00    -0.217 NA
ATOM     17  S   UNL A   1      32.809  23.328  26.393  1.00  0.00    -0.108 S 
BRANCH  13  18
ATOM     18  C   UNL A   1      33.311  28.150  25.663  1.00  0.00     0.038 A 
ATOM     19  C   UNL A   1      34.375  28.302  26.583  1.00  0.00     0.013 A 
ATOM     20  C   UNL A   1      32.378  29.188  25.557  1.00  0.00     0.052 A 
ATOM     21  C   UNL A   1      34.482  29.434  27.391  1.00  0.00     0.001 A 
ATOM     22  C   UNL A   1      32.485  30.323  26.370  1.00  0.00     0.021 A 
ATOM     23  Cl  UNL A   1      31.009  29.091  24.503  1.00  0.00    -0.084 Cl
ATOM     24  C   UNL A   1      33.527  30.440  27.293  1.00  0.00     0.002 A 
ENDBRANCH  13  18
BRANCH  15  25
ATOM     25  N   UNL A   1      33.042  22.225  22.739  1.00  0.00    -0.397 N 
ATOM     26  H   UNL A   1      33.884  21.853  22.393  1.00  0.00     0.156 HD
ATOM     27  H   UNL A   1      32.206  22.110  22.232  1.00  0.00     0.156 HD
ENDBRANCH  15  25
ENDBRANCH   5   8
ENDBRANCH   3   4
ENDBRANCH   2   3
ENDBRANCH   1   2
BRANCH   1  28
ATOM     28  N   UNL A   1      39.475  19.413  25.587  1.00  0.00    -0.352 N 
ATOM     29  C   UNL A   1      40.823  19.436  25.915  1.00  0.00     0.251 C 
ATOM     30  H   UNL A   1      39.077  18.521  25.463  1.00  0.00     0.163 HD
ATOM     31  O   UNL A   1      41.532  18.464  25.736  1.00  0.00    -0.269 OA
BRANCH  29  32
ATOM     32  C   UNL A   1      41.368  20.679  26.491  1.00  0.00     0.039 A 
ATOM     33  C   UNL A   1      42.032  21.633  25.714  1.00  0.00     0.014 A 
ATOM     34  C   UNL A   1      41.139  20.893  27.843  1.00  0.00     0.014 A 
ATOM     35  C   UNL A   1      42.396  22.840  26.308  1.00  0.00     0.010 A 
ATOM     36  C   UNL A   1      41.277  22.149  28.352  1.00  0.00     0.010 A 
ATOM     37  C   UNL A   1      42.001  23.087  27.628  1.00  0.00    -0.014 A 
BRANCH  37  38
ATOM     38  C   UNL A   1      42.287  24.334  28.316  1.00  0.00     0.031 A 
ATOM     39  C   UNL A   1      41.237  25.381  28.204  1.00  0.00     0.074 A 
ATOM     40  C   UNL A   1      43.274  24.381  29.240  1.00  0.00     0.049 A 
ATOM     41  N   UNL A   1      41.347  26.564  27.701  1.00  0.00    -0.248 NA
ATOM     42  C   UNL A   1      39.862  25.028  28.596  1.00  0.00     0.031 C 
ATOM     43  C   UNL A   1      44.136  23.276  29.698  1.00  0.00     0.029 A 
ATOM     44  N   UNL A   1      43.583  25.373  30.112  1.00  0.00    -0.354 N 
ATOM     45  C   UNL A   1      40.115  27.182  27.913  1.00  0.00     0.074 A 
ATOM     46  C   UNL A   1      39.195  26.135  28.265  1.00  0.00     0.031 C 
ATOM     47  C   UNL A   1      44.641  23.574  30.915  1.00  0.00     0.029 A 
ATOM     48  C   UNL A   1      44.299  24.946  31.229  1.00  0.00     0.049 A 
ATOM     49  H   UNL A   1      43.324  26.312  29.968  1.00  0.00     0.167 HD
ATOM     50  C   UNL A   1      40.002  28.536  28.020  1.00  0.00     0.034 A 
ATOM     51  C   UNL A   1      44.532  25.662  32.354  1.00  0.00     0.034 A 
ATOM     52  C   UNL A   1      41.208  29.197  27.587  1.00  0.00     0.049 A 
ATOM     53  C   UNL A   1      44.311  27.085  32.008  1.00  0.00     0.074 A 
ATOM     54  C   UNL A   1      41.921  29.253  26.406  1.00  0.00     0.029 A 
ATOM     55  N   UNL A   1      42.073  29.617  28.569  1.00  0.00    -0.354 N 
ATOM     56  N   UNL A   1      45.050  27.745  31.163  1.00  0.00    -0.248 NA
ATOM     57  C   UNL A   1      42.999  27.651  32.273  1.00  0.00     0.031 C 
ATOM     58  C   UNL A   1      43.292  29.235  26.805  1.00  0.00     0.029 A 
ATOM     59  C   UNL A   1      43.338  29.236  28.200  1.00  0.00     0.049 A 
ATOM     60  H   UNL A   1      41.829  30.106  29.388  1.00  0.00     0.167 HD
ATOM     61  C   UNL A   1      44.146  28.521  30.448  1.00  0.00     0.074 A 
ATOM     62  C   UNL A   1      42.925  28.514  31.255  1.00  0.00     0.031 C 
ATOM     63  C   UNL A   1      44.370  28.842  29.139  1.00  0.00     0.034 A 
BRANCH  50  64
ATOM     64  C   UNL A   1      38.941  29.269  28.808  1.00  0.00     0.023 A 
ATOM     65  C   UNL A   1      38.187  30.253  28.126  1.00  0.00     0.012 A 
ATOM     66  C   UNL A   1      38.796  29.221  30.215  1.00  0.00     0.148 A 
ATOM     67  C   UNL A   1      37.363  31.156  28.808  1.00  0.00     0.002 A 
ATOM     68  C   UNL A   1      37.906  30.060  30.879  1.00  0.00     0.091 A 
ATOM     69  F   UNL A   1      39.615  28.460  30.946  1.00  0.00    -0.205 F 
ATOM     70  C   UNL A   1      37.210  31.050  30.184  1.00  0.00     0.022 A 
BRANCH  68  71
ATOM     71  S   UNL A   1      37.613  29.913  32.646  1.00  0.00     0.127 S 
ATOM     72  O   UNL A   1      38.869  30.415  33.196  1.00  0.00    -0.237 OA
ATOM     73  O   UNL A   1      36.460  30.795  32.834  1.00  0.00    -0.237 OA
ATOM     74  O   UNL A   1      37.326  28.503  32.874  1.00  0.00    -0.744 OA
ENDBRANCH  68  71
ENDBRANCH  50  64
BRANCH  51  75
ATOM     75  C   UNL A   1      44.645  25.214  33.761  1.00  0.00     0.023 A 
ATOM     76  C   UNL A   1      43.478  24.833  34.454  1.00  0.00     0.012 A 
ATOM     77  C   UNL A   1      45.895  24.860  34.313  1.00  0.00     0.148 A 
ATOM     78  C   UNL A   1      43.552  24.072  35.627  1.00  0.00     0.002 A 
ATOM     79  C   UNL A   1      45.963  24.102  35.479  1.00  0.00     0.091 A 
ATOM     80  F   UNL A   1      47.011  25.178  33.643  1.00  0.00    -0.205 F 
ATOM     81  C   UNL A   1      44.792  23.694  36.130  1.00  0.00     0.022 A 
BRANCH  79  82
ATOM     82  S   UNL A   1      47.527  23.531  36.158  1.00  0.00     0.127 S 
ATOM     83  O   UNL A   1      48.215  24.791  36.439  1.00  0.00    -0.237 OA
ATOM     84  O   UNL A   1      47.087  22.795  37.340  1.00  0.00    -0.237 OA
ATOM     85  O   UNL A   1      48.143  22.731  35.107  1.00  0.00    -0.744 OA
ENDBRANCH  79  82
ENDBRANCH  51  75
BRANCH  63  86
ATOM     86  C   UNL A   1      45.725  28.504  28.547  1.00  0.00     0.023 A 
ATOM     87  C   UNL A   1      46.869  29.301  28.775  1.00  0.00     0.012 A 
ATOM     88  C   UNL A   1      45.891  27.276  27.887  1.00  0.00     0.148 A 
ATOM     89  C   UNL A   1      48.134  28.902  28.337  1.00  0.00     0.002 A 
ATOM     90  C   UNL A   1      47.159  26.858  27.494  1.00  0.00     0.091 A 
ATOM     91  F   UNL A   1      44.804  26.518  27.674  1.00  0.00    -0.205 F 
ATOM     92  C   UNL A   1      48.282  27.672  27.706  1.00  0.00     0.022 A 
BRANCH  90  93
ATOM     93  S   UNL A   1      47.430  25.227  26.797  1.00  0.00     0.127 S 
ATOM     94  O   UNL A   1      46.850  24.357  27.817  1.00  0.00    -0.237 OA
ATOM     95  O   UNL A   1      46.677  25.287  25.542  1.00  0.00    -0.237 OA
ATOM     96  O   UNL A   1      48.872  25.112  26.613  1.00  0.00    -0.744 OA
ENDBRANCH  90  93
ENDBRANCH  63  86
ENDBRANCH  37  38
ENDBRANCH  29  32
ENDBRANCH   1  28
TORSDOF 15
ENDMDL
MODEL 2
REMARK VINA RESULT:     -12.7      4.632     10.055
REMARK SMILES Cc1nc(-c2ccccc2Cl)nc2sc(C(=O)NCCCNC(=O)c3ccc(-c4c5nc(c(-c6cccc(S(=O)(=O)[O-])c6F)c6ccc([nH]6)c(-c6cccc(S(=O)(=O)[O-])c6F)c6nc(c(-c7cccc(S(=O)(=O)[O-])c7F)c7ccc4[nH]7)C=C6)C=C5)cc3)c(N)c12
REMARK SMILES IDX 21 1 20 2 19 3 18 4 16 5 17 6 15 8 1 9 2 10 3 11 90 12 4 13
REMARK SMILES IDX 13 14 88 15 12 16 14 17 5 18 6 19 10 20 7 21 9 22 11 23 8 24
REMARK SMILES IDX 89 25 22 28 23 29 24 31 25 32 26 33 87 34 27 35 86 36 28 37
REMARK SMILES IDX 29 38 30 39 80 40 31 41 85 42 79 43 81 44 32 45 84 46 78 47
REMARK SMILES IDX 77 48 33 50 65 51 45 52 64 53 46 54 49 55 63 56 82 57 47 58
REMARK SMILES IDX 48 59 62 61 83 62 50 63 34 64 35 65 43 66 36 67 38 68 44 69
REMARK SMILES IDX 37 70 39 71 40 72 41 73 42 74 66 75 67 76 75 77 68 78 70 79
REMARK SMILES IDX 76 80 69 81 71 82 72 83 73 84 74 85 51 86 52 87 60 88 53 89
REMARK SMILES IDX 55 90 61 91 54 92 56 93 57 94 58 95 59 96
REMARK H PARENT 18 7 89 26 89 27 22 30 81 49 49 60
REMARK Flexibility Score: inf
ROOT
ATOM      1  C   UNL A   1      32.508  31.990  26.984  1.00  0.00     0.118 C 
ENDROOT
BRANCH   1   2
ATOM      2  C   UNL A   1      31.380  31.312  26.241  1.00  0.00     0.042 C 
BRANCH   2   3
ATOM      3  C   UNL A   1      31.813  29.981  25.604  1.00  0.00     0.118 C 
BRANCH   3   4
ATOM      4  N   UNL A   1      31.433  29.853  24.199  1.00  0.00    -0.351 N 
ATOM      5  C   UNL A   1      31.286  28.732  23.398  1.00  0.00     0.263 C 
ATOM      6  O   UNL A   1      30.662  28.890  22.347  1.00  0.00    -0.268 OA
ATOM      7  H   UNL A   1      31.253  30.707  23.744  1.00  0.00     0.163 HD
BRANCH   5   8
ATOM      8  C   UNL A   1      31.772  27.420  23.808  1.00  0.00     0.118 A 
ATOM      9  C   UNL A   1      30.756  23.745  26.491  1.00  0.00     0.067 C 
ATOM     10  C   UNL A   1      31.992  24.244  25.809  1.00  0.00     0.052 A 
ATOM     11  N   UNL A   1      33.147  23.534  26.028  1.00  0.00    -0.233 NA
ATOM     12  C   UNL A   1      32.044  25.386  24.983  1.00  0.00     0.056 A 
ATOM     13  C   UNL A   1      34.266  23.890  25.368  1.00  0.00     0.162 A 
ATOM     14  C   UNL A   1      33.243  25.555  24.320  1.00  0.00     0.130 A 
ATOM     15  C   UNL A   1      31.161  26.478  24.635  1.00  0.00     0.067 A 
ATOM     16  N   UNL A   1      34.369  24.864  24.471  1.00  0.00    -0.217 NA
ATOM     17  S   UNL A   1      33.187  26.744  23.147  1.00  0.00    -0.108 S 
BRANCH  13  18
ATOM     18  C   UNL A   1      35.535  23.212  25.607  1.00  0.00     0.038 A 
ATOM     19  C   UNL A   1      36.653  23.988  25.995  1.00  0.00     0.013 A 
ATOM     20  C   UNL A   1      35.752  21.876  25.253  1.00  0.00     0.052 A 
ATOM     21  C   UNL A   1      37.943  23.458  25.993  1.00  0.00     0.001 A 
ATOM     22  C   UNL A   1      37.048  21.345  25.249  1.00  0.00     0.021 A 
ATOM     23  Cl  UNL A   1      34.469  20.847  24.715  1.00  0.00    -0.084 Cl
ATOM     24  C   UNL A   1      38.142  22.136  25.607  1.00  0.00     0.002 A 
ENDBRANCH  13  18
BRANCH  15  25
ATOM     25  N   UNL A   1      29.907  26.646  25.109  1.00  0.00    -0.397 N 
ATOM     26  H   UNL A   1      29.278  25.890  25.117  1.00  0.00     0.156 HD
ATOM     27  H   UNL A   1      29.622  27.526  25.446  1.00  0.00     0.156 HD
ENDBRANCH  15  25
ENDBRANCH   5   8
ENDBRANCH   3   4
ENDBRANCH   2   3
ENDBRANCH   1   2
BRANCH   1  28
ATOM     28  N   UNL A   1      32.235  33.406  27.249  1.00  0.00    -0.352 N 
ATOM     29  C   UNL A   1      32.859  34.240  28.165  1.00  0.00     0.251 C 
ATOM     30  H   UNL A   1      31.520  33.816  26.711  1.00  0.00     0.163 HD
ATOM     31  O   UNL A   1      32.350  35.287  28.515  1.00  0.00    -0.269 OA
BRANCH  29  32
ATOM     32  C   UNL A   1      34.165  33.814  28.700  1.00  0.00     0.039 A 
ATOM     33  C   UNL A   1      34.292  33.166  29.933  1.00  0.00     0.014 A 
ATOM     34  C   UNL A   1      35.273  34.033  27.892  1.00  0.00     0.014 A 
ATOM     35  C   UNL A   1      35.543  32.676  30.303  1.00  0.00     0.010 A 
ATOM     36  C   UNL A   1      36.426  33.352  28.142  1.00  0.00     0.010 A 
ATOM     37  C   UNL A   1      36.599  32.768  29.390  1.00  0.00    -0.014 A 
BRANCH  37  38
ATOM     38  C   UNL A   1      37.926  32.240  29.663  1.00  0.00     0.031 A 
ATOM     39  C   UNL A   1      38.150  30.831  29.246  1.00  0.00     0.074 A 
ATOM     40  C   UNL A   1      38.937  33.087  29.963  1.00  0.00     0.049 A 
ATOM     41  N   UNL A   1      38.474  29.826  29.990  1.00  0.00    -0.248 NA
ATOM     42  C   UNL A   1      37.869  30.469  27.847  1.00  0.00     0.031 C 
ATOM     43  C   UNL A   1      38.893  34.560  30.031  1.00  0.00     0.029 A 
ATOM     44  N   UNL A   1      40.264  32.829  30.073  1.00  0.00    -0.354 N 
ATOM     45  C   UNL A   1      38.651  28.753  29.117  1.00  0.00     0.074 A 
ATOM     46  C   UNL A   1      38.066  29.150  27.865  1.00  0.00     0.031 C 
ATOM     47  C   UNL A   1      40.140  35.054  29.882  1.00  0.00     0.029 A 
ATOM     48  C   UNL A   1      41.077  33.949  29.903  1.00  0.00     0.049 A 
ATOM     49  H   UNL A   1      40.621  31.931  30.256  1.00  0.00     0.167 HD
ATOM     50  C   UNL A   1      39.481  27.714  29.420  1.00  0.00     0.034 A 
ATOM     51  C   UNL A   1      42.419  33.946  29.728  1.00  0.00     0.034 A 
ATOM     52  C   UNL A   1      39.860  27.737  30.811  1.00  0.00     0.049 A 
ATOM     53  C   UNL A   1      42.910  32.634  30.207  1.00  0.00     0.074 A 
ATOM     54  C   UNL A   1      39.180  27.670  32.010  1.00  0.00     0.029 A 
ATOM     55  N   UNL A   1      41.098  28.257  31.108  1.00  0.00    -0.354 N 
ATOM     56  N   UNL A   1      42.843  32.249  31.450  1.00  0.00    -0.248 NA
ATOM     57  C   UNL A   1      43.076  31.573  29.229  1.00  0.00     0.031 C 
ATOM     58  C   UNL A   1      39.856  28.591  32.866  1.00  0.00     0.029 A 
ATOM     59  C   UNL A   1      40.944  29.116  32.166  1.00  0.00     0.049 A 
ATOM     60  H   UNL A   1      41.941  28.049  30.646  1.00  0.00     0.167 HD
ATOM     61  C   UNL A   1      42.489  30.907  31.376  1.00  0.00     0.074 A 
ATOM     62  C   UNL A   1      42.768  30.521  29.993  1.00  0.00     0.031 C 
ATOM     63  C   UNL A   1      41.726  30.323  32.348  1.00  0.00     0.034 A 
BRANCH  50  64
ATOM     64  C   UNL A   1      40.216  26.856  28.416  1.00  0.00     0.023 A 
ATOM     65  C   UNL A   1      40.051  25.455  28.514  1.00  0.00     0.012 A 
ATOM     66  C   UNL A   1      41.228  27.316  27.542  1.00  0.00     0.148 A 
ATOM     67  C   UNL A   1      40.868  24.565  27.807  1.00  0.00     0.002 A 
ATOM     68  C   UNL A   1      41.976  26.431  26.772  1.00  0.00     0.091 A 
ATOM     69  F   UNL A   1      41.578  28.606  27.542  1.00  0.00    -0.205 F 
ATOM     70  C   UNL A   1      41.822  25.052  26.924  1.00  0.00     0.022 A 
BRANCH  68  71
ATOM     71  S   UNL A   1      43.168  27.011  25.558  1.00  0.00     0.127 S 
ATOM     72  O   UNL A   1      44.145  27.689  26.405  1.00  0.00    -0.237 OA
ATOM     73  O   UNL A   1      43.629  25.755  24.965  1.00  0.00    -0.237 OA
ATOM     74  O   UNL A   1      42.409  27.855  24.645  1.00  0.00    -0.744 OA
ENDBRANCH  68  71
ENDBRANCH  50  64
BRANCH  51  75
ATOM     75  C   UNL A   1      43.277  34.848  28.925  1.00  0.00     0.023 A 
ATOM     76  C   UNL A   1      43.441  34.592  27.549  1.00  0.00     0.012 A 
ATOM     77  C   UNL A   1      43.665  36.112  29.421  1.00  0.00     0.148 A 
ATOM     78  C   UNL A   1      43.922  35.582  26.684  1.00  0.00     0.002 A 
ATOM     79  C   UNL A   1      44.140  37.094  28.556  1.00  0.00     0.091 A 
ATOM     80  F   UNL A   1      43.474  36.385  30.718  1.00  0.00    -0.205 F 
ATOM     81  C   UNL A   1      44.256  36.837  27.183  1.00  0.00     0.022 A 
BRANCH  79  82
ATOM     82  S   UNL A   1      44.541  38.754  29.119  1.00  0.00     0.127 S 
ATOM     83  O   UNL A   1      44.784  39.453  27.857  1.00  0.00    -0.237 OA
ATOM     84  O   UNL A   1      43.313  39.139  29.808  1.00  0.00    -0.237 OA
ATOM     85  O   UNL A   1      45.721  38.609  29.961  1.00  0.00    -0.744 OA
ENDBRANCH  79  82
ENDBRANCH  51  75
BRANCH  63  86
ATOM     86  C   UNL A   1      41.451  31.120  33.610  1.00  0.00     0.023 A 
ATOM     87  C   UNL A   1      42.404  31.248  34.645  1.00  0.00     0.012 A 
ATOM     88  C   UNL A   1      40.280  31.890  33.684  1.00  0.00     0.148 A 
ATOM     89  C   UNL A   1      42.186  32.095  35.734  1.00  0.00     0.002 A 
ATOM     90  C   UNL A   1      40.086  32.770  34.745  1.00  0.00     0.091 A 
ATOM     91  F   UNL A   1      39.377  31.770  32.698  1.00  0.00    -0.205 F 
ATOM     92  C   UNL A   1      41.031  32.867  35.779  1.00  0.00     0.022 A 
BRANCH  90  93
ATOM     93  S   UNL A   1      38.682  33.886  34.789  1.00  0.00     0.127 S 
ATOM     94  O   UNL A   1      38.905  34.610  36.038  1.00  0.00    -0.237 OA
ATOM     95  O   UNL A   1      38.872  34.685  33.577  1.00  0.00    -0.237 OA
ATOM     96  O   UNL A   1      37.500  33.034  34.754  1.00  0.00    -0.744 OA
ENDBRANCH  90  93
ENDBRANCH  63  86
ENDBRANCH  37  38
ENDBRANCH  29  32
ENDBRANCH   1  28
TORSDOF 15
ENDMDL
MODEL 3
REMARK VINA RESULT:     -12.5      4.627      9.856
REMARK SMILES Cc1nc(-c2ccccc2Cl)nc2sc(C(=O)NCCCNC(=O)c3ccc(-c4c5nc(c(-c6cccc(S(=O)(=O)[O-])c6F)c6ccc([nH]6)c(-c6cccc(S(=O)(=O)[O-])c6F)c6nc(c(-c7cccc(S(=O)(=O)[O-])c7F)c7ccc4[nH]7)C=C6)C=C5)cc3)c(N)c12
REMARK SMILES IDX 21 1 20 2 19 3 18 4 16 5 17 6 15 8 1 9 2 10 3 11 90 12 4 13
REMARK SMILES IDX 13 14 88 15 12 16 14 17 5 18 6 19 10 20 7 21 9 22 11 23 8 24
REMARK SMILES IDX 89 25 22 28 23 29 24 31 25 32 26 33 87 34 27 35 86 36 28 37
REMARK SMILES IDX 29 38 30 39 80 40 31 41 85 42 79 43 81 44 32 45 84 46 78 47
REMARK SMILES IDX 77 48 33 50 65 51 45 52 64 53 46 54 49 55 63 56 82 57 47 58
REMARK SMILES IDX 48 59 62 61 83 62 50 63 34 64 35 65 43 66 36 67 38 68 44 69
REMARK SMILES IDX 37 70 39 71 40 72 41 73 42 74 66 75 67 76 75 77 68 78 70 79
REMARK SMILES IDX 76 80 69 81 71 82 72 83 73 84 74 85 51 86 52 87 60 88 53 89
REMARK SMILES IDX 55 90 61 91 54 92 56 93 57 94 58 95 59 96
REMARK H PARENT 18 7 89 26 89 27 22 30 81 49 49 60
REMARK Flexibility Score: inf
ROOT
ATOM      1  C   UNL A   1      32.518  31.913  27.132  1.00  0.00     0.118 C 
ENDROOT
BRANCH   1   2
ATOM      2  C   UNL A   1      31.407  31.220  26.375  1.00  0.00     0.042 C 
BRANCH   2   3
ATOM      3  C   UNL A   1      31.879  29.922  25.700  1.00  0.00     0.118 C 
BRANCH   3   4
ATOM      4  N   UNL A   1      31.461  29.801  24.306  1.00  0.00    -0.351 N 
ATOM      5  C   UNL A   1      31.298  28.684  23.501  1.00  0.00     0.263 C 
ATOM      6  O   UNL A   1      30.644  28.846  22.469  1.00  0.00    -0.268 OA
ATOM      7  H   UNL A   1      31.263  30.657  23.862  1.00  0.00     0.163 HD
BRANCH   5   8
ATOM      8  C   UNL A   1      31.803  27.373  23.888  1.00  0.00     0.118 A 
ATOM      9  C   UNL A   1      30.827  23.624  26.482  1.00  0.00     0.067 C 
ATOM     10  C   UNL A   1      32.061  24.159  25.823  1.00  0.00     0.052 A 
ATOM     11  N   UNL A   1      33.226  23.465  26.038  1.00  0.00    -0.233 NA
ATOM     12  C   UNL A   1      32.101  25.320  25.022  1.00  0.00     0.056 A 
ATOM     13  C   UNL A   1      34.345  23.855  25.397  1.00  0.00     0.162 A 
ATOM     14  C   UNL A   1      33.303  25.523  24.375  1.00  0.00     0.130 A 
ATOM     15  C   UNL A   1      31.202  26.403  24.689  1.00  0.00     0.067 A 
ATOM     16  N   UNL A   1      34.439  24.849  24.522  1.00  0.00    -0.217 NA
ATOM     17  S   UNL A   1      33.236  26.737  23.227  1.00  0.00    -0.108 S 
BRANCH  13  18
ATOM     18  C   UNL A   1      35.624  23.195  25.634  1.00  0.00     0.038 A 
ATOM     19  C   UNL A   1      36.730  23.985  26.024  1.00  0.00     0.013 A 
ATOM     20  C   UNL A   1      35.859  21.862  25.276  1.00  0.00     0.052 A 
ATOM     21  C   UNL A   1      38.028  23.473  26.021  1.00  0.00     0.001 A 
ATOM     22  C   UNL A   1      37.163  21.350  25.271  1.00  0.00     0.021 A 
ATOM     23  Cl  UNL A   1      34.591  20.817  24.735  1.00  0.00    -0.084 Cl
ATOM     24  C   UNL A   1      38.245  22.156  25.630  1.00  0.00     0.002 A 
ENDBRANCH  13  18
BRANCH  15  25
ATOM     25  N   UNL A   1      29.940  26.539  25.154  1.00  0.00    -0.397 N 
ATOM     26  H   UNL A   1      29.727  27.250  25.799  1.00  0.00     0.156 HD
ATOM     27  H   UNL A   1      29.234  25.925  24.847  1.00  0.00     0.156 HD
ENDBRANCH  15  25
ENDBRANCH   5   8
ENDBRANCH   3   4
ENDBRANCH   2   3
ENDBRANCH   1   2
BRANCH   1  28
ATOM     28  N   UNL A   1      32.248  33.339  27.344  1.00  0.00    -0.352 N 
ATOM     29  C   UNL A   1      32.888  34.209  28.215  1.00  0.00     0.251 C 
ATOM     30  H   UNL A   1      31.524  33.727  26.802  1.00  0.00     0.163 HD
ATOM     31  O   UNL A   1      32.384  35.270  28.530  1.00  0.00    -0.269 OA
BRANCH  29  32
ATOM     32  C   UNL A   1      34.203  33.805  28.745  1.00  0.00     0.039 A 
ATOM     33  C   UNL A   1      34.358  33.267  30.026  1.00  0.00     0.014 A 
ATOM     34  C   UNL A   1      35.287  33.927  27.886  1.00  0.00     0.014 A 
ATOM     35  C   UNL A   1      35.611  32.785  30.399  1.00  0.00     0.010 A 
ATOM     36  C   UNL A   1      36.434  33.247  28.159  1.00  0.00     0.010 A 
ATOM     37  C   UNL A   1      36.638  32.773  29.449  1.00  0.00    -0.014 A 
BRANCH  37  38
ATOM     38  C   UNL A   1      37.963  32.244  29.726  1.00  0.00     0.031 A 
ATOM     39  C   UNL A   1      38.192  30.838  29.299  1.00  0.00     0.074 A 
ATOM     40  C   UNL A   1      38.972  33.089  30.040  1.00  0.00     0.049 A 
ATOM     41  N   UNL A   1      38.510  29.827  30.037  1.00  0.00    -0.248 NA
ATOM     42  C   UNL A   1      37.920  30.487  27.895  1.00  0.00     0.031 C 
ATOM     43  C   UNL A   1      38.927  34.560  30.120  1.00  0.00     0.029 A 
ATOM     44  N   UNL A   1      40.298  32.830  30.157  1.00  0.00    -0.354 N 
ATOM     45  C   UNL A   1      38.694  28.761  29.156  1.00  0.00     0.074 A 
ATOM     46  C   UNL A   1      38.117  29.168  27.904  1.00  0.00     0.031 C 
ATOM     47  C   UNL A   1      40.175  35.056  29.984  1.00  0.00     0.029 A 
ATOM     48  C   UNL A   1      41.112  33.952  30.002  1.00  0.00     0.049 A 
ATOM     49  H   UNL A   1      40.655  31.930  30.335  1.00  0.00     0.167 HD
ATOM     50  C   UNL A   1      39.522  27.721  29.456  1.00  0.00     0.034 A 
ATOM     51  C   UNL A   1      42.455  33.951  29.836  1.00  0.00     0.034 A 
ATOM     52  C   UNL A   1      39.893  27.732  30.850  1.00  0.00     0.049 A 
ATOM     53  C   UNL A   1      42.944  32.635  30.308  1.00  0.00     0.074 A 
ATOM     54  C   UNL A   1      39.204  27.654  32.044  1.00  0.00     0.029 A 
ATOM     55  N   UNL A   1      41.127  28.249  31.160  1.00  0.00    -0.354 N 
ATOM     56  N   UNL A   1      42.868  32.240  31.547  1.00  0.00    -0.248 NA
ATOM     57  C   UNL A   1      43.117  31.583  29.321  1.00  0.00     0.031 C 
ATOM     58  C   UNL A   1      39.874  28.568  32.912  1.00  0.00     0.029 A 
ATOM     59  C   UNL A   1      40.967  29.099  32.224  1.00  0.00     0.049 A 
ATOM     60  H   UNL A   1      41.974  28.045  30.702  1.00  0.00     0.167 HD
ATOM     61  C   UNL A   1      42.515  30.898  31.459  1.00  0.00     0.074 A 
ATOM     62  C   UNL A   1      42.804  30.524  30.075  1.00  0.00     0.031 C 
ATOM     63  C   UNL A   1      41.746  30.306  32.421  1.00  0.00     0.034 A 
BRANCH  50  64
ATOM     64  C   UNL A   1      40.265  26.871  28.450  1.00  0.00     0.023 A 
ATOM     65  C   UNL A   1      40.118  25.468  28.549  1.00  0.00     0.012 A 
ATOM     66  C   UNL A   1      41.268  27.344  27.571  1.00  0.00     0.148 A 
ATOM     67  C   UNL A   1      40.944  24.588  27.840  1.00  0.00     0.002 A 
ATOM     68  C   UNL A   1      42.024  26.467  26.800  1.00  0.00     0.091 A 
ATOM     69  F   UNL A   1      41.600  28.638  27.569  1.00  0.00    -0.205 F 
ATOM     70  C   UNL A   1      41.888  25.086  26.953  1.00  0.00     0.022 A 
BRANCH  68  71
ATOM     71  S   UNL A   1      43.204  27.061  25.581  1.00  0.00     0.127 S 
ATOM     72  O   UNL A   1      43.685  25.811  25.001  1.00  0.00    -0.237 OA
ATOM     73  O   UNL A   1      42.350  27.863  24.702  1.00  0.00    -0.237 OA
ATOM     74  O   UNL A   1      44.178  27.841  26.334  1.00  0.00    -0.744 OA
ENDBRANCH  68  71
ENDBRANCH  50  64
BRANCH  51  75
ATOM     75  C   UNL A   1      43.318  34.860  29.047  1.00  0.00     0.023 A 
ATOM     76  C   UNL A   1      43.873  35.993  29.675  1.00  0.00     0.012 A 
ATOM     77  C   UNL A   1      43.849  34.460  27.801  1.00  0.00     0.148 A 
ATOM     78  C   UNL A   1      44.960  36.671  29.110  1.00  0.00     0.002 A 
ATOM     79  C   UNL A   1      44.931  35.136  27.245  1.00  0.00     0.091 A 
ATOM     80  F   UNL A   1      43.360  33.359  27.214  1.00  0.00    -0.205 F 
ATOM     81  C   UNL A   1      45.499  36.233  27.904  1.00  0.00     0.022 A 
BRANCH  79  82
ATOM     82  S   UNL A   1      45.714  34.597  25.718  1.00  0.00     0.127 S 
ATOM     83  O   UNL A   1      46.692  35.660  25.486  1.00  0.00    -0.237 OA
ATOM     84  O   UNL A   1      46.285  33.313  26.114  1.00  0.00    -0.237 OA
ATOM     85  O   UNL A   1      44.646  34.538  24.729  1.00  0.00    -0.744 OA
ENDBRANCH  79  82
ENDBRANCH  51  75
BRANCH  63  86
ATOM     86  C   UNL A   1      41.463  31.091  33.687  1.00  0.00     0.023 A 
ATOM     87  C   UNL A   1      42.406  31.206  34.732  1.00  0.00     0.012 A 
ATOM     88  C   UNL A   1      40.293  31.865  33.758  1.00  0.00     0.148 A 
ATOM     89  C   UNL A   1      42.181  32.044  35.827  1.00  0.00     0.002 A 
ATOM     90  C   UNL A   1      40.093  32.736  34.825  1.00  0.00     0.091 A 
ATOM     91  F   UNL A   1      39.400  31.758  32.763  1.00  0.00    -0.205 F 
ATOM     92  C   UNL A   1      41.028  32.821  35.869  1.00  0.00     0.022 A 
BRANCH  90  93
ATOM     93  S   UNL A   1      38.693  33.857  34.867  1.00  0.00     0.127 S 
ATOM     94  O   UNL A   1      38.966  34.644  36.066  1.00  0.00    -0.237 OA
ATOM     95  O   UNL A   1      38.835  34.591  33.607  1.00  0.00    -0.237 OA
ATOM     96  O   UNL A   1      37.509  33.008  34.923  1.00  0.00    -0.744 OA
ENDBRANCH  90  93
ENDBRANCH  63  86
ENDBRANCH  37  38
ENDBRANCH  29  32
ENDBRANCH   1  28
TORSDOF 15
ENDMDL
