MODEL 1
REMARK VINA RESULT:     -12.4      0.000      0.000
REMARK SMILES Cc1cc2c(c(C)c1Br)C=C(C(=O)NCCCNC(=O)c1ccc(-c3c4nc(c(-c5cccc(S(=O)(=O)[O-])c5F)c5ccc([nH]5)c(-c5cccc(S(=O)(=O)[O-])c5F)c5nc(c(-c6cccc(S(=O)(=O)[O-])c6F)c6ccc3[nH]6)C=C5)C=C4)cc1)[C@@H](C(F)(F)F)O2
REMARK SMILES IDX 17 1 16 2 15 3 14 4 12 5 13 6 11 8 1 9 2 10 3 11 8 12 4 13
REMARK SMILES IDX 6 14 9 15 5 16 89 17 7 18 10 19 84 20 85 21 86 22 87 23
REMARK SMILES IDX 88 24 18 25 19 26 20 28 21 29 22 30 83 31 23 32 82 33 24 34
REMARK SMILES IDX 25 35 26 36 76 37 27 38 81 39 75 40 77 41 28 42 80 43 74 44
REMARK SMILES IDX 73 45 29 47 61 48 41 49 60 50 42 51 45 52 59 53 78 54 43 55
REMARK SMILES IDX 44 56 58 58 79 59 46 60 30 61 31 62 39 63 32 64 34 65 40 66
REMARK SMILES IDX 33 67 35 68 36 69 37 70 38 71 62 72 63 73 71 74 64 75 66 76
REMARK SMILES IDX 72 77 65 78 67 79 68 80 69 81 70 82 47 83 48 84 56 85 49 86
REMARK SMILES IDX 51 87 57 88 50 89 52 90 53 91 54 92 55 93
REMARK H PARENT 14 7 18 27 77 46 45 57
REMARK Flexibility Score: inf
ROOT
ATOM      1  C   UNL A   1      33.552  29.308  24.934  1.00  0.00     0.118 C 
ENDROOT
BRANCH   1   2
ATOM      2  C   UNL A   1      32.853  28.927  23.636  1.00  0.00     0.042 C 
BRANCH   2   3
ATOM      3  C   UNL A   1      31.948  27.716  23.806  1.00  0.00     0.118 C 
BRANCH   3   4
ATOM      4  N   UNL A   1      31.604  27.481  25.200  1.00  0.00    -0.352 N 
ATOM      5  C   UNL A   1      31.558  26.427  26.047  1.00  0.00     0.251 C 
ATOM      6  O   UNL A   1      31.220  26.696  27.205  1.00  0.00    -0.270 OA
ATOM      7  H   UNL A   1      31.329  28.313  25.648  1.00  0.00     0.163 HD
BRANCH   5   8
ATOM      8  C   UNL A   1      31.892  25.019  25.684  1.00  0.00     0.067 C 
ATOM      9  C   UNL A   1      34.460  19.152  24.561  1.00  0.00     0.046 C 
ATOM     10  C   UNL A   1      34.216  20.597  24.908  1.00  0.00    -0.033 A 
ATOM     11  C   UNL A   1      32.890  21.034  24.947  1.00  0.00     0.051 A 
ATOM     12  C   UNL A   1      35.248  21.528  25.153  1.00  0.00     0.024 A 
ATOM     13  C   UNL A   1      32.590  22.359  25.234  1.00  0.00     0.128 A 
ATOM     14  C   UNL A   1      34.954  22.880  25.475  1.00  0.00    -0.026 A 
ATOM     15  Br  UNL A   1      37.060  20.925  25.026  1.00  0.00    -0.050 Br
ATOM     16  C   UNL A   1      33.596  23.288  25.515  1.00  0.00     0.021 A 
ATOM     17  O   UNL A   1      31.259  22.657  25.258  1.00  0.00    -0.475 OA
ATOM     18  C   UNL A   1      36.029  23.896  25.779  1.00  0.00     0.046 C 
ATOM     19  C   UNL A   1      33.171  24.646  25.873  1.00  0.00     0.026 C 
ATOM     20  C   UNL A   1      30.904  24.052  25.108  1.00  0.00     0.314 C 
BRANCH  20  21
ATOM     21  C   UNL A   1      30.588  24.343  23.627  1.00  0.00     0.429 C 
ATOM     22  F   UNL A   1      30.119  23.230  23.011  1.00  0.00    -0.167 F 
ATOM     23  F   UNL A   1      29.636  25.296  23.472  1.00  0.00    -0.167 F 
ATOM     24  F   UNL A   1      31.671  24.764  22.934  1.00  0.00    -0.167 F 
ENDBRANCH  20  21
ENDBRANCH   5   8
ENDBRANCH   3   4
ENDBRANCH   2   3
ENDBRANCH   1   2
BRANCH   1  25
ATOM     25  N   UNL A   1      32.902  30.444  25.586  1.00  0.00    -0.352 N 
ATOM     26  C   UNL A   1      33.159  31.032  26.798  1.00  0.00     0.251 C 
ATOM     27  H   UNL A   1      32.163  30.849  25.076  1.00  0.00     0.163 HD
ATOM     28  O   UNL A   1      32.325  31.785  27.299  1.00  0.00    -0.269 OA
BRANCH  26  29
ATOM     29  C   UNL A   1      34.432  30.764  27.492  1.00  0.00     0.039 A 
ATOM     30  C   UNL A   1      35.356  31.797  27.663  1.00  0.00     0.014 A 
ATOM     31  C   UNL A   1      34.720  29.477  27.954  1.00  0.00     0.014 A 
ATOM     32  C   UNL A   1      36.543  31.548  28.354  1.00  0.00     0.010 A 
ATOM     33  C   UNL A   1      35.847  29.258  28.731  1.00  0.00     0.010 A 
ATOM     34  C   UNL A   1      36.782  30.284  28.920  1.00  0.00    -0.014 A 
BRANCH  34  35
ATOM     35  C   UNL A   1      38.014  29.998  29.691  1.00  0.00     0.031 A 
ATOM     36  C   UNL A   1      39.054  29.071  29.119  1.00  0.00     0.074 A 
ATOM     37  C   UNL A   1      38.157  30.504  30.931  1.00  0.00     0.049 A 
ATOM     38  N   UNL A   1      40.165  28.647  29.660  1.00  0.00    -0.248 NA
ATOM     39  C   UNL A   1      38.798  28.523  27.774  1.00  0.00     0.031 C 
ATOM     40  C   UNL A   1      37.179  31.353  31.614  1.00  0.00     0.029 A 
ATOM     41  N   UNL A   1      39.171  30.364  31.843  1.00  0.00    -0.354 N 
ATOM     42  C   UNL A   1      40.721  27.767  28.742  1.00  0.00     0.074 A 
ATOM     43  C   UNL A   1      39.802  27.673  27.631  1.00  0.00     0.031 C 
ATOM     44  C   UNL A   1      37.651  31.677  32.829  1.00  0.00     0.029 A 
ATOM     45  C   UNL A   1      38.945  31.032  33.025  1.00  0.00     0.049 A 
ATOM     46  H   UNL A   1      39.983  29.836  31.670  1.00  0.00     0.167 HD
ATOM     47  C   UNL A   1      41.912  27.127  28.798  1.00  0.00     0.034 A 
ATOM     48  C   UNL A   1      39.699  31.115  34.139  1.00  0.00     0.034 A 
ATOM     49  C   UNL A   1      42.842  27.269  29.883  1.00  0.00     0.049 A 
ATOM     50  C   UNL A   1      41.031  30.414  34.167  1.00  0.00     0.074 A 
ATOM     51  C   UNL A   1      44.108  26.726  30.004  1.00  0.00     0.029 A 
ATOM     52  N   UNL A   1      42.608  28.005  31.034  1.00  0.00    -0.354 N 
ATOM     53  N   UNL A   1      41.606  29.701  33.228  1.00  0.00    -0.248 NA
ATOM     54  C   UNL A   1      41.833  30.553  35.390  1.00  0.00     0.031 C 
ATOM     55  C   UNL A   1      44.630  27.115  31.240  1.00  0.00     0.029 A 
ATOM     56  C   UNL A   1      43.701  27.924  31.877  1.00  0.00     0.049 A 
ATOM     57  H   UNL A   1      41.785  28.512  31.224  1.00  0.00     0.167 HD
ATOM     58  C   UNL A   1      42.846  29.331  33.735  1.00  0.00     0.074 A 
ATOM     59  C   UNL A   1      42.950  29.920  35.054  1.00  0.00     0.031 C 
ATOM     60  C   UNL A   1      43.806  28.558  33.166  1.00  0.00     0.034 A 
BRANCH  47  61
ATOM     61  C   UNL A   1      42.312  26.274  27.622  1.00  0.00     0.023 A 
ATOM     62  C   UNL A   1      43.146  26.821  26.623  1.00  0.00     0.012 A 
ATOM     63  C   UNL A   1      41.939  24.919  27.543  1.00  0.00     0.148 A 
ATOM     64  C   UNL A   1      43.577  26.042  25.552  1.00  0.00     0.002 A 
ATOM     65  C   UNL A   1      42.415  24.134  26.499  1.00  0.00     0.091 A 
ATOM     66  F   UNL A   1      41.130  24.422  28.490  1.00  0.00    -0.205 F 
ATOM     67  C   UNL A   1      43.224  24.697  25.498  1.00  0.00     0.022 A 
BRANCH  65  68
ATOM     68  S   UNL A   1      42.093  22.372  26.380  1.00  0.00     0.127 S 
ATOM     69  O   UNL A   1      42.662  21.882  27.636  1.00  0.00    -0.237 OA
ATOM     70  O   UNL A   1      40.632  22.332  26.317  1.00  0.00    -0.237 OA
ATOM     71  O   UNL A   1      42.769  21.918  25.174  1.00  0.00    -0.744 OA
ENDBRANCH  65  68
ENDBRANCH  47  61
BRANCH  48  72
ATOM     72  C   UNL A   1      39.245  31.964  35.278  1.00  0.00     0.023 A 
ATOM     73  C   UNL A   1      38.407  31.404  36.261  1.00  0.00     0.012 A 
ATOM     74  C   UNL A   1      39.685  33.295  35.429  1.00  0.00     0.148 A 
ATOM     75  C   UNL A   1      37.995  32.158  37.361  1.00  0.00     0.002 A 
ATOM     76  C   UNL A   1      39.320  34.021  36.557  1.00  0.00     0.091 A 
ATOM     77  F   UNL A   1      40.475  33.813  34.478  1.00  0.00    -0.205 F 
ATOM     78  C   UNL A   1      38.462  33.461  37.516  1.00  0.00     0.022 A 
BRANCH  76  79
ATOM     79  S   UNL A   1      39.986  35.650  36.915  1.00  0.00     0.127 S 
ATOM     80  O   UNL A   1      39.341  35.966  38.187  1.00  0.00    -0.237 OA
ATOM     81  O   UNL A   1      41.422  35.375  37.003  1.00  0.00    -0.237 OA
ATOM     82  O   UNL A   1      39.604  36.490  35.789  1.00  0.00    -0.744 OA
ENDBRANCH  76  79
ENDBRANCH  48  72
BRANCH  60  83
ATOM     83  C   UNL A   1      45.066  28.303  33.953  1.00  0.00     0.023 A 
ATOM     84  C   UNL A   1      46.132  29.220  33.872  1.00  0.00     0.012 A 
ATOM     85  C   UNL A   1      45.139  27.233  34.866  1.00  0.00     0.148 A 
ATOM     86  C   UNL A   1      47.263  29.061  34.672  1.00  0.00     0.002 A 
ATOM     87  C   UNL A   1      46.245  27.113  35.699  1.00  0.00     0.091 A 
ATOM     88  F   UNL A   1      44.118  26.365  34.917  1.00  0.00    -0.205 F 
ATOM     89  C   UNL A   1      47.312  28.019  35.594  1.00  0.00     0.022 A 
BRANCH  87  90
ATOM     90  S   UNL A   1      46.350  25.872  36.994  1.00  0.00     0.127 S 
ATOM     91  O   UNL A   1      47.693  26.106  37.521  1.00  0.00    -0.237 OA
ATOM     92  O   UNL A   1      45.264  26.271  37.891  1.00  0.00    -0.237 OA
ATOM     93  O   UNL A   1      46.153  24.587  36.339  1.00  0.00    -0.744 OA
ENDBRANCH  87  90
ENDBRANCH  60  83
ENDBRANCH  34  35
ENDBRANCH  26  29
ENDBRANCH   1  25
TORSDOF 14
ENDMDL
MODEL 2
REMARK VINA RESULT:     -12.3      1.952      8.032
REMARK SMILES Cc1cc2c(c(C)c1Br)C=C(C(=O)NCCCNC(=O)c1ccc(-c3c4nc(c(-c5cccc(S(=O)(=O)[O-])c5F)c5ccc([nH]5)c(-c5cccc(S(=O)(=O)[O-])c5F)c5nc(c(-c6cccc(S(=O)(=O)[O-])c6F)c6ccc3[nH]6)C=C5)C=C4)cc1)[C@@H](C(F)(F)F)O2
REMARK SMILES IDX 17 1 16 2 15 3 14 4 12 5 13 6 11 8 1 9 2 10 3 11 8 12 4 13
REMARK SMILES IDX 6 14 9 15 5 16 89 17 7 18 10 19 84 20 85 21 86 22 87 23
REMARK SMILES IDX 88 24 18 25 19 26 20 28 21 29 22 30 83 31 23 32 82 33 24 34
REMARK SMILES IDX 25 35 26 36 76 37 27 38 81 39 75 40 77 41 28 42 80 43 74 44
REMARK SMILES IDX 73 45 29 47 61 48 41 49 60 50 42 51 45 52 59 53 78 54 43 55
REMARK SMILES IDX 44 56 58 58 79 59 46 60 30 61 31 62 39 63 32 64 34 65 40 66
REMARK SMILES IDX 33 67 35 68 36 69 37 70 38 71 62 72 63 73 71 74 64 75 66 76
REMARK SMILES IDX 72 77 65 78 67 79 68 80 69 81 70 82 47 83 48 84 56 85 49 86
REMARK SMILES IDX 51 87 57 88 50 89 52 90 53 91 54 92 55 93
REMARK H PARENT 14 7 18 27 77 46 45 57
REMARK Flexibility Score: inf
ROOT
ATOM      1  C   UNL A   1      34.054  28.942  25.967  1.00  0.00     0.118 C 
ENDROOT
BRANCH   1   2
ATOM      2  C   UNL A   1      33.698  28.930  24.486  1.00  0.00     0.042 C 
BRANCH   2   3
ATOM      3  C   UNL A   1      32.428  28.142  24.207  1.00  0.00     0.118 C 
BRANCH   3   4
ATOM      4  N   UNL A   1      31.694  27.836  25.427  1.00  0.00    -0.352 N 
ATOM      5  C   UNL A   1      31.347  26.732  26.126  1.00  0.00     0.251 C 
ATOM      6  O   UNL A   1      30.717  26.944  27.168  1.00  0.00    -0.270 OA
ATOM      7  H   UNL A   1      31.359  28.655  25.860  1.00  0.00     0.163 HD
BRANCH   5   8
ATOM      8  C   UNL A   1      31.679  25.330  25.737  1.00  0.00     0.067 C 
ATOM      9  C   UNL A   1      34.226  19.471  24.533  1.00  0.00     0.046 C 
ATOM     10  C   UNL A   1      33.986  20.909  24.909  1.00  0.00    -0.033 A 
ATOM     11  C   UNL A   1      32.663  21.356  24.927  1.00  0.00     0.051 A 
ATOM     12  C   UNL A   1      35.019  21.825  25.201  1.00  0.00     0.024 A 
ATOM     13  C   UNL A   1      32.366  22.677  25.239  1.00  0.00     0.128 A 
ATOM     14  C   UNL A   1      34.727  23.171  25.549  1.00  0.00    -0.026 A 
ATOM     15  Br  UNL A   1      36.829  21.209  25.104  1.00  0.00    -0.050 Br
ATOM     16  C   UNL A   1      33.372  23.589  25.567  1.00  0.00     0.021 A 
ATOM     17  O   UNL A   1      31.037  22.984  25.238  1.00  0.00    -0.475 OA
ATOM     18  C   UNL A   1      35.803  24.170  25.904  1.00  0.00     0.046 C 
ATOM     19  C   UNL A   1      32.950  24.942  25.948  1.00  0.00     0.026 C 
ATOM     20  C   UNL A   1      30.697  24.386  25.114  1.00  0.00     0.314 C 
BRANCH  20  21
ATOM     21  C   UNL A   1      30.419  24.715  23.634  1.00  0.00     0.429 C 
ATOM     22  F   UNL A   1      29.474  25.682  23.528  1.00  0.00    -0.167 F 
ATOM     23  F   UNL A   1      31.515  25.179  22.985  1.00  0.00    -0.167 F 
ATOM     24  F   UNL A   1      29.982  23.643  22.933  1.00  0.00    -0.167 F 
ENDBRANCH  20  21
ENDBRANCH   5   8
ENDBRANCH   3   4
ENDBRANCH   2   3
ENDBRANCH   1   2
BRANCH   1  25
ATOM     25  N   UNL A   1      33.957  30.286  26.536  1.00  0.00    -0.352 N 
ATOM     26  C   UNL A   1      34.656  30.860  27.567  1.00  0.00     0.251 C 
ATOM     27  H   UNL A   1      33.285  30.869  26.113  1.00  0.00     0.163 HD
ATOM     28  O   UNL A   1      34.236  31.893  28.086  1.00  0.00    -0.269 OA
BRANCH  26  29
ATOM     29  C   UNL A   1      35.905  30.241  28.046  1.00  0.00     0.039 A 
ATOM     30  C   UNL A   1      37.071  30.361  27.286  1.00  0.00     0.014 A 
ATOM     31  C   UNL A   1      35.915  29.519  29.242  1.00  0.00     0.014 A 
ATOM     32  C   UNL A   1      38.260  29.806  27.761  1.00  0.00     0.010 A 
ATOM     33  C   UNL A   1      37.116  29.063  29.763  1.00  0.00     0.010 A 
ATOM     34  C   UNL A   1      38.297  29.180  29.018  1.00  0.00    -0.014 A 
BRANCH  34  35
ATOM     35  C   UNL A   1      39.551  28.614  29.568  1.00  0.00     0.031 A 
ATOM     36  C   UNL A   1      40.179  29.235  30.787  1.00  0.00     0.074 A 
ATOM     37  C   UNL A   1      40.161  27.598  28.926  1.00  0.00     0.049 A 
ATOM     38  N   UNL A   1      41.302  28.928  31.381  1.00  0.00    -0.248 NA
ATOM     39  C   UNL A   1      39.471  30.373  31.402  1.00  0.00     0.031 C 
ATOM     40  C   UNL A   1      39.680  26.968  27.695  1.00  0.00     0.029 A 
ATOM     41  N   UNL A   1      41.324  26.931  29.209  1.00  0.00    -0.354 N 
ATOM     42  C   UNL A   1      41.446  29.845  32.413  1.00  0.00     0.074 A 
ATOM     43  C   UNL A   1      40.328  30.756  32.335  1.00  0.00     0.031 C 
ATOM     44  C   UNL A   1      40.531  25.991  27.341  1.00  0.00     0.029 A 
ATOM     45  C   UNL A   1      41.632  25.948  28.298  1.00  0.00     0.049 A 
ATOM     46  H   UNL A   1      41.887  27.136  29.991  1.00  0.00     0.167 HD
ATOM     47  C   UNL A   1      42.403  29.899  33.369  1.00  0.00     0.034 A 
ATOM     48  C   UNL A   1      42.683  25.106  28.241  1.00  0.00     0.034 A 
ATOM     49  C   UNL A   1      43.482  28.956  33.468  1.00  0.00     0.049 A 
ATOM     50  C   UNL A   1      43.721  25.170  29.330  1.00  0.00     0.074 A 
ATOM     51  C   UNL A   1      44.461  28.874  34.442  1.00  0.00     0.029 A 
ATOM     52  N   UNL A   1      43.726  27.933  32.565  1.00  0.00    -0.354 N 
ATOM     53  N   UNL A   1      43.764  25.952  30.382  1.00  0.00    -0.248 NA
ATOM     54  C   UNL A   1      44.835  24.216  29.246  1.00  0.00     0.031 C 
ATOM     55  C   UNL A   1      45.311  27.815  34.113  1.00  0.00     0.029 A 
ATOM     56  C   UNL A   1      44.846  27.219  32.951  1.00  0.00     0.049 A 
ATOM     57  H   UNL A   1      43.182  27.743  31.766  1.00  0.00     0.167 HD
ATOM     58  C   UNL A   1      44.892  25.568  31.098  1.00  0.00     0.074 A 
ATOM     59  C   UNL A   1      45.489  24.465  30.373  1.00  0.00     0.031 C 
ATOM     60  C   UNL A   1      45.398  26.092  32.243  1.00  0.00     0.034 A 
BRANCH  47  61
ATOM     61  C   UNL A   1      42.287  30.965  34.426  1.00  0.00     0.023 A 
ATOM     62  C   UNL A   1      41.566  30.692  35.607  1.00  0.00     0.012 A 
ATOM     63  C   UNL A   1      42.954  32.198  34.295  1.00  0.00     0.148 A 
ATOM     64  C   UNL A   1      41.485  31.638  36.627  1.00  0.00     0.002 A 
ATOM     65  C   UNL A   1      42.912  33.118  35.337  1.00  0.00     0.091 A 
ATOM     66  F   UNL A   1      43.616  32.449  33.157  1.00  0.00    -0.205 F 
ATOM     67  C   UNL A   1      42.169  32.843  36.498  1.00  0.00     0.022 A 
BRANCH  65  68
ATOM     68  S   UNL A   1      43.827  34.662  35.311  1.00  0.00     0.127 S 
ATOM     69  O   UNL A   1      43.265  35.318  34.129  1.00  0.00    -0.237 OA
ATOM     70  O   UNL A   1      43.440  35.268  36.585  1.00  0.00    -0.237 OA
ATOM     71  O   UNL A   1      45.232  34.297  35.208  1.00  0.00    -0.744 OA
ENDBRANCH  65  68
ENDBRANCH  47  61
BRANCH  48  72
ATOM     72  C   UNL A   1      42.751  24.079  27.163  1.00  0.00     0.023 A 
ATOM     73  C   UNL A   1      43.538  24.331  26.023  1.00  0.00     0.012 A 
ATOM     74  C   UNL A   1      42.099  22.835  27.285  1.00  0.00     0.148 A 
ATOM     75  C   UNL A   1      43.657  23.375  25.013  1.00  0.00     0.002 A 
ATOM     76  C   UNL A   1      42.270  21.865  26.303  1.00  0.00     0.091 A 
ATOM     77  F   UNL A   1      41.348  22.617  28.372  1.00  0.00    -0.205 F 
ATOM     78  C   UNL A   1      43.035  22.139  25.158  1.00  0.00     0.022 A 
BRANCH  76  79
ATOM     79  S   UNL A   1      41.627  20.196  26.471  1.00  0.00     0.127 S 
ATOM     80  O   UNL A   1      40.188  20.417  26.368  1.00  0.00    -0.237 OA
ATOM     81  O   UNL A   1      42.233  19.524  25.320  1.00  0.00    -0.237 OA
ATOM     82  O   UNL A   1      42.101  19.718  27.763  1.00  0.00    -0.744 OA
ENDBRANCH  76  79
ENDBRANCH  48  72
BRANCH  60  83
ATOM     83  C   UNL A   1      46.656  25.483  32.804  1.00  0.00     0.023 A 
ATOM     84  C   UNL A   1      47.908  26.014  32.437  1.00  0.00     0.012 A 
ATOM     85  C   UNL A   1      46.592  24.477  33.788  1.00  0.00     0.148 A 
ATOM     86  C   UNL A   1      49.079  25.538  33.025  1.00  0.00     0.002 A 
ATOM     87  C   UNL A   1      47.757  24.045  34.409  1.00  0.00     0.091 A 
ATOM     88  F   UNL A   1      45.390  23.976  34.112  1.00  0.00    -0.205 F 
ATOM     89  C   UNL A   1      49.002  24.567  34.021  1.00  0.00     0.022 A 
BRANCH  87  90
ATOM     90  S   UNL A   1      47.750  22.882  35.778  1.00  0.00     0.127 S 
ATOM     91  O   UNL A   1      49.158  22.878  36.173  1.00  0.00    -0.237 OA
ATOM     92  O   UNL A   1      46.851  23.534  36.732  1.00  0.00    -0.237 OA
ATOM     93  O   UNL A   1      47.252  21.625  35.238  1.00  0.00    -0.744 OA
ENDBRANCH  87  90
ENDBRANCH  60  83
ENDBRANCH  34  35
ENDBRANCH  26  29
ENDBRANCH   1  25
TORSDOF 14
ENDMDL
MODEL 3
REMARK VINA RESULT:     -12.3      5.272      7.565
REMARK SMILES Cc1cc2c(c(C)c1Br)C=C(C(=O)NCCCNC(=O)c1ccc(-c3c4nc(c(-c5cccc(S(=O)(=O)[O-])c5F)c5ccc([nH]5)c(-c5cccc(S(=O)(=O)[O-])c5F)c5nc(c(-c6cccc(S(=O)(=O)[O-])c6F)c6ccc3[nH]6)C=C5)C=C4)cc1)[C@@H](C(F)(F)F)O2
REMARK SMILES IDX 17 1 16 2 15 3 14 4 12 5 13 6 11 8 1 9 2 10 3 11 8 12 4 13
REMARK SMILES IDX 6 14 9 15 5 16 89 17 7 18 10 19 84 20 85 21 86 22 87 23
REMARK SMILES IDX 88 24 18 25 19 26 20 28 21 29 22 30 83 31 23 32 82 33 24 34
REMARK SMILES IDX 25 35 26 36 76 37 27 38 81 39 75 40 77 41 28 42 80 43 74 44
REMARK SMILES IDX 73 45 29 47 61 48 41 49 60 50 42 51 45 52 59 53 78 54 43 55
REMARK SMILES IDX 44 56 58 58 79 59 46 60 30 61 31 62 39 63 32 64 34 65 40 66
REMARK SMILES IDX 33 67 35 68 36 69 37 70 38 71 62 72 63 73 71 74 64 75 66 76
REMARK SMILES IDX 72 77 65 78 67 79 68 80 69 81 70 82 47 83 48 84 56 85 49 86
REMARK SMILES IDX 51 87 57 88 50 89 52 90 53 91 54 92 55 93
REMARK H PARENT 14 7 18 27 77 46 45 57
REMARK Flexibility Score: inf
ROOT
ATOM      1  C   UNL A   1      37.424  22.289  25.166  1.00  0.00     0.118 C 
ENDROOT
BRANCH   1   2
ATOM      2  C   UNL A   1      36.296  21.654  24.364  1.00  0.00     0.042 C 
BRANCH   2   3
ATOM      3  C   UNL A   1      35.592  20.551  25.137  1.00  0.00     0.118 C 
BRANCH   3   4
ATOM      4  N   UNL A   1      34.260  20.280  24.616  1.00  0.00    -0.352 N 
ATOM      5  C   UNL A   1      33.069  20.919  24.557  1.00  0.00     0.251 C 
ATOM      6  O   UNL A   1      32.171  20.303  23.972  1.00  0.00    -0.270 OA
ATOM      7  H   UNL A   1      34.213  19.392  24.194  1.00  0.00     0.163 HD
BRANCH   5   8
ATOM      8  C   UNL A   1      32.792  22.272  25.120  1.00  0.00     0.067 C 
ATOM      9  C   UNL A   1      31.777  28.561  26.420  1.00  0.00     0.046 C 
ATOM     10  C   UNL A   1      32.120  27.238  25.789  1.00  0.00    -0.033 A 
ATOM     11  C   UNL A   1      31.798  26.082  26.504  1.00  0.00     0.051 A 
ATOM     12  C   UNL A   1      32.777  27.110  24.547  1.00  0.00     0.024 A 
ATOM     13  C   UNL A   1      32.108  24.827  25.997  1.00  0.00     0.128 A 
ATOM     14  C   UNL A   1      33.075  25.831  24.004  1.00  0.00    -0.026 A 
ATOM     15  Br  UNL A   1      33.271  28.707  23.615  1.00  0.00    -0.050 Br
ATOM     16  C   UNL A   1      32.725  24.678  24.752  1.00  0.00     0.021 A 
ATOM     17  O   UNL A   1      31.728  23.778  26.782  1.00  0.00    -0.475 OA
ATOM     18  C   UNL A   1      33.743  25.654  22.661  1.00  0.00     0.046 C 
ATOM     19  C   UNL A   1      32.948  23.308  24.275  1.00  0.00     0.026 C 
ATOM     20  C   UNL A   1      32.393  22.515  26.543  1.00  0.00     0.314 C 
BRANCH  20  21
ATOM     21  C   UNL A   1      33.576  22.368  27.521  1.00  0.00     0.429 C 
ATOM     22  F   UNL A   1      33.240  22.828  28.750  1.00  0.00    -0.167 F 
ATOM     23  F   UNL A   1      33.961  21.079  27.687  1.00  0.00    -0.167 F 
ATOM     24  F   UNL A   1      34.674  23.049  27.119  1.00  0.00    -0.167 F 
ENDBRANCH  20  21
ENDBRANCH   5   8
ENDBRANCH   3   4
ENDBRANCH   2   3
ENDBRANCH   1   2
BRANCH   1  25
ATOM     25  N   UNL A   1      38.290  21.280  25.775  1.00  0.00    -0.352 N 
ATOM     26  C   UNL A   1      39.509  21.416  26.390  1.00  0.00     0.251 C 
ATOM     27  H   UNL A   1      37.944  20.358  25.738  1.00  0.00     0.163 HD
ATOM     28  O   UNL A   1      40.209  20.423  26.579  1.00  0.00    -0.269 OA
BRANCH  26  29
ATOM     29  C   UNL A   1      39.971  22.748  26.822  1.00  0.00     0.039 A 
ATOM     30  C   UNL A   1      40.878  22.855  27.878  1.00  0.00     0.014 A 
ATOM     31  C   UNL A   1      39.485  23.896  26.192  1.00  0.00     0.014 A 
ATOM     32  C   UNL A   1      41.342  24.114  28.259  1.00  0.00     0.010 A 
ATOM     33  C   UNL A   1      40.026  25.134  26.499  1.00  0.00     0.010 A 
ATOM     34  C   UNL A   1      40.943  25.260  27.551  1.00  0.00    -0.014 A 
BRANCH  34  35
ATOM     35  C   UNL A   1      41.446  26.608  27.906  1.00  0.00     0.031 A 
ATOM     36  C   UNL A   1      42.870  26.981  27.590  1.00  0.00     0.074 A 
ATOM     37  C   UNL A   1      40.650  27.460  28.581  1.00  0.00     0.049 A 
ATOM     38  N   UNL A   1      43.515  28.081  27.874  1.00  0.00    -0.248 NA
ATOM     39  C   UNL A   1      43.689  25.973  26.891  1.00  0.00     0.031 C 
ATOM     40  C   UNL A   1      39.277  27.176  29.004  1.00  0.00     0.029 A 
ATOM     41  N   UNL A   1      40.886  28.728  29.044  1.00  0.00    -0.354 N 
ATOM     42  C   UNL A   1      44.812  27.888  27.418  1.00  0.00     0.074 A 
ATOM     43  C   UNL A   1      44.882  26.546  26.887  1.00  0.00     0.031 C 
ATOM     44  C   UNL A   1      38.785  28.249  29.646  1.00  0.00     0.029 A 
ATOM     45  C   UNL A   1      39.815  29.280  29.710  1.00  0.00     0.049 A 
ATOM     46  H   UNL A   1      41.739  29.200  28.913  1.00  0.00     0.167 HD
ATOM     47  C   UNL A   1      45.843  28.764  27.402  1.00  0.00     0.034 A 
ATOM     48  C   UNL A   1      39.681  30.482  30.304  1.00  0.00     0.034 A 
ATOM     49  C   UNL A   1      45.747  30.114  27.885  1.00  0.00     0.049 A 
ATOM     50  C   UNL A   1      40.834  31.449  30.251  1.00  0.00     0.074 A 
ATOM     51  C   UNL A   1      46.707  31.108  27.846  1.00  0.00     0.029 A 
ATOM     52  N   UNL A   1      44.628  30.659  28.494  1.00  0.00    -0.354 N 
ATOM     53  N   UNL A   1      42.008  31.300  29.686  1.00  0.00    -0.248 NA
ATOM     54  C   UNL A   1      40.636  32.759  30.886  1.00  0.00     0.031 C 
ATOM     55  C   UNL A   1      46.176  32.248  28.454  1.00  0.00     0.029 A 
ATOM     56  C   UNL A   1      44.874  31.973  28.846  1.00  0.00     0.049 A 
ATOM     57  H   UNL A   1      43.781  30.181  28.653  1.00  0.00     0.167 HD
ATOM     58  C   UNL A   1      42.678  32.504  29.873  1.00  0.00     0.074 A 
ATOM     59  C   UNL A   1      41.767  33.381  30.580  1.00  0.00     0.031 C 
ATOM     60  C   UNL A   1      43.938  32.847  29.506  1.00  0.00     0.034 A 
BRANCH  47  61
ATOM     61  C   UNL A   1      47.140  28.319  26.779  1.00  0.00     0.023 A 
ATOM     62  C   UNL A   1      48.224  27.971  27.613  1.00  0.00     0.012 A 
ATOM     63  C   UNL A   1      47.265  28.166  25.385  1.00  0.00     0.148 A 
ATOM     64  C   UNL A   1      49.419  27.505  27.069  1.00  0.00     0.002 A 
ATOM     65  C   UNL A   1      48.442  27.653  24.852  1.00  0.00     0.091 A 
ATOM     66  F   UNL A   1      46.233  28.522  24.608  1.00  0.00    -0.205 F 
ATOM     67  C   UNL A   1      49.523  27.333  25.692  1.00  0.00     0.022 A 
BRANCH  65  68
ATOM     68  S   UNL A   1      48.651  27.309  23.103  1.00  0.00     0.127 S 
ATOM     69  O   UNL A   1      50.078  27.575  22.918  1.00  0.00    -0.237 OA
ATOM     70  O   UNL A   1      48.279  25.896  23.022  1.00  0.00    -0.237 OA
ATOM     71  O   UNL A   1      47.755  28.218  22.403  1.00  0.00    -0.744 OA
ENDBRANCH  65  68
ENDBRANCH  47  61
BRANCH  48  72
ATOM     72  C   UNL A   1      38.376  30.863  30.916  1.00  0.00     0.023 A 
ATOM     73  C   UNL A   1      38.165  30.623  32.287  1.00  0.00     0.012 A 
ATOM     74  C   UNL A   1      37.373  31.516  30.172  1.00  0.00     0.148 A 
ATOM     75  C   UNL A   1      36.971  31.003  32.903  1.00  0.00     0.002 A 
ATOM     76  C   UNL A   1      36.211  31.945  30.805  1.00  0.00     0.091 A 
ATOM     77  F   UNL A   1      37.588  31.727  28.867  1.00  0.00    -0.205 F 
ATOM     78  C   UNL A   1      36.001  31.675  32.166  1.00  0.00     0.022 A 
BRANCH  76  79
ATOM     79  S   UNL A   1      34.970  32.943  29.973  1.00  0.00     0.127 S 
ATOM     80  O   UNL A   1      35.780  34.016  29.403  1.00  0.00    -0.237 OA
ATOM     81  O   UNL A   1      34.427  31.995  28.998  1.00  0.00    -0.237 OA
ATOM     82  O   UNL A   1      34.028  33.346  31.007  1.00  0.00    -0.744 OA
ENDBRANCH  76  79
ENDBRANCH  48  72
BRANCH  60  83
ATOM     83  C   UNL A   1      44.421  34.232  29.849  1.00  0.00     0.023 A 
ATOM     84  C   UNL A   1      45.171  34.435  31.024  1.00  0.00     0.012 A 
ATOM     85  C   UNL A   1      44.245  35.300  28.946  1.00  0.00     0.148 A 
ATOM     86  C   UNL A   1      45.719  35.686  31.306  1.00  0.00     0.002 A 
ATOM     87  C   UNL A   1      44.840  36.528  29.207  1.00  0.00     0.091 A 
ATOM     88  F   UNL A   1      43.516  35.087  27.840  1.00  0.00    -0.205 F 
ATOM     89  C   UNL A   1      45.567  36.725  30.391  1.00  0.00     0.022 A 
BRANCH  87  90
ATOM     90  S   UNL A   1      44.796  37.891  28.038  1.00  0.00     0.127 S 
ATOM     91  O   UNL A   1      43.363  38.177  27.969  1.00  0.00    -0.237 OA
ATOM     92  O   UNL A   1      45.589  38.912  28.724  1.00  0.00    -0.237 OA
ATOM     93  O   UNL A   1      45.389  37.388  26.807  1.00  0.00    -0.744 OA
ENDBRANCH  87  90
ENDBRANCH  60  83
ENDBRANCH  34  35
ENDBRANCH  26  29
ENDBRANCH   1  25
TORSDOF 14
ENDMDL
