MODEL 1
REMARK VINA RESULT:     -10.5      0.000      0.000
REMARK SMILES Nc1oc(-c2ccccc2)cc1C(=O)NCCCNC(=O)c1ccc(-c2c3nc(c(-c4cccc(S(=O)(=O)[O-])c4F)c4ccc([nH]4)c(-c4cccc(S(=O)(=O)[O-])c4F)c4nc(c(-c5cccc(S(=O)(=O)[O-])c5F)c5ccc2[nH]5)C=C4)C=C3)cc1
REMARK SMILES IDX 18 1 17 2 16 3 15 4 13 5 14 6 12 8 2 9 3 10 4 11 11 12 1 13
REMARK SMILES IDX 5 16 6 17 10 18 7 19 9 20 8 21 19 22 20 23 21 25 22 26 23 27
REMARK SMILES IDX 84 28 24 29 83 30 25 31 26 32 27 33 77 34 28 35 82 36 76 37
REMARK SMILES IDX 78 38 29 39 81 40 75 41 74 42 30 44 62 45 42 46 61 47 43 48
REMARK SMILES IDX 46 49 60 50 79 51 44 52 45 53 59 55 80 56 47 57 31 58 32 59
REMARK SMILES IDX 40 60 33 61 35 62 41 63 34 64 36 65 37 66 38 67 39 68 63 69
REMARK SMILES IDX 64 70 72 71 65 72 67 73 73 74 66 75 68 76 69 77 70 78 71 79
REMARK SMILES IDX 48 80 49 81 57 82 50 83 52 84 58 85 51 86 53 87 54 88 55 89
REMARK SMILES IDX 56 90
REMARK H PARENT 15 7 1 14 1 15 19 24 78 43 46 54
REMARK Flexibility Score: inf
ROOT
ATOM      1  C   UNL A   1      34.881  33.265  30.902  1.00  0.00     0.118 C 
ENDROOT
BRANCH   1   2
ATOM      2  C   UNL A   1      34.862  32.277  32.059  1.00  0.00     0.042 C 
BRANCH   2   3
ATOM      3  C   UNL A   1      36.254  32.069  32.665  1.00  0.00     0.118 C 
BRANCH   3   4
ATOM      4  N   UNL A   1      36.638  33.137  33.570  1.00  0.00    -0.352 N 
ATOM      5  C   UNL A   1      37.703  34.011  33.559  1.00  0.00     0.256 C 
ATOM      6  O   UNL A   1      37.676  34.932  34.370  1.00  0.00    -0.269 OA
ATOM      7  H   UNL A   1      36.026  33.259  34.331  1.00  0.00     0.163 HD
BRANCH   5   8
ATOM      8  C   UNL A   1      38.781  33.867  32.590  1.00  0.00     0.103 A 
ATOM      9  C   UNL A   1      39.734  32.858  32.633  1.00  0.00     0.203 A 
ATOM     10  O   UNL A   1      40.665  33.011  31.651  1.00  0.00    -0.440 OA
ATOM     11  C   UNL A   1      40.299  34.112  30.947  1.00  0.00     0.137 A 
ATOM     12  C   UNL A   1      39.120  34.618  31.435  1.00  0.00     0.067 A 
BRANCH   9  13
ATOM     13  N   UNL A   1      39.904  31.810  33.443  1.00  0.00    -0.369 N 
ATOM     14  H   UNL A   1      40.557  31.111  33.214  1.00  0.00     0.159 HD
ATOM     15  H   UNL A   1      39.374  31.736  34.270  1.00  0.00     0.159 HD
ENDBRANCH   9  13
BRANCH  11  16
ATOM     16  C   UNL A   1      41.174  34.580  29.895  1.00  0.00     0.017 A 
ATOM     17  C   UNL A   1      42.513  34.195  29.841  1.00  0.00     0.012 A 
ATOM     18  C   UNL A   1      40.627  35.331  28.843  1.00  0.00     0.012 A 
ATOM     19  C   UNL A   1      43.290  34.533  28.730  1.00  0.00     0.001 A 
ATOM     20  C   UNL A   1      41.404  35.675  27.739  1.00  0.00     0.001 A 
ATOM     21  C   UNL A   1      42.734  35.267  27.679  1.00  0.00     0.000 A 
ENDBRANCH  11  16
ENDBRANCH   5   8
ENDBRANCH   3   4
ENDBRANCH   2   3
ENDBRANCH   1   2
BRANCH   1  22
ATOM     22  N   UNL A   1      34.351  32.673  29.673  1.00  0.00    -0.352 N 
ATOM     23  C   UNL A   1      34.994  31.882  28.741  1.00  0.00     0.251 C 
ATOM     24  H   UNL A   1      33.404  32.867  29.483  1.00  0.00     0.163 HD
ATOM     25  O   UNL A   1      34.521  31.746  27.623  1.00  0.00    -0.269 OA
BRANCH  23  26
ATOM     26  C   UNL A   1      36.262  31.226  29.109  1.00  0.00     0.039 A 
ATOM     27  C   UNL A   1      36.302  29.846  29.310  1.00  0.00     0.014 A 
ATOM     28  C   UNL A   1      37.418  31.994  29.215  1.00  0.00     0.014 A 
ATOM     29  C   UNL A   1      37.534  29.237  29.521  1.00  0.00     0.010 A 
ATOM     30  C   UNL A   1      38.647  31.378  29.273  1.00  0.00     0.010 A 
ATOM     31  C   UNL A   1      38.714  30.003  29.461  1.00  0.00    -0.014 A 
BRANCH  31  32
ATOM     32  C   UNL A   1      40.009  29.327  29.438  1.00  0.00     0.031 A 
ATOM     33  C   UNL A   1      40.594  29.103  30.789  1.00  0.00     0.074 A 
ATOM     34  C   UNL A   1      40.582  28.787  28.339  1.00  0.00     0.049 A 
ATOM     35  N   UNL A   1      41.610  29.709  31.306  1.00  0.00    -0.248 NA
ATOM     36  C   UNL A   1      39.870  28.237  31.734  1.00  0.00     0.031 C 
ATOM     37  C   UNL A   1      40.008  28.634  26.998  1.00  0.00     0.029 A 
ATOM     38  N   UNL A   1      41.772  28.130  28.230  1.00  0.00    -0.354 N 
ATOM     39  C   UNL A   1      41.814  29.101  32.540  1.00  0.00     0.074 A 
ATOM     40  C   UNL A   1      40.606  28.376  32.838  1.00  0.00     0.031 C 
ATOM     41  C   UNL A   1      40.719  27.718  26.305  1.00  0.00     0.029 A 
ATOM     42  C   UNL A   1      41.891  27.356  27.078  1.00  0.00     0.049 A 
ATOM     43  H   UNL A   1      42.484  28.198  28.905  1.00  0.00     0.167 HD
ATOM     44  C   UNL A   1      43.063  29.008  33.075  1.00  0.00     0.034 A 
ATOM     45  C   UNL A   1      42.861  26.450  26.804  1.00  0.00     0.034 A 
ATOM     46  C   UNL A   1      43.980  29.927  32.448  1.00  0.00     0.049 A 
ATOM     47  C   UNL A   1      44.024  26.789  27.653  1.00  0.00     0.074 A 
ATOM     48  C   UNL A   1      43.978  31.287  32.201  1.00  0.00     0.029 A 
ATOM     49  N   UNL A   1      44.917  29.398  31.592  1.00  0.00    -0.354 N 
ATOM     50  N   UNL A   1      44.729  27.876  27.510  1.00  0.00    -0.248 NA
ATOM     51  C   UNL A   1      44.146  26.122  28.937  1.00  0.00     0.031 C 
ATOM     52  C   UNL A   1      44.511  31.418  30.884  1.00  0.00     0.029 A 
ATOM     53  C   UNL A   1      44.886  30.147  30.446  1.00  0.00     0.049 A 
ATOM     54  H   UNL A   1      45.501  28.626  31.770  1.00  0.00     0.167 HD
ATOM     55  C   UNL A   1      44.990  28.282  28.812  1.00  0.00     0.074 A 
ATOM     56  C   UNL A   1      44.705  27.110  29.639  1.00  0.00     0.031 C 
ATOM     57  C   UNL A   1      45.125  29.604  29.128  1.00  0.00     0.034 A 
BRANCH  44  58
ATOM     58  C   UNL A   1      43.550  27.826  33.881  1.00  0.00     0.023 A 
ATOM     59  C   UNL A   1      44.005  26.691  33.172  1.00  0.00     0.012 A 
ATOM     60  C   UNL A   1      43.332  27.665  35.270  1.00  0.00     0.148 A 
ATOM     61  C   UNL A   1      44.190  25.458  33.805  1.00  0.00     0.002 A 
ATOM     62  C   UNL A   1      43.614  26.466  35.910  1.00  0.00     0.091 A 
ATOM     63  F   UNL A   1      42.710  28.620  35.967  1.00  0.00    -0.205 F 
ATOM     64  C   UNL A   1      44.010  25.347  35.178  1.00  0.00     0.022 A 
BRANCH  62  65
ATOM     65  S   UNL A   1      43.470  26.304  37.694  1.00  0.00     0.127 S 
ATOM     66  O   UNL A   1      44.175  27.496  38.154  1.00  0.00    -0.237 OA
ATOM     67  O   UNL A   1      42.018  26.330  37.878  1.00  0.00    -0.237 OA
ATOM     68  O   UNL A   1      44.086  25.023  38.017  1.00  0.00    -0.744 OA
ENDBRANCH  62  65
ENDBRANCH  44  58
BRANCH  45  69
ATOM     69  C   UNL A   1      42.798  25.174  26.047  1.00  0.00     0.023 A 
ATOM     70  C   UNL A   1      43.805  24.882  25.102  1.00  0.00     0.012 A 
ATOM     71  C   UNL A   1      41.949  24.124  26.459  1.00  0.00     0.148 A 
ATOM     72  C   UNL A   1      43.993  23.580  24.624  1.00  0.00     0.002 A 
ATOM     73  C   UNL A   1      42.137  22.831  25.975  1.00  0.00     0.091 A 
ATOM     74  F   UNL A   1      41.023  24.368  27.395  1.00  0.00    -0.205 F 
ATOM     75  C   UNL A   1      43.168  22.552  25.069  1.00  0.00     0.022 A 
BRANCH  73  76
ATOM     76  S   UNL A   1      41.124  21.450  26.523  1.00  0.00     0.127 S 
ATOM     77  O   UNL A   1      41.712  20.330  25.788  1.00  0.00    -0.237 OA
ATOM     78  O   UNL A   1      41.380  21.440  27.961  1.00  0.00    -0.237 OA
ATOM     79  O   UNL A   1      39.762  21.777  26.123  1.00  0.00    -0.744 OA
ENDBRANCH  73  76
ENDBRANCH  45  69
BRANCH  57  80
ATOM     80  C   UNL A   1      45.281  30.605  28.010  1.00  0.00     0.023 A 
ATOM     81  C   UNL A   1      44.190  31.102  27.266  1.00  0.00     0.012 A 
ATOM     82  C   UNL A   1      46.547  31.188  27.823  1.00  0.00     0.148 A 
ATOM     83  C   UNL A   1      44.365  32.138  26.342  1.00  0.00     0.002 A 
ATOM     84  C   UNL A   1      46.708  32.250  26.942  1.00  0.00     0.091 A 
ATOM     85  F   UNL A   1      47.578  30.705  28.534  1.00  0.00    -0.205 F 
ATOM     86  C   UNL A   1      45.621  32.722  26.191  1.00  0.00     0.022 A 
BRANCH  84  87
ATOM     87  S   UNL A   1      48.271  33.120  26.803  1.00  0.00     0.127 S 
ATOM     88  O   UNL A   1      48.001  34.062  25.720  1.00  0.00    -0.237 OA
ATOM     89  O   UNL A   1      48.410  33.731  28.126  1.00  0.00    -0.237 OA
ATOM     90  O   UNL A   1      49.273  32.101  26.514  1.00  0.00    -0.744 OA
ENDBRANCH  84  87
ENDBRANCH  57  80
ENDBRANCH  31  32
ENDBRANCH  23  26
ENDBRANCH   1  22
TORSDOF 15
ENDMDL
MODEL 2
REMARK VINA RESULT:     -10.5      4.588      9.790
REMARK SMILES Nc1oc(-c2ccccc2)cc1C(=O)NCCCNC(=O)c1ccc(-c2c3nc(c(-c4cccc(S(=O)(=O)[O-])c4F)c4ccc([nH]4)c(-c4cccc(S(=O)(=O)[O-])c4F)c4nc(c(-c5cccc(S(=O)(=O)[O-])c5F)c5ccc2[nH]5)C=C4)C=C3)cc1
REMARK SMILES IDX 18 1 17 2 16 3 15 4 13 5 14 6 12 8 2 9 3 10 4 11 11 12 1 13
REMARK SMILES IDX 5 16 6 17 10 18 7 19 9 20 8 21 19 22 20 23 21 25 22 26 23 27
REMARK SMILES IDX 84 28 24 29 83 30 25 31 26 32 27 33 77 34 28 35 82 36 76 37
REMARK SMILES IDX 78 38 29 39 81 40 75 41 74 42 30 44 62 45 42 46 61 47 43 48
REMARK SMILES IDX 46 49 60 50 79 51 44 52 45 53 59 55 80 56 47 57 31 58 32 59
REMARK SMILES IDX 40 60 33 61 35 62 41 63 34 64 36 65 37 66 38 67 39 68 63 69
REMARK SMILES IDX 64 70 72 71 65 72 67 73 73 74 66 75 68 76 69 77 70 78 71 79
REMARK SMILES IDX 48 80 49 81 57 82 50 83 52 84 58 85 51 86 53 87 54 88 55 89
REMARK SMILES IDX 56 90
REMARK H PARENT 15 7 1 14 1 15 19 24 78 43 46 54
REMARK Flexibility Score: inf
ROOT
ATOM      1  C   UNL A   1      39.043  20.277  25.781  1.00  0.00     0.118 C 
ENDROOT
BRANCH   1   2
ATOM      2  C   UNL A   1      37.824  19.789  25.015  1.00  0.00     0.042 C 
BRANCH   2   3
ATOM      3  C   UNL A   1      36.585  20.648  25.293  1.00  0.00     0.118 C 
BRANCH   3   4
ATOM      4  N   UNL A   1      35.347  19.983  24.929  1.00  0.00    -0.352 N 
ATOM      5  C   UNL A   1      34.102  20.476  24.604  1.00  0.00     0.256 C 
ATOM      6  O   UNL A   1      33.282  19.674  24.167  1.00  0.00    -0.269 OA
ATOM      7  H   UNL A   1      35.407  19.001  24.912  1.00  0.00     0.163 HD
BRANCH   5   8
ATOM      8  C   UNL A   1      33.802  21.895  24.729  1.00  0.00     0.103 A 
ATOM      9  C   UNL A   1      32.977  22.432  25.709  1.00  0.00     0.203 A 
ATOM     10  O   UNL A   1      32.813  23.773  25.543  1.00  0.00    -0.440 OA
ATOM     11  C   UNL A   1      33.557  24.117  24.462  1.00  0.00     0.137 A 
ATOM     12  C   UNL A   1      34.235  23.022  23.984  1.00  0.00     0.067 A 
BRANCH   9  13
ATOM     13  N   UNL A   1      32.329  21.886  26.742  1.00  0.00    -0.369 N 
ATOM     14  H   UNL A   1      31.383  22.103  26.900  1.00  0.00     0.159 HD
ATOM     15  H   UNL A   1      32.800  21.266  27.346  1.00  0.00     0.159 HD
ENDBRANCH   9  13
BRANCH  11  16
ATOM     16  C   UNL A   1      33.489  25.480  23.982  1.00  0.00     0.017 A 
ATOM     17  C   UNL A   1      33.640  26.561  24.850  1.00  0.00     0.012 A 
ATOM     18  C   UNL A   1      33.397  25.709  22.601  1.00  0.00     0.012 A 
ATOM     19  C   UNL A   1      33.728  27.858  24.337  1.00  0.00     0.001 A 
ATOM     20  C   UNL A   1      33.476  27.003  22.091  1.00  0.00     0.001 A 
ATOM     21  C   UNL A   1      33.652  28.076  22.960  1.00  0.00     0.000 A 
ENDBRANCH  11  16
ENDBRANCH   5   8
ENDBRANCH   3   4
ENDBRANCH   2   3
ENDBRANCH   1   2
BRANCH   1  22
ATOM     22  N   UNL A   1      40.153  19.326  25.700  1.00  0.00    -0.352 N 
ATOM     23  C   UNL A   1      41.506  19.551  25.869  1.00  0.00     0.251 C 
ATOM     24  H   UNL A   1      39.901  18.397  25.496  1.00  0.00     0.163 HD
ATOM     25  O   UNL A   1      42.318  18.742  25.449  1.00  0.00    -0.269 OA
BRANCH  23  26
ATOM     26  C   UNL A   1      41.948  20.786  26.541  1.00  0.00     0.039 A 
ATOM     27  C   UNL A   1      42.278  21.913  25.787  1.00  0.00     0.014 A 
ATOM     28  C   UNL A   1      41.995  20.824  27.932  1.00  0.00     0.014 A 
ATOM     29  C   UNL A   1      42.559  23.102  26.450  1.00  0.00     0.010 A 
ATOM     30  C   UNL A   1      42.125  22.030  28.581  1.00  0.00     0.010 A 
ATOM     31  C   UNL A   1      42.441  23.169  27.851  1.00  0.00    -0.014 A 
BRANCH  31  32
ATOM     32  C   UNL A   1      42.496  24.469  28.516  1.00  0.00     0.031 A 
ATOM     33  C   UNL A   1      41.305  25.325  28.258  1.00  0.00     0.074 A 
ATOM     34  C   UNL A   1      43.429  24.838  29.421  1.00  0.00     0.049 A 
ATOM     35  N   UNL A   1      41.256  26.389  27.528  1.00  0.00    -0.248 NA
ATOM     36  C   UNL A   1      39.988  24.856  28.719  1.00  0.00     0.031 C 
ATOM     37  C   UNL A   1      44.481  24.015  30.028  1.00  0.00     0.029 A 
ATOM     38  N   UNL A   1      43.546  26.016  30.097  1.00  0.00    -0.354 N 
ATOM     39  C   UNL A   1      39.959  26.871  27.663  1.00  0.00     0.074 A 
ATOM     40  C   UNL A   1      39.182  25.790  28.212  1.00  0.00     0.031 C 
ATOM     41  C   UNL A   1      44.940  24.622  31.144  1.00  0.00     0.029 A 
ATOM     42  C   UNL A   1      44.352  25.944  31.231  1.00  0.00     0.049 A 
ATOM     43  H   UNL A   1      43.102  26.845  29.808  1.00  0.00     0.167 HD
ATOM     44  C   UNL A   1      39.698  28.205  27.584  1.00  0.00     0.034 A 
ATOM     45  C   UNL A   1      44.487  26.889  32.194  1.00  0.00     0.034 A 
ATOM     46  C   UNL A   1      40.783  28.924  26.966  1.00  0.00     0.049 A 
ATOM     47  C   UNL A   1      44.072  28.178  31.599  1.00  0.00     0.074 A 
ATOM     48  C   UNL A   1      41.485  28.796  25.781  1.00  0.00     0.029 A 
ATOM     49  N   UNL A   1      41.574  29.697  27.781  1.00  0.00    -0.354 N 
ATOM     50  N   UNL A   1      44.730  28.778  30.646  1.00  0.00    -0.248 NA
ATOM     51  C   UNL A   1      42.691  28.593  31.770  1.00  0.00     0.031 C 
ATOM     52  C   UNL A   1      42.844  29.045  26.136  1.00  0.00     0.029 A 
ATOM     53  C   UNL A   1      42.877  29.395  27.486  1.00  0.00     0.049 A 
ATOM     54  H   UNL A   1      41.263  30.348  28.451  1.00  0.00     0.167 HD
ATOM     55  C   UNL A   1      43.737  29.272  29.811  1.00  0.00     0.074 A 
ATOM     56  C   UNL A   1      42.512  29.226  30.608  1.00  0.00     0.031 C 
ATOM     57  C   UNL A   1      43.940  29.393  28.466  1.00  0.00     0.034 A 
BRANCH  44  58
ATOM     58  C   UNL A   1      38.649  28.910  28.414  1.00  0.00     0.023 A 
ATOM     59  C   UNL A   1      37.800  29.827  27.757  1.00  0.00     0.012 A 
ATOM     60  C   UNL A   1      38.631  28.925  29.829  1.00  0.00     0.148 A 
ATOM     61  C   UNL A   1      37.011  30.737  28.470  1.00  0.00     0.002 A 
ATOM     62  C   UNL A   1      37.772  29.760  30.531  1.00  0.00     0.091 A 
ATOM     63  F   UNL A   1      39.548  28.241  30.519  1.00  0.00    -0.205 F 
ATOM     64  C   UNL A   1      36.985  30.694  29.858  1.00  0.00     0.022 A 
BRANCH  62  65
ATOM     65  S   UNL A   1      37.650  29.682  32.321  1.00  0.00     0.127 S 
ATOM     66  O   UNL A   1      36.546  30.600  32.580  1.00  0.00    -0.237 OA
ATOM     67  O   UNL A   1      37.346  28.266  32.537  1.00  0.00    -0.237 OA
ATOM     68  O   UNL A   1      38.959  30.089  32.817  1.00  0.00    -0.744 OA
ENDBRANCH  62  65
ENDBRANCH  44  58
BRANCH  45  69
ATOM     69  C   UNL A   1      44.717  26.747  33.653  1.00  0.00     0.023 A 
ATOM     70  C   UNL A   1      45.911  27.249  34.215  1.00  0.00     0.012 A 
ATOM     71  C   UNL A   1      43.663  26.408  34.529  1.00  0.00     0.148 A 
ATOM     72  C   UNL A   1      46.030  27.456  35.595  1.00  0.00     0.002 A 
ATOM     73  C   UNL A   1      43.789  26.610  35.901  1.00  0.00     0.091 A 
ATOM     74  F   UNL A   1      42.504  25.980  34.011  1.00  0.00    -0.205 F 
ATOM     75  C   UNL A   1      44.965  27.149  36.436  1.00  0.00     0.022 A 
BRANCH  73  76
ATOM     76  S   UNL A   1      42.447  26.258  37.045  1.00  0.00     0.127 S 
ATOM     77  O   UNL A   1      41.422  27.209  36.615  1.00  0.00    -0.237 OA
ATOM     78  O   UNL A   1      42.151  24.860  36.743  1.00  0.00    -0.237 OA
ATOM     79  O   UNL A   1      42.984  26.520  38.375  1.00  0.00    -0.744 OA
ENDBRANCH  73  76
ENDBRANCH  45  69
BRANCH  57  80
ATOM     80  C   UNL A   1      45.345  29.265  27.929  1.00  0.00     0.023 A 
ATOM     81  C   UNL A   1      46.256  30.342  27.896  1.00  0.00     0.012 A 
ATOM     82  C   UNL A   1      45.809  27.977  27.609  1.00  0.00     0.148 A 
ATOM     83  C   UNL A   1      47.591  30.140  27.529  1.00  0.00     0.002 A 
ATOM     84  C   UNL A   1      47.147  27.771  27.295  1.00  0.00     0.091 A 
ATOM     85  F   UNL A   1      44.932  26.961  27.641  1.00  0.00    -0.205 F 
ATOM     86  C   UNL A   1      48.039  28.852  27.243  1.00  0.00     0.022 A 
BRANCH  84  87
ATOM     87  S   UNL A   1      47.804  26.121  27.043  1.00  0.00     0.127 S 
ATOM     88  O   UNL A   1      47.150  25.718  25.801  1.00  0.00    -0.237 OA
ATOM     89  O   UNL A   1      49.242  26.369  26.925  1.00  0.00    -0.237 OA
ATOM     90  O   UNL A   1      47.431  25.356  28.227  1.00  0.00    -0.744 OA
ENDBRANCH  84  87
ENDBRANCH  57  80
ENDBRANCH  31  32
ENDBRANCH  23  26
ENDBRANCH   1  22
TORSDOF 15
ENDMDL
MODEL 3
REMARK VINA RESULT:     -10.4      2.530      3.705
REMARK SMILES Nc1oc(-c2ccccc2)cc1C(=O)NCCCNC(=O)c1ccc(-c2c3nc(c(-c4cccc(S(=O)(=O)[O-])c4F)c4ccc([nH]4)c(-c4cccc(S(=O)(=O)[O-])c4F)c4nc(c(-c5cccc(S(=O)(=O)[O-])c5F)c5ccc2[nH]5)C=C4)C=C3)cc1
REMARK SMILES IDX 18 1 17 2 16 3 15 4 13 5 14 6 12 8 2 9 3 10 4 11 11 12 1 13
REMARK SMILES IDX 5 16 6 17 10 18 7 19 9 20 8 21 19 22 20 23 21 25 22 26 23 27
REMARK SMILES IDX 84 28 24 29 83 30 25 31 26 32 27 33 77 34 28 35 82 36 76 37
REMARK SMILES IDX 78 38 29 39 81 40 75 41 74 42 30 44 62 45 42 46 61 47 43 48
REMARK SMILES IDX 46 49 60 50 79 51 44 52 45 53 59 55 80 56 47 57 31 58 32 59
REMARK SMILES IDX 40 60 33 61 35 62 41 63 34 64 36 65 37 66 38 67 39 68 63 69
REMARK SMILES IDX 64 70 72 71 65 72 67 73 73 74 66 75 68 76 69 77 70 78 71 79
REMARK SMILES IDX 48 80 49 81 57 82 50 83 52 84 58 85 51 86 53 87 54 88 55 89
REMARK SMILES IDX 56 90
REMARK H PARENT 15 7 1 14 1 15 19 24 78 43 46 54
REMARK Flexibility Score: inf
ROOT
ATOM      1  C   UNL A   1      34.503  32.567  28.611  1.00  0.00     0.118 C 
ENDROOT
BRANCH   1   2
ATOM      2  C   UNL A   1      33.756  33.763  28.041  1.00  0.00     0.042 C 
BRANCH   2   3
ATOM      3  C   UNL A   1      34.488  35.083  28.310  1.00  0.00     0.118 C 
BRANCH   3   4
ATOM      4  N   UNL A   1      33.661  36.053  29.004  1.00  0.00    -0.352 N 
ATOM      5  C   UNL A   1      33.352  36.209  30.338  1.00  0.00     0.256 C 
ATOM      6  O   UNL A   1      32.759  37.236  30.655  1.00  0.00    -0.269 OA
ATOM      7  H   UNL A   1      33.245  36.723  28.414  1.00  0.00     0.163 HD
BRANCH   5   8
ATOM      8  C   UNL A   1      33.759  35.217  31.322  1.00  0.00     0.103 A 
ATOM      9  C   UNL A   1      32.972  34.817  32.394  1.00  0.00     0.203 A 
ATOM     10  O   UNL A   1      33.633  33.936  33.195  1.00  0.00    -0.440 OA
ATOM     11  C   UNL A   1      34.848  33.740  32.625  1.00  0.00     0.137 A 
ATOM     12  C   UNL A   1      34.938  34.438  31.446  1.00  0.00     0.067 A 
BRANCH   9  13
ATOM     13  N   UNL A   1      31.734  35.140  32.775  1.00  0.00    -0.369 N 
ATOM     14  H   UNL A   1      31.006  35.167  32.113  1.00  0.00     0.159 HD
ATOM     15  H   UNL A   1      31.548  35.351  33.719  1.00  0.00     0.159 HD
ENDBRANCH   9  13
BRANCH  11  16
ATOM     16  C   UNL A   1      35.814  32.920  33.323  1.00  0.00     0.017 A 
ATOM     17  C   UNL A   1      36.320  31.752  32.753  1.00  0.00     0.012 A 
ATOM     18  C   UNL A   1      36.340  33.381  34.540  1.00  0.00     0.012 A 
ATOM     19  C   UNL A   1      37.365  31.068  33.380  1.00  0.00     0.001 A 
ATOM     20  C   UNL A   1      37.376  32.693  35.169  1.00  0.00     0.001 A 
ATOM     21  C   UNL A   1      37.895  31.542  34.582  1.00  0.00     0.000 A 
ENDBRANCH  11  16
ENDBRANCH   5   8
ENDBRANCH   3   4
ENDBRANCH   2   3
ENDBRANCH   1   2
BRANCH   1  22
ATOM     22  N   UNL A   1      33.944  31.300  28.136  1.00  0.00    -0.352 N 
ATOM     23  C   UNL A   1      34.595  30.119  27.839  1.00  0.00     0.251 C 
ATOM     24  H   UNL A   1      32.967  31.289  28.011  1.00  0.00     0.163 HD
ATOM     25  O   UNL A   1      34.045  29.274  27.150  1.00  0.00    -0.269 OA
BRANCH  23  26
ATOM     26  C   UNL A   1      35.963  29.907  28.346  1.00  0.00     0.039 A 
ATOM     27  C   UNL A   1      36.163  29.475  29.657  1.00  0.00     0.014 A 
ATOM     28  C   UNL A   1      37.043  30.107  27.490  1.00  0.00     0.014 A 
ATOM     29  C   UNL A   1      37.452  29.152  30.065  1.00  0.00     0.010 A 
ATOM     30  C   UNL A   1      38.291  29.647  27.844  1.00  0.00     0.010 A 
ATOM     31  C   UNL A   1      38.513  29.200  29.141  1.00  0.00    -0.014 A 
BRANCH  31  32
ATOM     32  C   UNL A   1      39.808  28.630  29.503  1.00  0.00     0.031 A 
ATOM     33  C   UNL A   1      40.160  28.804  30.939  1.00  0.00     0.074 A 
ATOM     34  C   UNL A   1      40.572  27.863  28.693  1.00  0.00     0.049 A 
ATOM     35  N   UNL A   1      41.060  29.590  31.430  1.00  0.00    -0.248 NA
ATOM     36  C   UNL A   1      39.306  28.165  31.955  1.00  0.00     0.031 C 
ATOM     37  C   UNL A   1      40.237  27.330  27.368  1.00  0.00     0.029 A 
ATOM     38  N   UNL A   1      41.777  27.281  28.951  1.00  0.00    -0.354 N 
ATOM     39  C   UNL A   1      41.065  29.338  32.798  1.00  0.00     0.074 A 
ATOM     40  C   UNL A   1      39.841  28.635  33.083  1.00  0.00     0.031 C 
ATOM     41  C   UNL A   1      41.076  26.315  27.066  1.00  0.00     0.029 A 
ATOM     42  C   UNL A   1      42.108  26.245  28.082  1.00  0.00     0.049 A 
ATOM     43  H   UNL A   1      42.363  27.570  29.688  1.00  0.00     0.167 HD
ATOM     44  C   UNL A   1      42.207  29.471  33.527  1.00  0.00     0.034 A 
ATOM     45  C   UNL A   1      43.131  25.366  28.216  1.00  0.00     0.034 A 
ATOM     46  C   UNL A   1      43.196  30.254  32.831  1.00  0.00     0.049 A 
ATOM     47  C   UNL A   1      44.125  25.991  29.116  1.00  0.00     0.074 A 
ATOM     48  C   UNL A   1      43.205  31.501  32.233  1.00  0.00     0.029 A 
ATOM     49  N   UNL A   1      44.276  29.586  32.306  1.00  0.00    -0.354 N 
ATOM     50  N   UNL A   1      44.819  27.049  28.801  1.00  0.00    -0.248 NA
ATOM     51  C   UNL A   1      44.043  25.689  30.534  1.00  0.00     0.031 C 
ATOM     52  C   UNL A   1      43.950  31.322  31.029  1.00  0.00     0.029 A 
ATOM     53  C   UNL A   1      44.423  30.009  31.011  1.00  0.00     0.049 A 
ATOM     54  H   UNL A   1      44.839  28.928  32.773  1.00  0.00     0.167 HD
ATOM     55  C   UNL A   1      44.846  27.795  29.972  1.00  0.00     0.074 A 
ATOM     56  C   UNL A   1      44.452  26.861  31.026  1.00  0.00     0.031 C 
ATOM     57  C   UNL A   1      44.895  29.160  29.940  1.00  0.00     0.034 A 
BRANCH  44  58
ATOM     58  C   UNL A   1      42.577  28.573  34.686  1.00  0.00     0.023 A 
ATOM     59  C   UNL A   1      43.062  29.186  35.862  1.00  0.00     0.012 A 
ATOM     60  C   UNL A   1      42.731  27.169  34.587  1.00  0.00     0.148 A 
ATOM     61  C   UNL A   1      43.702  28.447  36.863  1.00  0.00     0.002 A 
ATOM     62  C   UNL A   1      43.276  26.429  35.628  1.00  0.00     0.091 A 
ATOM     63  F   UNL A   1      42.491  26.547  33.430  1.00  0.00    -0.205 F 
ATOM     64  C   UNL A   1      43.797  27.065  36.754  1.00  0.00     0.022 A 
BRANCH  62  65
ATOM     65  S   UNL A   1      43.346  24.635  35.560  1.00  0.00     0.127 S 
ATOM     66  O   UNL A   1      44.079  24.325  36.783  1.00  0.00    -0.237 OA
ATOM     67  O   UNL A   1      41.926  24.282  35.580  1.00  0.00    -0.237 OA
ATOM     68  O   UNL A   1      44.018  24.320  34.306  1.00  0.00    -0.744 OA
ENDBRANCH  62  65
ENDBRANCH  44  58
BRANCH  45  69
ATOM     69  C   UNL A   1      43.227  23.937  27.827  1.00  0.00     0.023 A 
ATOM     70  C   UNL A   1      42.302  23.014  28.359  1.00  0.00     0.012 A 
ATOM     71  C   UNL A   1      44.007  23.533  26.721  1.00  0.00     0.148 A 
ATOM     72  C   UNL A   1      42.121  21.753  27.777  1.00  0.00     0.002 A 
ATOM     73  C   UNL A   1      43.829  22.275  26.151  1.00  0.00     0.091 A 
ATOM     74  F   UNL A   1      44.852  24.413  26.169  1.00  0.00    -0.205 F 
ATOM     75  C   UNL A   1      42.876  21.388  26.667  1.00  0.00     0.022 A 
BRANCH  73  76
ATOM     76  S   UNL A   1      44.751  21.744  24.701  1.00  0.00     0.127 S 
ATOM     77  O   UNL A   1      44.302  20.360  24.545  1.00  0.00    -0.237 OA
ATOM     78  O   UNL A   1      44.262  22.665  23.679  1.00  0.00    -0.237 OA
ATOM     79  O   UNL A   1      46.157  21.879  25.058  1.00  0.00    -0.744 OA
ENDBRANCH  73  76
ENDBRANCH  45  69
BRANCH  57  80
ATOM     80  C   UNL A   1      45.215  29.845  28.635  1.00  0.00     0.023 A 
ATOM     81  C   UNL A   1      44.226  30.214  27.698  1.00  0.00     0.012 A 
ATOM     82  C   UNL A   1      46.536  30.282  28.431  1.00  0.00     0.148 A 
ATOM     83  C   UNL A   1      44.555  30.980  26.574  1.00  0.00     0.002 A 
ATOM     84  C   UNL A   1      46.850  31.084  27.340  1.00  0.00     0.091 A 
ATOM     85  F   UNL A   1      47.468  29.922  29.327  1.00  0.00    -0.205 F 
ATOM     86  C   UNL A   1      45.864  31.426  26.403  1.00  0.00     0.022 A 
BRANCH  84  87
ATOM     87  S   UNL A   1      48.486  31.790  27.140  1.00  0.00     0.127 S 
ATOM     88  O   UNL A   1      48.262  32.790  26.099  1.00  0.00    -0.237 OA
ATOM     89  O   UNL A   1      48.756  32.341  28.470  1.00  0.00    -0.237 OA
ATOM     90  O   UNL A   1      49.359  30.683  26.770  1.00  0.00    -0.744 OA
ENDBRANCH  84  87
ENDBRANCH  57  80
ENDBRANCH  31  32
ENDBRANCH  23  26
ENDBRANCH   1  22
TORSDOF 15
ENDMDL
