MODEL 1
REMARK VINA RESULT:     -10.8      0.000      0.000
REMARK SMILES CCOc1c(F)cccc1C(=O)NCCCNC(=O)c1ccc(-c2c3nc(c(-c4cccc(S(=O)(=O)[O-])c4F)c4ccc([nH]4)c(-c4cccc(S(=O)(=O)[O-])c4F)c4nc(c(-c5cccc(S(=O)(=O)[O-])c5F)c5ccc2[nH]5)C=C4)C=C3)cc1
REMARK SMILES IDX 15 1 14 2 13 3 11 4 12 5 10 7 4 8 5 9 6 10 7 11 9 12 8 13
REMARK SMILES IDX 3 14 2 15 1 16 16 17 17 18 18 19 19 21 20 22 21 23 82 24
REMARK SMILES IDX 22 25 81 26 23 27 24 28 25 29 75 30 26 31 80 32 74 33 76 34
REMARK SMILES IDX 27 35 79 36 73 37 72 38 28 40 60 41 40 42 59 43 41 44 44 45
REMARK SMILES IDX 58 46 77 47 42 48 43 49 57 51 78 52 45 53 29 54 30 55 38 56
REMARK SMILES IDX 31 57 33 58 39 59 32 60 34 61 35 62 36 63 37 64 61 65 62 66
REMARK SMILES IDX 70 67 63 68 65 69 71 70 64 71 66 72 67 73 68 74 69 75 46 76
REMARK SMILES IDX 47 77 55 78 48 79 50 80 56 81 49 82 51 83 52 84 53 85 54 86
REMARK H PARENT 13 6 17 20 76 39 44 50
REMARK Flexibility Score: inf
ROOT
ATOM      1  C   UNL A   1      33.569  29.147  23.793  1.00  0.00     0.042 C 
ENDROOT
BRANCH   1   2
ATOM      2  C   UNL A   1      32.612  28.790  22.657  1.00  0.00     0.118 C 
BRANCH   2   3
ATOM      3  N   UNL A   1      33.027  27.578  21.991  1.00  0.00    -0.352 N 
ATOM      4  C   UNL A   1      33.228  26.274  22.334  1.00  0.00     0.255 C 
ATOM      5  O   UNL A   1      33.623  25.586  21.380  1.00  0.00    -0.269 OA
ATOM      6  H   UNL A   1      33.217  27.735  21.038  1.00  0.00     0.163 HD
BRANCH   4   7
ATOM      7  C   UNL A   1      33.005  25.577  23.651  1.00  0.00     0.084 A 
ATOM      8  C   UNL A   1      31.826  25.193  24.309  1.00  0.00     0.167 A 
ATOM      9  C   UNL A   1      31.916  24.432  25.495  1.00  0.00     0.165 A 
ATOM     10  F   UNL A   1      30.810  23.927  26.058  1.00  0.00    -0.203 F 
ATOM     11  C   UNL A   1      33.128  24.138  26.108  1.00  0.00     0.043 A 
ATOM     12  C   UNL A   1      34.230  25.262  24.306  1.00  0.00     0.018 A 
ATOM     13  C   UNL A   1      34.298  24.569  25.518  1.00  0.00     0.004 A 
BRANCH   8  14
ATOM     14  O   UNL A   1      30.570  25.417  23.825  1.00  0.00    -0.490 OA
BRANCH  14  15
ATOM     15  C   UNL A   1      29.995  26.662  24.252  1.00  0.00     0.226 C 
ATOM     16  C   UNL A   1      28.531  26.802  23.874  1.00  0.00     0.049 C 
ENDBRANCH  14  15
ENDBRANCH   8  14
ENDBRANCH   4   7
ENDBRANCH   2   3
ENDBRANCH   1   2
BRANCH   1  17
ATOM     17  C   UNL A   1      32.909  29.136  25.170  1.00  0.00     0.118 C 
BRANCH  17  18
ATOM     18  N   UNL A   1      32.556  30.485  25.595  1.00  0.00    -0.352 N 
ATOM     19  C   UNL A   1      32.929  31.206  26.699  1.00  0.00     0.251 C 
ATOM     20  H   UNL A   1      31.945  30.958  24.985  1.00  0.00     0.163 HD
ATOM     21  O   UNL A   1      32.247  32.178  27.021  1.00  0.00    -0.269 OA
BRANCH  19  22
ATOM     22  C   UNL A   1      34.134  30.860  27.487  1.00  0.00     0.039 A 
ATOM     23  C   UNL A   1      35.134  31.827  27.636  1.00  0.00     0.014 A 
ATOM     24  C   UNL A   1      34.339  29.573  27.992  1.00  0.00     0.014 A 
ATOM     25  C   UNL A   1      36.321  31.508  28.299  1.00  0.00     0.010 A 
ATOM     26  C   UNL A   1      35.481  29.284  28.736  1.00  0.00     0.010 A 
ATOM     27  C   UNL A   1      36.499  30.237  28.869  1.00  0.00    -0.014 A 
BRANCH  27  28
ATOM     28  C   UNL A   1      37.747  29.900  29.599  1.00  0.00     0.031 A 
ATOM     29  C   UNL A   1      38.009  30.453  30.975  1.00  0.00     0.074 A 
ATOM     30  C   UNL A   1      38.676  29.136  28.993  1.00  0.00     0.049 A 
ATOM     31  N   UNL A   1      39.025  30.232  31.767  1.00  0.00    -0.248 NA
ATOM     32  C   UNL A   1      37.025  31.401  31.522  1.00  0.00     0.031 C 
ATOM     33  C   UNL A   1      38.582  28.634  27.621  1.00  0.00     0.029 A 
ATOM     34  N   UNL A   1      39.882  28.660  29.440  1.00  0.00    -0.354 N 
ATOM     35  C   UNL A   1      38.826  31.041  32.879  1.00  0.00     0.074 A 
ATOM     36  C   UNL A   1      37.610  31.787  32.645  1.00  0.00     0.031 C 
ATOM     37  C   UNL A   1      39.669  27.900  27.347  1.00  0.00     0.029 A 
ATOM     38  C   UNL A   1      40.549  27.895  28.513  1.00  0.00     0.049 A 
ATOM     39  H   UNL A   1      40.236  28.848  30.339  1.00  0.00     0.167 HD
ATOM     40  C   UNL A   1      39.569  31.128  34.008  1.00  0.00     0.034 A 
ATOM     41  C   UNL A   1      41.730  27.249  28.592  1.00  0.00     0.034 A 
ATOM     42  C   UNL A   1      40.737  30.329  34.255  1.00  0.00     0.049 A 
ATOM     43  C   UNL A   1      42.491  27.279  29.886  1.00  0.00     0.074 A 
ATOM     44  C   UNL A   1      41.483  30.237  35.416  1.00  0.00     0.029 A 
ATOM     45  N   UNL A   1      41.333  29.491  33.324  1.00  0.00    -0.354 N 
ATOM     46  N   UNL A   1      42.187  27.901  31.000  1.00  0.00    -0.248 NA
ATOM     47  C   UNL A   1      43.731  26.493  29.957  1.00  0.00     0.031 C 
ATOM     48  C   UNL A   1      42.549  29.367  35.178  1.00  0.00     0.029 A 
ATOM     49  C   UNL A   1      42.450  28.892  33.879  1.00  0.00     0.049 A 
ATOM     50  H   UNL A   1      41.010  29.345  32.407  1.00  0.00     0.167 HD
ATOM     51  C   UNL A   1      43.179  27.564  31.911  1.00  0.00     0.074 A 
ATOM     52  C   UNL A   1      44.091  26.672  31.224  1.00  0.00     0.031 C 
ATOM     53  C   UNL A   1      43.324  27.968  33.197  1.00  0.00     0.034 A 
BRANCH  40  54
ATOM     54  C   UNL A   1      39.110  32.071  35.090  1.00  0.00     0.023 A 
ATOM     55  C   UNL A   1      38.165  31.637  36.041  1.00  0.00     0.012 A 
ATOM     56  C   UNL A   1      39.667  33.360  35.212  1.00  0.00     0.148 A 
ATOM     57  C   UNL A   1      37.753  32.478  37.074  1.00  0.00     0.002 A 
ATOM     58  C   UNL A   1      39.288  34.177  36.273  1.00  0.00     0.091 A 
ATOM     59  F   UNL A   1      40.549  33.768  34.288  1.00  0.00    -0.205 F 
ATOM     60  C   UNL A   1      38.324  33.742  37.196  1.00  0.00     0.022 A 
BRANCH  58  61
ATOM     61  S   UNL A   1      40.035  35.785  36.566  1.00  0.00     0.127 S 
ATOM     62  O   UNL A   1      39.260  36.265  37.710  1.00  0.00    -0.237 OA
ATOM     63  O   UNL A   1      41.421  35.431  36.875  1.00  0.00    -0.237 OA
ATOM     64  O   UNL A   1      39.864  36.535  35.331  1.00  0.00    -0.744 OA
ENDBRANCH  58  61
ENDBRANCH  40  54
BRANCH  41  65
ATOM     65  C   UNL A   1      42.177  26.441  27.424  1.00  0.00     0.023 A 
ATOM     66  C   UNL A   1      43.124  26.981  26.534  1.00  0.00     0.012 A 
ATOM     67  C   UNL A   1      41.786  25.094  27.280  1.00  0.00     0.148 A 
ATOM     68  C   UNL A   1      43.678  26.195  25.523  1.00  0.00     0.002 A 
ATOM     69  C   UNL A   1      42.384  24.301  26.309  1.00  0.00     0.091 A 
ATOM     70  F   UNL A   1      40.882  24.604  28.139  1.00  0.00    -0.205 F 
ATOM     71  C   UNL A   1      43.322  24.852  25.421  1.00  0.00     0.022 A 
BRANCH  69  72
ATOM     72  S   UNL A   1      42.115  22.526  26.205  1.00  0.00     0.127 S 
ATOM     73  O   UNL A   1      42.895  22.173  25.022  1.00  0.00    -0.237 OA
ATOM     74  O   UNL A   1      42.674  22.065  27.475  1.00  0.00    -0.237 OA
ATOM     75  O   UNL A   1      40.673  22.351  26.081  1.00  0.00    -0.744 OA
ENDBRANCH  69  72
ENDBRANCH  41  65
BRANCH  53  76
ATOM     76  C   UNL A   1      44.501  27.455  33.983  1.00  0.00     0.023 A 
ATOM     77  C   UNL A   1      45.688  28.210  34.024  1.00  0.00     0.012 A 
ATOM     78  C   UNL A   1      44.365  26.324  34.812  1.00  0.00     0.148 A 
ATOM     79  C   UNL A   1      46.726  27.845  34.880  1.00  0.00     0.002 A 
ATOM     80  C   UNL A   1      45.384  25.994  35.697  1.00  0.00     0.091 A 
ATOM     81  F   UNL A   1      43.228  25.616  34.744  1.00  0.00    -0.205 F 
ATOM     82  C   UNL A   1      46.568  26.749  35.727  1.00  0.00     0.022 A 
BRANCH  80  83
ATOM     83  S   UNL A   1      45.228  24.673  36.904  1.00  0.00     0.127 S 
ATOM     84  O   UNL A   1      46.537  24.706  37.553  1.00  0.00    -0.237 OA
ATOM     85  O   UNL A   1      44.121  25.145  37.737  1.00  0.00    -0.237 OA
ATOM     86  O   UNL A   1      44.943  23.462  36.144  1.00  0.00    -0.744 OA
ENDBRANCH  80  83
ENDBRANCH  53  76
ENDBRANCH  27  28
ENDBRANCH  19  22
ENDBRANCH  17  18
ENDBRANCH   1  17
TORSDOF 15
ENDMDL
MODEL 2
REMARK VINA RESULT:     -10.8      3.561      6.180
REMARK SMILES CCOc1c(F)cccc1C(=O)NCCCNC(=O)c1ccc(-c2c3nc(c(-c4cccc(S(=O)(=O)[O-])c4F)c4ccc([nH]4)c(-c4cccc(S(=O)(=O)[O-])c4F)c4nc(c(-c5cccc(S(=O)(=O)[O-])c5F)c5ccc2[nH]5)C=C4)C=C3)cc1
REMARK SMILES IDX 15 1 14 2 13 3 11 4 12 5 10 7 4 8 5 9 6 10 7 11 9 12 8 13
REMARK SMILES IDX 3 14 2 15 1 16 16 17 17 18 18 19 19 21 20 22 21 23 82 24
REMARK SMILES IDX 22 25 81 26 23 27 24 28 25 29 75 30 26 31 80 32 74 33 76 34
REMARK SMILES IDX 27 35 79 36 73 37 72 38 28 40 60 41 40 42 59 43 41 44 44 45
REMARK SMILES IDX 58 46 77 47 42 48 43 49 57 51 78 52 45 53 29 54 30 55 38 56
REMARK SMILES IDX 31 57 33 58 39 59 32 60 34 61 35 62 36 63 37 64 61 65 62 66
REMARK SMILES IDX 70 67 63 68 65 69 71 70 64 71 66 72 67 73 68 74 69 75 46 76
REMARK SMILES IDX 47 77 55 78 48 79 50 80 56 81 49 82 51 83 52 84 53 85 54 86
REMARK H PARENT 13 6 17 20 76 39 44 50
REMARK Flexibility Score: inf
ROOT
ATOM      1  C   UNL A   1      33.969  34.435  28.084  1.00  0.00     0.042 C 
ENDROOT
BRANCH   1   2
ATOM      2  C   UNL A   1      33.881  35.061  29.474  1.00  0.00     0.118 C 
BRANCH   2   3
ATOM      3  N   UNL A   1      33.929  34.049  30.503  1.00  0.00    -0.352 N 
ATOM      4  C   UNL A   1      34.865  33.540  31.355  1.00  0.00     0.255 C 
ATOM      5  O   UNL A   1      34.416  32.627  32.065  1.00  0.00    -0.269 OA
ATOM      6  H   UNL A   1      33.057  33.609  30.620  1.00  0.00     0.163 HD
BRANCH   4   7
ATOM      7  C   UNL A   1      36.299  33.948  31.567  1.00  0.00     0.084 A 
ATOM      8  C   UNL A   1      36.955  34.481  32.687  1.00  0.00     0.167 A 
ATOM      9  C   UNL A   1      38.356  34.658  32.645  1.00  0.00     0.165 A 
ATOM     10  F   UNL A   1      39.023  35.022  33.749  1.00  0.00    -0.203 F 
ATOM     11  C   UNL A   1      39.107  34.430  31.500  1.00  0.00     0.043 A 
ATOM     12  C   UNL A   1      37.098  33.728  30.408  1.00  0.00     0.018 A 
ATOM     13  C   UNL A   1      38.472  33.976  30.363  1.00  0.00     0.004 A 
BRANCH   8  14
ATOM     14  O   UNL A   1      36.344  34.755  33.876  1.00  0.00    -0.490 OA
BRANCH  14  15
ATOM     15  C   UNL A   1      36.206  33.613  34.737  1.00  0.00     0.226 C 
ATOM     16  C   UNL A   1      36.972  33.754  36.040  1.00  0.00     0.049 C 
ENDBRANCH  14  15
ENDBRANCH   8  14
ENDBRANCH   4   7
ENDBRANCH   2   3
ENDBRANCH   1   2
BRANCH   1  17
ATOM     17  C   UNL A   1      34.821  33.169  28.039  1.00  0.00     0.118 C 
BRANCH  17  18
ATOM     18  N   UNL A   1      33.989  31.979  27.910  1.00  0.00    -0.352 N 
ATOM     19  C   UNL A   1      34.325  30.656  27.782  1.00  0.00     0.251 C 
ATOM     20  H   UNL A   1      33.021  32.155  27.915  1.00  0.00     0.163 HD
ATOM     21  O   UNL A   1      33.479  29.876  27.349  1.00  0.00    -0.269 OA
BRANCH  19  22
ATOM     22  C   UNL A   1      35.660  30.149  28.173  1.00  0.00     0.039 A 
ATOM     23  C   UNL A   1      35.834  29.662  29.473  1.00  0.00     0.014 A 
ATOM     24  C   UNL A   1      36.762  30.240  27.318  1.00  0.00     0.014 A 
ATOM     25  C   UNL A   1      37.098  29.255  29.903  1.00  0.00     0.010 A 
ATOM     26  C   UNL A   1      38.002  29.746  27.717  1.00  0.00     0.010 A 
ATOM     27  C   UNL A   1      38.193  29.279  29.023  1.00  0.00    -0.014 A 
BRANCH  27  28
ATOM     28  C   UNL A   1      39.534  28.822  29.466  1.00  0.00     0.031 A 
ATOM     29  C   UNL A   1      40.248  29.510  30.599  1.00  0.00     0.074 A 
ATOM     30  C   UNL A   1      40.137  27.817  28.803  1.00  0.00     0.049 A 
ATOM     31  N   UNL A   1      41.404  29.219  31.137  1.00  0.00    -0.248 NA
ATOM     32  C   UNL A   1      39.602  30.697  31.185  1.00  0.00     0.031 C 
ATOM     33  C   UNL A   1      39.591  27.148  27.620  1.00  0.00     0.029 A 
ATOM     34  N   UNL A   1      41.340  27.192  29.013  1.00  0.00    -0.354 N 
ATOM     35  C   UNL A   1      41.641  30.205  32.087  1.00  0.00     0.074 A 
ATOM     36  C   UNL A   1      40.528  31.124  32.029  1.00  0.00     0.031 C 
ATOM     37  C   UNL A   1      40.442  26.189  27.227  1.00  0.00     0.029 A 
ATOM     38  C   UNL A   1      41.603  26.188  28.112  1.00  0.00     0.049 A 
ATOM     39  H   UNL A   1      41.955  27.439  29.741  1.00  0.00     0.167 HD
ATOM     40  C   UNL A   1      42.676  30.313  32.954  1.00  0.00     0.034 A 
ATOM     41  C   UNL A   1      42.655  25.350  28.013  1.00  0.00     0.034 A 
ATOM     42  C   UNL A   1      43.741  29.352  33.047  1.00  0.00     0.049 A 
ATOM     43  C   UNL A   1      43.745  25.424  29.043  1.00  0.00     0.074 A 
ATOM     44  C   UNL A   1      44.761  29.291  33.978  1.00  0.00     0.029 A 
ATOM     45  N   UNL A   1      43.926  28.290  32.174  1.00  0.00    -0.354 N 
ATOM     46  N   UNL A   1      43.858  26.247  30.058  1.00  0.00    -0.248 NA
ATOM     47  C   UNL A   1      44.829  24.437  28.948  1.00  0.00     0.031 C 
ATOM     48  C   UNL A   1      45.582  28.210  33.650  1.00  0.00     0.029 A 
ATOM     49  C   UNL A   1      45.056  27.579  32.533  1.00  0.00     0.049 A 
ATOM     50  H   UNL A   1      43.341  28.076  31.413  1.00  0.00     0.167 HD
ATOM     51  C   UNL A   1      45.007  25.866  30.736  1.00  0.00     0.074 A 
ATOM     52  C   UNL A   1      45.553  24.727  30.025  1.00  0.00     0.031 C 
ATOM     53  C   UNL A   1      45.563  26.417  31.843  1.00  0.00     0.034 A 
BRANCH  40  54
ATOM     54  C   UNL A   1      42.678  31.473  33.916  1.00  0.00     0.023 A 
ATOM     55  C   UNL A   1      43.226  32.709  33.520  1.00  0.00     0.012 A 
ATOM     56  C   UNL A   1      42.071  31.364  35.184  1.00  0.00     0.148 A 
ATOM     57  C   UNL A   1      43.205  33.807  34.379  1.00  0.00     0.002 A 
ATOM     58  C   UNL A   1      42.010  32.477  36.016  1.00  0.00     0.091 A 
ATOM     59  F   UNL A   1      41.573  30.176  35.557  1.00  0.00    -0.205 F 
ATOM     60  C   UNL A   1      42.587  33.694  35.620  1.00  0.00     0.022 A 
BRANCH  58  61
ATOM     61  S   UNL A   1      41.154  32.453  37.596  1.00  0.00     0.127 S 
ATOM     62  O   UNL A   1      42.011  31.566  38.382  1.00  0.00    -0.237 OA
ATOM     63  O   UNL A   1      41.204  33.860  37.997  1.00  0.00    -0.237 OA
ATOM     64  O   UNL A   1      39.816  31.952  37.318  1.00  0.00    -0.744 OA
ENDBRANCH  58  61
ENDBRANCH  40  54
BRANCH  41  65
ATOM     65  C   UNL A   1      42.636  24.311  26.946  1.00  0.00     0.023 A 
ATOM     66  C   UNL A   1      43.410  24.501  25.786  1.00  0.00     0.012 A 
ATOM     67  C   UNL A   1      41.982  23.078  27.145  1.00  0.00     0.148 A 
ATOM     68  C   UNL A   1      43.536  23.480  24.842  1.00  0.00     0.002 A 
ATOM     69  C   UNL A   1      42.160  22.046  26.231  1.00  0.00     0.091 A 
ATOM     70  F   UNL A   1      41.251  22.923  28.257  1.00  0.00    -0.205 F 
ATOM     71  C   UNL A   1      42.926  22.249  25.073  1.00  0.00     0.022 A 
BRANCH  69  72
ATOM     72  S   UNL A   1      41.553  20.379  26.521  1.00  0.00     0.127 S 
ATOM     73  O   UNL A   1      40.107  20.574  26.475  1.00  0.00    -0.237 OA
ATOM     74  O   UNL A   1      42.116  19.655  25.382  1.00  0.00    -0.237 OA
ATOM     75  O   UNL A   1      42.091  19.980  27.816  1.00  0.00    -0.744 OA
ENDBRANCH  69  72
ENDBRANCH  41  65
BRANCH  53  76
ATOM     76  C   UNL A   1      46.828  25.812  32.389  1.00  0.00     0.023 A 
ATOM     77  C   UNL A   1      48.073  26.329  31.988  1.00  0.00     0.012 A 
ATOM     78  C   UNL A   1      46.771  24.857  33.424  1.00  0.00     0.148 A 
ATOM     79  C   UNL A   1      49.247  25.903  32.608  1.00  0.00     0.002 A 
ATOM     80  C   UNL A   1      47.939  24.473  34.070  1.00  0.00     0.091 A 
ATOM     81  F   UNL A   1      45.571  24.371  33.778  1.00  0.00    -0.205 F 
ATOM     82  C   UNL A   1      49.178  24.990  33.659  1.00  0.00     0.022 A 
BRANCH  80  83
ATOM     83  S   UNL A   1      47.941  23.390  35.504  1.00  0.00     0.127 S 
ATOM     84  O   UNL A   1      47.457  22.136  34.930  1.00  0.00    -0.237 OA
ATOM     85  O   UNL A   1      49.355  23.383  35.882  1.00  0.00    -0.237 OA
ATOM     86  O   UNL A   1      47.053  24.009  36.480  1.00  0.00    -0.744 OA
ENDBRANCH  80  83
ENDBRANCH  53  76
ENDBRANCH  27  28
ENDBRANCH  19  22
ENDBRANCH  17  18
ENDBRANCH   1  17
TORSDOF 15
ENDMDL
MODEL 3
REMARK VINA RESULT:     -10.6      2.309      3.443
REMARK SMILES CCOc1c(F)cccc1C(=O)NCCCNC(=O)c1ccc(-c2c3nc(c(-c4cccc(S(=O)(=O)[O-])c4F)c4ccc([nH]4)c(-c4cccc(S(=O)(=O)[O-])c4F)c4nc(c(-c5cccc(S(=O)(=O)[O-])c5F)c5ccc2[nH]5)C=C4)C=C3)cc1
REMARK SMILES IDX 15 1 14 2 13 3 11 4 12 5 10 7 4 8 5 9 6 10 7 11 9 12 8 13
REMARK SMILES IDX 3 14 2 15 1 16 16 17 17 18 18 19 19 21 20 22 21 23 82 24
REMARK SMILES IDX 22 25 81 26 23 27 24 28 25 29 75 30 26 31 80 32 74 33 76 34
REMARK SMILES IDX 27 35 79 36 73 37 72 38 28 40 60 41 40 42 59 43 41 44 44 45
REMARK SMILES IDX 58 46 77 47 42 48 43 49 57 51 78 52 45 53 29 54 30 55 38 56
REMARK SMILES IDX 31 57 33 58 39 59 32 60 34 61 35 62 36 63 37 64 61 65 62 66
REMARK SMILES IDX 70 67 63 68 65 69 71 70 64 71 66 72 67 73 68 74 69 75 46 76
REMARK SMILES IDX 47 77 55 78 48 79 50 80 56 81 49 82 51 83 52 84 53 85 54 86
REMARK H PARENT 13 6 17 20 76 39 44 50
REMARK Flexibility Score: inf
ROOT
ATOM      1  C   UNL A   1      33.342  27.787  26.852  1.00  0.00     0.042 C 
ENDROOT
BRANCH   1   2
ATOM      2  C   UNL A   1      31.928  28.175  27.280  1.00  0.00     0.118 C 
BRANCH   2   3
ATOM      3  N   UNL A   1      31.021  27.060  27.143  1.00  0.00    -0.352 N 
ATOM      4  C   UNL A   1      30.603  26.235  26.140  1.00  0.00     0.255 C 
ATOM      5  O   UNL A   1      29.761  25.409  26.523  1.00  0.00    -0.269 OA
ATOM      6  H   UNL A   1      30.588  26.837  27.998  1.00  0.00     0.163 HD
BRANCH   4   7
ATOM      7  C   UNL A   1      31.040  26.170  24.700  1.00  0.00     0.084 A 
ATOM      8  C   UNL A   1      31.774  25.203  23.996  1.00  0.00     0.167 A 
ATOM      9  C   UNL A   1      31.935  25.342  22.600  1.00  0.00     0.165 A 
ATOM     10  F   UNL A   1      32.500  24.359  21.885  1.00  0.00    -0.203 F 
ATOM     11  C   UNL A   1      31.493  26.457  21.901  1.00  0.00     0.043 A 
ATOM     12  C   UNL A   1      30.602  27.302  23.954  1.00  0.00     0.018 A 
ATOM     13  C   UNL A   1      30.832  27.456  22.585  1.00  0.00     0.004 A 
BRANCH   8  14
ATOM     14  O   UNL A   1      32.270  24.060  24.555  1.00  0.00    -0.490 OA
BRANCH  14  15
ATOM     15  C   UNL A   1      33.348  24.283  25.477  1.00  0.00     0.226 C 
ATOM     16  C   UNL A   1      34.590  24.851  24.814  1.00  0.00     0.049 C 
ENDBRANCH  14  15
ENDBRANCH   8  14
ENDBRANCH   4   7
ENDBRANCH   2   3
ENDBRANCH   1   2
BRANCH   1  17
ATOM     17  C   UNL A   1      34.045  28.862  26.026  1.00  0.00     0.118 C 
BRANCH  17  18
ATOM     18  N   UNL A   1      33.850  30.184  26.610  1.00  0.00    -0.352 N 
ATOM     19  C   UNL A   1      34.464  30.796  27.671  1.00  0.00     0.251 C 
ATOM     20  H   UNL A   1      33.161  30.728  26.167  1.00  0.00     0.163 HD
ATOM     21  O   UNL A   1      33.909  31.763  28.190  1.00  0.00    -0.269 OA
BRANCH  19  22
ATOM     22  C   UNL A   1      35.777  30.341  28.182  1.00  0.00     0.039 A 
ATOM     23  C   UNL A   1      36.909  30.537  27.384  1.00  0.00     0.014 A 
ATOM     24  C   UNL A   1      35.895  29.637  29.384  1.00  0.00     0.014 A 
ATOM     25  C   UNL A   1      38.148  30.045  27.796  1.00  0.00     0.010 A 
ATOM     26  C   UNL A   1      37.148  29.230  29.839  1.00  0.00     0.010 A 
ATOM     27  C   UNL A   1      38.283  29.399  29.036  1.00  0.00    -0.014 A 
BRANCH  27  28
ATOM     28  C   UNL A   1      39.603  28.897  29.493  1.00  0.00     0.031 A 
ATOM     29  C   UNL A   1      40.332  29.567  30.626  1.00  0.00     0.074 A 
ATOM     30  C   UNL A   1      40.174  27.866  28.842  1.00  0.00     0.049 A 
ATOM     31  N   UNL A   1      41.473  29.238  31.176  1.00  0.00    -0.248 NA
ATOM     32  C   UNL A   1      39.726  30.781  31.198  1.00  0.00     0.031 C 
ATOM     33  C   UNL A   1      39.613  27.208  27.660  1.00  0.00     0.029 A 
ATOM     34  N   UNL A   1      41.351  27.199  29.067  1.00  0.00    -0.354 N 
ATOM     35  C   UNL A   1      41.739  30.222  32.121  1.00  0.00     0.074 A 
ATOM     36  C   UNL A   1      40.661  31.181  32.047  1.00  0.00     0.031 C 
ATOM     37  C   UNL A   1      40.431  26.216  27.280  1.00  0.00     0.029 A 
ATOM     38  C   UNL A   1      41.585  26.179  28.175  1.00  0.00     0.049 A 
ATOM     39  H   UNL A   1      41.969  27.429  29.798  1.00  0.00     0.167 HD
ATOM     40  C   UNL A   1      42.771  30.299  32.995  1.00  0.00     0.034 A 
ATOM     41  C   UNL A   1      42.606  25.302  28.090  1.00  0.00     0.034 A 
ATOM     42  C   UNL A   1      43.799  29.300  33.103  1.00  0.00     0.049 A 
ATOM     43  C   UNL A   1      43.690  25.344  29.128  1.00  0.00     0.074 A 
ATOM     44  C   UNL A   1      44.809  29.210  34.042  1.00  0.00     0.029 A 
ATOM     45  N   UNL A   1      43.951  28.226  32.240  1.00  0.00    -0.354 N 
ATOM     46  N   UNL A   1      43.824  26.171  30.138  1.00  0.00    -0.248 NA
ATOM     47  C   UNL A   1      44.738  24.317  29.049  1.00  0.00     0.031 C 
ATOM     48  C   UNL A   1      45.592  28.097  33.729  1.00  0.00     0.029 A 
ATOM     49  C   UNL A   1      45.052  27.476  32.613  1.00  0.00     0.049 A 
ATOM     50  H   UNL A   1      43.365  28.027  31.476  1.00  0.00     0.167 HD
ATOM     51  C   UNL A   1      44.954  25.752  30.828  1.00  0.00     0.074 A 
ATOM     52  C   UNL A   1      45.463  24.589  30.130  1.00  0.00     0.031 C 
ATOM     53  C   UNL A   1      45.521  26.292  31.935  1.00  0.00     0.034 A 
BRANCH  40  54
ATOM     54  C   UNL A   1      42.808  31.465  33.948  1.00  0.00     0.023 A 
ATOM     55  C   UNL A   1      43.336  32.700  33.522  1.00  0.00     0.012 A 
ATOM     56  C   UNL A   1      42.252  31.364  35.240  1.00  0.00     0.148 A 
ATOM     57  C   UNL A   1      43.347  33.804  34.374  1.00  0.00     0.002 A 
ATOM     58  C   UNL A   1      42.221  32.482  36.067  1.00  0.00     0.091 A 
ATOM     59  F   UNL A   1      41.771  30.177  35.640  1.00  0.00    -0.205 F 
ATOM     60  C   UNL A   1      42.778  33.698  35.639  1.00  0.00     0.022 A 
BRANCH  58  61
ATOM     61  S   UNL A   1      41.428  32.467  37.679  1.00  0.00     0.127 S 
ATOM     62  O   UNL A   1      41.603  33.855  38.106  1.00  0.00    -0.237 OA
ATOM     63  O   UNL A   1      40.051  32.103  37.344  1.00  0.00    -0.237 OA
ATOM     64  O   UNL A   1      42.142  31.472  38.465  1.00  0.00    -0.744 OA
ENDBRANCH  58  61
ENDBRANCH  40  54
BRANCH  41  65
ATOM     65  C   UNL A   1      42.557  24.256  27.031  1.00  0.00     0.023 A 
ATOM     66  C   UNL A   1      43.292  24.441  25.846  1.00  0.00     0.012 A 
ATOM     67  C   UNL A   1      41.914  23.022  27.259  1.00  0.00     0.148 A 
ATOM     68  C   UNL A   1      43.393  23.415  24.905  1.00  0.00     0.002 A 
ATOM     69  C   UNL A   1      42.067  21.985  26.346  1.00  0.00     0.091 A 
ATOM     70  F   UNL A   1      41.220  22.871  28.395  1.00  0.00    -0.205 F 
ATOM     71  C   UNL A   1      42.795  22.183  25.162  1.00  0.00     0.022 A 
BRANCH  69  72
ATOM     72  S   UNL A   1      41.476  20.318  26.665  1.00  0.00     0.127 S 
ATOM     73  O   UNL A   1      42.211  19.967  27.877  1.00  0.00    -0.237 OA
ATOM     74  O   UNL A   1      40.043  20.541  26.854  1.00  0.00    -0.237 OA
ATOM     75  O   UNL A   1      41.816  19.542  25.478  1.00  0.00    -0.744 OA
ENDBRANCH  69  72
ENDBRANCH  41  65
BRANCH  53  76
ATOM     76  C   UNL A   1      46.759  25.645  32.496  1.00  0.00     0.023 A 
ATOM     77  C   UNL A   1      48.025  26.088  32.073  1.00  0.00     0.012 A 
ATOM     78  C   UNL A   1      46.662  24.728  33.562  1.00  0.00     0.148 A 
ATOM     79  C   UNL A   1      49.181  25.627  32.703  1.00  0.00     0.002 A 
ATOM     80  C   UNL A   1      47.814  24.309  34.216  1.00  0.00     0.091 A 
ATOM     81  F   UNL A   1      45.443  24.312  33.937  1.00  0.00    -0.205 F 
ATOM     82  C   UNL A   1      49.074  24.753  33.783  1.00  0.00     0.022 A 
BRANCH  80  83
ATOM     83  S   UNL A   1      47.772  23.276  35.685  1.00  0.00     0.127 S 
ATOM     84  O   UNL A   1      47.206  22.035  35.159  1.00  0.00    -0.237 OA
ATOM     85  O   UNL A   1      49.189  23.196  36.045  1.00  0.00    -0.237 OA
ATOM     86  O   UNL A   1      46.938  23.978  36.651  1.00  0.00    -0.744 OA
ENDBRANCH  80  83
ENDBRANCH  53  76
ENDBRANCH  27  28
ENDBRANCH  19  22
ENDBRANCH  17  18
ENDBRANCH   1  17
TORSDOF 15
ENDMDL
