MODEL 1
REMARK VINA RESULT:     -10.1      0.000      0.000
REMARK SMILES O=C(NCCCNC(=O)C1(Cc2nccs2)CC1)c1ccc(-c2c3nc(c(-c4cccc(S(=O)(=O)[O-])c4F)c4ccc([nH]4)c(-c4cccc(S(=O)(=O)[O-])c4F)c4nc(c(-c5cccc(S(=O)(=O)[O-])c5F)c5ccc2[nH]5)C=C4)C=C3)cc1
REMARK SMILES IDX 4 1 3 2 1 3 2 4 19 6 20 7 81 8 21 9 80 10 22 11 23 12 24 13
REMARK SMILES IDX 74 14 25 15 79 16 73 17 75 18 26 19 78 20 72 21 71 22 27 24
REMARK SMILES IDX 59 25 39 26 58 27 40 28 43 29 57 30 76 31 41 32 42 33 56 35
REMARK SMILES IDX 77 36 44 37 28 38 29 39 37 40 30 41 32 42 38 43 31 44 33 45
REMARK SMILES IDX 34 46 35 47 36 48 60 49 61 50 69 51 62 52 64 53 70 54 63 55
REMARK SMILES IDX 65 56 66 57 67 58 68 59 45 60 46 61 54 62 47 63 49 64 55 65
REMARK SMILES IDX 48 66 50 67 51 68 52 69 53 70 5 71 6 72 7 73 8 74 9 76 10 77
REMARK SMILES IDX 17 78 18 79 11 80 12 81 13 82 16 83 14 84 15 85
REMARK H PARENT 3 5 75 23 43 34 7 75
REMARK Flexibility Score: inf
ROOT
ATOM      1  C   UNL A   1      34.951  33.156  28.022  1.00  0.00     0.118 C 
ENDROOT
BRANCH   1   2
ATOM      2  N   UNL A   1      34.097  31.993  27.843  1.00  0.00    -0.352 N 
ATOM      3  O   UNL A   1      33.590  29.862  27.356  1.00  0.00    -0.269 OA
ATOM      4  C   UNL A   1      34.427  30.660  27.775  1.00  0.00     0.251 C 
ATOM      5  H   UNL A   1      33.136  32.189  27.758  1.00  0.00     0.163 HD
BRANCH   4   6
ATOM      6  C   UNL A   1      35.770  30.178  28.183  1.00  0.00     0.039 A 
ATOM      7  C   UNL A   1      36.876  30.298  27.338  1.00  0.00     0.014 A 
ATOM      8  C   UNL A   1      35.942  29.666  29.474  1.00  0.00     0.014 A 
ATOM      9  C   UNL A   1      38.117  29.799  27.734  1.00  0.00     0.010 A 
ATOM     10  C   UNL A   1      37.205  29.235  29.898  1.00  0.00     0.010 A 
ATOM     11  C   UNL A   1      38.301  29.273  29.023  1.00  0.00    -0.014 A 
BRANCH  11  12
ATOM     12  C   UNL A   1      39.656  28.836  29.460  1.00  0.00     0.031 A 
ATOM     13  C   UNL A   1      40.382  29.534  30.577  1.00  0.00     0.074 A 
ATOM     14  C   UNL A   1      40.244  27.801  28.825  1.00  0.00     0.049 A 
ATOM     15  N   UNL A   1      41.547  29.250  31.105  1.00  0.00    -0.248 NA
ATOM     16  C   UNL A   1      39.726  30.706  31.176  1.00  0.00     0.031 C 
ATOM     17  C   UNL A   1      39.670  27.076  27.690  1.00  0.00     0.029 A 
ATOM     18  N   UNL A   1      41.449  27.180  29.040  1.00  0.00    -0.354 N 
ATOM     19  C   UNL A   1      41.784  30.227  32.064  1.00  0.00     0.074 A 
ATOM     20  C   UNL A   1      40.643  31.119  32.041  1.00  0.00     0.031 C 
ATOM     21  C   UNL A   1      40.506  26.090  27.329  1.00  0.00     0.029 A 
ATOM     22  C   UNL A   1      41.693  26.139  28.175  1.00  0.00     0.049 A 
ATOM     23  H   UNL A   1      42.079  27.455  29.745  1.00  0.00     0.167 HD
ATOM     24  C   UNL A   1      42.844  30.363  32.899  1.00  0.00     0.034 A 
ATOM     25  C   UNL A   1      42.752  25.313  28.070  1.00  0.00     0.034 A 
ATOM     26  C   UNL A   1      43.960  29.454  32.946  1.00  0.00     0.049 A 
ATOM     27  C   UNL A   1      43.896  25.462  29.032  1.00  0.00     0.074 A 
ATOM     28  C   UNL A   1      45.040  29.463  33.812  1.00  0.00     0.029 A 
ATOM     29  N   UNL A   1      44.147  28.381  32.088  1.00  0.00    -0.354 N 
ATOM     30  N   UNL A   1      44.030  26.303  30.029  1.00  0.00    -0.248 NA
ATOM     31  C   UNL A   1      45.021  24.530  28.875  1.00  0.00     0.031 C 
ATOM     32  C   UNL A   1      45.890  28.407  33.463  1.00  0.00     0.029 A 
ATOM     33  C   UNL A   1      45.328  27.726  32.396  1.00  0.00     0.049 A 
ATOM     34  H   UNL A   1      43.529  28.122  31.366  1.00  0.00     0.167 HD
ATOM     35  C   UNL A   1      45.236  25.981  30.639  1.00  0.00     0.074 A 
ATOM     36  C   UNL A   1      45.785  24.854  29.910  1.00  0.00     0.031 C 
ATOM     37  C   UNL A   1      45.840  26.573  31.698  1.00  0.00     0.034 A 
BRANCH  24  38
ATOM     38  C   UNL A   1      42.830  31.521  33.864  1.00  0.00     0.023 A 
ATOM     39  C   UNL A   1      43.340  32.772  33.459  1.00  0.00     0.012 A 
ATOM     40  C   UNL A   1      42.265  31.391  35.148  1.00  0.00     0.148 A 
ATOM     41  C   UNL A   1      43.323  33.863  34.328  1.00  0.00     0.002 A 
ATOM     42  C   UNL A   1      42.216  32.494  35.995  1.00  0.00     0.091 A 
ATOM     43  F   UNL A   1      41.804  30.191  35.528  1.00  0.00    -0.205 F 
ATOM     44  C   UNL A   1      42.754  33.726  35.592  1.00  0.00     0.022 A 
BRANCH  42  45
ATOM     45  S   UNL A   1      41.432  32.430  37.611  1.00  0.00     0.127 S 
ATOM     46  O   UNL A   1      42.262  31.446  38.304  1.00  0.00    -0.237 OA
ATOM     47  O   UNL A   1      41.589  33.804  38.090  1.00  0.00    -0.237 OA
ATOM     48  O   UNL A   1      40.052  32.033  37.365  1.00  0.00    -0.744 OA
ENDBRANCH  42  45
ENDBRANCH  24  38
BRANCH  25  49
ATOM     49  C   UNL A   1      42.735  24.220  27.057  1.00  0.00     0.023 A 
ATOM     50  C   UNL A   1      43.437  24.391  25.849  1.00  0.00     0.012 A 
ATOM     51  C   UNL A   1      42.082  22.997  27.307  1.00  0.00     0.148 A 
ATOM     52  C   UNL A   1      43.475  23.372  24.897  1.00  0.00     0.002 A 
ATOM     53  C   UNL A   1      42.171  21.965  26.379  1.00  0.00     0.091 A 
ATOM     54  F   UNL A   1      41.409  22.860  28.457  1.00  0.00    -0.205 F 
ATOM     55  C   UNL A   1      42.853  22.156  25.167  1.00  0.00     0.022 A 
BRANCH  53  56
ATOM     56  S   UNL A   1      41.518  20.322  26.700  1.00  0.00     0.127 S 
ATOM     57  O   UNL A   1      41.866  19.617  25.470  1.00  0.00    -0.237 OA
ATOM     58  O   UNL A   1      42.285  19.920  27.880  1.00  0.00    -0.237 OA
ATOM     59  O   UNL A   1      40.094  20.506  26.944  1.00  0.00    -0.744 OA
ENDBRANCH  53  56
ENDBRANCH  25  49
BRANCH  37  60
ATOM     60  C   UNL A   1      47.152  25.997  32.164  1.00  0.00     0.023 A 
ATOM     61  C   UNL A   1      48.353  26.398  31.546  1.00  0.00     0.012 A 
ATOM     62  C   UNL A   1      47.200  25.107  33.255  1.00  0.00     0.148 A 
ATOM     63  C   UNL A   1      49.578  25.899  31.986  1.00  0.00     0.002 A 
ATOM     64  C   UNL A   1      48.428  24.650  33.719  1.00  0.00     0.091 A 
ATOM     65  F   UNL A   1      46.045  24.718  33.816  1.00  0.00    -0.205 F 
ATOM     66  C   UNL A   1      49.617  25.035  33.079  1.00  0.00     0.022 A 
BRANCH  64  67
ATOM     67  S   UNL A   1      48.572  23.611  35.178  1.00  0.00     0.127 S 
ATOM     68  O   UNL A   1      47.912  22.384  34.737  1.00  0.00    -0.237 OA
ATOM     69  O   UNL A   1      50.022  23.499  35.340  1.00  0.00    -0.237 OA
ATOM     70  O   UNL A   1      47.903  24.337  36.248  1.00  0.00    -0.744 OA
ENDBRANCH  64  67
ENDBRANCH  37  60
ENDBRANCH  11  12
ENDBRANCH   4   6
ENDBRANCH   1   2
BRANCH   1  71
ATOM     71  C   UNL A   1      35.313  33.377  29.489  1.00  0.00     0.042 C 
BRANCH  71  72
ATOM     72  C   UNL A   1      36.795  33.203  29.818  1.00  0.00     0.117 C 
BRANCH  72  73
ATOM     73  N   UNL A   1      37.272  34.125  30.830  1.00  0.00    -0.356 N 
ATOM     74  C   UNL A   1      37.020  34.239  32.172  1.00  0.00     0.226 C 
ATOM     75  H   UNL A   1      37.899  34.801  30.486  1.00  0.00     0.163 HD
ATOM     76  O   UNL A   1      37.609  35.114  32.794  1.00  0.00    -0.274 OA
BRANCH  74  77
ATOM     77  C   UNL A   1      36.141  33.247  32.902  1.00  0.00     0.056 C 
ATOM     78  C   UNL A   1      36.599  31.789  32.855  1.00  0.00     0.018 C 
ATOM     79  C   UNL A   1      36.777  32.564  34.121  1.00  0.00     0.018 C 
BRANCH  77  80
ATOM     80  C   UNL A   1      34.643  33.502  33.030  1.00  0.00     0.084 C 
BRANCH  80  81
ATOM     81  C   UNL A   1      34.180  34.931  32.964  1.00  0.00     0.094 A 
ATOM     82  N   UNL A   1      34.521  35.882  33.808  1.00  0.00    -0.250 NA
ATOM     83  S   UNL A   1      33.218  35.447  31.628  1.00  0.00    -0.127 S 
ATOM     84  C   UNL A   1      34.013  37.092  33.384  1.00  0.00     0.123 A 
ATOM     85  C   UNL A   1      33.294  37.056  32.211  1.00  0.00     0.087 A 
ENDBRANCH  80  81
ENDBRANCH  77  80
ENDBRANCH  74  77
ENDBRANCH  72  73
ENDBRANCH  71  72
ENDBRANCH   1  71
TORSDOF 15
ENDMDL
MODEL 2
REMARK VINA RESULT:     -10.1      6.365     10.922
REMARK SMILES O=C(NCCCNC(=O)C1(Cc2nccs2)CC1)c1ccc(-c2c3nc(c(-c4cccc(S(=O)(=O)[O-])c4F)c4ccc([nH]4)c(-c4cccc(S(=O)(=O)[O-])c4F)c4nc(c(-c5cccc(S(=O)(=O)[O-])c5F)c5ccc2[nH]5)C=C4)C=C3)cc1
REMARK SMILES IDX 4 1 3 2 1 3 2 4 19 6 20 7 81 8 21 9 80 10 22 11 23 12 24 13
REMARK SMILES IDX 74 14 25 15 79 16 73 17 75 18 26 19 78 20 72 21 71 22 27 24
REMARK SMILES IDX 59 25 39 26 58 27 40 28 43 29 57 30 76 31 41 32 42 33 56 35
REMARK SMILES IDX 77 36 44 37 28 38 29 39 37 40 30 41 32 42 38 43 31 44 33 45
REMARK SMILES IDX 34 46 35 47 36 48 60 49 61 50 69 51 62 52 64 53 70 54 63 55
REMARK SMILES IDX 65 56 66 57 67 58 68 59 45 60 46 61 54 62 47 63 49 64 55 65
REMARK SMILES IDX 48 66 50 67 51 68 52 69 53 70 5 71 6 72 7 73 8 74 9 76 10 77
REMARK SMILES IDX 17 78 18 79 11 80 12 81 13 82 16 83 14 84 15 85
REMARK H PARENT 3 5 75 23 43 34 7 75
REMARK Flexibility Score: inf
ROOT
ATOM      1  C   UNL A   1      38.819  20.368  25.447  1.00  0.00     0.118 C 
ENDROOT
BRANCH   1   2
ATOM      2  N   UNL A   1      39.791  19.492  26.082  1.00  0.00    -0.352 N 
ATOM      3  O   UNL A   1      41.807  18.842  26.821  1.00  0.00    -0.269 OA
ATOM      4  C   UNL A   1      41.048  19.774  26.563  1.00  0.00     0.251 C 
ATOM      5  H   UNL A   1      39.506  18.556  26.183  1.00  0.00     0.163 HD
BRANCH   4   6
ATOM      6  C   UNL A   1      41.499  21.174  26.763  1.00  0.00     0.039 A 
ATOM      7  C   UNL A   1      41.451  22.110  25.728  1.00  0.00     0.014 A 
ATOM      8  C   UNL A   1      41.908  21.578  28.039  1.00  0.00     0.014 A 
ATOM      9  C   UNL A   1      41.920  23.408  25.934  1.00  0.00     0.010 A 
ATOM     10  C   UNL A   1      42.307  22.902  28.264  1.00  0.00     0.010 A 
ATOM     11  C   UNL A   1      42.342  23.824  27.207  1.00  0.00    -0.014 A 
BRANCH  11  12
ATOM     12  C   UNL A   1      42.746  25.240  27.428  1.00  0.00     0.031 A 
ATOM     13  C   UNL A   1      41.826  26.222  28.099  1.00  0.00     0.074 A 
ATOM     14  C   UNL A   1      43.960  25.646  27.003  1.00  0.00     0.049 A 
ATOM     15  N   UNL A   1      42.043  27.477  28.404  1.00  0.00    -0.248 NA
ATOM     16  C   UNL A   1      40.485  25.742  28.468  1.00  0.00     0.031 C 
ATOM     17  C   UNL A   1      44.924  24.806  26.289  1.00  0.00     0.029 A 
ATOM     18  N   UNL A   1      44.591  26.861  27.105  1.00  0.00    -0.354 N 
ATOM     19  C   UNL A   1      40.860  27.950  28.959  1.00  0.00     0.074 A 
ATOM     20  C   UNL A   1      39.921  26.846  28.942  1.00  0.00     0.031 C 
ATOM     21  C   UNL A   1      46.035  25.520  26.046  1.00  0.00     0.029 A 
ATOM     22  C   UNL A   1      45.847  26.877  26.547  1.00  0.00     0.049 A 
ATOM     23  H   UNL A   1      44.182  27.646  27.537  1.00  0.00     0.167 HD
ATOM     24  C   UNL A   1      40.582  29.181  29.453  1.00  0.00     0.034 A 
ATOM     25  C   UNL A   1      46.751  27.871  26.445  1.00  0.00     0.034 A 
ATOM     26  C   UNL A   1      41.527  30.266  29.504  1.00  0.00     0.049 A 
ATOM     27  C   UNL A   1      46.432  29.215  27.033  1.00  0.00     0.074 A 
ATOM     28  C   UNL A   1      41.363  31.525  30.058  1.00  0.00     0.029 A 
ATOM     29  N   UNL A   1      42.808  30.229  28.974  1.00  0.00    -0.354 N 
ATOM     30  N   UNL A   1      45.360  29.595  27.686  1.00  0.00    -0.248 NA
ATOM     31  C   UNL A   1      47.456  30.259  26.899  1.00  0.00     0.031 C 
ATOM     32  C   UNL A   1      42.539  32.254  29.844  1.00  0.00     0.029 A 
ATOM     33  C   UNL A   1      43.443  31.443  29.178  1.00  0.00     0.049 A 
ATOM     34  H   UNL A   1      43.207  29.452  28.519  1.00  0.00     0.167 HD
ATOM     35  C   UNL A   1      45.595  30.911  28.070  1.00  0.00     0.074 A 
ATOM     36  C   UNL A   1      46.919  31.255  27.592  1.00  0.00     0.031 C 
ATOM     37  C   UNL A   1      44.781  31.759  28.745  1.00  0.00     0.034 A 
BRANCH  24  38
ATOM     38  C   UNL A   1      39.203  29.413  30.019  1.00  0.00     0.023 A 
ATOM     39  C   UNL A   1      38.902  28.974  31.324  1.00  0.00     0.012 A 
ATOM     40  C   UNL A   1      38.225  30.112  29.284  1.00  0.00     0.148 A 
ATOM     41  C   UNL A   1      37.639  29.191  31.875  1.00  0.00     0.002 A 
ATOM     42  C   UNL A   1      36.980  30.359  29.855  1.00  0.00     0.091 A 
ATOM     43  F   UNL A   1      38.517  30.505  28.037  1.00  0.00    -0.205 F 
ATOM     44  C   UNL A   1      36.682  29.891  31.144  1.00  0.00     0.022 A 
BRANCH  42  45
ATOM     45  S   UNL A   1      35.714  31.320  29.017  1.00  0.00     0.127 S 
ATOM     46  O   UNL A   1      36.513  32.353  28.360  1.00  0.00    -0.237 OA
ATOM     47  O   UNL A   1      35.124  30.336  28.108  1.00  0.00    -0.237 OA
ATOM     48  O   UNL A   1      34.814  31.786  30.064  1.00  0.00    -0.744 OA
ENDBRANCH  42  45
ENDBRANCH  24  38
BRANCH  25  49
ATOM     49  C   UNL A   1      48.078  27.598  25.823  1.00  0.00     0.023 A 
ATOM     50  C   UNL A   1      49.143  27.168  26.637  1.00  0.00     0.012 A 
ATOM     51  C   UNL A   1      48.273  27.703  24.432  1.00  0.00     0.148 A 
ATOM     52  C   UNL A   1      50.386  26.866  26.081  1.00  0.00     0.002 A 
ATOM     53  C   UNL A   1      49.496  27.345  23.878  1.00  0.00     0.091 A 
ATOM     54  F   UNL A   1      47.250  28.126  23.678  1.00  0.00    -0.205 F 
ATOM     55  C   UNL A   1      50.559  26.942  24.701  1.00  0.00     0.022 A 
BRANCH  53  56
ATOM     56  S   UNL A   1      49.768  27.282  22.103  1.00  0.00     0.127 S 
ATOM     57  O   UNL A   1      49.575  28.678  21.722  1.00  0.00    -0.237 OA
ATOM     58  O   UNL A   1      51.150  26.806  22.027  1.00  0.00    -0.237 OA
ATOM     59  O   UNL A   1      48.781  26.343  21.587  1.00  0.00    -0.744 OA
ENDBRANCH  53  56
ENDBRANCH  25  49
BRANCH  37  60
ATOM     60  C   UNL A   1      45.307  33.139  29.043  1.00  0.00     0.023 A 
ATOM     61  C   UNL A   1      45.975  33.388  30.258  1.00  0.00     0.012 A 
ATOM     62  C   UNL A   1      45.194  34.173  28.092  1.00  0.00     0.148 A 
ATOM     63  C   UNL A   1      46.495  34.652  30.535  1.00  0.00     0.002 A 
ATOM     64  C   UNL A   1      45.755  35.416  28.356  1.00  0.00     0.091 A 
ATOM     65  F   UNL A   1      44.533  33.924  26.951  1.00  0.00    -0.205 F 
ATOM     66  C   UNL A   1      46.396  35.661  29.581  1.00  0.00     0.022 A 
BRANCH  64  67
ATOM     67  S   UNL A   1      45.754  36.742  27.142  1.00  0.00     0.127 S 
ATOM     68  O   UNL A   1      44.326  37.016  27.001  1.00  0.00    -0.237 OA
ATOM     69  O   UNL A   1      46.513  37.791  27.824  1.00  0.00    -0.237 OA
ATOM     70  O   UNL A   1      46.410  36.198  25.961  1.00  0.00    -0.744 OA
ENDBRANCH  64  67
ENDBRANCH  37  60
ENDBRANCH  11  12
ENDBRANCH   4   6
ENDBRANCH   1   2
BRANCH   1  71
ATOM     71  C   UNL A   1      37.569  19.608  25.010  1.00  0.00     0.042 C 
BRANCH  71  72
ATOM     72  C   UNL A   1      36.358  20.489  24.699  1.00  0.00     0.117 C 
BRANCH  72  73
ATOM     73  N   UNL A   1      35.481  20.682  25.837  1.00  0.00    -0.356 N 
ATOM     74  C   UNL A   1      34.135  20.915  25.940  1.00  0.00     0.226 C 
ATOM     75  H   UNL A   1      35.943  20.637  26.705  1.00  0.00     0.163 HD
ATOM     76  O   UNL A   1      33.651  21.001  27.062  1.00  0.00    -0.274 OA
BRANCH  74  77
ATOM     77  C   UNL A   1      33.238  20.943  24.722  1.00  0.00     0.056 C 
ATOM     78  C   UNL A   1      32.075  21.935  24.773  1.00  0.00     0.018 C 
ATOM     79  C   UNL A   1      33.256  22.246  23.910  1.00  0.00     0.018 C 
BRANCH  77  80
ATOM     80  C   UNL A   1      33.040  19.681  23.888  1.00  0.00     0.084 C 
BRANCH  80  81
ATOM     81  C   UNL A   1      33.148  18.362  24.601  1.00  0.00     0.094 A 
ATOM     82  N   UNL A   1      32.248  17.865  25.424  1.00  0.00    -0.250 NA
ATOM     83  S   UNL A   1      34.482  17.324  24.260  1.00  0.00    -0.127 S 
ATOM     84  C   UNL A   1      32.612  16.591  25.805  1.00  0.00     0.123 A 
ATOM     85  C   UNL A   1      33.785  16.120  25.260  1.00  0.00     0.087 A 
ENDBRANCH  80  81
ENDBRANCH  77  80
ENDBRANCH  74  77
ENDBRANCH  72  73
ENDBRANCH  71  72
ENDBRANCH   1  71
TORSDOF 15
ENDMDL
MODEL 3
REMARK VINA RESULT:     -10.1      4.459     11.945
REMARK SMILES O=C(NCCCNC(=O)C1(Cc2nccs2)CC1)c1ccc(-c2c3nc(c(-c4cccc(S(=O)(=O)[O-])c4F)c4ccc([nH]4)c(-c4cccc(S(=O)(=O)[O-])c4F)c4nc(c(-c5cccc(S(=O)(=O)[O-])c5F)c5ccc2[nH]5)C=C4)C=C3)cc1
REMARK SMILES IDX 4 1 3 2 1 3 2 4 19 6 20 7 81 8 21 9 80 10 22 11 23 12 24 13
REMARK SMILES IDX 74 14 25 15 79 16 73 17 75 18 26 19 78 20 72 21 71 22 27 24
REMARK SMILES IDX 59 25 39 26 58 27 40 28 43 29 57 30 76 31 41 32 42 33 56 35
REMARK SMILES IDX 77 36 44 37 28 38 29 39 37 40 30 41 32 42 38 43 31 44 33 45
REMARK SMILES IDX 34 46 35 47 36 48 60 49 61 50 69 51 62 52 64 53 70 54 63 55
REMARK SMILES IDX 65 56 66 57 67 58 68 59 45 60 46 61 54 62 47 63 49 64 55 65
REMARK SMILES IDX 48 66 50 67 51 68 52 69 53 70 5 71 6 72 7 73 8 74 9 76 10 77
REMARK SMILES IDX 17 78 18 79 11 80 12 81 13 82 16 83 14 84 15 85
REMARK H PARENT 3 5 75 23 43 34 7 75
REMARK Flexibility Score: inf
ROOT
ATOM      1  C   UNL A   1      40.775  21.428  27.713  1.00  0.00     0.118 C 
ENDROOT
BRANCH   1   2
ATOM      2  N   UNL A   1      39.715  21.632  26.739  1.00  0.00    -0.352 N 
ATOM      3  O   UNL A   1      37.963  22.656  25.783  1.00  0.00    -0.269 OA
ATOM      4  C   UNL A   1      38.988  22.763  26.453  1.00  0.00     0.251 C 
ATOM      5  H   UNL A   1      39.482  20.840  26.203  1.00  0.00     0.163 HD
BRANCH   4   6
ATOM      6  C   UNL A   1      39.414  24.097  26.946  1.00  0.00     0.039 A 
ATOM      7  C   UNL A   1      39.289  24.450  28.292  1.00  0.00     0.014 A 
ATOM      8  C   UNL A   1      40.025  24.985  26.054  1.00  0.00     0.014 A 
ATOM      9  C   UNL A   1      39.661  25.725  28.718  1.00  0.00     0.010 A 
ATOM     10  C   UNL A   1      40.468  26.237  26.500  1.00  0.00     0.010 A 
ATOM     11  C   UNL A   1      40.267  26.631  27.831  1.00  0.00    -0.014 A 
BRANCH  11  12
ATOM     12  C   UNL A   1      40.745  27.949  28.330  1.00  0.00     0.031 A 
ATOM     13  C   UNL A   1      42.204  28.315  28.304  1.00  0.00     0.074 A 
ATOM     14  C   UNL A   1      39.847  28.824  28.826  1.00  0.00     0.049 A 
ATOM     15  N   UNL A   1      42.777  29.438  28.660  1.00  0.00    -0.248 NA
ATOM     16  C   UNL A   1      43.145  27.290  27.827  1.00  0.00     0.031 C 
ATOM     17  C   UNL A   1      38.410  28.570  28.959  1.00  0.00     0.029 A 
ATOM     18  N   UNL A   1      40.003  30.099  29.312  1.00  0.00    -0.354 N 
ATOM     19  C   UNL A   1      44.143  29.243  28.493  1.00  0.00     0.074 A 
ATOM     20  C   UNL A   1      44.315  27.888  28.009  1.00  0.00     0.031 C 
ATOM     21  C   UNL A   1      37.813  29.662  29.460  1.00  0.00     0.029 A 
ATOM     22  C   UNL A   1      38.826  30.679  29.724  1.00  0.00     0.049 A 
ATOM     23  H   UNL A   1      40.875  30.554  29.361  1.00  0.00     0.167 HD
ATOM     24  C   UNL A   1      45.160  30.114  28.705  1.00  0.00     0.034 A 
ATOM     25  C   UNL A   1      38.583  31.892  30.257  1.00  0.00     0.034 A 
ATOM     26  C   UNL A   1      44.985  31.472  29.151  1.00  0.00     0.049 A 
ATOM     27  C   UNL A   1      39.724  32.850  30.448  1.00  0.00     0.074 A 
ATOM     28  C   UNL A   1      45.948  32.453  29.317  1.00  0.00     0.029 A 
ATOM     29  N   UNL A   1      43.772  32.039  29.510  1.00  0.00    -0.354 N 
ATOM     30  N   UNL A   1      40.989  32.696  30.143  1.00  0.00    -0.248 NA
ATOM     31  C   UNL A   1      39.400  34.161  31.027  1.00  0.00     0.031 C 
ATOM     32  C   UNL A   1      45.318  33.607  29.797  1.00  0.00     0.029 A 
ATOM     33  C   UNL A   1      43.961  33.353  29.907  1.00  0.00     0.049 A 
ATOM     34  H   UNL A   1      42.903  31.576  29.486  1.00  0.00     0.167 HD
ATOM     35  C   UNL A   1      41.608  33.899  30.461  1.00  0.00     0.074 A 
ATOM     36  C   UNL A   1      40.572  34.780  30.964  1.00  0.00     0.031 C 
ATOM     37  C   UNL A   1      42.916  34.239  30.357  1.00  0.00     0.034 A 
BRANCH  24  38
ATOM     38  C   UNL A   1      46.561  29.635  28.420  1.00  0.00     0.023 A 
ATOM     39  C   UNL A   1      47.139  29.880  27.157  1.00  0.00     0.012 A 
ATOM     40  C   UNL A   1      47.326  28.993  29.414  1.00  0.00     0.148 A 
ATOM     41  C   UNL A   1      48.439  29.461  26.875  1.00  0.00     0.002 A 
ATOM     42  C   UNL A   1      48.636  28.613  29.138  1.00  0.00     0.091 A 
ATOM     43  F   UNL A   1      46.759  28.747  30.603  1.00  0.00    -0.205 F 
ATOM     44  C   UNL A   1      49.190  28.836  27.867  1.00  0.00     0.022 A 
BRANCH  42  45
ATOM     45  S   UNL A   1      49.703  27.873  30.380  1.00  0.00     0.127 S 
ATOM     46  O   UNL A   1      51.008  27.933  29.722  1.00  0.00    -0.237 OA
ATOM     47  O   UNL A   1      49.549  28.788  31.512  1.00  0.00    -0.237 OA
ATOM     48  O   UNL A   1      49.172  26.536  30.611  1.00  0.00    -0.744 OA
ENDBRANCH  42  45
ENDBRANCH  24  38
BRANCH  25  49
ATOM     49  C   UNL A   1      37.182  32.289  30.574  1.00  0.00     0.023 A 
ATOM     50  C   UNL A   1      36.711  32.156  31.894  1.00  0.00     0.012 A 
ATOM     51  C   UNL A   1      36.339  32.851  29.595  1.00  0.00     0.148 A 
ATOM     52  C   UNL A   1      35.418  32.556  32.232  1.00  0.00     0.002 A 
ATOM     53  C   UNL A   1      35.072  33.300  29.952  1.00  0.00     0.091 A 
ATOM     54  F   UNL A   1      36.802  32.957  28.343  1.00  0.00    -0.205 F 
ATOM     55  C   UNL A   1      34.604  33.139  31.265  1.00  0.00     0.022 A 
BRANCH  53  56
ATOM     56  S   UNL A   1      34.008  34.186  28.807  1.00  0.00     0.127 S 
ATOM     57  O   UNL A   1      32.901  34.581  29.674  1.00  0.00    -0.237 OA
ATOM     58  O   UNL A   1      34.876  35.282  28.376  1.00  0.00    -0.237 OA
ATOM     59  O   UNL A   1      33.680  33.232  27.756  1.00  0.00    -0.744 OA
ENDBRANCH  53  56
ENDBRANCH  25  49
BRANCH  37  60
ATOM     60  C   UNL A   1      43.307  35.636  30.763  1.00  0.00     0.023 A 
ATOM     61  C   UNL A   1      43.705  35.895  32.089  1.00  0.00     0.012 A 
ATOM     62  C   UNL A   1      43.341  36.677  29.815  1.00  0.00     0.148 A 
ATOM     63  C   UNL A   1      44.101  37.175  32.473  1.00  0.00     0.002 A 
ATOM     64  C   UNL A   1      43.782  37.940  30.194  1.00  0.00     0.091 A 
ATOM     65  F   UNL A   1      42.936  36.418  28.563  1.00  0.00    -0.205 F 
ATOM     66  C   UNL A   1      44.151  38.194  31.524  1.00  0.00     0.022 A 
BRANCH  64  67
ATOM     67  S   UNL A   1      43.965  39.283  29.013  1.00  0.00     0.127 S 
ATOM     68  O   UNL A   1      42.572  39.617  28.722  1.00  0.00    -0.237 OA
ATOM     69  O   UNL A   1      44.684  40.290  29.793  1.00  0.00    -0.237 OA
ATOM     70  O   UNL A   1      44.725  38.730  27.901  1.00  0.00    -0.744 OA
ENDBRANCH  64  67
ENDBRANCH  37  60
ENDBRANCH  11  12
ENDBRANCH   4   6
ENDBRANCH   1   2
BRANCH   1  71
ATOM     71  C   UNL A   1      42.147  21.783  27.144  1.00  0.00     0.042 C 
BRANCH  71  72
ATOM     72  C   UNL A   1      42.810  23.004  27.783  1.00  0.00     0.117 C 
BRANCH  72  73
ATOM     73  N   UNL A   1      44.258  22.952  27.755  1.00  0.00    -0.356 N 
ATOM     74  C   UNL A   1      45.173  23.154  26.755  1.00  0.00     0.226 C 
ATOM     75  H   UNL A   1      44.663  22.729  28.624  1.00  0.00     0.163 HD
ATOM     76  O   UNL A   1      46.362  23.078  27.041  1.00  0.00    -0.274 OA
BRANCH  74  77
ATOM     77  C   UNL A   1      44.752  23.580  25.366  1.00  0.00     0.056 C 
ATOM     78  C   UNL A   1      43.636  24.624  25.299  1.00  0.00     0.018 C 
ATOM     79  C   UNL A   1      45.040  25.043  25.001  1.00  0.00     0.018 C 
BRANCH  77  80
ATOM     80  C   UNL A   1      44.862  22.603  24.200  1.00  0.00     0.084 C 
BRANCH  80  81
ATOM     81  C   UNL A   1      44.887  21.137  24.531  1.00  0.00     0.094 A 
ATOM     82  N   UNL A   1      43.828  20.370  24.675  1.00  0.00    -0.250 NA
ATOM     83  S   UNL A   1      46.404  20.319  24.626  1.00  0.00    -0.127 S 
ATOM     84  C   UNL A   1      44.217  19.059  24.860  1.00  0.00     0.123 A 
ATOM     85  C   UNL A   1      45.576  18.836  24.845  1.00  0.00     0.087 A 
ENDBRANCH  80  81
ENDBRANCH  77  80
ENDBRANCH  74  77
ENDBRANCH  72  73
ENDBRANCH  71  72
ENDBRANCH   1  71
TORSDOF 15
ENDMDL
