MODEL 1
REMARK VINA RESULT:     -10.3      0.000      0.000
REMARK SMILES C[C@@H](C(=O)NCCCNC(=O)c1ccc(-c2c3nc(c(-c4cccc(S(=O)(=O)[O-])c4F)c4ccc([nH]4)c(-c4cccc(S(=O)(=O)[O-])c4F)c4nc(c(-c5cccc(S(=O)(=O)[O-])c5F)c5ccc2[nH]5)C=C4)C=C3)cc1)N1C(=O)/C(=C/c2ccc(-c3ccc([N+](=O)[O-])cc3Cl)o2)SC1=S
REMARK SMILES IDX 6 1 5 2 3 3 4 4 2 6 1 7 75 8 76 9 96 10 77 11 78 12 95 13
REMARK SMILES IDX 97 14 79 15 80 16 81 17 94 18 82 19 83 20 84 21 85 22 92 23
REMARK SMILES IDX 86 24 91 25 93 26 87 27 88 28 89 29 90 30 7 31 8 32 9 33
REMARK SMILES IDX 10 34 11 36 12 37 13 38 74 39 14 40 73 41 15 42 16 43 17 44
REMARK SMILES IDX 67 45 18 46 72 47 66 48 68 49 19 50 71 51 65 52 64 53 20 55
REMARK SMILES IDX 52 56 32 57 51 58 33 59 36 60 50 61 69 62 34 63 35 64 49 66
REMARK SMILES IDX 70 67 37 68 21 69 22 70 30 71 23 72 25 73 31 74 24 75 26 76
REMARK SMILES IDX 27 77 28 78 29 79 53 80 54 81 62 82 55 83 57 84 63 85 56 86
REMARK SMILES IDX 58 87 59 88 60 89 61 90 38 91 39 92 47 93 40 94 42 95 48 96
REMARK SMILES IDX 41 97 43 98 44 99 45 100 46 101
REMARK H PARENT 5 5 9 35 68 54 36 65
REMARK Flexibility Score: inf
ROOT
ATOM      1  C   UNL A   1      34.033  33.944  30.358  1.00  0.00     0.117 C 
ENDROOT
BRANCH   1   2
ATOM      2  N   UNL A   1      34.830  32.841  30.859  1.00  0.00    -0.354 N 
ATOM      3  C   UNL A   1      35.569  32.750  32.002  1.00  0.00     0.242 C 
ATOM      4  O   UNL A   1      35.774  31.610  32.431  1.00  0.00    -0.273 OA
ATOM      5  H   UNL A   1      34.841  32.039  30.288  1.00  0.00     0.163 HD
BRANCH   3   6
ATOM      6  C   UNL A   1      36.026  34.009  32.774  1.00  0.00     0.178 C 
ATOM      7  C   UNL A   1      35.254  35.305  32.541  1.00  0.00     0.042 C 
BRANCH   6   8
ATOM      8  N   UNL A   1      37.476  34.256  32.587  1.00  0.00    -0.281 N 
ATOM      9  C   UNL A   1      37.959  34.309  31.290  1.00  0.00     0.267 C 
ATOM     10  C   UNL A   1      38.431  34.249  33.591  1.00  0.00     0.149 C 
ATOM     11  O   UNL A   1      37.292  34.229  30.261  1.00  0.00    -0.268 OA
ATOM     12  C   UNL A   1      39.442  34.356  31.287  1.00  0.00     0.084 C 
ATOM     13  S   UNL A   1      40.018  34.542  32.893  1.00  0.00    -0.054 SA
ATOM     14  S   UNL A   1      38.278  33.968  35.230  1.00  0.00    -0.052 S 
ATOM     15  C   UNL A   1      40.154  34.209  30.163  1.00  0.00     0.068 C 
BRANCH  15  16
ATOM     16  C   UNL A   1      41.575  34.167  30.153  1.00  0.00     0.128 A 
ATOM     17  C   UNL A   1      42.495  34.963  30.827  1.00  0.00     0.051 A 
ATOM     18  O   UNL A   1      42.284  33.255  29.406  1.00  0.00    -0.457 OA
ATOM     19  C   UNL A   1      43.788  34.577  30.413  1.00  0.00     0.051 A 
ATOM     20  C   UNL A   1      43.608  33.549  29.518  1.00  0.00     0.136 A 
BRANCH  20  21
ATOM     21  C   UNL A   1      44.525  32.752  28.721  1.00  0.00     0.036 A 
ATOM     22  C   UNL A   1      44.405  32.807  27.321  1.00  0.00     0.020 A 
ATOM     23  C   UNL A   1      45.477  31.883  29.286  1.00  0.00     0.058 A 
ATOM     24  C   UNL A   1      45.199  32.006  26.499  1.00  0.00     0.086 A 
ATOM     25  C   UNL A   1      46.277  31.076  28.468  1.00  0.00     0.106 A 
ATOM     26  Cl  UNL A   1      45.676  31.695  30.996  1.00  0.00    -0.083 Cl
ATOM     27  C   UNL A   1      46.127  31.134  27.079  1.00  0.00     0.270 A 
BRANCH  27  28
ATOM     28  N   UNL A   1      46.931  30.255  26.222  1.00  0.00     0.062 N 
ATOM     29  O   UNL A   1      46.429  29.875  25.154  1.00  0.00    -0.258 OA
ATOM     30  O   UNL A   1      48.061  29.938  26.620  1.00  0.00    -0.258 OA
ENDBRANCH  27  28
ENDBRANCH  20  21
ENDBRANCH  15  16
ENDBRANCH   6   8
ENDBRANCH   3   6
ENDBRANCH   1   2
BRANCH   1  31
ATOM     31  C   UNL A   1      33.894  33.957  28.840  1.00  0.00     0.042 C 
BRANCH  31  32
ATOM     32  C   UNL A   1      34.804  32.982  28.100  1.00  0.00     0.118 C 
BRANCH  32  33
ATOM     33  N   UNL A   1      34.121  31.769  27.676  1.00  0.00    -0.352 N 
ATOM     34  C   UNL A   1      34.573  30.473  27.610  1.00  0.00     0.251 C 
ATOM     35  H   UNL A   1      33.187  31.897  27.390  1.00  0.00     0.163 HD
ATOM     36  O   UNL A   1      33.874  29.618  27.071  1.00  0.00    -0.269 OA
BRANCH  34  37
ATOM     37  C   UNL A   1      35.898  30.104  28.157  1.00  0.00     0.039 A 
ATOM     38  C   UNL A   1      35.974  29.606  29.461  1.00  0.00     0.014 A 
ATOM     39  C   UNL A   1      37.063  30.261  27.402  1.00  0.00     0.014 A 
ATOM     40  C   UNL A   1      37.207  29.196  29.979  1.00  0.00     0.010 A 
ATOM     41  C   UNL A   1      38.275  29.777  27.888  1.00  0.00     0.010 A 
ATOM     42  C   UNL A   1      38.362  29.240  29.182  1.00  0.00    -0.014 A 
BRANCH  42  43
ATOM     43  C   UNL A   1      39.664  28.713  29.670  1.00  0.00     0.031 A 
ATOM     44  C   UNL A   1      40.408  29.419  30.770  1.00  0.00     0.074 A 
ATOM     45  C   UNL A   1      40.228  27.657  29.049  1.00  0.00     0.049 A 
ATOM     46  N   UNL A   1      41.593  29.163  31.261  1.00  0.00    -0.248 NA
ATOM     47  C   UNL A   1      39.747  30.586  31.378  1.00  0.00     0.031 C 
ATOM     48  C   UNL A   1      39.647  26.934  27.914  1.00  0.00     0.029 A 
ATOM     49  N   UNL A   1      41.434  27.033  29.256  1.00  0.00    -0.354 N 
ATOM     50  C   UNL A   1      41.837  30.156  32.203  1.00  0.00     0.074 A 
ATOM     51  C   UNL A   1      40.690  31.038  32.191  1.00  0.00     0.031 C 
ATOM     52  C   UNL A   1      40.501  25.976  27.521  1.00  0.00     0.029 A 
ATOM     53  C   UNL A   1      41.702  26.036  28.348  1.00  0.00     0.049 A 
ATOM     54  H   UNL A   1      42.049  27.278  29.986  1.00  0.00     0.167 HD
ATOM     55  C   UNL A   1      42.905  30.308  33.021  1.00  0.00     0.034 A 
ATOM     56  C   UNL A   1      42.797  25.268  28.182  1.00  0.00     0.034 A 
ATOM     57  C   UNL A   1      44.028  29.409  33.055  1.00  0.00     0.049 A 
ATOM     58  C   UNL A   1      43.956  25.429  29.127  1.00  0.00     0.074 A 
ATOM     59  C   UNL A   1      45.113  29.420  33.915  1.00  0.00     0.029 A 
ATOM     60  N   UNL A   1      44.220  28.347  32.185  1.00  0.00    -0.354 N 
ATOM     61  N   UNL A   1      44.095  26.270  30.123  1.00  0.00    -0.248 NA
ATOM     62  C   UNL A   1      45.094  24.514  28.952  1.00  0.00     0.031 C 
ATOM     63  C   UNL A   1      45.975  28.384  33.543  1.00  0.00     0.029 A 
ATOM     64  C   UNL A   1      45.411  27.705  32.474  1.00  0.00     0.049 A 
ATOM     65  H   UNL A   1      43.598  28.088  31.466  1.00  0.00     0.167 HD
ATOM     66  C   UNL A   1      45.318  25.965  30.713  1.00  0.00     0.074 A 
ATOM     67  C   UNL A   1      45.870  24.849  29.974  1.00  0.00     0.031 C 
ATOM     68  C   UNL A   1      45.930  26.564  31.764  1.00  0.00     0.034 A 
BRANCH  55  69
ATOM     69  C   UNL A   1      42.891  31.471  33.981  1.00  0.00     0.023 A 
ATOM     70  C   UNL A   1      43.422  32.714  33.579  1.00  0.00     0.012 A 
ATOM     71  C   UNL A   1      42.316  31.349  35.261  1.00  0.00     0.148 A 
ATOM     72  C   UNL A   1      43.421  33.804  34.448  1.00  0.00     0.002 A 
ATOM     73  C   UNL A   1      42.274  32.453  36.104  1.00  0.00     0.091 A 
ATOM     74  F   UNL A   1      41.833  30.155  35.635  1.00  0.00    -0.205 F 
ATOM     75  C   UNL A   1      42.838  33.676  35.707  1.00  0.00     0.022 A 
BRANCH  73  76
ATOM     76  S   UNL A   1      41.471  32.412  37.711  1.00  0.00     0.127 S 
ATOM     77  O   UNL A   1      40.153  31.883  37.368  1.00  0.00    -0.237 OA
ATOM     78  O   UNL A   1      42.323  31.487  38.458  1.00  0.00    -0.237 OA
ATOM     79  O   UNL A   1      41.489  33.783  38.203  1.00  0.00    -0.744 OA
ENDBRANCH  73  76
ENDBRANCH  55  69
BRANCH  56  80
ATOM     80  C   UNL A   1      42.825  24.245  27.099  1.00  0.00     0.023 A 
ATOM     81  C   UNL A   1      43.552  24.497  25.920  1.00  0.00     0.012 A 
ATOM     82  C   UNL A   1      42.170  23.006  27.252  1.00  0.00     0.148 A 
ATOM     83  C   UNL A   1      43.605  23.546  24.900  1.00  0.00     0.002 A 
ATOM     84  C   UNL A   1      42.275  22.041  26.257  1.00  0.00     0.091 A 
ATOM     85  F   UNL A   1      41.475  22.790  28.377  1.00  0.00    -0.205 F 
ATOM     86  C   UNL A   1      42.977  22.315  25.072  1.00  0.00     0.022 A 
BRANCH  84  87
ATOM     87  S   UNL A   1      41.618  20.381  26.453  1.00  0.00     0.127 S 
ATOM     88  O   UNL A   1      42.220  19.684  25.318  1.00  0.00    -0.237 OA
ATOM     89  O   UNL A   1      42.148  20.000  27.762  1.00  0.00    -0.237 OA
ATOM     90  O   UNL A   1      40.169  20.522  26.411  1.00  0.00    -0.744 OA
ENDBRANCH  84  87
ENDBRANCH  56  80
BRANCH  68  91
ATOM     91  C   UNL A   1      47.256  26.009  32.215  1.00  0.00     0.023 A 
ATOM     92  C   UNL A   1      48.453  26.518  31.676  1.00  0.00     0.012 A 
ATOM     93  C   UNL A   1      47.314  25.041  33.238  1.00  0.00     0.148 A 
ATOM     94  C   UNL A   1      49.688  26.054  32.128  1.00  0.00     0.002 A 
ATOM     95  C   UNL A   1      48.549  24.622  33.721  1.00  0.00     0.091 A 
ATOM     96  F   UNL A   1      46.164  24.557  33.726  1.00  0.00    -0.205 F 
ATOM     97  C   UNL A   1      49.735  25.118  33.159  1.00  0.00     0.022 A 
BRANCH  95  98
ATOM     98  S   UNL A   1      48.709  23.494  35.110  1.00  0.00     0.127 S 
ATOM     99  O   UNL A   1      48.071  22.286  34.587  1.00  0.00    -0.237 OA
ATOM    100  O   UNL A   1      50.161  23.399  35.264  1.00  0.00    -0.237 OA
ATOM    101  O   UNL A   1      48.022  24.127  36.226  1.00  0.00    -0.744 OA
ENDBRANCH  95  98
ENDBRANCH  68  91
ENDBRANCH  42  43
ENDBRANCH  34  37
ENDBRANCH  32  33
ENDBRANCH  31  32
ENDBRANCH   1  31
TORSDOF 17
ENDMDL
MODEL 2
REMARK VINA RESULT:      -9.9      1.690      2.143
REMARK SMILES C[C@@H](C(=O)NCCCNC(=O)c1ccc(-c2c3nc(c(-c4cccc(S(=O)(=O)[O-])c4F)c4ccc([nH]4)c(-c4cccc(S(=O)(=O)[O-])c4F)c4nc(c(-c5cccc(S(=O)(=O)[O-])c5F)c5ccc2[nH]5)C=C4)C=C3)cc1)N1C(=O)/C(=C/c2ccc(-c3ccc([N+](=O)[O-])cc3Cl)o2)SC1=S
REMARK SMILES IDX 6 1 5 2 3 3 4 4 2 6 1 7 75 8 76 9 96 10 77 11 78 12 95 13
REMARK SMILES IDX 97 14 79 15 80 16 81 17 94 18 82 19 83 20 84 21 85 22 92 23
REMARK SMILES IDX 86 24 91 25 93 26 87 27 88 28 89 29 90 30 7 31 8 32 9 33
REMARK SMILES IDX 10 34 11 36 12 37 13 38 74 39 14 40 73 41 15 42 16 43 17 44
REMARK SMILES IDX 67 45 18 46 72 47 66 48 68 49 19 50 71 51 65 52 64 53 20 55
REMARK SMILES IDX 52 56 32 57 51 58 33 59 36 60 50 61 69 62 34 63 35 64 49 66
REMARK SMILES IDX 70 67 37 68 21 69 22 70 30 71 23 72 25 73 31 74 24 75 26 76
REMARK SMILES IDX 27 77 28 78 29 79 53 80 54 81 62 82 55 83 57 84 63 85 56 86
REMARK SMILES IDX 58 87 59 88 60 89 61 90 38 91 39 92 47 93 40 94 42 95 48 96
REMARK SMILES IDX 41 97 43 98 44 99 45 100 46 101
REMARK H PARENT 5 5 9 35 68 54 36 65
REMARK Flexibility Score: inf
ROOT
ATOM      1  C   UNL A   1      34.025  34.205  30.478  1.00  0.00     0.117 C 
ENDROOT
BRANCH   1   2
ATOM      2  N   UNL A   1      34.705  33.066  31.064  1.00  0.00    -0.354 N 
ATOM      3  C   UNL A   1      35.422  32.981  32.220  1.00  0.00     0.242 C 
ATOM      4  O   UNL A   1      35.510  31.859  32.729  1.00  0.00    -0.273 OA
ATOM      5  H   UNL A   1      34.639  32.229  30.550  1.00  0.00     0.163 HD
BRANCH   3   6
ATOM      6  C   UNL A   1      35.999  34.239  32.911  1.00  0.00     0.178 C 
ATOM      7  C   UNL A   1      35.341  35.583  32.602  1.00  0.00     0.042 C 
BRANCH   6   8
ATOM      8  N   UNL A   1      37.462  34.344  32.699  1.00  0.00    -0.281 N 
ATOM      9  C   UNL A   1      37.933  34.275  31.399  1.00  0.00     0.267 C 
ATOM     10  C   UNL A   1      38.424  34.313  33.697  1.00  0.00     0.149 C 
ATOM     11  O   UNL A   1      37.249  34.194  30.381  1.00  0.00    -0.268 OA
ATOM     12  C   UNL A   1      39.414  34.190  31.384  1.00  0.00     0.084 C 
ATOM     13  S   UNL A   1      40.023  34.420  32.972  1.00  0.00    -0.054 SA
ATOM     14  S   UNL A   1      38.266  34.145  35.350  1.00  0.00    -0.052 S 
ATOM     15  C   UNL A   1      40.098  33.913  30.266  1.00  0.00     0.068 C 
BRANCH  15  16
ATOM     16  C   UNL A   1      41.509  33.743  30.250  1.00  0.00     0.128 A 
ATOM     17  C   UNL A   1      42.520  34.661  30.516  1.00  0.00     0.051 A 
ATOM     18  O   UNL A   1      42.108  32.545  29.938  1.00  0.00    -0.457 OA
ATOM     19  C   UNL A   1      43.757  34.025  30.277  1.00  0.00     0.051 A 
ATOM     20  C   UNL A   1      43.453  32.739  29.895  1.00  0.00     0.136 A 
BRANCH  20  21
ATOM     21  C   UNL A   1      44.266  31.606  29.486  1.00  0.00     0.036 A 
ATOM     22  C   UNL A   1      44.756  30.747  30.485  1.00  0.00     0.020 A 
ATOM     23  C   UNL A   1      44.638  31.370  28.148  1.00  0.00     0.058 A 
ATOM     24  C   UNL A   1      45.609  29.688  30.170  1.00  0.00     0.086 A 
ATOM     25  C   UNL A   1      45.492  30.310  27.823  1.00  0.00     0.106 A 
ATOM     26  Cl  UNL A   1      44.138  32.393  26.843  1.00  0.00    -0.083 Cl
ATOM     27  C   UNL A   1      45.982  29.480  28.838  1.00  0.00     0.270 A 
BRANCH  27  28
ATOM     28  N   UNL A   1      46.915  28.398  28.505  1.00  0.00     0.062 N 
ATOM     29  O   UNL A   1      46.434  27.320  28.127  1.00  0.00    -0.258 OA
ATOM     30  O   UNL A   1      48.127  28.622  28.630  1.00  0.00    -0.258 OA
ENDBRANCH  27  28
ENDBRANCH  20  21
ENDBRANCH  15  16
ENDBRANCH   6   8
ENDBRANCH   3   6
ENDBRANCH   1   2
BRANCH   1  31
ATOM     31  C   UNL A   1      34.432  34.483  29.035  1.00  0.00     0.042 C 
BRANCH  31  32
ATOM     32  C   UNL A   1      35.155  33.337  28.336  1.00  0.00     0.118 C 
BRANCH  32  33
ATOM     33  N   UNL A   1      34.248  32.354  27.758  1.00  0.00    -0.352 N 
ATOM     34  C   UNL A   1      34.419  31.007  27.544  1.00  0.00     0.251 C 
ATOM     35  H   UNL A   1      33.375  32.711  27.477  1.00  0.00     0.163 HD
ATOM     36  O   UNL A   1      33.578  30.389  26.897  1.00  0.00    -0.269 OA
BRANCH  34  37
ATOM     37  C   UNL A   1      35.614  30.304  28.064  1.00  0.00     0.039 A 
ATOM     38  C   UNL A   1      36.751  30.218  27.254  1.00  0.00     0.014 A 
ATOM     39  C   UNL A   1      35.615  29.717  29.332  1.00  0.00     0.014 A 
ATOM     40  C   UNL A   1      37.911  29.611  27.746  1.00  0.00     0.010 A 
ATOM     41  C   UNL A   1      36.795  29.186  29.849  1.00  0.00     0.010 A 
ATOM     42  C   UNL A   1      37.956  29.125  29.062  1.00  0.00    -0.014 A 
BRANCH  42  43
ATOM     43  C   UNL A   1      39.206  28.572  29.645  1.00  0.00     0.031 A 
ATOM     44  C   UNL A   1      39.847  29.229  30.837  1.00  0.00     0.074 A 
ATOM     45  C   UNL A   1      39.824  27.540  29.035  1.00  0.00     0.049 A 
ATOM     46  N   UNL A   1      40.981  28.946  31.424  1.00  0.00    -0.248 NA
ATOM     47  C   UNL A   1      39.134  30.373  31.429  1.00  0.00     0.031 C 
ATOM     48  C   UNL A   1      39.349  26.867  27.823  1.00  0.00     0.029 A 
ATOM     49  N   UNL A   1      41.005  26.902  29.327  1.00  0.00    -0.354 N 
ATOM     50  C   UNL A   1      41.139  29.899  32.424  1.00  0.00     0.074 A 
ATOM     51  C   UNL A   1      39.999  30.786  32.344  1.00  0.00     0.031 C 
ATOM     52  C   UNL A   1      40.234  25.921  27.471  1.00  0.00     0.029 A 
ATOM     53  C   UNL A   1      41.354  25.941  28.407  1.00  0.00     0.049 A 
ATOM     54  H   UNL A   1      41.550  27.113  30.119  1.00  0.00     0.167 HD
ATOM     55  C   UNL A   1      42.128  30.011  33.343  1.00  0.00     0.034 A 
ATOM     56  C   UNL A   1      42.458  25.175  28.310  1.00  0.00     0.034 A 
ATOM     57  C   UNL A   1      43.241  29.105  33.443  1.00  0.00     0.049 A 
ATOM     58  C   UNL A   1      43.526  25.291  29.363  1.00  0.00     0.074 A 
ATOM     59  C   UNL A   1      44.242  29.075  34.399  1.00  0.00     0.029 A 
ATOM     60  N   UNL A   1      43.511  28.080  32.551  1.00  0.00    -0.354 N 
ATOM     61  N   UNL A   1      43.574  26.090  30.402  1.00  0.00    -0.248 NA
ATOM     62  C   UNL A   1      44.673  24.378  29.256  1.00  0.00     0.031 C 
ATOM     63  C   UNL A   1      45.134  28.052  34.065  1.00  0.00     0.029 A 
ATOM     64  C   UNL A   1      44.669  27.420  32.922  1.00  0.00     0.049 A 
ATOM     65  H   UNL A   1      42.958  27.854  31.768  1.00  0.00     0.167 HD
ATOM     66  C   UNL A   1      44.736  25.754  31.088  1.00  0.00     0.074 A 
ATOM     67  C   UNL A   1      45.353  24.667  30.358  1.00  0.00     0.031 C 
ATOM     68  C   UNL A   1      45.250  26.306  32.215  1.00  0.00     0.034 A 
BRANCH  55  69
ATOM     69  C   UNL A   1      42.027  31.134  34.345  1.00  0.00     0.023 A 
ATOM     70  C   UNL A   1      41.188  30.992  35.470  1.00  0.00     0.012 A 
ATOM     71  C   UNL A   1      42.793  32.307  34.199  1.00  0.00     0.148 A 
ATOM     72  C   UNL A   1      41.078  32.016  36.410  1.00  0.00     0.002 A 
ATOM     73  C   UNL A   1      42.715  33.303  35.166  1.00  0.00     0.091 A 
ATOM     74  F   UNL A   1      43.570  32.434  33.115  1.00  0.00    -0.205 F 
ATOM     75  C   UNL A   1      41.849  33.167  36.262  1.00  0.00     0.022 A 
BRANCH  73  76
ATOM     76  S   UNL A   1      43.729  34.786  35.110  1.00  0.00     0.127 S 
ATOM     77  O   UNL A   1      43.280  35.494  36.308  1.00  0.00    -0.237 OA
ATOM     78  O   UNL A   1      45.082  34.236  35.199  1.00  0.00    -0.237 OA
ATOM     79  O   UNL A   1      43.421  35.435  33.844  1.00  0.00    -0.744 OA
ENDBRANCH  73  76
ENDBRANCH  55  69
BRANCH  56  80
ATOM     80  C   UNL A   1      42.584  24.197  27.193  1.00  0.00     0.023 A 
ATOM     81  C   UNL A   1      43.318  24.544  26.042  1.00  0.00     0.012 A 
ATOM     82  C   UNL A   1      42.018  22.910  27.285  1.00  0.00     0.148 A 
ATOM     83  C   UNL A   1      43.462  23.637  24.991  1.00  0.00     0.002 A 
ATOM     84  C   UNL A   1      42.215  21.992  26.260  1.00  0.00     0.091 A 
ATOM     85  F   UNL A   1      41.315  22.604  28.385  1.00  0.00    -0.205 F 
ATOM     86  C   UNL A   1      42.921  22.359  25.104  1.00  0.00     0.022 A 
BRANCH  84  87
ATOM     87  S   UNL A   1      41.675  20.283  26.381  1.00  0.00     0.127 S 
ATOM     88  O   UNL A   1      42.123  19.921  27.723  1.00  0.00    -0.237 OA
ATOM     89  O   UNL A   1      40.226  20.413  26.228  1.00  0.00    -0.237 OA
ATOM     90  O   UNL A   1      42.332  19.583  25.285  1.00  0.00    -0.744 OA
ENDBRANCH  84  87
ENDBRANCH  56  80
BRANCH  68  91
ATOM     91  C   UNL A   1      46.529  25.726  32.763  1.00  0.00     0.023 A 
ATOM     92  C   UNL A   1      46.481  24.719  33.746  1.00  0.00     0.012 A 
ATOM     93  C   UNL A   1      47.774  26.121  32.236  1.00  0.00     0.148 A 
ATOM     94  C   UNL A   1      47.655  24.132  34.217  1.00  0.00     0.002 A 
ATOM     95  C   UNL A   1      48.936  25.495  32.672  1.00  0.00     0.091 A 
ATOM     96  F   UNL A   1      47.799  27.093  31.313  1.00  0.00    -0.205 F 
ATOM     97  C   UNL A   1      48.880  24.510  33.670  1.00  0.00     0.022 A 
BRANCH  95  98
ATOM     98  S   UNL A   1      50.547  25.846  31.958  1.00  0.00     0.127 S 
ATOM     99  O   UNL A   1      50.735  27.250  32.324  1.00  0.00    -0.237 OA
ATOM    100  O   UNL A   1      51.413  24.909  32.673  1.00  0.00    -0.237 OA
ATOM    101  O   UNL A   1      50.422  25.586  30.531  1.00  0.00    -0.744 OA
ENDBRANCH  95  98
ENDBRANCH  68  91
ENDBRANCH  42  43
ENDBRANCH  34  37
ENDBRANCH  32  33
ENDBRANCH  31  32
ENDBRANCH   1  31
TORSDOF 17
ENDMDL
MODEL 3
REMARK VINA RESULT:      -9.6      4.576      8.970
REMARK SMILES C[C@@H](C(=O)NCCCNC(=O)c1ccc(-c2c3nc(c(-c4cccc(S(=O)(=O)[O-])c4F)c4ccc([nH]4)c(-c4cccc(S(=O)(=O)[O-])c4F)c4nc(c(-c5cccc(S(=O)(=O)[O-])c5F)c5ccc2[nH]5)C=C4)C=C3)cc1)N1C(=O)/C(=C/c2ccc(-c3ccc([N+](=O)[O-])cc3Cl)o2)SC1=S
REMARK SMILES IDX 6 1 5 2 3 3 4 4 2 6 1 7 75 8 76 9 96 10 77 11 78 12 95 13
REMARK SMILES IDX 97 14 79 15 80 16 81 17 94 18 82 19 83 20 84 21 85 22 92 23
REMARK SMILES IDX 86 24 91 25 93 26 87 27 88 28 89 29 90 30 7 31 8 32 9 33
REMARK SMILES IDX 10 34 11 36 12 37 13 38 74 39 14 40 73 41 15 42 16 43 17 44
REMARK SMILES IDX 67 45 18 46 72 47 66 48 68 49 19 50 71 51 65 52 64 53 20 55
REMARK SMILES IDX 52 56 32 57 51 58 33 59 36 60 50 61 69 62 34 63 35 64 49 66
REMARK SMILES IDX 70 67 37 68 21 69 22 70 30 71 23 72 25 73 31 74 24 75 26 76
REMARK SMILES IDX 27 77 28 78 29 79 53 80 54 81 62 82 55 83 57 84 63 85 56 86
REMARK SMILES IDX 58 87 59 88 60 89 61 90 38 91 39 92 47 93 40 94 42 95 48 96
REMARK SMILES IDX 41 97 43 98 44 99 45 100 46 101
REMARK H PARENT 5 5 9 35 68 54 36 65
REMARK Flexibility Score: inf
ROOT
ATOM      1  C   UNL A   1      33.633  23.799  25.859  1.00  0.00     0.117 C 
ENDROOT
BRANCH   1   2
ATOM      2  N   UNL A   1      32.605  24.511  26.593  1.00  0.00    -0.354 N 
ATOM      3  C   UNL A   1      31.741  25.475  26.166  1.00  0.00     0.242 C 
ATOM      4  O   UNL A   1      30.693  25.596  26.810  1.00  0.00    -0.273 OA
ATOM      5  H   UNL A   1      32.517  24.260  27.541  1.00  0.00     0.163 HD
BRANCH   3   6
ATOM      6  C   UNL A   1      32.010  26.294  24.882  1.00  0.00     0.178 C 
ATOM      7  C   UNL A   1      32.766  25.607  23.747  1.00  0.00     0.042 C 
BRANCH   6   8
ATOM      8  N   UNL A   1      32.660  27.588  25.198  1.00  0.00    -0.281 N 
ATOM      9  C   UNL A   1      33.801  27.563  25.983  1.00  0.00     0.267 C 
ATOM     10  C   UNL A   1      32.128  28.842  24.941  1.00  0.00     0.149 C 
ATOM     11  O   UNL A   1      34.372  26.559  26.404  1.00  0.00    -0.268 OA
ATOM     12  C   UNL A   1      34.200  28.939  26.369  1.00  0.00     0.084 C 
ATOM     13  S   UNL A   1      33.230  30.079  25.531  1.00  0.00    -0.054 SA
ATOM     14  S   UNL A   1      30.672  29.280  24.250  1.00  0.00    -0.052 S 
ATOM     15  C   UNL A   1      35.147  29.172  27.288  1.00  0.00     0.068 C 
BRANCH  15  16
ATOM     16  C   UNL A   1      35.482  30.479  27.731  1.00  0.00     0.128 A 
ATOM     17  C   UNL A   1      36.695  31.159  27.669  1.00  0.00     0.051 A 
ATOM     18  O   UNL A   1      34.569  31.314  28.335  1.00  0.00    -0.457 OA
ATOM     19  C   UNL A   1      36.532  32.397  28.326  1.00  0.00     0.051 A 
ATOM     20  C   UNL A   1      35.223  32.435  28.745  1.00  0.00     0.136 A 
BRANCH  20  21
ATOM     21  C   UNL A   1      34.447  33.407  29.496  1.00  0.00     0.036 A 
ATOM     22  C   UNL A   1      33.870  34.479  28.793  1.00  0.00     0.020 A 
ATOM     23  C   UNL A   1      34.305  33.360  30.896  1.00  0.00     0.058 A 
ATOM     24  C   UNL A   1      33.182  35.492  29.462  1.00  0.00     0.086 A 
ATOM     25  C   UNL A   1      33.616  34.372  31.576  1.00  0.00     0.106 A 
ATOM     26  Cl  UNL A   1      35.017  32.117  31.869  1.00  0.00    -0.083 Cl
ATOM     27  C   UNL A   1      33.067  35.439  30.856  1.00  0.00     0.270 A 
BRANCH  27  28
ATOM     28  N   UNL A   1      32.385  36.524  31.570  1.00  0.00     0.062 N 
ATOM     29  O   UNL A   1      31.426  36.223  32.296  1.00  0.00    -0.258 OA
ATOM     30  O   UNL A   1      32.802  37.678  31.401  1.00  0.00    -0.258 OA
ENDBRANCH  27  28
ENDBRANCH  20  21
ENDBRANCH  15  16
ENDBRANCH   6   8
ENDBRANCH   3   6
ENDBRANCH   1   2
BRANCH   1  31
ATOM     31  C   UNL A   1      34.694  23.167  26.754  1.00  0.00     0.042 C 
BRANCH  31  32
ATOM     32  C   UNL A   1      36.130  23.572  26.439  1.00  0.00     0.118 C 
BRANCH  32  33
ATOM     33  N   UNL A   1      37.001  22.436  26.171  1.00  0.00    -0.352 N 
ATOM     34  C   UNL A   1      38.372  22.348  26.180  1.00  0.00     0.251 C 
ATOM     35  H   UNL A   1      36.534  21.598  25.948  1.00  0.00     0.163 HD
ATOM     36  O   UNL A   1      38.913  21.324  25.769  1.00  0.00    -0.269 OA
BRANCH  34  37
ATOM     37  C   UNL A   1      39.200  23.480  26.654  1.00  0.00     0.039 A 
ATOM     38  C   UNL A   1      40.106  23.263  27.696  1.00  0.00     0.014 A 
ATOM     39  C   UNL A   1      39.079  24.753  26.090  1.00  0.00     0.014 A 
ATOM     40  C   UNL A   1      40.941  24.301  28.120  1.00  0.00     0.010 A 
ATOM     41  C   UNL A   1      39.966  25.762  26.457  1.00  0.00     0.010 A 
ATOM     42  C   UNL A   1      40.907  25.549  27.478  1.00  0.00    -0.014 A 
BRANCH  42  43
ATOM     43  C   UNL A   1      41.854  26.636  27.837  1.00  0.00     0.031 A 
ATOM     44  C   UNL A   1      41.403  27.787  28.694  1.00  0.00     0.074 A 
ATOM     45  C   UNL A   1      43.093  26.642  27.304  1.00  0.00     0.049 A 
ATOM     46  N   UNL A   1      42.057  28.869  29.034  1.00  0.00    -0.248 NA
ATOM     47  C   UNL A   1      40.027  27.732  29.212  1.00  0.00     0.031 C 
ATOM     48  C   UNL A   1      43.625  25.627  26.391  1.00  0.00     0.029 A 
ATOM     49  N   UNL A   1      44.116  27.552  27.418  1.00  0.00    -0.354 N 
ATOM     50  C   UNL A   1      41.163  29.639  29.768  1.00  0.00     0.074 A 
ATOM     51  C   UNL A   1      39.910  28.915  29.798  1.00  0.00     0.031 C 
ATOM     52  C   UNL A   1      44.868  25.976  26.022  1.00  0.00     0.029 A 
ATOM     53  C   UNL A   1      45.210  27.253  26.640  1.00  0.00     0.049 A 
ATOM     54  H   UNL A   1      44.069  28.344  28.002  1.00  0.00     0.167 HD
ATOM     55  C   UNL A   1      41.370  30.827  30.385  1.00  0.00     0.034 A 
ATOM     56  C   UNL A   1      46.351  27.936  26.428  1.00  0.00     0.034 A 
ATOM     57  C   UNL A   1      42.627  31.526  30.384  1.00  0.00     0.049 A 
ATOM     58  C   UNL A   1      46.575  29.235  27.153  1.00  0.00     0.074 A 
ATOM     59  C   UNL A   1      42.966  32.686  31.059  1.00  0.00     0.029 A 
ATOM     60  N   UNL A   1      43.747  31.142  29.664  1.00  0.00    -0.354 N 
ATOM     61  N   UNL A   1      45.775  29.865  27.979  1.00  0.00    -0.248 NA
ATOM     62  C   UNL A   1      47.869  29.901  26.948  1.00  0.00     0.031 C 
ATOM     63  C   UNL A   1      44.281  33.019  30.721  1.00  0.00     0.029 A 
ATOM     64  C   UNL A   1      44.774  32.048  29.863  1.00  0.00     0.049 A 
ATOM     65  H   UNL A   1      43.803  30.341  29.093  1.00  0.00     0.167 HD
ATOM     66  C   UNL A   1      46.480  30.981  28.417  1.00  0.00     0.074 A 
ATOM     67  C   UNL A   1      47.779  30.930  27.779  1.00  0.00     0.031 C 
ATOM     68  C   UNL A   1      46.081  31.963  29.262  1.00  0.00     0.034 A 
BRANCH  55  69
ATOM     69  C   UNL A   1      40.218  31.427  31.150  1.00  0.00     0.023 A 
ATOM     70  C   UNL A   1      39.323  32.298  30.495  1.00  0.00     0.012 A 
ATOM     71  C   UNL A   1      39.994  31.098  32.501  1.00  0.00     0.148 A 
ATOM     72  C   UNL A   1      38.250  32.866  31.181  1.00  0.00     0.002 A 
ATOM     73  C   UNL A   1      38.895  31.630  33.166  1.00  0.00     0.091 A 
ATOM     74  F   UNL A   1      40.865  30.285  33.115  1.00  0.00    -0.205 F 
ATOM     75  C   UNL A   1      38.032  32.524  32.514  1.00  0.00     0.022 A 
BRANCH  73  76
ATOM     76  S   UNL A   1      38.480  31.186  34.857  1.00  0.00     0.127 S 
ATOM     77  O   UNL A   1      38.269  29.745  34.739  1.00  0.00    -0.237 OA
ATOM     78  O   UNL A   1      39.692  31.567  35.582  1.00  0.00    -0.237 OA
ATOM     79  O   UNL A   1      37.299  31.967  35.198  1.00  0.00    -0.744 OA
ENDBRANCH  73  76
ENDBRANCH  55  69
BRANCH  56  80
ATOM     80  C   UNL A   1      47.390  27.375  25.519  1.00  0.00     0.023 A 
ATOM     81  C   UNL A   1      48.261  26.373  25.990  1.00  0.00     0.012 A 
ATOM     82  C   UNL A   1      47.490  27.797  24.178  1.00  0.00     0.148 A 
ATOM     83  C   UNL A   1      49.231  25.822  25.151  1.00  0.00     0.002 A 
ATOM     84  C   UNL A   1      48.419  27.203  23.333  1.00  0.00     0.091 A 
ATOM     85  F   UNL A   1      46.658  28.758  23.753  1.00  0.00    -0.205 F 
ATOM     86  C   UNL A   1      49.303  26.228  23.821  1.00  0.00     0.022 A 
BRANCH  84  87
ATOM     87  S   UNL A   1      48.488  27.562  21.574  1.00  0.00     0.127 S 
ATOM     88  O   UNL A   1      48.788  26.247  21.011  1.00  0.00    -0.237 OA
ATOM     89  O   UNL A   1      47.135  28.051  21.313  1.00  0.00    -0.237 OA
ATOM     90  O   UNL A   1      49.529  28.568  21.417  1.00  0.00    -0.744 OA
ENDBRANCH  84  87
ENDBRANCH  56  80
BRANCH  68  91
ATOM     91  C   UNL A   1      47.067  33.056  29.587  1.00  0.00     0.023 A 
ATOM     92  C   UNL A   1      47.930  32.921  30.692  1.00  0.00     0.012 A 
ATOM     93  C   UNL A   1      47.195  34.175  28.740  1.00  0.00     0.148 A 
ATOM     94  C   UNL A   1      48.887  33.897  30.966  1.00  0.00     0.002 A 
ATOM     95  C   UNL A   1      48.186  35.118  28.991  1.00  0.00     0.091 A 
ATOM     96  F   UNL A   1      46.353  34.293  27.704  1.00  0.00    -0.205 F 
ATOM     97  C   UNL A   1      49.024  34.987  30.108  1.00  0.00     0.022 A 
BRANCH  95  98
ATOM     98  S   UNL A   1      48.501  36.501  27.888  1.00  0.00     0.127 S 
ATOM     99  O   UNL A   1      47.265  37.273  28.019  1.00  0.00    -0.237 OA
ATOM    100  O   UNL A   1      49.675  37.123  28.501  1.00  0.00    -0.237 OA
ATOM    101  O   UNL A   1      48.738  35.924  26.573  1.00  0.00    -0.744 OA
ENDBRANCH  95  98
ENDBRANCH  68  91
ENDBRANCH  42  43
ENDBRANCH  34  37
ENDBRANCH  32  33
ENDBRANCH  31  32
ENDBRANCH   1  31
TORSDOF 17
ENDMDL
