MODEL 1
REMARK VINA RESULT:     -11.9      0.000      0.000
REMARK SMILES COc1cccc(-c2cc(C(=O)NCCCNC(=O)c3ccc(-c4c5nc(c(-c6cccc(S(=O)(=O)[O-])c6F)c6ccc([nH]6)c(-c6cccc(S(=O)(=O)[O-])c6F)c6nc(c(-c7cccc(S(=O)(=O)[O-])c7F)c7ccc4[nH]7)C=C6)C=C5)cc3)cs2)c1
REMARK SMILES IDX 15 1 14 2 13 3 11 4 12 5 10 7 8 8 9 9 84 10 83 11 7 12 3 13
REMARK SMILES IDX 4 14 85 15 5 16 6 17 2 18 1 19 16 20 17 21 18 22 19 24 20 25
REMARK SMILES IDX 21 26 82 27 22 28 81 29 23 30 24 31 25 32 75 33 26 34 80 35
REMARK SMILES IDX 74 36 76 37 27 38 79 39 73 40 72 41 28 43 60 44 40 45 59 46
REMARK SMILES IDX 41 47 44 48 58 49 77 50 42 51 43 52 57 54 78 55 45 56 29 57
REMARK SMILES IDX 30 58 38 59 31 60 33 61 39 62 32 63 34 64 35 65 36 66 37 67
REMARK SMILES IDX 61 68 62 69 70 70 63 71 65 72 71 73 64 74 66 75 67 76 68 77
REMARK SMILES IDX 69 78 46 79 47 80 55 81 48 82 50 83 56 84 49 85 51 86 52 87
REMARK SMILES IDX 53 88 54 89
REMARK H PARENT 13 6 17 23 76 42 44 53
REMARK Flexibility Score: inf
ROOT
ATOM      1  C   UNL A   1      31.739  32.025  26.932  1.00  0.00     0.042 C 
ENDROOT
BRANCH   1   2
ATOM      2  C   UNL A   1      32.081  30.561  26.670  1.00  0.00     0.118 C 
BRANCH   2   3
ATOM      3  N   UNL A   1      33.437  30.246  27.085  1.00  0.00    -0.352 N 
ATOM      4  C   UNL A   1      34.274  29.204  26.774  1.00  0.00     0.252 C 
ATOM      5  O   UNL A   1      35.430  29.271  27.190  1.00  0.00    -0.269 OA
ATOM      6  H   UNL A   1      33.828  30.903  27.705  1.00  0.00     0.163 HD
BRANCH   4   7
ATOM      7  C   UNL A   1      33.832  28.097  25.923  1.00  0.00     0.051 A 
ATOM      8  C   UNL A   1      32.869  26.073  25.215  1.00  0.00     0.035 A 
ATOM      9  C   UNL A   1      33.375  26.789  26.280  1.00  0.00     0.034 A 
ATOM     10  S   UNL A   1      33.167  26.858  23.736  1.00  0.00    -0.143 S 
ATOM     11  C   UNL A   1      33.853  28.207  24.539  1.00  0.00     0.079 A 
BRANCH   8  12
ATOM     12  C   UNL A   1      32.130  24.818  25.292  1.00  0.00    -0.005 A 
ATOM     13  C   UNL A   1      30.673  23.363  26.585  1.00  0.00     0.119 A 
ATOM     14  C   UNL A   1      30.960  22.322  25.703  1.00  0.00     0.046 A 
ATOM     15  C   UNL A   1      31.263  24.610  26.381  1.00  0.00     0.056 A 
ATOM     16  C   UNL A   1      31.794  22.530  24.602  1.00  0.00     0.004 A 
ATOM     17  C   UNL A   1      32.377  23.779  24.393  1.00  0.00     0.010 A 
BRANCH  13  18
ATOM     18  O   UNL A   1      29.869  23.033  27.642  1.00  0.00    -0.497 OA
ATOM     19  C   UNL A   1      28.700  22.284  27.330  1.00  0.00     0.278 C 
ENDBRANCH  13  18
ENDBRANCH   8  12
ENDBRANCH   4   7
ENDBRANCH   2   3
ENDBRANCH   1   2
BRANCH   1  20
ATOM     20  C   UNL A   1      32.967  32.869  27.264  1.00  0.00     0.118 C 
BRANCH  20  21
ATOM     21  N   UNL A   1      32.604  34.210  27.714  1.00  0.00    -0.352 N 
ATOM     22  C   UNL A   1      33.071  34.931  28.786  1.00  0.00     0.251 C 
ATOM     23  H   UNL A   1      31.923  34.665  27.168  1.00  0.00     0.163 HD
ATOM     24  O   UNL A   1      32.488  35.955  29.130  1.00  0.00    -0.269 OA
BRANCH  22  25
ATOM     25  C   UNL A   1      34.264  34.468  29.521  1.00  0.00     0.039 A 
ATOM     26  C   UNL A   1      34.116  33.956  30.813  1.00  0.00     0.014 A 
ATOM     27  C   UNL A   1      35.529  34.549  28.935  1.00  0.00     0.014 A 
ATOM     28  C   UNL A   1      35.232  33.461  31.492  1.00  0.00     0.010 A 
ATOM     29  C   UNL A   1      36.622  33.984  29.579  1.00  0.00     0.010 A 
ATOM     30  C   UNL A   1      36.487  33.437  30.864  1.00  0.00    -0.014 A 
BRANCH  30  31
ATOM     31  C   UNL A   1      37.682  32.844  31.515  1.00  0.00     0.031 A 
ATOM     32  C   UNL A   1      38.388  31.686  30.865  1.00  0.00     0.074 A 
ATOM     33  C   UNL A   1      38.048  33.260  32.743  1.00  0.00     0.049 A 
ATOM     34  N   UNL A   1      39.342  30.929  31.338  1.00  0.00    -0.248 NA
ATOM     35  C   UNL A   1      37.938  31.309  29.513  1.00  0.00     0.031 C 
ATOM     36  C   UNL A   1      37.402  34.333  33.502  1.00  0.00     0.029 A 
ATOM     37  N   UNL A   1      39.027  32.801  33.589  1.00  0.00    -0.354 N 
ATOM     38  C   UNL A   1      39.574  29.959  30.369  1.00  0.00     0.074 A 
ATOM     39  C   UNL A   1      38.641  30.208  29.292  1.00  0.00     0.031 C 
ATOM     40  C   UNL A   1      37.994  34.444  34.701  1.00  0.00     0.029 A 
ATOM     41  C   UNL A   1      39.030  33.423  34.817  1.00  0.00     0.049 A 
ATOM     42  H   UNL A   1      39.666  32.094  33.341  1.00  0.00     0.167 HD
ATOM     43  C   UNL A   1      40.493  28.966  30.367  1.00  0.00     0.034 A 
ATOM     44  C   UNL A   1      39.766  33.182  35.919  1.00  0.00     0.034 A 
ATOM     45  C   UNL A   1      41.439  28.749  31.427  1.00  0.00     0.049 A 
ATOM     46  C   UNL A   1      40.795  32.083  35.883  1.00  0.00     0.074 A 
ATOM     47  C   UNL A   1      42.464  27.822  31.487  1.00  0.00     0.029 A 
ATOM     48  N   UNL A   1      41.471  29.460  32.617  1.00  0.00    -0.354 N 
ATOM     49  N   UNL A   1      41.089  31.261  34.906  1.00  0.00    -0.248 NA
ATOM     50  C   UNL A   1      41.615  31.900  37.089  1.00  0.00     0.031 C 
ATOM     51  C   UNL A   1      43.096  27.950  32.728  1.00  0.00     0.029 A 
ATOM     52  C   UNL A   1      42.492  28.987  33.422  1.00  0.00     0.049 A 
ATOM     53  H   UNL A   1      40.858  30.193  32.854  1.00  0.00     0.167 HD
ATOM     54  C   UNL A   1      42.159  30.497  35.359  1.00  0.00     0.074 A 
ATOM     55  C   UNL A   1      42.465  30.961  36.697  1.00  0.00     0.031 C 
ATOM     56  C   UNL A   1      42.823  29.500  34.727  1.00  0.00     0.034 A 
BRANCH  43  57
ATOM     57  C   UNL A   1      40.544  28.058  29.166  1.00  0.00     0.023 A 
ATOM     58  C   UNL A   1      39.624  26.995  29.051  1.00  0.00     0.012 A 
ATOM     59  C   UNL A   1      41.463  28.288  28.124  1.00  0.00     0.148 A 
ATOM     60  C   UNL A   1      39.644  26.153  27.941  1.00  0.00     0.002 A 
ATOM     61  C   UNL A   1      41.444  27.475  26.997  1.00  0.00     0.091 A 
ATOM     62  F   UNL A   1      42.342  29.291  28.257  1.00  0.00    -0.205 F 
ATOM     63  C   UNL A   1      40.546  26.400  26.910  1.00  0.00     0.022 A 
BRANCH  61  64
ATOM     64  S   UNL A   1      42.507  27.762  25.577  1.00  0.00     0.127 S 
ATOM     65  O   UNL A   1      42.255  26.565  24.775  1.00  0.00    -0.237 OA
ATOM     66  O   UNL A   1      41.949  28.995  25.021  1.00  0.00    -0.237 OA
ATOM     67  O   UNL A   1      43.858  27.888  26.103  1.00  0.00    -0.744 OA
ENDBRANCH  61  64
ENDBRANCH  43  57
BRANCH  44  68
ATOM     68  C   UNL A   1      39.591  34.027  37.134  1.00  0.00     0.023 A 
ATOM     69  C   UNL A   1      40.056  35.356  37.124  1.00  0.00     0.012 A 
ATOM     70  C   UNL A   1      38.949  33.532  38.287  1.00  0.00     0.148 A 
ATOM     71  C   UNL A   1      39.920  36.166  38.252  1.00  0.00     0.002 A 
ATOM     72  C   UNL A   1      38.767  34.361  39.387  1.00  0.00     0.091 A 
ATOM     73  F   UNL A   1      38.519  32.262  38.278  1.00  0.00    -0.205 F 
ATOM     74  C   UNL A   1      39.268  35.672  39.379  1.00  0.00     0.022 A 
BRANCH  72  75
ATOM     75  S   UNL A   1      37.829  33.856  40.833  1.00  0.00     0.127 S 
ATOM     76  O   UNL A   1      37.608  35.132  41.507  1.00  0.00    -0.237 OA
ATOM     77  O   UNL A   1      36.635  33.265  40.225  1.00  0.00    -0.237 OA
ATOM     78  O   UNL A   1      38.676  32.905  41.541  1.00  0.00    -0.744 OA
ENDBRANCH  72  75
ENDBRANCH  44  68
BRANCH  56  79
ATOM     79  C   UNL A   1      43.999  28.877  35.433  1.00  0.00     0.023 A 
ATOM     80  C   UNL A   1      45.286  29.432  35.295  1.00  0.00     0.012 A 
ATOM     81  C   UNL A   1      43.801  27.796  36.316  1.00  0.00     0.148 A 
ATOM     82  C   UNL A   1      46.363  28.901  36.005  1.00  0.00     0.002 A 
ATOM     83  C   UNL A   1      44.867  27.308  37.059  1.00  0.00     0.091 A 
ATOM     84  F   UNL A   1      42.570  27.273  36.418  1.00  0.00    -0.205 F 
ATOM     85  C   UNL A   1      46.151  27.851  36.895  1.00  0.00     0.022 A 
BRANCH  83  86
ATOM     86  S   UNL A   1      44.669  26.030  38.305  1.00  0.00     0.127 S 
ATOM     87  O   UNL A   1      46.056  25.773  38.691  1.00  0.00    -0.237 OA
ATOM     88  O   UNL A   1      43.869  26.712  39.322  1.00  0.00    -0.237 OA
ATOM     89  O   UNL A   1      43.994  24.922  37.644  1.00  0.00    -0.744 OA
ENDBRANCH  83  86
ENDBRANCH  56  79
ENDBRANCH  30  31
ENDBRANCH  22  25
ENDBRANCH  20  21
ENDBRANCH   1  20
TORSDOF 15
ENDMDL
MODEL 2
REMARK VINA RESULT:     -11.9      2.705      3.630
REMARK SMILES COc1cccc(-c2cc(C(=O)NCCCNC(=O)c3ccc(-c4c5nc(c(-c6cccc(S(=O)(=O)[O-])c6F)c6ccc([nH]6)c(-c6cccc(S(=O)(=O)[O-])c6F)c6nc(c(-c7cccc(S(=O)(=O)[O-])c7F)c7ccc4[nH]7)C=C6)C=C5)cc3)cs2)c1
REMARK SMILES IDX 15 1 14 2 13 3 11 4 12 5 10 7 8 8 9 9 84 10 83 11 7 12 3 13
REMARK SMILES IDX 4 14 85 15 5 16 6 17 2 18 1 19 16 20 17 21 18 22 19 24 20 25
REMARK SMILES IDX 21 26 82 27 22 28 81 29 23 30 24 31 25 32 75 33 26 34 80 35
REMARK SMILES IDX 74 36 76 37 27 38 79 39 73 40 72 41 28 43 60 44 40 45 59 46
REMARK SMILES IDX 41 47 44 48 58 49 77 50 42 51 43 52 57 54 78 55 45 56 29 57
REMARK SMILES IDX 30 58 38 59 31 60 33 61 39 62 32 63 34 64 35 65 36 66 37 67
REMARK SMILES IDX 61 68 62 69 70 70 63 71 65 72 71 73 64 74 66 75 67 76 68 77
REMARK SMILES IDX 69 78 46 79 47 80 55 81 48 82 50 83 56 84 49 85 51 86 52 87
REMARK SMILES IDX 53 88 54 89
REMARK H PARENT 13 6 17 23 76 42 44 53
REMARK Flexibility Score: inf
ROOT
ATOM      1  C   UNL A   1      31.847  28.283  25.445  1.00  0.00     0.042 C 
ENDROOT
BRANCH   1   2
ATOM      2  C   UNL A   1      31.425  28.194  23.981  1.00  0.00     0.118 C 
BRANCH   2   3
ATOM      3  N   UNL A   1      32.537  28.463  23.087  1.00  0.00    -0.352 N 
ATOM      4  C   UNL A   1      33.455  27.637  22.487  1.00  0.00     0.252 C 
ATOM      5  O   UNL A   1      34.219  28.149  21.669  1.00  0.00    -0.269 OA
ATOM      6  H   UNL A   1      32.655  29.416  22.871  1.00  0.00     0.163 HD
BRANCH   4   7
ATOM      7  C   UNL A   1      33.474  26.197  22.752  1.00  0.00     0.051 A 
ATOM      8  C   UNL A   1      33.655  24.136  23.866  1.00  0.00     0.035 A 
ATOM      9  C   UNL A   1      33.972  25.478  23.884  1.00  0.00     0.034 A 
ATOM     10  S   UNL A   1      32.980  23.672  22.375  1.00  0.00    -0.143 S 
ATOM     11  C   UNL A   1      32.996  25.291  21.814  1.00  0.00     0.079 A 
BRANCH   8  12
ATOM     12  C   UNL A   1      33.820  23.195  24.968  1.00  0.00    -0.005 A 
ATOM     13  C   UNL A   1      33.526  20.930  25.802  1.00  0.00     0.119 A 
ATOM     14  C   UNL A   1      33.764  21.394  27.096  1.00  0.00     0.046 A 
ATOM     15  C   UNL A   1      33.550  21.833  24.740  1.00  0.00     0.056 A 
ATOM     16  C   UNL A   1      34.064  22.739  27.326  1.00  0.00     0.004 A 
ATOM     17  C   UNL A   1      34.096  23.640  26.263  1.00  0.00     0.010 A 
BRANCH  13  18
ATOM     18  O   UNL A   1      33.213  19.602  25.704  1.00  0.00    -0.497 OA
ATOM     19  C   UNL A   1      32.578  19.194  24.498  1.00  0.00     0.278 C 
ENDBRANCH  13  18
ENDBRANCH   8  12
ENDBRANCH   4   7
ENDBRANCH   2   3
ENDBRANCH   1   2
BRANCH   1  20
ATOM     20  C   UNL A   1      33.021  29.234  25.665  1.00  0.00     0.118 C 
BRANCH  20  21
ATOM     21  N   UNL A   1      32.578  30.563  26.076  1.00  0.00    -0.352 N 
ATOM     22  C   UNL A   1      33.097  31.404  27.030  1.00  0.00     0.251 C 
ATOM     23  H   UNL A   1      31.790  30.909  25.598  1.00  0.00     0.163 HD
ATOM     24  O   UNL A   1      32.458  32.390  27.385  1.00  0.00    -0.269 OA
BRANCH  22  25
ATOM     25  C   UNL A   1      34.415  31.114  27.629  1.00  0.00     0.039 A 
ATOM     26  C   UNL A   1      35.364  32.135  27.723  1.00  0.00     0.014 A 
ATOM     27  C   UNL A   1      34.712  29.830  28.091  1.00  0.00     0.014 A 
ATOM     28  C   UNL A   1      36.590  31.883  28.343  1.00  0.00     0.010 A 
ATOM     29  C   UNL A   1      35.898  29.603  28.776  1.00  0.00     0.010 A 
ATOM     30  C   UNL A   1      36.851  30.626  28.907  1.00  0.00    -0.014 A 
BRANCH  30  31
ATOM     31  C   UNL A   1      38.105  30.339  29.648  1.00  0.00     0.031 A 
ATOM     32  C   UNL A   1      39.111  29.382  29.071  1.00  0.00     0.074 A 
ATOM     33  C   UNL A   1      38.274  30.836  30.889  1.00  0.00     0.049 A 
ATOM     34  N   UNL A   1      40.183  28.878  29.623  1.00  0.00    -0.248 NA
ATOM     35  C   UNL A   1      38.861  28.902  27.700  1.00  0.00     0.031 C 
ATOM     36  C   UNL A   1      37.338  31.726  31.581  1.00  0.00     0.029 A 
ATOM     37  N   UNL A   1      39.273  30.628  31.809  1.00  0.00    -0.354 N 
ATOM     38  C   UNL A   1      40.707  27.989  28.692  1.00  0.00     0.074 A 
ATOM     39  C   UNL A   1      39.820  28.002  27.550  1.00  0.00     0.031 C 
ATOM     40  C   UNL A   1      37.801  31.981  32.815  1.00  0.00     0.029 A 
ATOM     41  C   UNL A   1      39.041  31.238  33.021  1.00  0.00     0.049 A 
ATOM     42  H   UNL A   1      40.078  30.095  31.619  1.00  0.00     0.167 HD
ATOM     43  C   UNL A   1      41.835  27.245  28.773  1.00  0.00     0.034 A 
ATOM     44  C   UNL A   1      39.734  31.185  34.174  1.00  0.00     0.034 A 
ATOM     45  C   UNL A   1      42.729  27.265  29.898  1.00  0.00     0.049 A 
ATOM     46  C   UNL A   1      40.995  30.366  34.230  1.00  0.00     0.074 A 
ATOM     47  C   UNL A   1      43.939  26.612  30.046  1.00  0.00     0.029 A 
ATOM     48  N   UNL A   1      42.507  27.968  31.072  1.00  0.00    -0.354 N 
ATOM     49  N   UNL A   1      41.546  29.634  33.292  1.00  0.00    -0.248 NA
ATOM     50  C   UNL A   1      41.749  30.389  35.493  1.00  0.00     0.031 C 
ATOM     51  C   UNL A   1      44.433  26.893  31.324  1.00  0.00     0.029 A 
ATOM     52  C   UNL A   1      43.552  27.758  31.954  1.00  0.00     0.049 A 
ATOM     53  H   UNL A   1      41.721  28.534  31.252  1.00  0.00     0.167 HD
ATOM     54  C   UNL A   1      42.732  29.151  33.833  1.00  0.00     0.074 A 
ATOM     55  C   UNL A   1      42.824  29.680  35.177  1.00  0.00     0.031 C 
ATOM     56  C   UNL A   1      43.659  28.340  33.267  1.00  0.00     0.034 A 
BRANCH  43  57
ATOM     57  C   UNL A   1      42.186  26.370  27.596  1.00  0.00     0.023 A 
ATOM     58  C   UNL A   1      42.930  26.904  26.524  1.00  0.00     0.012 A 
ATOM     59  C   UNL A   1      41.830  25.008  27.577  1.00  0.00     0.148 A 
ATOM     60  C   UNL A   1      43.278  26.108  25.434  1.00  0.00     0.002 A 
ATOM     61  C   UNL A   1      42.224  24.208  26.511  1.00  0.00     0.091 A 
ATOM     62  F   UNL A   1      41.107  24.521  28.596  1.00  0.00    -0.205 F 
ATOM     63  C   UNL A   1      42.936  24.759  25.434  1.00  0.00     0.022 A 
BRANCH  61  64
ATOM     64  S   UNL A   1      41.907  22.441  26.455  1.00  0.00     0.127 S 
ATOM     65  O   UNL A   1      42.542  21.988  27.692  1.00  0.00    -0.237 OA
ATOM     66  O   UNL A   1      40.444  22.392  26.469  1.00  0.00    -0.237 OA
ATOM     67  O   UNL A   1      42.520  21.959  25.226  1.00  0.00    -0.744 OA
ENDBRANCH  61  64
ENDBRANCH  43  57
BRANCH  44  68
ATOM     68  C   UNL A   1      39.277  31.968  35.358  1.00  0.00     0.023 A 
ATOM     69  C   UNL A   1      38.416  31.364  36.295  1.00  0.00     0.012 A 
ATOM     70  C   UNL A   1      39.704  33.293  35.572  1.00  0.00     0.148 A 
ATOM     71  C   UNL A   1      37.959  32.077  37.404  1.00  0.00     0.002 A 
ATOM     72  C   UNL A   1      39.291  33.978  36.707  1.00  0.00     0.091 A 
ATOM     73  F   UNL A   1      40.519  33.851  34.665  1.00  0.00    -0.205 F 
ATOM     74  C   UNL A   1      38.403  33.380  37.615  1.00  0.00     0.022 A 
BRANCH  72  75
ATOM     75  S   UNL A   1      39.910  35.611  37.129  1.00  0.00     0.127 S 
ATOM     76  O   UNL A   1      41.329  35.345  37.345  1.00  0.00    -0.237 OA
ATOM     77  O   UNL A   1      39.602  36.372  35.917  1.00  0.00    -0.237 OA
ATOM     78  O   UNL A   1      39.158  36.026  38.306  1.00  0.00    -0.744 OA
ENDBRANCH  72  75
ENDBRANCH  44  68
BRANCH  56  79
ATOM     79  C   UNL A   1      44.897  28.021  34.063  1.00  0.00     0.023 A 
ATOM     80  C   UNL A   1      46.012  28.879  34.018  1.00  0.00     0.012 A 
ATOM     81  C   UNL A   1      44.909  26.913  34.936  1.00  0.00     0.148 A 
ATOM     82  C   UNL A   1      47.131  28.625  34.809  1.00  0.00     0.002 A 
ATOM     83  C   UNL A   1      46.005  26.697  35.760  1.00  0.00     0.091 A 
ATOM     84  F   UNL A   1      43.843  26.100  34.949  1.00  0.00    -0.205 F 
ATOM     85  C   UNL A   1      47.123  27.543  35.688  1.00  0.00     0.022 A 
BRANCH  83  86
ATOM     86  S   UNL A   1      46.039  25.395  36.996  1.00  0.00     0.127 S 
ATOM     87  O   UNL A   1      46.013  24.193  36.164  1.00  0.00    -0.237 OA
ATOM     88  O   UNL A   1      47.314  25.642  37.670  1.00  0.00    -0.237 OA
ATOM     89  O   UNL A   1      44.862  25.598  37.830  1.00  0.00    -0.744 OA
ENDBRANCH  83  86
ENDBRANCH  56  79
ENDBRANCH  30  31
ENDBRANCH  22  25
ENDBRANCH  20  21
ENDBRANCH   1  20
TORSDOF 15
ENDMDL
MODEL 3
REMARK VINA RESULT:     -11.8      2.500      3.576
REMARK SMILES COc1cccc(-c2cc(C(=O)NCCCNC(=O)c3ccc(-c4c5nc(c(-c6cccc(S(=O)(=O)[O-])c6F)c6ccc([nH]6)c(-c6cccc(S(=O)(=O)[O-])c6F)c6nc(c(-c7cccc(S(=O)(=O)[O-])c7F)c7ccc4[nH]7)C=C6)C=C5)cc3)cs2)c1
REMARK SMILES IDX 15 1 14 2 13 3 11 4 12 5 10 7 8 8 9 9 84 10 83 11 7 12 3 13
REMARK SMILES IDX 4 14 85 15 5 16 6 17 2 18 1 19 16 20 17 21 18 22 19 24 20 25
REMARK SMILES IDX 21 26 82 27 22 28 81 29 23 30 24 31 25 32 75 33 26 34 80 35
REMARK SMILES IDX 74 36 76 37 27 38 79 39 73 40 72 41 28 43 60 44 40 45 59 46
REMARK SMILES IDX 41 47 44 48 58 49 77 50 42 51 43 52 57 54 78 55 45 56 29 57
REMARK SMILES IDX 30 58 38 59 31 60 33 61 39 62 32 63 34 64 35 65 36 66 37 67
REMARK SMILES IDX 61 68 62 69 70 70 63 71 65 72 71 73 64 74 66 75 67 76 68 77
REMARK SMILES IDX 69 78 46 79 47 80 55 81 48 82 50 83 56 84 49 85 51 86 52 87
REMARK SMILES IDX 53 88 54 89
REMARK H PARENT 13 6 17 23 76 42 44 53
REMARK Flexibility Score: inf
ROOT
ATOM      1  C   UNL A   1      33.204  28.984  24.178  1.00  0.00     0.042 C 
ENDROOT
BRANCH   1   2
ATOM      2  C   UNL A   1      32.784  27.648  23.571  1.00  0.00     0.118 C 
BRANCH   2   3
ATOM      3  N   UNL A   1      31.340  27.511  23.526  1.00  0.00    -0.352 N 
ATOM      4  C   UNL A   1      30.489  26.566  24.043  1.00  0.00     0.252 C 
ATOM      5  O   UNL A   1      29.282  26.784  23.945  1.00  0.00    -0.269 OA
ATOM      6  H   UNL A   1      30.885  28.230  23.030  1.00  0.00     0.163 HD
BRANCH   4   7
ATOM      7  C   UNL A   1      30.996  25.386  24.747  1.00  0.00     0.051 A 
ATOM      8  C   UNL A   1      31.994  23.302  25.178  1.00  0.00     0.035 A 
ATOM      9  C   UNL A   1      31.396  24.112  24.235  1.00  0.00     0.034 A 
ATOM     10  S   UNL A   1      31.856  23.957  26.741  1.00  0.00    -0.143 S 
ATOM     11  C   UNL A   1      31.115  25.376  26.130  1.00  0.00     0.079 A 
BRANCH   8  12
ATOM     12  C   UNL A   1      32.703  22.054  24.920  1.00  0.00    -0.005 A 
ATOM     13  C   UNL A   1      32.666  19.623  24.947  1.00  0.00     0.119 A 
ATOM     14  C   UNL A   1      34.052  19.618  24.795  1.00  0.00     0.046 A 
ATOM     15  C   UNL A   1      31.993  20.842  25.014  1.00  0.00     0.056 A 
ATOM     16  C   UNL A   1      34.759  20.816  24.670  1.00  0.00     0.004 A 
ATOM     17  C   UNL A   1      34.086  22.035  24.729  1.00  0.00     0.010 A 
BRANCH  13  18
ATOM     18  O   UNL A   1      32.087  18.392  25.090  1.00  0.00    -0.497 OA
ATOM     19  C   UNL A   1      32.858  17.280  24.649  1.00  0.00     0.278 C 
ENDBRANCH  13  18
ENDBRANCH   8  12
ENDBRANCH   4   7
ENDBRANCH   2   3
ENDBRANCH   1   2
BRANCH   1  20
ATOM     20  C   UNL A   1      32.862  29.093  25.662  1.00  0.00     0.118 C 
BRANCH  20  21
ATOM     21  N   UNL A   1      32.401  30.431  26.020  1.00  0.00    -0.352 N 
ATOM     22  C   UNL A   1      32.909  31.316  26.940  1.00  0.00     0.251 C 
ATOM     23  H   UNL A   1      31.608  30.747  25.530  1.00  0.00     0.163 HD
ATOM     24  O   UNL A   1      32.256  32.306  27.256  1.00  0.00    -0.269 OA
BRANCH  22  25
ATOM     25  C   UNL A   1      34.231  31.068  27.549  1.00  0.00     0.039 A 
ATOM     26  C   UNL A   1      35.131  32.128  27.686  1.00  0.00     0.014 A 
ATOM     27  C   UNL A   1      34.580  29.785  27.976  1.00  0.00     0.014 A 
ATOM     28  C   UNL A   1      36.359  31.913  28.315  1.00  0.00     0.010 A 
ATOM     29  C   UNL A   1      35.767  29.592  28.671  1.00  0.00     0.010 A 
ATOM     30  C   UNL A   1      36.670  30.652  28.845  1.00  0.00    -0.014 A 
BRANCH  30  31
ATOM     31  C   UNL A   1      37.927  30.400  29.595  1.00  0.00     0.031 A 
ATOM     32  C   UNL A   1      38.959  29.464  29.030  1.00  0.00     0.074 A 
ATOM     33  C   UNL A   1      38.077  30.908  30.834  1.00  0.00     0.049 A 
ATOM     34  N   UNL A   1      40.039  28.989  29.590  1.00  0.00    -0.248 NA
ATOM     35  C   UNL A   1      38.727  28.970  27.660  1.00  0.00     0.031 C 
ATOM     36  C   UNL A   1      37.116  31.779  31.514  1.00  0.00     0.029 A 
ATOM     37  N   UNL A   1      39.075  30.730  31.760  1.00  0.00    -0.354 N 
ATOM     38  C   UNL A   1      40.590  28.107  28.667  1.00  0.00     0.074 A 
ATOM     39  C   UNL A   1      39.709  28.092  27.520  1.00  0.00     0.031 C 
ATOM     40  C   UNL A   1      37.566  32.053  32.750  1.00  0.00     0.029 A 
ATOM     41  C   UNL A   1      38.822  31.342  32.967  1.00  0.00     0.049 A 
ATOM     42  H   UNL A   1      39.894  30.215  31.578  1.00  0.00     0.167 HD
ATOM     43  C   UNL A   1      41.735  27.391  28.759  1.00  0.00     0.034 A 
ATOM     44  C   UNL A   1      39.509  31.312  34.125  1.00  0.00     0.034 A 
ATOM     45  C   UNL A   1      42.622  27.440  29.889  1.00  0.00     0.049 A 
ATOM     46  C   UNL A   1      40.790  30.524  34.192  1.00  0.00     0.074 A 
ATOM     47  C   UNL A   1      43.847  26.817  30.047  1.00  0.00     0.029 A 
ATOM     48  N   UNL A   1      42.376  28.144  31.057  1.00  0.00    -0.354 N 
ATOM     49  N   UNL A   1      41.363  29.800  33.262  1.00  0.00    -0.248 NA
ATOM     50  C   UNL A   1      41.536  30.573  35.459  1.00  0.00     0.031 C 
ATOM     51  C   UNL A   1      44.326  27.117  31.326  1.00  0.00     0.029 A 
ATOM     52  C   UNL A   1      43.421  27.964  31.946  1.00  0.00     0.049 A 
ATOM     53  H   UNL A   1      41.576  28.692  31.230  1.00  0.00     0.167 HD
ATOM     54  C   UNL A   1      42.558  29.349  33.812  1.00  0.00     0.074 A 
ATOM     55  C   UNL A   1      42.630  29.888  35.154  1.00  0.00     0.031 C 
ATOM     56  C   UNL A   1      43.507  28.557  33.256  1.00  0.00     0.034 A 
BRANCH  43  57
ATOM     57  C   UNL A   1      42.113  26.518  27.590  1.00  0.00     0.023 A 
ATOM     58  C   UNL A   1      42.882  27.053  26.536  1.00  0.00     0.012 A 
ATOM     59  C   UNL A   1      41.758  25.156  27.561  1.00  0.00     0.148 A 
ATOM     60  C   UNL A   1      43.255  26.259  25.453  1.00  0.00     0.002 A 
ATOM     61  C   UNL A   1      42.177  24.357  26.503  1.00  0.00     0.091 A 
ATOM     62  F   UNL A   1      41.012  24.667  28.562  1.00  0.00    -0.205 F 
ATOM     63  C   UNL A   1      42.914  24.910  25.443  1.00  0.00     0.022 A 
BRANCH  61  64
ATOM     64  S   UNL A   1      41.862  22.590  26.437  1.00  0.00     0.127 S 
ATOM     65  O   UNL A   1      40.401  22.554  26.370  1.00  0.00    -0.237 OA
ATOM     66  O   UNL A   1      42.538  22.204  25.198  1.00  0.00    -0.237 OA
ATOM     67  O   UNL A   1      42.444  22.031  27.648  1.00  0.00    -0.744 OA
ENDBRANCH  61  64
ENDBRANCH  43  57
BRANCH  44  68
ATOM     68  C   UNL A   1      39.027  32.091  35.300  1.00  0.00     0.023 A 
ATOM     69  C   UNL A   1      39.160  33.493  35.302  1.00  0.00     0.012 A 
ATOM     70  C   UNL A   1      38.420  31.458  36.403  1.00  0.00     0.148 A 
ATOM     71  C   UNL A   1      38.732  34.248  36.394  1.00  0.00     0.002 A 
ATOM     72  C   UNL A   1      37.946  32.220  37.463  1.00  0.00     0.091 A 
ATOM     73  F   UNL A   1      38.309  30.122  36.385  1.00  0.00    -0.205 F 
ATOM     74  C   UNL A   1      38.117  33.613  37.470  1.00  0.00     0.022 A 
BRANCH  72  75
ATOM     75  S   UNL A   1      37.028  31.505  38.831  1.00  0.00     0.127 S 
ATOM     76  O   UNL A   1      37.967  31.665  39.938  1.00  0.00    -0.237 OA
ATOM     77  O   UNL A   1      35.851  32.374  38.890  1.00  0.00    -0.237 OA
ATOM     78  O   UNL A   1      36.741  30.131  38.439  1.00  0.00    -0.744 OA
ENDBRANCH  72  75
ENDBRANCH  44  68
BRANCH  56  79
ATOM     79  C   UNL A   1      44.747  28.272  34.061  1.00  0.00     0.023 A 
ATOM     80  C   UNL A   1      45.840  29.158  34.019  1.00  0.00     0.012 A 
ATOM     81  C   UNL A   1      44.782  27.168  34.938  1.00  0.00     0.148 A 
ATOM     82  C   UNL A   1      46.961  28.936  34.818  1.00  0.00     0.002 A 
ATOM     83  C   UNL A   1      45.878  26.983  35.769  1.00  0.00     0.091 A 
ATOM     84  F   UNL A   1      43.738  26.328  34.948  1.00  0.00    -0.205 F 
ATOM     85  C   UNL A   1      46.975  27.858  35.701  1.00  0.00     0.022 A 
BRANCH  83  86
ATOM     86  S   UNL A   1      45.939  25.688  37.011  1.00  0.00     0.127 S 
ATOM     87  O   UNL A   1      47.245  25.923  37.624  1.00  0.00    -0.237 OA
ATOM     88  O   UNL A   1      44.796  26.021  37.861  1.00  0.00    -0.237 OA
ATOM     89  O   UNL A   1      45.810  24.429  36.289  1.00  0.00    -0.744 OA
ENDBRANCH  83  86
ENDBRANCH  56  79
ENDBRANCH  30  31
ENDBRANCH  22  25
ENDBRANCH  20  21
ENDBRANCH   1  20
TORSDOF 15
ENDMDL
