MODEL 1
REMARK VINA RESULT:     -13.3      0.000      0.000
REMARK SMILES O=C(NCCCNC(=O)c1ccc(-c2c3nc(c(-c4cccc(S(=O)(=O)[O-])c4F)c4ccc([nH]4)c(-c4cccc(S(=O)(=O)[O-])c4F)c4nc(c(-c5cccc(S(=O)(=O)[O-])c5F)c5ccc2[nH]5)C=C4)C=C3)cc1)C1=Cc2cc(OC(F)(F)F)ccc2O[C@@H]1C(F)(F)F
REMARK SMILES IDX 5 1 4 2 3 3 1 4 2 5 73 7 74 8 87 9 75 10 86 11 76 12 85 13
REMARK SMILES IDX 77 14 84 15 83 16 88 17 89 18 90 19 91 20 78 21 79 22 80 23
REMARK SMILES IDX 81 24 82 25 6 26 7 27 8 28 9 30 10 31 11 32 72 33 12 34
REMARK SMILES IDX 71 35 13 36 14 37 15 38 65 39 16 40 70 41 64 42 66 43 17 44
REMARK SMILES IDX 69 45 63 46 62 47 18 49 50 50 30 51 49 52 31 53 34 54 48 55
REMARK SMILES IDX 67 56 32 57 33 58 47 60 68 61 35 62 19 63 20 64 28 65 21 66
REMARK SMILES IDX 23 67 29 68 22 69 24 70 25 71 26 72 27 73 51 74 52 75 60 76
REMARK SMILES IDX 53 77 55 78 61 79 54 80 56 81 57 82 58 83 59 84 36 85 37 86
REMARK SMILES IDX 45 87 38 88 40 89 46 90 39 91 41 92 42 93 43 94 44 95
REMARK H PARENT 3 6 7 29 66 48 34 59
REMARK Flexibility Score: inf
ROOT
ATOM      1  C   UNL A   1      31.747  28.534  26.301  1.00  0.00     0.042 C 
ENDROOT
BRANCH   1   2
ATOM      2  C   UNL A   1      32.544  27.235  26.303  1.00  0.00     0.118 C 
BRANCH   2   3
ATOM      3  N   UNL A   1      31.855  26.135  26.985  1.00  0.00    -0.352 N 
ATOM      4  O   UNL A   1      30.824  24.115  27.132  1.00  0.00    -0.270 OA
ATOM      5  C   UNL A   1      31.126  25.094  26.464  1.00  0.00     0.251 C 
ATOM      6  H   UNL A   1      31.928  26.143  27.967  1.00  0.00     0.163 HD
BRANCH   5   7
ATOM      7  C   UNL A   1      30.786  25.180  25.035  1.00  0.00     0.067 C 
ATOM      8  C   UNL A   1      29.638  25.802  24.741  1.00  0.00     0.025 C 
ATOM      9  C   UNL A   1      31.897  24.973  24.055  1.00  0.00     0.314 C 
ATOM     10  C   UNL A   1      29.753  26.756  23.637  1.00  0.00     0.021 A 
ATOM     11  O   UNL A   1      32.059  26.088  23.140  1.00  0.00    -0.475 OA
ATOM     12  C   UNL A   1      28.766  27.741  23.533  1.00  0.00     0.058 A 
ATOM     13  C   UNL A   1      30.994  26.945  23.011  1.00  0.00     0.128 A 
ATOM     14  C   UNL A   1      29.065  28.974  22.949  1.00  0.00     0.130 A 
ATOM     15  C   UNL A   1      31.269  28.149  22.370  1.00  0.00     0.051 A 
ATOM     16  C   UNL A   1      30.321  29.178  22.374  1.00  0.00     0.050 A 
BRANCH   9  17
ATOM     17  C   UNL A   1      31.741  23.655  23.283  1.00  0.00     0.429 C 
ATOM     18  F   UNL A   1      32.481  23.674  22.144  1.00  0.00    -0.167 F 
ATOM     19  F   UNL A   1      32.168  22.589  23.999  1.00  0.00    -0.167 F 
ATOM     20  F   UNL A   1      30.460  23.412  22.919  1.00  0.00    -0.167 F 
ENDBRANCH   9  17
BRANCH  14  21
ATOM     21  O   UNL A   1      28.063  29.897  23.035  1.00  0.00    -0.406 OA
BRANCH  21  22
ATOM     22  C   UNL A   1      28.455  31.251  23.201  1.00  0.00     0.573 C 
ATOM     23  F   UNL A   1      29.319  31.391  24.228  1.00  0.00    -0.132 F 
ATOM     24  F   UNL A   1      29.017  31.730  22.069  1.00  0.00    -0.132 F 
ATOM     25  F   UNL A   1      27.359  31.995  23.466  1.00  0.00    -0.132 F 
ENDBRANCH  21  22
ENDBRANCH  14  21
ENDBRANCH   5   7
ENDBRANCH   2   3
ENDBRANCH   1   2
BRANCH   1  26
ATOM     26  C   UNL A   1      32.576  29.723  25.828  1.00  0.00     0.118 C 
BRANCH  26  27
ATOM     27  N   UNL A   1      32.192  31.004  26.415  1.00  0.00    -0.352 N 
ATOM     28  C   UNL A   1      32.911  31.848  27.244  1.00  0.00     0.251 C 
ATOM     29  H   UNL A   1      31.286  31.314  26.186  1.00  0.00     0.163 HD
ATOM     30  O   UNL A   1      32.393  32.866  27.679  1.00  0.00    -0.269 OA
BRANCH  28  31
ATOM     31  C   UNL A   1      34.295  31.487  27.634  1.00  0.00     0.039 A 
ATOM     32  C   UNL A   1      35.274  32.484  27.694  1.00  0.00     0.014 A 
ATOM     33  C   UNL A   1      34.605  30.184  28.016  1.00  0.00     0.014 A 
ATOM     34  C   UNL A   1      36.520  32.199  28.264  1.00  0.00     0.010 A 
ATOM     35  C   UNL A   1      35.792  29.936  28.694  1.00  0.00     0.010 A 
ATOM     36  C   UNL A   1      36.762  30.941  28.840  1.00  0.00    -0.014 A 
BRANCH  36  37
ATOM     37  C   UNL A   1      37.990  30.629  29.626  1.00  0.00     0.031 A 
ATOM     38  C   UNL A   1      39.012  29.679  29.056  1.00  0.00     0.074 A 
ATOM     39  C   UNL A   1      38.105  31.052  30.903  1.00  0.00     0.049 A 
ATOM     40  N   UNL A   1      40.001  29.068  29.654  1.00  0.00    -0.248 NA
ATOM     41  C   UNL A   1      38.861  29.320  27.635  1.00  0.00     0.031 C 
ATOM     42  C   UNL A   1      37.148  31.906  31.609  1.00  0.00     0.029 A 
ATOM     43  N   UNL A   1      39.061  30.779  31.852  1.00  0.00    -0.354 N 
ATOM     44  C   UNL A   1      40.532  28.196  28.711  1.00  0.00     0.074 A 
ATOM     45  C   UNL A   1      39.737  28.334  27.512  1.00  0.00     0.031 C 
ATOM     46  C   UNL A   1      37.568  32.095  32.871  1.00  0.00     0.029 A 
ATOM     47  C   UNL A   1      38.796  31.339  33.083  1.00  0.00     0.049 A 
ATOM     48  H   UNL A   1      39.862  30.235  31.669  1.00  0.00     0.167 HD
ATOM     49  C   UNL A   1      41.606  27.377  28.819  1.00  0.00     0.034 A 
ATOM     50  C   UNL A   1      39.459  31.240  34.253  1.00  0.00     0.034 A 
ATOM     51  C   UNL A   1      42.457  27.327  29.975  1.00  0.00     0.049 A 
ATOM     52  C   UNL A   1      40.710  30.406  34.317  1.00  0.00     0.074 A 
ATOM     53  C   UNL A   1      43.637  26.624  30.143  1.00  0.00     0.029 A 
ATOM     54  N   UNL A   1      42.234  28.026  31.149  1.00  0.00    -0.354 N 
ATOM     55  N   UNL A   1      41.271  29.690  33.372  1.00  0.00    -0.248 NA
ATOM     56  C   UNL A   1      41.437  30.387  35.595  1.00  0.00     0.031 C 
ATOM     57  C   UNL A   1      44.128  26.900  31.423  1.00  0.00     0.029 A 
ATOM     58  C   UNL A   1      43.258  27.782  32.046  1.00  0.00     0.049 A 
ATOM     59  H   UNL A   1      41.460  28.609  31.322  1.00  0.00     0.167 HD
ATOM     60  C   UNL A   1      42.434  29.170  33.927  1.00  0.00     0.074 A 
ATOM     61  C   UNL A   1      42.506  29.664  35.288  1.00  0.00     0.031 C 
ATOM     62  C   UNL A   1      43.352  28.345  33.368  1.00  0.00     0.034 A 
BRANCH  49  63
ATOM     63  C   UNL A   1      41.964  26.531  27.625  1.00  0.00     0.023 A 
ATOM     64  C   UNL A   1      42.642  27.117  26.537  1.00  0.00     0.012 A 
ATOM     65  C   UNL A   1      41.670  25.154  27.593  1.00  0.00     0.148 A 
ATOM     66  C   UNL A   1      42.981  26.360  25.417  1.00  0.00     0.002 A 
ATOM     67  C   UNL A   1      42.054  24.394  26.493  1.00  0.00     0.091 A 
ATOM     68  F   UNL A   1      41.007  24.614  28.627  1.00  0.00    -0.205 F 
ATOM     69  C   UNL A   1      42.696  24.998  25.400  1.00  0.00     0.022 A 
BRANCH  67  70
ATOM     70  S   UNL A   1      41.805  22.617  26.412  1.00  0.00     0.127 S 
ATOM     71  O   UNL A   1      40.346  22.524  26.377  1.00  0.00    -0.237 OA
ATOM     72  O   UNL A   1      42.467  22.268  25.153  1.00  0.00    -0.237 OA
ATOM     73  O   UNL A   1      42.442  22.070  27.601  1.00  0.00    -0.744 OA
ENDBRANCH  67  70
ENDBRANCH  49  63
BRANCH  50  74
ATOM     74  C   UNL A   1      38.999  32.020  35.439  1.00  0.00     0.023 A 
ATOM     75  C   UNL A   1      39.176  33.419  35.445  1.00  0.00     0.012 A 
ATOM     76  C   UNL A   1      38.364  31.407  36.536  1.00  0.00     0.148 A 
ATOM     77  C   UNL A   1      38.757  34.187  36.531  1.00  0.00     0.002 A 
ATOM     78  C   UNL A   1      37.903  32.185  37.594  1.00  0.00     0.091 A 
ATOM     79  F   UNL A   1      38.215  30.074  36.520  1.00  0.00    -0.205 F 
ATOM     80  C   UNL A   1      38.113  33.573  37.600  1.00  0.00     0.022 A 
BRANCH  78  81
ATOM     81  S   UNL A   1      36.947  31.494  38.949  1.00  0.00     0.127 S 
ATOM     82  O   UNL A   1      36.730  30.124  38.495  1.00  0.00    -0.237 OA
ATOM     83  O   UNL A   1      37.871  31.631  40.076  1.00  0.00    -0.237 OA
ATOM     84  O   UNL A   1      35.756  32.328  39.050  1.00  0.00    -0.744 OA
ENDBRANCH  78  81
ENDBRANCH  50  74
BRANCH  62  85
ATOM     85  C   UNL A   1      44.546  27.955  34.195  1.00  0.00     0.023 A 
ATOM     86  C   UNL A   1      45.701  28.759  34.178  1.00  0.00     0.012 A 
ATOM     87  C   UNL A   1      44.477  26.854  35.072  1.00  0.00     0.148 A 
ATOM     88  C   UNL A   1      46.778  28.467  35.013  1.00  0.00     0.002 A 
ATOM     89  C   UNL A   1      45.536  26.594  35.932  1.00  0.00     0.091 A 
ATOM     90  F   UNL A   1      43.374  26.092  35.056  1.00  0.00    -0.205 F 
ATOM     91  C   UNL A   1      46.691  27.394  35.899  1.00  0.00     0.022 A 
BRANCH  89  92
ATOM     92  S   UNL A   1      45.473  25.297  37.173  1.00  0.00     0.127 S 
ATOM     93  O   UNL A   1      45.349  24.099  36.345  1.00  0.00    -0.237 OA
ATOM     94  O   UNL A   1      46.764  25.445  37.846  1.00  0.00    -0.237 OA
ATOM     95  O   UNL A   1      44.319  25.598  38.011  1.00  0.00    -0.744 OA
ENDBRANCH  89  92
ENDBRANCH  62  85
ENDBRANCH  36  37
ENDBRANCH  28  31
ENDBRANCH  26  27
ENDBRANCH   1  26
TORSDOF 16
ENDMDL
MODEL 2
REMARK VINA RESULT:     -13.2      1.437      7.594
REMARK SMILES O=C(NCCCNC(=O)c1ccc(-c2c3nc(c(-c4cccc(S(=O)(=O)[O-])c4F)c4ccc([nH]4)c(-c4cccc(S(=O)(=O)[O-])c4F)c4nc(c(-c5cccc(S(=O)(=O)[O-])c5F)c5ccc2[nH]5)C=C4)C=C3)cc1)C1=Cc2cc(OC(F)(F)F)ccc2O[C@@H]1C(F)(F)F
REMARK SMILES IDX 5 1 4 2 3 3 1 4 2 5 73 7 74 8 87 9 75 10 86 11 76 12 85 13
REMARK SMILES IDX 77 14 84 15 83 16 88 17 89 18 90 19 91 20 78 21 79 22 80 23
REMARK SMILES IDX 81 24 82 25 6 26 7 27 8 28 9 30 10 31 11 32 72 33 12 34
REMARK SMILES IDX 71 35 13 36 14 37 15 38 65 39 16 40 70 41 64 42 66 43 17 44
REMARK SMILES IDX 69 45 63 46 62 47 18 49 50 50 30 51 49 52 31 53 34 54 48 55
REMARK SMILES IDX 67 56 32 57 33 58 47 60 68 61 35 62 19 63 20 64 28 65 21 66
REMARK SMILES IDX 23 67 29 68 22 69 24 70 25 71 26 72 27 73 51 74 52 75 60 76
REMARK SMILES IDX 53 77 55 78 61 79 54 80 56 81 57 82 58 83 59 84 36 85 37 86
REMARK SMILES IDX 45 87 38 88 40 89 46 90 39 91 41 92 42 93 43 94 44 95
REMARK H PARENT 3 6 7 29 66 48 34 59
REMARK Flexibility Score: inf
ROOT
ATOM      1  C   UNL A   1      31.705  28.922  26.523  1.00  0.00     0.042 C 
ENDROOT
BRANCH   1   2
ATOM      2  C   UNL A   1      32.311  27.534  26.369  1.00  0.00     0.118 C 
BRANCH   2   3
ATOM      3  N   UNL A   1      31.455  26.466  26.897  1.00  0.00    -0.352 N 
ATOM      4  O   UNL A   1      30.271  24.528  26.805  1.00  0.00    -0.270 OA
ATOM      5  C   UNL A   1      30.736  25.504  26.231  1.00  0.00     0.251 C 
ATOM      6  H   UNL A   1      31.386  26.435  27.878  1.00  0.00     0.163 HD
BRANCH   5   7
ATOM      7  C   UNL A   1      30.611  25.667  24.774  1.00  0.00     0.067 C 
ATOM      8  C   UNL A   1      29.482  26.241  24.341  1.00  0.00     0.025 C 
ATOM      9  C   UNL A   1      31.870  25.589  23.968  1.00  0.00     0.314 C 
ATOM     10  C   UNL A   1      29.700  27.272  23.326  1.00  0.00     0.021 A 
ATOM     11  O   UNL A   1      32.094  26.770  23.155  1.00  0.00    -0.475 OA
ATOM     12  C   UNL A   1      28.678  28.205  23.126  1.00  0.00     0.058 A 
ATOM     13  C   UNL A   1      31.007  27.573  22.913  1.00  0.00     0.128 A 
ATOM     14  C   UNL A   1      28.980  29.489  22.668  1.00  0.00     0.130 A 
ATOM     15  C   UNL A   1      31.296  28.831  22.392  1.00  0.00     0.051 A 
ATOM     16  C   UNL A   1      30.292  29.801  22.308  1.00  0.00     0.050 A 
BRANCH   9  17
ATOM     17  C   UNL A   1      31.919  24.319  23.107  1.00  0.00     0.429 C 
ATOM     18  F   UNL A   1      30.730  23.663  23.147  1.00  0.00    -0.167 F 
ATOM     19  F   UNL A   1      32.160  24.593  21.804  1.00  0.00    -0.167 F 
ATOM     20  F   UNL A   1      32.866  23.445  23.519  1.00  0.00    -0.167 F 
ENDBRANCH   9  17
BRANCH  14  21
ATOM     21  O   UNL A   1      27.918  30.346  22.651  1.00  0.00    -0.406 OA
BRANCH  21  22
ATOM     22  C   UNL A   1      28.085  31.585  23.323  1.00  0.00     0.573 C 
ATOM     23  F   UNL A   1      28.994  31.486  24.316  1.00  0.00    -0.132 F 
ATOM     24  F   UNL A   1      28.464  32.552  22.458  1.00  0.00    -0.132 F 
ATOM     25  F   UNL A   1      26.905  31.953  23.865  1.00  0.00    -0.132 F 
ENDBRANCH  21  22
ENDBRANCH  14  21
ENDBRANCH   5   7
ENDBRANCH   2   3
ENDBRANCH   1   2
BRANCH   1  26
ATOM     26  C   UNL A   1      32.560  30.004  25.873  1.00  0.00     0.118 C 
BRANCH  26  27
ATOM     27  N   UNL A   1      32.415  31.332  26.465  1.00  0.00    -0.352 N 
ATOM     28  C   UNL A   1      33.273  32.027  27.298  1.00  0.00     0.251 C 
ATOM     29  H   UNL A   1      31.581  31.802  26.237  1.00  0.00     0.163 HD
ATOM     30  O   UNL A   1      32.949  33.121  27.737  1.00  0.00    -0.269 OA
BRANCH  28  31
ATOM     31  C   UNL A   1      34.569  31.419  27.688  1.00  0.00     0.039 A 
ATOM     32  C   UNL A   1      35.649  32.248  28.007  1.00  0.00     0.014 A 
ATOM     33  C   UNL A   1      34.691  30.038  27.815  1.00  0.00     0.014 A 
ATOM     34  C   UNL A   1      36.801  31.697  28.580  1.00  0.00     0.010 A 
ATOM     35  C   UNL A   1      35.780  29.509  28.496  1.00  0.00     0.010 A 
ATOM     36  C   UNL A   1      36.845  30.331  28.901  1.00  0.00    -0.014 A 
BRANCH  36  37
ATOM     37  C   UNL A   1      37.958  29.714  29.678  1.00  0.00     0.031 A 
ATOM     38  C   UNL A   1      38.182  30.132  31.108  1.00  0.00     0.074 A 
ATOM     39  C   UNL A   1      38.860  28.922  29.061  1.00  0.00     0.049 A 
ATOM     40  N   UNL A   1      39.221  29.936  31.877  1.00  0.00    -0.248 NA
ATOM     41  C   UNL A   1      37.118  30.936  31.737  1.00  0.00     0.031 C 
ATOM     42  C   UNL A   1      38.813  28.505  27.658  1.00  0.00     0.029 A 
ATOM     43  N   UNL A   1      40.026  28.362  29.528  1.00  0.00    -0.354 N 
ATOM     44  C   UNL A   1      38.972  30.656  33.040  1.00  0.00     0.074 A 
ATOM     45  C   UNL A   1      37.701  31.320  32.863  1.00  0.00     0.031 C 
ATOM     46  C   UNL A   1      39.890  27.751  27.382  1.00  0.00     0.029 A 
ATOM     47  C   UNL A   1      40.731  27.668  28.570  1.00  0.00     0.049 A 
ATOM     48  H   UNL A   1      40.328  28.448  30.462  1.00  0.00     0.167 HD
ATOM     49  C   UNL A   1      39.718  30.734  34.168  1.00  0.00     0.034 A 
ATOM     50  C   UNL A   1      41.927  27.049  28.636  1.00  0.00     0.034 A 
ATOM     51  C   UNL A   1      40.925  29.985  34.380  1.00  0.00     0.049 A 
ATOM     52  C   UNL A   1      42.686  27.063  29.936  1.00  0.00     0.074 A 
ATOM     53  C   UNL A   1      41.693  29.897  35.527  1.00  0.00     0.029 A 
ATOM     54  N   UNL A   1      41.527  29.175  33.430  1.00  0.00    -0.354 N 
ATOM     55  N   UNL A   1      42.369  27.643  31.068  1.00  0.00    -0.248 NA
ATOM     56  C   UNL A   1      43.951  26.314  29.979  1.00  0.00     0.031 C 
ATOM     57  C   UNL A   1      42.760  29.031  35.271  1.00  0.00     0.029 A 
ATOM     58  C   UNL A   1      42.651  28.574  33.967  1.00  0.00     0.049 A 
ATOM     59  H   UNL A   1      41.204  29.048  32.509  1.00  0.00     0.167 HD
ATOM     60  C   UNL A   1      43.371  27.298  31.967  1.00  0.00     0.074 A 
ATOM     61  C   UNL A   1      44.299  26.445  31.253  1.00  0.00     0.031 C 
ATOM     62  C   UNL A   1      43.519  27.666  33.263  1.00  0.00     0.034 A 
BRANCH  49  63
ATOM     63  C   UNL A   1      39.204  31.600  35.289  1.00  0.00     0.023 A 
ATOM     64  C   UNL A   1      38.286  31.064  36.214  1.00  0.00     0.012 A 
ATOM     65  C   UNL A   1      39.655  32.924  35.454  1.00  0.00     0.148 A 
ATOM     66  C   UNL A   1      37.790  31.843  37.258  1.00  0.00     0.002 A 
ATOM     67  C   UNL A   1      39.192  33.680  36.525  1.00  0.00     0.091 A 
ATOM     68  F   UNL A   1      40.513  33.426  34.553  1.00  0.00    -0.205 F 
ATOM     69  C   UNL A   1      38.250  33.146  37.419  1.00  0.00     0.022 A 
BRANCH  67  70
ATOM     70  S   UNL A   1      39.787  35.341  36.864  1.00  0.00     0.127 S 
ATOM     71  O   UNL A   1      41.230  35.126  36.949  1.00  0.00    -0.237 OA
ATOM     72  O   UNL A   1      39.350  36.076  35.676  1.00  0.00    -0.237 OA
ATOM     73  O   UNL A   1      39.139  35.752  38.101  1.00  0.00    -0.744 OA
ENDBRANCH  67  70
ENDBRANCH  49  63
BRANCH  50  74
ATOM     74  C   UNL A   1      42.441  26.291  27.458  1.00  0.00     0.023 A 
ATOM     75  C   UNL A   1      43.282  26.949  26.538  1.00  0.00     0.012 A 
ATOM     76  C   UNL A   1      42.140  24.930  27.257  1.00  0.00     0.148 A 
ATOM     77  C   UNL A   1      43.789  26.277  25.426  1.00  0.00     0.002 A 
ATOM     78  C   UNL A   1      42.690  24.252  26.173  1.00  0.00     0.091 A 
ATOM     79  F   UNL A   1      41.329  24.322  28.135  1.00  0.00    -0.205 F 
ATOM     80  C   UNL A   1      43.501  24.928  25.249  1.00  0.00     0.022 A 
BRANCH  78  81
ATOM     81  S   UNL A   1      42.479  22.482  25.940  1.00  0.00     0.127 S 
ATOM     82  O   UNL A   1      43.174  22.262  24.676  1.00  0.00    -0.237 OA
ATOM     83  O   UNL A   1      43.153  21.937  27.118  1.00  0.00    -0.237 OA
ATOM     84  O   UNL A   1      41.039  22.262  25.922  1.00  0.00    -0.744 OA
ENDBRANCH  78  81
ENDBRANCH  50  74
BRANCH  62  85
ATOM     85  C   UNL A   1      44.695  27.116  34.023  1.00  0.00     0.023 A 
ATOM     86  C   UNL A   1      45.901  27.840  34.061  1.00  0.00     0.012 A 
ATOM     87  C   UNL A   1      44.563  25.941  34.790  1.00  0.00     0.148 A 
ATOM     88  C   UNL A   1      46.967  27.395  34.840  1.00  0.00     0.002 A 
ATOM     89  C   UNL A   1      45.614  25.528  35.598  1.00  0.00     0.091 A 
ATOM     90  F   UNL A   1      43.410  25.260  34.722  1.00  0.00    -0.205 F 
ATOM     91  C   UNL A   1      46.820  26.248  35.619  1.00  0.00     0.022 A 
BRANCH  89  92
ATOM     92  S   UNL A   1      45.479  24.121  36.707  1.00  0.00     0.127 S 
ATOM     93  O   UNL A   1      46.837  24.033  37.242  1.00  0.00    -0.237 OA
ATOM     94  O   UNL A   1      44.473  24.576  37.667  1.00  0.00    -0.237 OA
ATOM     95  O   UNL A   1      45.060  22.997  35.882  1.00  0.00    -0.744 OA
ENDBRANCH  89  92
ENDBRANCH  62  85
ENDBRANCH  36  37
ENDBRANCH  28  31
ENDBRANCH  26  27
ENDBRANCH   1  26
TORSDOF 16
ENDMDL
MODEL 3
REMARK VINA RESULT:     -12.9      5.358      7.553
REMARK SMILES O=C(NCCCNC(=O)c1ccc(-c2c3nc(c(-c4cccc(S(=O)(=O)[O-])c4F)c4ccc([nH]4)c(-c4cccc(S(=O)(=O)[O-])c4F)c4nc(c(-c5cccc(S(=O)(=O)[O-])c5F)c5ccc2[nH]5)C=C4)C=C3)cc1)C1=Cc2cc(OC(F)(F)F)ccc2O[C@@H]1C(F)(F)F
REMARK SMILES IDX 5 1 4 2 3 3 1 4 2 5 73 7 74 8 87 9 75 10 86 11 76 12 85 13
REMARK SMILES IDX 77 14 84 15 83 16 88 17 89 18 90 19 91 20 78 21 79 22 80 23
REMARK SMILES IDX 81 24 82 25 6 26 7 27 8 28 9 30 10 31 11 32 72 33 12 34
REMARK SMILES IDX 71 35 13 36 14 37 15 38 65 39 16 40 70 41 64 42 66 43 17 44
REMARK SMILES IDX 69 45 63 46 62 47 18 49 50 50 30 51 49 52 31 53 34 54 48 55
REMARK SMILES IDX 67 56 32 57 33 58 47 60 68 61 35 62 19 63 20 64 28 65 21 66
REMARK SMILES IDX 23 67 29 68 22 69 24 70 25 71 26 72 27 73 51 74 52 75 60 76
REMARK SMILES IDX 53 77 55 78 61 79 54 80 56 81 57 82 58 83 59 84 36 85 37 86
REMARK SMILES IDX 45 87 38 88 40 89 46 90 39 91 41 92 42 93 43 94 44 95
REMARK H PARENT 3 6 7 29 66 48 34 59
REMARK Flexibility Score: inf
ROOT
ATOM      1  C   UNL A   1      36.217  21.596  25.848  1.00  0.00     0.042 C 
ENDROOT
BRANCH   1   2
ATOM      2  C   UNL A   1      34.906  21.374  25.103  1.00  0.00     0.118 C 
BRANCH   2   3
ATOM      3  N   UNL A   1      34.828  22.110  23.837  1.00  0.00    -0.352 N 
ATOM      4  O   UNL A   1      34.405  23.909  22.514  1.00  0.00    -0.270 OA
ATOM      5  C   UNL A   1      34.176  23.282  23.539  1.00  0.00     0.251 C 
ATOM      6  H   UNL A   1      35.318  21.702  23.087  1.00  0.00     0.163 HD
BRANCH   5   7
ATOM      7  C   UNL A   1      33.237  23.789  24.553  1.00  0.00     0.067 C 
ATOM      8  C   UNL A   1      33.610  24.900  25.198  1.00  0.00     0.025 C 
ATOM      9  C   UNL A   1      31.823  23.304  24.475  1.00  0.00     0.314 C 
ATOM     10  C   UNL A   1      32.546  25.899  25.312  1.00  0.00     0.021 A 
ATOM     11  O   UNL A   1      30.860  24.386  24.374  1.00  0.00    -0.475 OA
ATOM     12  C   UNL A   1      32.928  27.218  25.569  1.00  0.00     0.058 A 
ATOM     13  C   UNL A   1      31.285  25.633  24.757  1.00  0.00     0.128 A 
ATOM     14  C   UNL A   1      32.130  28.277  25.130  1.00  0.00     0.130 A 
ATOM     15  C   UNL A   1      30.460  26.689  24.380  1.00  0.00     0.051 A 
ATOM     16  C   UNL A   1      30.899  28.009  24.529  1.00  0.00     0.050 A 
BRANCH   9  17
ATOM     17  C   UNL A   1      31.473  22.372  25.644  1.00  0.00     0.429 C 
ATOM     18  F   UNL A   1      30.194  22.576  26.055  1.00  0.00    -0.167 F 
ATOM     19  F   UNL A   1      31.560  21.066  25.300  1.00  0.00    -0.167 F 
ATOM     20  F   UNL A   1      32.270  22.563  26.720  1.00  0.00    -0.167 F 
ENDBRANCH   9  17
BRANCH  14  21
ATOM     21  O   UNL A   1      32.680  29.513  25.316  1.00  0.00    -0.406 OA
BRANCH  21  22
ATOM     22  C   UNL A   1      32.136  30.304  26.361  1.00  0.00     0.573 C 
ATOM     23  F   UNL A   1      31.256  31.210  25.885  1.00  0.00    -0.132 F 
ATOM     24  F   UNL A   1      31.529  29.526  27.284  1.00  0.00    -0.132 F 
ATOM     25  F   UNL A   1      33.139  30.969  26.974  1.00  0.00    -0.132 F 
ENDBRANCH  21  22
ENDBRANCH  14  21
ENDBRANCH   5   7
ENDBRANCH   2   3
ENDBRANCH   1   2
BRANCH   1  26
ATOM     26  C   UNL A   1      37.430  21.503  24.929  1.00  0.00     0.118 C 
BRANCH  26  27
ATOM     27  N   UNL A   1      38.456  20.561  25.371  1.00  0.00    -0.352 N 
ATOM     28  C   UNL A   1      39.571  20.777  26.160  1.00  0.00     0.251 C 
ATOM     29  H   UNL A   1      38.336  19.636  25.059  1.00  0.00     0.163 HD
ATOM     30  O   UNL A   1      40.352  19.862  26.382  1.00  0.00    -0.269 OA
BRANCH  28  31
ATOM     31  C   UNL A   1      39.837  22.132  26.701  1.00  0.00     0.039 A 
ATOM     32  C   UNL A   1      40.831  22.304  27.668  1.00  0.00     0.014 A 
ATOM     33  C   UNL A   1      39.160  23.240  26.195  1.00  0.00     0.014 A 
ATOM     34  C   UNL A   1      41.236  23.596  28.025  1.00  0.00     0.010 A 
ATOM     35  C   UNL A   1      39.646  24.514  26.456  1.00  0.00     0.010 A 
ATOM     36  C   UNL A   1      40.699  24.712  27.363  1.00  0.00    -0.014 A 
BRANCH  36  37
ATOM     37  C   UNL A   1      41.215  26.098  27.557  1.00  0.00     0.031 A 
ATOM     38  C   UNL A   1      42.601  26.445  27.079  1.00  0.00     0.074 A 
ATOM     39  C   UNL A   1      40.522  26.982  28.305  1.00  0.00     0.049 A 
ATOM     40  N   UNL A   1      43.343  27.482  27.368  1.00  0.00    -0.248 NA
ATOM     41  C   UNL A   1      43.266  25.460  26.207  1.00  0.00     0.031 C 
ATOM     42  C   UNL A   1      39.205  26.748  28.903  1.00  0.00     0.029 A 
ATOM     43  N   UNL A   1      40.852  28.247  28.731  1.00  0.00    -0.354 N 
ATOM     44  C   UNL A   1      44.581  27.235  26.786  1.00  0.00     0.074 A 
ATOM     45  C   UNL A   1      44.501  25.937  26.156  1.00  0.00     0.031 C 
ATOM     46  C   UNL A   1      38.838  27.833  29.606  1.00  0.00     0.029 A 
ATOM     47  C   UNL A   1      39.908  28.820  29.553  1.00  0.00     0.049 A 
ATOM     48  H   UNL A   1      41.687  28.701  28.470  1.00  0.00     0.167 HD
ATOM     49  C   UNL A   1      45.678  28.029  26.751  1.00  0.00     0.034 A 
ATOM     50  C   UNL A   1      39.911  30.001  30.204  1.00  0.00     0.034 A 
ATOM     51  C   UNL A   1      45.714  29.363  27.284  1.00  0.00     0.049 A 
ATOM     52  C   UNL A   1      41.102  30.911  30.060  1.00  0.00     0.074 A 
ATOM     53  C   UNL A   1      46.732  30.296  27.196  1.00  0.00     0.029 A 
ATOM     54  N   UNL A   1      44.679  29.961  27.983  1.00  0.00    -0.354 N 
ATOM     55  N   UNL A   1      42.214  30.713  29.395  1.00  0.00    -0.248 NA
ATOM     56  C   UNL A   1      41.028  32.218  30.731  1.00  0.00     0.031 C 
ATOM     57  C   UNL A   1      46.309  31.461  27.842  1.00  0.00     0.029 A 
ATOM     58  C   UNL A   1      45.026  31.256  28.324  1.00  0.00     0.049 A 
ATOM     59  H   UNL A   1      43.823  29.529  28.205  1.00  0.00     0.167 HD
ATOM     60  C   UNL A   1      42.954  31.881  29.532  1.00  0.00     0.074 A 
ATOM     61  C   UNL A   1      42.158  32.790  30.333  1.00  0.00     0.031 C 
ATOM     62  C   UNL A   1      44.188  32.171  29.053  1.00  0.00     0.034 A 
BRANCH  49  63
ATOM     63  C   UNL A   1      46.900  27.504  26.042  1.00  0.00     0.023 A 
ATOM     64  C   UNL A   1      47.055  27.739  24.661  1.00  0.00     0.012 A 
ATOM     65  C   UNL A   1      47.911  26.818  26.743  1.00  0.00     0.148 A 
ATOM     66  C   UNL A   1      48.172  27.261  23.979  1.00  0.00     0.002 A 
ATOM     67  C   UNL A   1      49.045  26.385  26.065  1.00  0.00     0.091 A 
ATOM     68  F   UNL A   1      47.739  26.585  28.053  1.00  0.00    -0.205 F 
ATOM     69  C   UNL A   1      49.171  26.594  24.682  1.00  0.00     0.022 A 
BRANCH  67  70
ATOM     70  S   UNL A   1      50.424  25.589  26.898  1.00  0.00     0.127 S 
ATOM     71  O   UNL A   1      51.331  25.326  25.781  1.00  0.00    -0.237 OA
ATOM     72  O   UNL A   1      50.877  26.634  27.817  1.00  0.00    -0.237 OA
ATOM     73  O   UNL A   1      49.870  24.411  27.548  1.00  0.00    -0.744 OA
ENDBRANCH  67  70
ENDBRANCH  49  63
BRANCH  50  74
ATOM     74  C   UNL A   1      38.712  30.428  30.981  1.00  0.00     0.023 A 
ATOM     75  C   UNL A   1      38.651  30.132  32.358  1.00  0.00     0.012 A 
ATOM     76  C   UNL A   1      37.656  31.149  30.389  1.00  0.00     0.148 A 
ATOM     77  C   UNL A   1      37.550  30.516  33.124  1.00  0.00     0.002 A 
ATOM     78  C   UNL A   1      36.585  31.573  31.169  1.00  0.00     0.091 A 
ATOM     79  F   UNL A   1      37.724  31.412  29.076  1.00  0.00    -0.205 F 
ATOM     80  C   UNL A   1      36.523  31.245  32.532  1.00  0.00     0.022 A 
BRANCH  78  81
ATOM     81  S   UNL A   1      35.282  32.628  30.520  1.00  0.00     0.127 S 
ATOM     82  O   UNL A   1      36.021  33.839  30.176  1.00  0.00    -0.237 OA
ATOM     83  O   UNL A   1      34.803  31.851  29.376  1.00  0.00    -0.237 OA
ATOM     84  O   UNL A   1      34.313  32.758  31.600  1.00  0.00    -0.744 OA
ENDBRANCH  78  81
ENDBRANCH  50  74
BRANCH  62  85
ATOM     85  C   UNL A   1      44.748  33.540  29.328  1.00  0.00     0.023 A 
ATOM     86  C   UNL A   1      45.502  33.765  30.495  1.00  0.00     0.012 A 
ATOM     87  C   UNL A   1      44.621  34.568  28.372  1.00  0.00     0.148 A 
ATOM     88  C   UNL A   1      46.110  34.999  30.716  1.00  0.00     0.002 A 
ATOM     89  C   UNL A   1      45.266  35.781  28.579  1.00  0.00     0.091 A 
ATOM     90  F   UNL A   1      43.882  34.336  27.278  1.00  0.00    -0.205 F 
ATOM     91  C   UNL A   1      46.005  36.001  29.753  1.00  0.00     0.022 A 
BRANCH  89  92
ATOM     92  S   UNL A   1      45.268  37.091  27.351  1.00  0.00     0.127 S 
ATOM     93  O   UNL A   1      45.959  36.451  26.233  1.00  0.00    -0.237 OA
ATOM     94  O   UNL A   1      43.839  37.319  27.136  1.00  0.00    -0.237 OA
ATOM     95  O   UNL A   1      45.972  38.212  27.959  1.00  0.00    -0.744 OA
ENDBRANCH  89  92
ENDBRANCH  62  85
ENDBRANCH  36  37
ENDBRANCH  28  31
ENDBRANCH  26  27
ENDBRANCH   1  26
TORSDOF 16
ENDMDL
