MODEL 1
REMARK VINA RESULT:     -12.4      0.000      0.000
REMARK SMILES O=C(CN(CC(=O)N1CCCCC1)c1ccccc1)NCCCNC(=O)c1ccc(-c2c3nc(c(-c4cccc(S(=O)(=O)[O-])c4F)c4ccc([nH]4)c(-c4cccc(S(=O)(=O)[O-])c4F)c4nc(c(-c5cccc(S(=O)(=O)[O-])c5F)c5ccc2[nH]5)C=C4)C=C3)cc1
REMARK SMILES IDX 22 1 21 2 20 3 1 4 2 5 3 7 4 8 5 9 6 10 7 11 8 12 9 13 13 14
REMARK SMILES IDX 10 15 12 16 11 17 14 18 15 19 19 20 16 21 18 22 17 23 23 24
REMARK SMILES IDX 24 25 25 26 26 28 27 29 28 30 89 31 29 32 88 33 30 34 31 35
REMARK SMILES IDX 32 36 82 37 33 38 87 39 81 40 83 41 34 42 86 43 80 44 79 45
REMARK SMILES IDX 35 47 67 48 47 49 66 50 48 51 51 52 65 53 84 54 49 55 50 56
REMARK SMILES IDX 64 58 85 59 52 60 36 61 37 62 45 63 38 64 40 65 46 66 39 67
REMARK SMILES IDX 41 68 42 69 43 70 44 71 68 72 69 73 77 74 70 75 72 76 78 77
REMARK SMILES IDX 71 78 73 79 74 80 75 81 76 82 53 83 54 84 62 85 55 86 57 87
REMARK SMILES IDX 63 88 56 89 58 90 59 91 60 92 61 93
REMARK H PARENT 20 6 24 27 83 46 51 57
REMARK Flexibility Score: inf
ROOT
ATOM      1  C   UNL A   1      36.842  22.169  23.785  1.00  0.00     0.042 C 
ENDROOT
BRANCH   1   2
ATOM      2  C   UNL A   1      35.902  23.334  23.516  1.00  0.00     0.117 C 
BRANCH   2   3
ATOM      3  N   UNL A   1      34.502  23.020  23.716  1.00  0.00    -0.354 N 
ATOM      4  O   UNL A   1      33.918  23.348  21.528  1.00  0.00    -0.273 OA
ATOM      5  C   UNL A   1      33.630  22.949  22.655  1.00  0.00     0.239 C 
ATOM      6  H   UNL A   1      34.169  22.853  24.628  1.00  0.00     0.163 HD
BRANCH   5   7
ATOM      7  C   UNL A   1      32.267  22.316  22.938  1.00  0.00     0.217 C 
BRANCH   7   8
ATOM      8  N   UNL A   1      32.202  21.314  24.041  1.00  0.00    -0.353 N 
BRANCH   8   9
ATOM      9  C   UNL A   1      31.545  21.762  25.289  1.00  0.00     0.217 C 
BRANCH   9  10
ATOM     10  C   UNL A   1      32.047  23.021  26.035  1.00  0.00     0.242 C 
ATOM     11  O   UNL A   1      32.772  22.841  27.026  1.00  0.00    -0.273 OA
ATOM     12  N   UNL A   1      31.842  24.309  25.561  1.00  0.00    -0.341 N 
ATOM     13  C   UNL A   1      32.709  25.385  26.046  1.00  0.00     0.119 C 
ATOM     14  C   UNL A   1      30.777  24.755  24.671  1.00  0.00     0.119 C 
ATOM     15  C   UNL A   1      31.910  26.491  26.731  1.00  0.00     0.022 C 
ATOM     16  C   UNL A   1      29.932  25.845  25.330  1.00  0.00     0.022 C 
ATOM     17  C   UNL A   1      30.796  27.003  25.821  1.00  0.00     0.004 C 
ENDBRANCH   9  10
ENDBRANCH   8   9
BRANCH   8  18
ATOM     18  C   UNL A   1      32.702  20.023  23.894  1.00  0.00     0.038 A 
ATOM     19  C   UNL A   1      33.784  19.544  24.651  1.00  0.00     0.026 A 
ATOM     20  C   UNL A   1      32.165  19.110  22.970  1.00  0.00     0.026 A 
ATOM     21  C   UNL A   1      34.294  18.246  24.500  1.00  0.00     0.002 A 
ATOM     22  C   UNL A   1      32.696  17.826  22.778  1.00  0.00     0.002 A 
ATOM     23  C   UNL A   1      33.760  17.389  23.550  1.00  0.00     0.000 A 
ENDBRANCH   8  18
ENDBRANCH   7   8
ENDBRANCH   5   7
ENDBRANCH   2   3
ENDBRANCH   1   2
BRANCH   1  24
ATOM     24  C   UNL A   1      37.072  21.886  25.264  1.00  0.00     0.118 C 
BRANCH  24  25
ATOM     25  N   UNL A   1      38.035  20.814  25.500  1.00  0.00    -0.352 N 
ATOM     26  C   UNL A   1      39.297  20.867  26.040  1.00  0.00     0.251 C 
ATOM     27  H   UNL A   1      37.735  19.915  25.232  1.00  0.00     0.163 HD
ATOM     28  O   UNL A   1      40.009  19.866  26.032  1.00  0.00    -0.269 OA
BRANCH  26  29
ATOM     29  C   UNL A   1      39.809  22.133  26.607  1.00  0.00     0.039 A 
ATOM     30  C   UNL A   1      40.758  22.084  27.633  1.00  0.00     0.014 A 
ATOM     31  C   UNL A   1      39.366  23.364  26.119  1.00  0.00     0.014 A 
ATOM     32  C   UNL A   1      41.329  23.268  28.106  1.00  0.00     0.010 A 
ATOM     33  C   UNL A   1      39.987  24.535  26.540  1.00  0.00     0.010 A 
ATOM     34  C   UNL A   1      40.981  24.500  27.530  1.00  0.00    -0.014 A 
BRANCH  34  35
ATOM     35  C   UNL A   1      41.655  25.767  27.910  1.00  0.00     0.031 A 
ATOM     36  C   UNL A   1      40.889  26.834  28.644  1.00  0.00     0.074 A 
ATOM     37  C   UNL A   1      42.907  26.013  27.473  1.00  0.00     0.049 A 
ATOM     38  N   UNL A   1      41.240  28.063  28.914  1.00  0.00    -0.248 NA
ATOM     39  C   UNL A   1      39.535  26.481  29.105  1.00  0.00     0.031 C 
ATOM     40  C   UNL A   1      43.728  25.085  26.693  1.00  0.00     0.029 A 
ATOM     41  N   UNL A   1      43.691  27.134  27.587  1.00  0.00    -0.354 N 
ATOM     42  C   UNL A   1      40.139  28.646  29.528  1.00  0.00     0.074 A 
ATOM     43  C   UNL A   1      39.099  27.641  29.575  1.00  0.00     0.031 C 
ATOM     44  C   UNL A   1      44.894  25.678  26.388  1.00  0.00     0.029 A 
ATOM     45  C   UNL A   1      44.890  27.037  26.918  1.00  0.00     0.049 A 
ATOM     46  H   UNL A   1      43.421  27.932  28.098  1.00  0.00     0.167 HD
ATOM     47  C   UNL A   1      40.011  29.898  30.030  1.00  0.00     0.034 A 
ATOM     48  C   UNL A   1      45.869  27.946  26.737  1.00  0.00     0.034 A 
ATOM     49  C   UNL A   1      41.068  30.873  30.036  1.00  0.00     0.049 A 
ATOM     50  C   UNL A   1      45.724  29.311  27.355  1.00  0.00     0.074 A 
ATOM     51  C   UNL A   1      41.066  32.137  30.599  1.00  0.00     0.029 A 
ATOM     52  N   UNL A   1      42.313  30.694  29.456  1.00  0.00    -0.354 N 
ATOM     53  N   UNL A   1      44.730  29.796  28.058  1.00  0.00    -0.248 NA
ATOM     54  C   UNL A   1      46.847  30.244  27.182  1.00  0.00     0.031 C 
ATOM     55  C   UNL A   1      42.311  32.726  30.354  1.00  0.00     0.029 A 
ATOM     56  C   UNL A   1      43.090  31.822  29.649  1.00  0.00     0.049 A 
ATOM     57  H   UNL A   1      42.603  29.884  28.977  1.00  0.00     0.167 HD
ATOM     58  C   UNL A   1      45.124  31.070  28.448  1.00  0.00     0.074 A 
ATOM     59  C   UNL A   1      46.452  31.280  27.912  1.00  0.00     0.031 C 
ATOM     60  C   UNL A   1      44.440  31.988  29.174  1.00  0.00     0.034 A 
BRANCH  47  61
ATOM     61  C   UNL A   1      38.702  30.266  30.673  1.00  0.00     0.023 A 
ATOM     62  C   UNL A   1      38.484  29.947  32.029  1.00  0.00     0.012 A 
ATOM     63  C   UNL A   1      37.715  30.976  29.963  1.00  0.00     0.148 A 
ATOM     64  C   UNL A   1      37.293  30.303  32.660  1.00  0.00     0.002 A 
ATOM     65  C   UNL A   1      36.547  31.364  30.610  1.00  0.00     0.091 A 
ATOM     66  F   UNL A   1      37.929  31.249  28.667  1.00  0.00    -0.205 F 
ATOM     67  C   UNL A   1      36.331  31.020  31.954  1.00  0.00     0.022 A 
BRANCH  65  68
ATOM     68  S   UNL A   1      35.284  32.357  29.806  1.00  0.00     0.127 S 
ATOM     69  O   UNL A   1      34.340  32.576  30.902  1.00  0.00    -0.237 OA
ATOM     70  O   UNL A   1      36.034  33.547  29.402  1.00  0.00    -0.237 OA
ATOM     71  O   UNL A   1      34.788  31.552  28.699  1.00  0.00    -0.744 OA
ENDBRANCH  65  68
ENDBRANCH  47  61
BRANCH  48  72
ATOM     72  C   UNL A   1      47.106  27.568  26.000  1.00  0.00     0.023 A 
ATOM     73  C   UNL A   1      48.142  26.909  26.691  1.00  0.00     0.012 A 
ATOM     74  C   UNL A   1      47.251  27.816  24.621  1.00  0.00     0.148 A 
ATOM     75  C   UNL A   1      49.311  26.530  26.030  1.00  0.00     0.002 A 
ATOM     76  C   UNL A   1      48.397  27.390  23.957  1.00  0.00     0.091 A 
ATOM     77  F   UNL A   1      46.260  28.456  23.982  1.00  0.00    -0.205 F 
ATOM     78  C   UNL A   1      49.433  26.761  24.662  1.00  0.00     0.022 A 
BRANCH  76  79
ATOM     79  S   UNL A   1      48.581  27.530  22.175  1.00  0.00     0.127 S 
ATOM     80  O   UNL A   1      48.784  26.137  21.785  1.00  0.00    -0.237 OA
ATOM     81  O   UNL A   1      47.292  28.099  21.779  1.00  0.00    -0.237 OA
ATOM     82  O   UNL A   1      49.715  28.420  21.970  1.00  0.00    -0.744 OA
ENDBRANCH  76  79
ENDBRANCH  48  72
BRANCH  60  83
ATOM     83  C   UNL A   1      45.123  33.291  29.487  1.00  0.00     0.023 A 
ATOM     84  C   UNL A   1      45.926  33.401  30.639  1.00  0.00     0.012 A 
ATOM     85  C   UNL A   1      45.054  34.370  28.583  1.00  0.00     0.148 A 
ATOM     86  C   UNL A   1      46.637  34.573  30.895  1.00  0.00     0.002 A 
ATOM     87  C   UNL A   1      45.800  35.518  28.822  1.00  0.00     0.091 A 
ATOM     88  F   UNL A   1      44.267  34.250  27.504  1.00  0.00    -0.205 F 
ATOM     89  C   UNL A   1      46.585  35.624  29.981  1.00  0.00     0.022 A 
BRANCH  87  90
ATOM     90  S   UNL A   1      45.867  36.882  27.656  1.00  0.00     0.127 S 
ATOM     91  O   UNL A   1      46.419  36.232  26.468  1.00  0.00    -0.237 OA
ATOM     92  O   UNL A   1      44.459  37.265  27.543  1.00  0.00    -0.237 OA
ATOM     93  O   UNL A   1      46.719  37.892  28.269  1.00  0.00    -0.744 OA
ENDBRANCH  87  90
ENDBRANCH  60  83
ENDBRANCH  34  35
ENDBRANCH  26  29
ENDBRANCH  24  25
ENDBRANCH   1  24
TORSDOF 17
ENDMDL
MODEL 2
REMARK VINA RESULT:     -12.3      5.661     10.939
REMARK SMILES O=C(CN(CC(=O)N1CCCCC1)c1ccccc1)NCCCNC(=O)c1ccc(-c2c3nc(c(-c4cccc(S(=O)(=O)[O-])c4F)c4ccc([nH]4)c(-c4cccc(S(=O)(=O)[O-])c4F)c4nc(c(-c5cccc(S(=O)(=O)[O-])c5F)c5ccc2[nH]5)C=C4)C=C3)cc1
REMARK SMILES IDX 22 1 21 2 20 3 1 4 2 5 3 7 4 8 5 9 6 10 7 11 8 12 9 13 13 14
REMARK SMILES IDX 10 15 12 16 11 17 14 18 15 19 19 20 16 21 18 22 17 23 23 24
REMARK SMILES IDX 24 25 25 26 26 28 27 29 28 30 89 31 29 32 88 33 30 34 31 35
REMARK SMILES IDX 32 36 82 37 33 38 87 39 81 40 83 41 34 42 86 43 80 44 79 45
REMARK SMILES IDX 35 47 67 48 47 49 66 50 48 51 51 52 65 53 84 54 49 55 50 56
REMARK SMILES IDX 64 58 85 59 52 60 36 61 37 62 45 63 38 64 40 65 46 66 39 67
REMARK SMILES IDX 41 68 42 69 43 70 44 71 68 72 69 73 77 74 70 75 72 76 78 77
REMARK SMILES IDX 71 78 73 79 74 80 75 81 76 82 53 83 54 84 62 85 55 86 57 87
REMARK SMILES IDX 63 88 56 89 58 90 59 91 60 92 61 93
REMARK H PARENT 20 6 24 27 83 46 51 57
REMARK Flexibility Score: inf
ROOT
ATOM      1  C   UNL A   1      31.334  31.845  26.630  1.00  0.00     0.042 C 
ENDROOT
BRANCH   1   2
ATOM      2  C   UNL A   1      31.557  30.381  26.286  1.00  0.00     0.117 C 
BRANCH   2   3
ATOM      3  N   UNL A   1      31.772  30.134  24.875  1.00  0.00    -0.354 N 
ATOM      4  O   UNL A   1      33.601  28.795  25.191  1.00  0.00    -0.273 OA
ATOM      5  C   UNL A   1      32.737  29.253  24.445  1.00  0.00     0.239 C 
ATOM      6  H   UNL A   1      31.217  30.605  24.212  1.00  0.00     0.163 HD
BRANCH   5   7
ATOM      7  C   UNL A   1      32.671  28.840  22.974  1.00  0.00     0.217 C 
BRANCH   7   8
ATOM      8  N   UNL A   1      31.488  28.039  22.548  1.00  0.00    -0.353 N 
BRANCH   8   9
ATOM      9  C   UNL A   1      31.753  26.628  22.186  1.00  0.00     0.217 C 
BRANCH   9  10
ATOM     10  C   UNL A   1      32.973  25.880  22.773  1.00  0.00     0.242 C 
ATOM     11  O   UNL A   1      33.935  25.681  22.014  1.00  0.00    -0.273 OA
ATOM     12  N   UNL A   1      33.086  25.564  24.119  1.00  0.00    -0.341 N 
ATOM     13  C   UNL A   1      34.415  25.288  24.670  1.00  0.00     0.119 C 
ATOM     14  C   UNL A   1      31.997  25.386  25.071  1.00  0.00     0.119 C 
ATOM     15  C   UNL A   1      34.497  23.888  25.273  1.00  0.00     0.022 C 
ATOM     16  C   UNL A   1      32.024  23.984  25.680  1.00  0.00     0.022 C 
ATOM     17  C   UNL A   1      33.385  23.667  26.294  1.00  0.00     0.004 C 
ENDBRANCH   9  10
ENDBRANCH   8   9
BRANCH   8  18
ATOM     18  C   UNL A   1      30.204  28.577  22.523  1.00  0.00     0.038 A 
ATOM     19  C   UNL A   1      29.111  27.946  23.140  1.00  0.00     0.026 A 
ATOM     20  C   UNL A   1      29.909  29.787  21.871  1.00  0.00     0.026 A 
ATOM     21  C   UNL A   1      27.815  28.483  23.110  1.00  0.00     0.002 A 
ATOM     22  C   UNL A   1      28.610  30.310  21.796  1.00  0.00     0.002 A 
ATOM     23  C   UNL A   1      27.560  29.660  22.423  1.00  0.00     0.000 A 
ENDBRANCH   8  18
ENDBRANCH   7   8
ENDBRANCH   5   7
ENDBRANCH   2   3
ENDBRANCH   1   2
BRANCH   1  24
ATOM     24  C   UNL A   1      32.618  32.653  26.767  1.00  0.00     0.118 C 
BRANCH  24  25
ATOM     25  N   UNL A   1      32.447  33.873  27.551  1.00  0.00    -0.352 N 
ATOM     26  C   UNL A   1      33.178  34.346  28.614  1.00  0.00     0.251 C 
ATOM     27  H   UNL A   1      31.694  34.445  27.277  1.00  0.00     0.163 HD
ATOM     28  O   UNL A   1      32.791  35.336  29.231  1.00  0.00    -0.269 OA
BRANCH  26  29
ATOM     29  C   UNL A   1      34.414  33.651  29.034  1.00  0.00     0.039 A 
ATOM     30  C   UNL A   1      35.653  34.223  28.728  1.00  0.00     0.014 A 
ATOM     31  C   UNL A   1      34.351  32.447  29.737  1.00  0.00     0.014 A 
ATOM     32  C   UNL A   1      36.825  33.634  29.208  1.00  0.00     0.010 A 
ATOM     33  C   UNL A   1      35.512  31.902  30.274  1.00  0.00     0.010 A 
ATOM     34  C   UNL A   1      36.760  32.493  30.025  1.00  0.00    -0.014 A 
BRANCH  34  35
ATOM     35  C   UNL A   1      37.967  31.910  30.663  1.00  0.00     0.031 A 
ATOM     36  C   UNL A   1      38.745  30.835  29.954  1.00  0.00     0.074 A 
ATOM     37  C   UNL A   1      38.278  32.246  31.931  1.00  0.00     0.049 A 
ATOM     38  N   UNL A   1      39.717  30.087  30.406  1.00  0.00    -0.248 NA
ATOM     39  C   UNL A   1      38.356  30.541  28.565  1.00  0.00     0.031 C 
ATOM     40  C   UNL A   1      37.557  33.223  32.749  1.00  0.00     0.029 A 
ATOM     41  N   UNL A   1      39.255  31.768  32.769  1.00  0.00    -0.354 N 
ATOM     42  C   UNL A   1      40.022  29.202  29.380  1.00  0.00     0.074 A 
ATOM     43  C   UNL A   1      39.119  29.493  28.287  1.00  0.00     0.031 C 
ATOM     44  C   UNL A   1      38.108  33.265  33.974  1.00  0.00     0.029 A 
ATOM     45  C   UNL A   1      39.196  32.295  34.040  1.00  0.00     0.049 A 
ATOM     46  H   UNL A   1      39.934  31.112  32.489  1.00  0.00     0.167 HD
ATOM     47  C   UNL A   1      40.982  28.247  29.341  1.00  0.00     0.034 A 
ATOM     48  C   UNL A   1      39.923  32.016  35.140  1.00  0.00     0.034 A 
ATOM     49  C   UNL A   1      41.916  28.002  30.405  1.00  0.00     0.049 A 
ATOM     50  C   UNL A   1      41.021  30.990  35.051  1.00  0.00     0.074 A 
ATOM     51  C   UNL A   1      42.981  27.119  30.426  1.00  0.00     0.029 A 
ATOM     52  N   UNL A   1      41.901  28.642  31.634  1.00  0.00    -0.354 N 
ATOM     53  N   UNL A   1      41.388  30.263  34.024  1.00  0.00    -0.248 NA
ATOM     54  C   UNL A   1      41.827  30.767  36.261  1.00  0.00     0.031 C 
ATOM     55  C   UNL A   1      43.608  27.221  31.673  1.00  0.00     0.029 A 
ATOM     56  C   UNL A   1      42.939  28.177  32.421  1.00  0.00     0.049 A 
ATOM     57  H   UNL A   1      41.249  29.328  31.906  1.00  0.00     0.167 HD
ATOM     58  C   UNL A   1      42.490  29.531  34.448  1.00  0.00     0.074 A 
ATOM     59  C   UNL A   1      42.740  29.909  35.823  1.00  0.00     0.031 C 
ATOM     60  C   UNL A   1      43.221  28.618  33.763  1.00  0.00     0.034 A 
BRANCH  47  61
ATOM     61  C   UNL A   1      41.113  27.436  28.080  1.00  0.00     0.023 A 
ATOM     62  C   UNL A   1      41.726  28.012  26.948  1.00  0.00     0.012 A 
ATOM     63  C   UNL A   1      40.692  26.093  28.030  1.00  0.00     0.148 A 
ATOM     64  C   UNL A   1      41.890  27.274  25.777  1.00  0.00     0.002 A 
ATOM     65  C   UNL A   1      40.896  25.351  26.871  1.00  0.00     0.091 A 
ATOM     66  F   UNL A   1      40.089  25.569  29.107  1.00  0.00    -0.205 F 
ATOM     67  C   UNL A   1      41.485  25.943  25.743  1.00  0.00     0.022 A 
BRANCH  65  68
ATOM     68  S   UNL A   1      40.479  23.607  26.757  1.00  0.00     0.127 S 
ATOM     69  O   UNL A   1      39.070  23.666  26.371  1.00  0.00    -0.237 OA
ATOM     70  O   UNL A   1      41.380  23.140  25.703  1.00  0.00    -0.237 OA
ATOM     71  O   UNL A   1      40.748  23.046  28.074  1.00  0.00    -0.744 OA
ENDBRANCH  65  68
ENDBRANCH  47  61
BRANCH  48  72
ATOM     72  C   UNL A   1      39.684  32.773  36.400  1.00  0.00     0.023 A 
ATOM     73  C   UNL A   1      40.362  33.990  36.607  1.00  0.00     0.012 A 
ATOM     74  C   UNL A   1      38.769  32.323  37.372  1.00  0.00     0.148 A 
ATOM     75  C   UNL A   1      40.156  34.732  37.771  1.00  0.00     0.002 A 
ATOM     76  C   UNL A   1      38.529  33.093  38.506  1.00  0.00     0.091 A 
ATOM     77  F   UNL A   1      38.143  31.156  37.164  1.00  0.00    -0.205 F 
ATOM     78  C   UNL A   1      39.232  34.289  38.714  1.00  0.00     0.022 A 
BRANCH  76  79
ATOM     79  S   UNL A   1      37.264  32.664  39.707  1.00  0.00     0.127 S 
ATOM     80  O   UNL A   1      37.363  33.771  40.654  1.00  0.00    -0.237 OA
ATOM     81  O   UNL A   1      36.053  32.662  38.885  1.00  0.00    -0.237 OA
ATOM     82  O   UNL A   1      37.641  31.353  40.218  1.00  0.00    -0.744 OA
ENDBRANCH  76  79
ENDBRANCH  48  72
BRANCH  60  83
ATOM     83  C   UNL A   1      44.400  27.992  34.458  1.00  0.00     0.023 A 
ATOM     84  C   UNL A   1      45.651  28.637  34.429  1.00  0.00     0.012 A 
ATOM     85  C   UNL A   1      44.238  26.823  35.228  1.00  0.00     0.148 A 
ATOM     86  C   UNL A   1      46.730  28.116  35.143  1.00  0.00     0.002 A 
ATOM     87  C   UNL A   1      45.305  26.335  35.972  1.00  0.00     0.091 A 
ATOM     88  F   UNL A   1      43.042  26.216  35.224  1.00  0.00    -0.205 F 
ATOM     89  C   UNL A   1      46.554  26.975  35.924  1.00  0.00     0.022 A 
BRANCH  87  90
ATOM     90  S   UNL A   1      45.145  24.928  37.077  1.00  0.00     0.127 S 
ATOM     91  O   UNL A   1      44.976  23.825  36.133  1.00  0.00    -0.237 OA
ATOM     92  O   UNL A   1      46.428  24.939  37.782  1.00  0.00    -0.237 OA
ATOM     93  O   UNL A   1      43.992  25.211  37.921  1.00  0.00    -0.744 OA
ENDBRANCH  87  90
ENDBRANCH  60  83
ENDBRANCH  34  35
ENDBRANCH  26  29
ENDBRANCH  24  25
ENDBRANCH   1  24
TORSDOF 17
ENDMDL
MODEL 3
REMARK VINA RESULT:     -12.3      5.122      9.975
REMARK SMILES O=C(CN(CC(=O)N1CCCCC1)c1ccccc1)NCCCNC(=O)c1ccc(-c2c3nc(c(-c4cccc(S(=O)(=O)[O-])c4F)c4ccc([nH]4)c(-c4cccc(S(=O)(=O)[O-])c4F)c4nc(c(-c5cccc(S(=O)(=O)[O-])c5F)c5ccc2[nH]5)C=C4)C=C3)cc1
REMARK SMILES IDX 22 1 21 2 20 3 1 4 2 5 3 7 4 8 5 9 6 10 7 11 8 12 9 13 13 14
REMARK SMILES IDX 10 15 12 16 11 17 14 18 15 19 19 20 16 21 18 22 17 23 23 24
REMARK SMILES IDX 24 25 25 26 26 28 27 29 28 30 89 31 29 32 88 33 30 34 31 35
REMARK SMILES IDX 32 36 82 37 33 38 87 39 81 40 83 41 34 42 86 43 80 44 79 45
REMARK SMILES IDX 35 47 67 48 47 49 66 50 48 51 51 52 65 53 84 54 49 55 50 56
REMARK SMILES IDX 64 58 85 59 52 60 36 61 37 62 45 63 38 64 40 65 46 66 39 67
REMARK SMILES IDX 41 68 42 69 43 70 44 71 68 72 69 73 77 74 70 75 72 76 78 77
REMARK SMILES IDX 71 78 73 79 74 80 75 81 76 82 53 83 54 84 62 85 55 86 57 87
REMARK SMILES IDX 63 88 56 89 58 90 59 91 60 92 61 93
REMARK H PARENT 20 6 24 27 83 46 51 57
REMARK Flexibility Score: inf
ROOT
ATOM      1  C   UNL A   1      32.469  28.012  25.549  1.00  0.00     0.042 C 
ENDROOT
BRANCH   1   2
ATOM      2  C   UNL A   1      32.288  27.082  24.359  1.00  0.00     0.117 C 
BRANCH   2   3
ATOM      3  N   UNL A   1      31.850  25.748  24.717  1.00  0.00    -0.354 N 
ATOM      4  O   UNL A   1      32.017  24.916  22.592  1.00  0.00    -0.273 OA
ATOM      5  C   UNL A   1      31.855  24.726  23.796  1.00  0.00     0.239 C 
ATOM      6  H   UNL A   1      31.544  25.570  25.635  1.00  0.00     0.163 HD
BRANCH   5   7
ATOM      7  C   UNL A   1      31.672  23.312  24.350  1.00  0.00     0.217 C 
BRANCH   7   8
ATOM      8  N   UNL A   1      32.845  22.395  24.265  1.00  0.00    -0.353 N 
BRANCH   8   9
ATOM      9  C   UNL A   1      32.551  20.997  23.878  1.00  0.00     0.217 C 
BRANCH   9  10
ATOM     10  C   UNL A   1      32.813  19.835  24.865  1.00  0.00     0.242 C 
ATOM     11  O   UNL A   1      32.981  20.133  26.059  1.00  0.00    -0.273 OA
ATOM     12  N   UNL A   1      32.724  18.500  24.498  1.00  0.00    -0.341 N 
ATOM     13  C   UNL A   1      32.531  17.492  25.543  1.00  0.00     0.119 C 
ATOM     14  C   UNL A   1      32.888  17.948  23.159  1.00  0.00     0.119 C 
ATOM     15  C   UNL A   1      33.662  16.467  25.556  1.00  0.00     0.022 C 
ATOM     16  C   UNL A   1      34.032  16.934  23.120  1.00  0.00     0.022 C 
ATOM     17  C   UNL A   1      33.852  15.847  24.175  1.00  0.00     0.004 C 
ENDBRANCH   9  10
ENDBRANCH   8   9
BRANCH   8  18
ATOM     18  C   UNL A   1      34.144  22.836  24.504  1.00  0.00     0.038 A 
ATOM     19  C   UNL A   1      35.123  22.877  23.497  1.00  0.00     0.026 A 
ATOM     20  C   UNL A   1      34.570  23.264  25.773  1.00  0.00     0.026 A 
ATOM     21  C   UNL A   1      36.434  23.313  23.737  1.00  0.00     0.002 A 
ATOM     22  C   UNL A   1      35.890  23.659  26.036  1.00  0.00     0.002 A 
ATOM     23  C   UNL A   1      36.824  23.691  25.013  1.00  0.00     0.000 A 
ENDBRANCH   8  18
ENDBRANCH   7   8
ENDBRANCH   5   7
ENDBRANCH   2   3
ENDBRANCH   1   2
BRANCH   1  24
ATOM     24  C   UNL A   1      33.194  29.310  25.215  1.00  0.00     0.118 C 
BRANCH  24  25
ATOM     25  N   UNL A   1      32.629  30.473  25.895  1.00  0.00    -0.352 N 
ATOM     26  C   UNL A   1      33.111  31.188  26.965  1.00  0.00     0.251 C 
ATOM     27  H   UNL A   1      31.773  30.795  25.533  1.00  0.00     0.163 HD
ATOM     28  O   UNL A   1      32.418  32.061  27.481  1.00  0.00    -0.269 OA
BRANCH  26  29
ATOM     29  C   UNL A   1      34.453  30.892  27.512  1.00  0.00     0.039 A 
ATOM     30  C   UNL A   1      35.384  31.929  27.628  1.00  0.00     0.014 A 
ATOM     31  C   UNL A   1      34.787  29.599  27.921  1.00  0.00     0.014 A 
ATOM     32  C   UNL A   1      36.617  31.687  28.239  1.00  0.00     0.010 A 
ATOM     33  C   UNL A   1      35.984  29.378  28.593  1.00  0.00     0.010 A 
ATOM     34  C   UNL A   1      36.908  30.419  28.768  1.00  0.00    -0.014 A 
BRANCH  34  35
ATOM     35  C   UNL A   1      38.149  30.152  29.539  1.00  0.00     0.031 A 
ATOM     36  C   UNL A   1      39.170  29.185  29.005  1.00  0.00     0.074 A 
ATOM     37  C   UNL A   1      38.287  30.667  30.777  1.00  0.00     0.049 A 
ATOM     38  N   UNL A   1      40.226  28.692  29.596  1.00  0.00    -0.248 NA
ATOM     39  C   UNL A   1      38.957  28.683  27.637  1.00  0.00     0.031 C 
ATOM     40  C   UNL A   1      37.332  31.561  31.434  1.00  0.00     0.029 A 
ATOM     41  N   UNL A   1      39.267  30.478  31.721  1.00  0.00    -0.354 N 
ATOM     42  C   UNL A   1      40.774  27.786  28.697  1.00  0.00     0.074 A 
ATOM     43  C   UNL A   1      39.923  27.783  27.526  1.00  0.00     0.031 C 
ATOM     44  C   UNL A   1      37.764  31.833  32.676  1.00  0.00     0.029 A 
ATOM     45  C   UNL A   1      39.007  31.107  32.917  1.00  0.00     0.049 A 
ATOM     46  H   UNL A   1      40.077  29.943  31.558  1.00  0.00     0.167 HD
ATOM     47  C   UNL A   1      41.897  27.039  28.824  1.00  0.00     0.034 A 
ATOM     48  C   UNL A   1      39.683  31.087  34.083  1.00  0.00     0.034 A 
ATOM     49  C   UNL A   1      42.773  27.090  29.963  1.00  0.00     0.049 A 
ATOM     50  C   UNL A   1      40.958  30.294  34.177  1.00  0.00     0.074 A 
ATOM     51  C   UNL A   1      43.980  26.441  30.148  1.00  0.00     0.029 A 
ATOM     52  N   UNL A   1      42.538  27.835  31.107  1.00  0.00    -0.354 N 
ATOM     53  N   UNL A   1      41.537  29.554  33.262  1.00  0.00    -0.248 NA
ATOM     54  C   UNL A   1      41.692  30.356  35.450  1.00  0.00     0.031 C 
ATOM     55  C   UNL A   1      44.474  26.788  31.410  1.00  0.00     0.029 A 
ATOM     56  C   UNL A   1      43.579  27.664  32.003  1.00  0.00     0.049 A 
ATOM     57  H   UNL A   1      41.748  28.403  31.261  1.00  0.00     0.167 HD
ATOM     58  C   UNL A   1      42.721  29.100  33.832  1.00  0.00     0.074 A 
ATOM     59  C   UNL A   1      42.783  29.655  35.168  1.00  0.00     0.031 C 
ATOM     60  C   UNL A   1      43.664  28.284  33.300  1.00  0.00     0.034 A 
BRANCH  47  61
ATOM     61  C   UNL A   1      42.281  26.148  27.673  1.00  0.00     0.023 A 
ATOM     62  C   UNL A   1      43.147  26.641  26.676  1.00  0.00     0.012 A 
ATOM     63  C   UNL A   1      41.839  24.812  27.608  1.00  0.00     0.148 A 
ATOM     64  C   UNL A   1      43.544  25.827  25.616  1.00  0.00     0.002 A 
ATOM     65  C   UNL A   1      42.273  23.995  26.569  1.00  0.00     0.091 A 
ATOM     66  F   UNL A   1      40.997  24.368  28.552  1.00  0.00    -0.205 F 
ATOM     67  C   UNL A   1      43.116  24.503  25.569  1.00  0.00     0.022 A 
BRANCH  65  68
ATOM     68  S   UNL A   1      41.838  22.255  26.466  1.00  0.00     0.127 S 
ATOM     69  O   UNL A   1      42.623  21.823  25.311  1.00  0.00    -0.237 OA
ATOM     70  O   UNL A   1      42.312  21.739  27.751  1.00  0.00    -0.237 OA
ATOM     71  O   UNL A   1      40.392  22.214  26.296  1.00  0.00    -0.744 OA
ENDBRANCH  65  68
ENDBRANCH  47  61
BRANCH  48  72
ATOM     72  C   UNL A   1      39.205  31.905  35.233  1.00  0.00     0.023 A 
ATOM     73  C   UNL A   1      38.267  31.351  36.125  1.00  0.00     0.012 A 
ATOM     74  C   UNL A   1      39.697  33.203  35.473  1.00  0.00     0.148 A 
ATOM     75  C   UNL A   1      37.804  32.083  37.219  1.00  0.00     0.002 A 
ATOM     76  C   UNL A   1      39.271  33.909  36.594  1.00  0.00     0.091 A 
ATOM     77  F   UNL A   1      40.580  33.719  34.606  1.00  0.00    -0.205 F 
ATOM     78  C   UNL A   1      38.314  33.357  37.459  1.00  0.00     0.022 A 
BRANCH  76  79
ATOM     79  S   UNL A   1      39.971  35.499  37.049  1.00  0.00     0.127 S 
ATOM     80  O   UNL A   1      41.387  35.174  37.187  1.00  0.00    -0.237 OA
ATOM     81  O   UNL A   1      39.638  36.323  35.886  1.00  0.00    -0.237 OA
ATOM     82  O   UNL A   1      39.285  35.890  38.273  1.00  0.00    -0.744 OA
ENDBRANCH  76  79
ENDBRANCH  48  72
BRANCH  60  83
ATOM     83  C   UNL A   1      44.879  27.975  34.131  1.00  0.00     0.023 A 
ATOM     84  C   UNL A   1      45.980  28.853  34.113  1.00  0.00     0.012 A 
ATOM     85  C   UNL A   1      44.884  26.873  35.009  1.00  0.00     0.148 A 
ATOM     86  C   UNL A   1      47.076  28.629  34.945  1.00  0.00     0.002 A 
ATOM     87  C   UNL A   1      45.961  26.680  35.866  1.00  0.00     0.091 A 
ATOM     88  F   UNL A   1      43.834  26.040  34.993  1.00  0.00    -0.205 F 
ATOM     89  C   UNL A   1      47.061  27.552  35.829  1.00  0.00     0.022 A 
BRANCH  87  90
ATOM     90  S   UNL A   1      45.986  25.377  37.102  1.00  0.00     0.127 S 
ATOM     91  O   UNL A   1      44.784  25.680  37.878  1.00  0.00    -0.237 OA
ATOM     92  O   UNL A   1      45.894  24.169  36.282  1.00  0.00    -0.237 OA
ATOM     93  O   UNL A   1      47.246  25.527  37.817  1.00  0.00    -0.744 OA
ENDBRANCH  87  90
ENDBRANCH  60  83
ENDBRANCH  34  35
ENDBRANCH  26  29
ENDBRANCH  24  25
ENDBRANCH   1  24
TORSDOF 17
ENDMDL
