MODEL 1
REMARK VINA RESULT:     -12.7      0.000      0.000
REMARK SMILES CCCc1cc2c(cc1Cl)C=C(C(=O)NCCCNC(=O)c1ccc(-c3c4nc(c(-c5cccc(S(=O)(=O)[O-])c5F)c5ccc([nH]5)c(-c5cccc(S(=O)(=O)[O-])c5F)c5nc(c(-c6cccc(S(=O)(=O)[O-])c6F)c6ccc3[nH]6)C=C5)C=C4)cc1)[C@@H](C(F)(F)F)O2
REMARK SMILES IDX 17 1 16 2 15 3 13 4 14 5 12 7 4 8 5 9 9 10 6 11 8 12 10 13
REMARK SMILES IDX 7 14 90 15 11 16 85 17 3 18 2 19 1 20 86 21 87 22 88 23
REMARK SMILES IDX 89 24 18 25 19 26 20 27 21 29 22 30 23 31 84 32 24 33 83 34
REMARK SMILES IDX 25 35 26 36 27 37 77 38 28 39 82 40 76 41 78 42 29 43 81 44
REMARK SMILES IDX 75 45 74 46 30 48 62 49 42 50 61 51 43 52 46 53 60 54 79 55
REMARK SMILES IDX 44 56 45 57 59 59 80 60 47 61 31 62 32 63 40 64 33 65 35 66
REMARK SMILES IDX 41 67 34 68 36 69 37 70 38 71 39 72 63 73 64 74 72 75 65 76
REMARK SMILES IDX 67 77 73 78 66 79 68 80 69 81 70 82 71 83 48 84 49 85 57 86
REMARK SMILES IDX 50 87 52 88 58 89 51 90 53 91 54 92 55 93 56 94
REMARK H PARENT 15 6 19 28 78 47 46 58
REMARK Flexibility Score: inf
ROOT
ATOM      1  C   UNL A   1      32.416  29.686  25.116  1.00  0.00     0.042 C 
ENDROOT
BRANCH   1   2
ATOM      2  C   UNL A   1      30.972  30.138  24.963  1.00  0.00     0.118 C 
BRANCH   2   3
ATOM      3  N   UNL A   1      30.487  29.984  23.598  1.00  0.00    -0.352 N 
ATOM      4  C   UNL A   1      30.345  28.975  22.706  1.00  0.00     0.251 C 
ATOM      5  O   UNL A   1      29.842  29.292  21.624  1.00  0.00    -0.270 OA
ATOM      6  H   UNL A   1      30.181  30.842  23.224  1.00  0.00     0.163 HD
BRANCH   4   7
ATOM      7  C   UNL A   1      30.744  27.560  22.945  1.00  0.00     0.067 C 
ATOM      8  C   UNL A   1      31.363  22.875  24.699  1.00  0.00    -0.026 A 
ATOM      9  C   UNL A   1      31.548  23.499  23.459  1.00  0.00     0.052 A 
ATOM     10  C   UNL A   1      30.716  23.618  25.711  1.00  0.00     0.045 A 
ATOM     11  C   UNL A   1      31.183  24.829  23.269  1.00  0.00     0.128 A 
ATOM     12  C   UNL A   1      30.299  24.940  25.495  1.00  0.00     0.032 A 
ATOM     13  Cl  UNL A   1      30.410  22.939  27.274  1.00  0.00    -0.084 Cl
ATOM     14  C   UNL A   1      30.551  25.560  24.273  1.00  0.00     0.019 A 
ATOM     15  O   UNL A   1      31.486  25.378  22.053  1.00  0.00    -0.475 OA
ATOM     16  C   UNL A   1      30.172  26.943  23.998  1.00  0.00     0.025 C 
ATOM     17  C   UNL A   1      31.738  26.810  22.103  1.00  0.00     0.314 C 
BRANCH   8  18
ATOM     18  C   UNL A   1      31.847  21.460  24.958  1.00  0.00     0.037 C 
BRANCH  18  19
ATOM     19  C   UNL A   1      32.783  20.804  23.931  1.00  0.00     0.001 C 
ATOM     20  C   UNL A   1      32.589  19.297  23.789  1.00  0.00     0.004 C 
ENDBRANCH  18  19
ENDBRANCH   8  18
BRANCH  17  21
ATOM     21  C   UNL A   1      33.197  27.082  22.533  1.00  0.00     0.429 C 
ATOM     22  F   UNL A   1      33.578  28.330  22.164  1.00  0.00    -0.167 F 
ATOM     23  F   UNL A   1      33.361  27.011  23.877  1.00  0.00    -0.167 F 
ATOM     24  F   UNL A   1      34.082  26.214  21.993  1.00  0.00    -0.167 F 
ENDBRANCH  17  21
ENDBRANCH   4   7
ENDBRANCH   2   3
ENDBRANCH   1   2
BRANCH   1  25
ATOM     25  C   UNL A   1      32.971  29.979  26.504  1.00  0.00     0.118 C 
BRANCH  25  26
ATOM     26  N   UNL A   1      32.883  31.397  26.844  1.00  0.00    -0.352 N 
ATOM     27  C   UNL A   1      33.695  32.178  27.637  1.00  0.00     0.251 C 
ATOM     28  H   UNL A   1      32.121  31.872  26.440  1.00  0.00     0.163 HD
ATOM     29  O   UNL A   1      33.318  33.289  27.978  1.00  0.00    -0.269 OA
BRANCH  27  30
ATOM     30  C   UNL A   1      35.004  31.655  28.085  1.00  0.00     0.039 A 
ATOM     31  C   UNL A   1      35.131  30.321  28.471  1.00  0.00     0.014 A 
ATOM     32  C   UNL A   1      36.110  32.507  28.130  1.00  0.00     0.014 A 
ATOM     33  C   UNL A   1      36.297  29.894  29.090  1.00  0.00     0.010 A 
ATOM     34  C   UNL A   1      37.321  32.041  28.652  1.00  0.00     0.010 A 
ATOM     35  C   UNL A   1      37.409  30.748  29.188  1.00  0.00    -0.014 A 
BRANCH  35  36
ATOM     36  C   UNL A   1      38.642  30.247  29.848  1.00  0.00     0.031 A 
ATOM     37  C   UNL A   1      39.000  30.674  31.248  1.00  0.00     0.074 A 
ATOM     38  C   UNL A   1      39.413  29.354  29.196  1.00  0.00     0.049 A 
ATOM     39  N   UNL A   1      40.027  30.312  31.974  1.00  0.00    -0.248 NA
ATOM     40  C   UNL A   1      38.105  31.629  31.921  1.00  0.00     0.031 C 
ATOM     41  C   UNL A   1      39.182  28.883  27.826  1.00  0.00     0.029 A 
ATOM     42  N   UNL A   1      40.530  28.666  29.595  1.00  0.00    -0.354 N 
ATOM     43  C   UNL A   1      39.929  31.027  33.160  1.00  0.00     0.074 A 
ATOM     44  C   UNL A   1      38.739  31.843  33.068  1.00  0.00     0.031 C 
ATOM     45  C   UNL A   1      40.095  27.952  27.520  1.00  0.00     0.029 A 
ATOM     46  C   UNL A   1      41.014  27.801  28.642  1.00  0.00     0.049 A 
ATOM     47  H   UNL A   1      40.946  28.781  30.481  1.00  0.00     0.167 HD
ATOM     48  C   UNL A   1      40.746  30.990  34.237  1.00  0.00     0.034 A 
ATOM     49  C   UNL A   1      42.087  26.987  28.656  1.00  0.00     0.034 A 
ATOM     50  C   UNL A   1      41.887  30.123  34.359  1.00  0.00     0.049 A 
ATOM     51  C   UNL A   1      42.950  26.938  29.882  1.00  0.00     0.074 A 
ATOM     52  C   UNL A   1      42.742  29.983  35.438  1.00  0.00     0.029 A 
ATOM     53  N   UNL A   1      42.323  29.245  33.382  1.00  0.00    -0.354 N 
ATOM     54  N   UNL A   1      42.792  27.571  31.018  1.00  0.00    -0.248 NA
ATOM     55  C   UNL A   1      44.129  26.062  29.835  1.00  0.00     0.031 C 
ATOM     56  C   UNL A   1      43.697  29.017  35.114  1.00  0.00     0.029 A 
ATOM     57  C   UNL A   1      43.434  28.555  33.834  1.00  0.00     0.049 A 
ATOM     58  H   UNL A   1      41.905  29.128  32.498  1.00  0.00     0.167 HD
ATOM     59  C   UNL A   1      43.848  27.167  31.824  1.00  0.00     0.074 A 
ATOM     60  C   UNL A   1      44.624  26.214  31.058  1.00  0.00     0.031 C 
ATOM     61  C   UNL A   1      44.161  27.573  33.077  1.00  0.00     0.034 A 
BRANCH  48  62
ATOM     62  C   UNL A   1      40.426  31.866  35.416  1.00  0.00     0.023 A 
ATOM     63  C   UNL A   1      41.135  33.070  35.587  1.00  0.00     0.012 A 
ATOM     64  C   UNL A   1      39.332  31.575  36.255  1.00  0.00     0.148 A 
ATOM     65  C   UNL A   1      40.758  33.978  36.577  1.00  0.00     0.002 A 
ATOM     66  C   UNL A   1      38.946  32.496  37.221  1.00  0.00     0.091 A 
ATOM     67  F   UNL A   1      38.678  30.419  36.070  1.00  0.00    -0.205 F 
ATOM     68  C   UNL A   1      39.659  33.696  37.384  1.00  0.00     0.022 A 
BRANCH  66  69
ATOM     69  S   UNL A   1      37.512  32.261  38.278  1.00  0.00     0.127 S 
ATOM     70  O   UNL A   1      37.375  30.805  38.270  1.00  0.00    -0.237 OA
ATOM     71  O   UNL A   1      37.974  32.824  39.546  1.00  0.00    -0.237 OA
ATOM     72  O   UNL A   1      36.419  32.982  37.642  1.00  0.00    -0.744 OA
ENDBRANCH  66  69
ENDBRANCH  48  62
BRANCH  49  73
ATOM     73  C   UNL A   1      42.374  26.138  27.470  1.00  0.00     0.023 A 
ATOM     74  C   UNL A   1      43.147  26.658  26.414  1.00  0.00     0.012 A 
ATOM     75  C   UNL A   1      41.948  24.797  27.419  1.00  0.00     0.148 A 
ATOM     76  C   UNL A   1      43.485  25.856  25.324  1.00  0.00     0.002 A 
ATOM     77  C   UNL A   1      42.331  23.990  26.356  1.00  0.00     0.091 A 
ATOM     78  F   UNL A   1      41.200  24.331  28.429  1.00  0.00    -0.205 F 
ATOM     79  C   UNL A   1      43.090  24.520  25.301  1.00  0.00     0.022 A 
BRANCH  77  80
ATOM     80  S   UNL A   1      41.976  22.230  26.313  1.00  0.00     0.127 S 
ATOM     81  O   UNL A   1      42.760  21.796  25.160  1.00  0.00    -0.237 OA
ATOM     82  O   UNL A   1      42.488  21.786  27.610  1.00  0.00    -0.237 OA
ATOM     83  O   UNL A   1      40.531  22.126  26.173  1.00  0.00    -0.744 OA
ENDBRANCH  77  80
ENDBRANCH  49  73
BRANCH  61  84
ATOM     84  C   UNL A   1      45.389  26.995  33.716  1.00  0.00     0.023 A 
ATOM     85  C   UNL A   1      46.599  27.712  33.648  1.00  0.00     0.012 A 
ATOM     86  C   UNL A   1      45.314  25.819  34.488  1.00  0.00     0.148 A 
ATOM     87  C   UNL A   1      47.723  27.262  34.337  1.00  0.00     0.002 A 
ATOM     88  C   UNL A   1      46.431  25.395  35.198  1.00  0.00     0.091 A 
ATOM     89  F   UNL A   1      44.150  25.155  34.526  1.00  0.00    -0.205 F 
ATOM     90  C   UNL A   1      47.636  26.113  35.121  1.00  0.00     0.022 A 
BRANCH  88  91
ATOM     91  S   UNL A   1      46.397  23.972  36.292  1.00  0.00     0.127 S 
ATOM     92  O   UNL A   1      47.758  23.974  36.825  1.00  0.00    -0.237 OA
ATOM     93  O   UNL A   1      45.362  24.348  37.256  1.00  0.00    -0.237 OA
ATOM     94  O   UNL A   1      46.061  22.827  35.456  1.00  0.00    -0.744 OA
ENDBRANCH  88  91
ENDBRANCH  61  84
ENDBRANCH  35  36
ENDBRANCH  27  30
ENDBRANCH  25  26
ENDBRANCH   1  25
TORSDOF 16
ENDMDL
MODEL 2
REMARK VINA RESULT:     -12.6      2.277      8.001
REMARK SMILES CCCc1cc2c(cc1Cl)C=C(C(=O)NCCCNC(=O)c1ccc(-c3c4nc(c(-c5cccc(S(=O)(=O)[O-])c5F)c5ccc([nH]5)c(-c5cccc(S(=O)(=O)[O-])c5F)c5nc(c(-c6cccc(S(=O)(=O)[O-])c6F)c6ccc3[nH]6)C=C5)C=C4)cc1)[C@@H](C(F)(F)F)O2
REMARK SMILES IDX 17 1 16 2 15 3 13 4 14 5 12 7 4 8 5 9 9 10 6 11 8 12 10 13
REMARK SMILES IDX 7 14 90 15 11 16 85 17 3 18 2 19 1 20 86 21 87 22 88 23
REMARK SMILES IDX 89 24 18 25 19 26 20 27 21 29 22 30 23 31 84 32 24 33 83 34
REMARK SMILES IDX 25 35 26 36 27 37 77 38 28 39 82 40 76 41 78 42 29 43 81 44
REMARK SMILES IDX 75 45 74 46 30 48 62 49 42 50 61 51 43 52 46 53 60 54 79 55
REMARK SMILES IDX 44 56 45 57 59 59 80 60 47 61 31 62 32 63 40 64 33 65 35 66
REMARK SMILES IDX 41 67 34 68 36 69 37 70 38 71 39 72 63 73 64 74 72 75 65 76
REMARK SMILES IDX 67 77 73 78 66 79 68 80 69 81 70 82 71 83 48 84 49 85 57 86
REMARK SMILES IDX 50 87 52 88 58 89 51 90 53 91 54 92 55 93 56 94
REMARK H PARENT 15 6 19 28 78 47 46 58
REMARK Flexibility Score: inf
ROOT
ATOM      1  C   UNL A   1      31.566  31.759  26.767  1.00  0.00     0.042 C 
ENDROOT
BRANCH   1   2
ATOM      2  C   UNL A   1      31.853  30.467  26.017  1.00  0.00     0.118 C 
BRANCH   2   3
ATOM      3  N   UNL A   1      31.096  30.369  24.777  1.00  0.00    -0.352 N 
ATOM      4  C   UNL A   1      30.720  29.390  23.921  1.00  0.00     0.251 C 
ATOM      5  O   UNL A   1      30.029  29.756  22.966  1.00  0.00    -0.270 OA
ATOM      6  H   UNL A   1      30.769  31.251  24.482  1.00  0.00     0.163 HD
BRANCH   4   7
ATOM      7  C   UNL A   1      31.081  27.950  24.058  1.00  0.00     0.067 C 
ATOM      8  C   UNL A   1      31.310  23.047  25.204  1.00  0.00    -0.026 A 
ATOM      9  C   UNL A   1      31.839  23.851  24.186  1.00  0.00     0.052 A 
ATOM     10  C   UNL A   1      30.361  23.634  26.068  1.00  0.00     0.045 A 
ATOM     11  C   UNL A   1      31.501  25.198  24.093  1.00  0.00     0.128 A 
ATOM     12  C   UNL A   1      29.980  24.978  25.934  1.00  0.00     0.032 A 
ATOM     13  Cl  UNL A   1      29.621  22.728  27.346  1.00  0.00    -0.084 Cl
ATOM     14  C   UNL A   1      30.568  25.774  24.953  1.00  0.00     0.019 A 
ATOM     15  O   UNL A   1      32.137  25.922  23.122  1.00  0.00    -0.475 OA
ATOM     16  C   UNL A   1      30.239  27.186  24.783  1.00  0.00     0.025 C 
ATOM     17  C   UNL A   1      32.309  27.327  23.458  1.00  0.00     0.314 C 
BRANCH   8  18
ATOM     18  C   UNL A   1      31.744  21.604  25.385  1.00  0.00     0.037 C 
BRANCH  18  19
ATOM     19  C   UNL A   1      33.155  21.324  25.929  1.00  0.00     0.001 C 
ATOM     20  C   UNL A   1      34.104  20.713  24.903  1.00  0.00     0.004 C 
ENDBRANCH  18  19
ENDBRANCH   8  18
BRANCH  17  21
ATOM     21  C   UNL A   1      33.559  27.516  24.348  1.00  0.00     0.429 C 
ATOM     22  F   UNL A   1      34.158  28.703  24.082  1.00  0.00    -0.167 F 
ATOM     23  F   UNL A   1      33.255  27.524  25.669  1.00  0.00    -0.167 F 
ATOM     24  F   UNL A   1      34.487  26.547  24.174  1.00  0.00    -0.167 F 
ENDBRANCH  17  21
ENDBRANCH   4   7
ENDBRANCH   2   3
ENDBRANCH   1   2
BRANCH   1  25
ATOM     25  C   UNL A   1      32.833  32.408  27.310  1.00  0.00     0.118 C 
BRANCH  25  26
ATOM     26  N   UNL A   1      32.649  33.833  27.577  1.00  0.00    -0.352 N 
ATOM     27  C   UNL A   1      33.171  34.630  28.572  1.00  0.00     0.251 C 
ATOM     28  H   UNL A   1      32.057  34.298  26.943  1.00  0.00     0.163 HD
ATOM     29  O   UNL A   1      32.712  35.748  28.753  1.00  0.00    -0.269 OA
BRANCH  27  30
ATOM     30  C   UNL A   1      34.267  34.117  29.422  1.00  0.00     0.039 A 
ATOM     31  C   UNL A   1      35.592  34.424  29.118  1.00  0.00     0.014 A 
ATOM     32  C   UNL A   1      33.968  33.316  30.527  1.00  0.00     0.014 A 
ATOM     33  C   UNL A   1      36.618  33.770  29.785  1.00  0.00     0.010 A 
ATOM     34  C   UNL A   1      35.007  32.746  31.269  1.00  0.00     0.010 A 
ATOM     35  C   UNL A   1      36.341  32.923  30.870  1.00  0.00    -0.014 A 
BRANCH  35  36
ATOM     36  C   UNL A   1      37.470  32.251  31.564  1.00  0.00     0.031 A 
ATOM     37  C   UNL A   1      38.249  31.151  30.892  1.00  0.00     0.074 A 
ATOM     38  C   UNL A   1      37.829  32.681  32.791  1.00  0.00     0.049 A 
ATOM     39  N   UNL A   1      39.274  30.479  31.350  1.00  0.00    -0.248 NA
ATOM     40  C   UNL A   1      37.829  30.744  29.540  1.00  0.00     0.031 C 
ATOM     41  C   UNL A   1      37.135  33.723  33.554  1.00  0.00     0.029 A 
ATOM     42  N   UNL A   1      38.871  32.317  33.603  1.00  0.00    -0.354 N 
ATOM     43  C   UNL A   1      39.588  29.544  30.372  1.00  0.00     0.074 A 
ATOM     44  C   UNL A   1      38.651  29.732  29.287  1.00  0.00     0.031 C 
ATOM     45  C   UNL A   1      37.797  33.947  34.697  1.00  0.00     0.029 A 
ATOM     46  C   UNL A   1      38.925  33.026  34.780  1.00  0.00     0.049 A 
ATOM     47  H   UNL A   1      39.520  31.615  33.367  1.00  0.00     0.167 HD
ATOM     48  C   UNL A   1      40.580  28.625  30.372  1.00  0.00     0.034 A 
ATOM     49  C   UNL A   1      39.774  32.939  35.822  1.00  0.00     0.034 A 
ATOM     50  C   UNL A   1      41.556  28.488  31.418  1.00  0.00     0.049 A 
ATOM     51  C   UNL A   1      40.889  31.938  35.773  1.00  0.00     0.074 A 
ATOM     52  C   UNL A   1      42.630  27.615  31.475  1.00  0.00     0.029 A 
ATOM     53  N   UNL A   1      41.590  29.244  32.576  1.00  0.00    -0.354 N 
ATOM     54  N   UNL A   1      41.207  31.115  34.804  1.00  0.00    -0.248 NA
ATOM     55  C   UNL A   1      41.767  31.856  36.948  1.00  0.00     0.031 C 
ATOM     56  C   UNL A   1      43.315  27.846  32.670  1.00  0.00     0.029 A 
ATOM     57  C   UNL A   1      42.668  28.863  33.355  1.00  0.00     0.049 A 
ATOM     58  H   UNL A   1      40.943  29.949  32.811  1.00  0.00     0.167 HD
ATOM     59  C   UNL A   1      42.323  30.421  35.250  1.00  0.00     0.074 A 
ATOM     60  C   UNL A   1      42.645  30.938  36.564  1.00  0.00     0.031 C 
ATOM     61  C   UNL A   1      43.002  29.424  34.635  1.00  0.00     0.034 A 
BRANCH  48  62
ATOM     62  C   UNL A   1      40.719  27.715  29.184  1.00  0.00     0.023 A 
ATOM     63  C   UNL A   1      39.842  26.621  29.052  1.00  0.00     0.012 A 
ATOM     64  C   UNL A   1      41.605  28.029  28.135  1.00  0.00     0.148 A 
ATOM     65  C   UNL A   1      39.842  25.852  27.889  1.00  0.00     0.002 A 
ATOM     66  C   UNL A   1      41.581  27.274  26.968  1.00  0.00     0.091 A 
ATOM     67  F   UNL A   1      42.431  29.074  28.290  1.00  0.00    -0.205 F 
ATOM     68  C   UNL A   1      40.702  26.185  26.845  1.00  0.00     0.022 A 
BRANCH  66  69
ATOM     69  S   UNL A   1      42.605  27.648  25.540  1.00  0.00     0.127 S 
ATOM     70  O   UNL A   1      42.372  26.477  24.695  1.00  0.00    -0.237 OA
ATOM     71  O   UNL A   1      42.000  28.885  25.048  1.00  0.00    -0.237 OA
ATOM     72  O   UNL A   1      43.965  27.781  26.041  1.00  0.00    -0.744 OA
ENDBRANCH  66  69
ENDBRANCH  48  62
BRANCH  49  73
ATOM     73  C   UNL A   1      39.601  33.853  36.982  1.00  0.00     0.023 A 
ATOM     74  C   UNL A   1      39.966  35.207  36.859  1.00  0.00     0.012 A 
ATOM     75  C   UNL A   1      39.010  33.403  38.178  1.00  0.00     0.148 A 
ATOM     76  C   UNL A   1      39.749  36.096  37.913  1.00  0.00     0.002 A 
ATOM     77  C   UNL A   1      38.750  34.303  39.203  1.00  0.00     0.091 A 
ATOM     78  F   UNL A   1      38.687  32.105  38.275  1.00  0.00    -0.205 F 
ATOM     79  C   UNL A   1      39.129  35.648  39.077  1.00  0.00     0.022 A 
BRANCH  77  80
ATOM     80  S   UNL A   1      37.840  33.837  40.679  1.00  0.00     0.127 S 
ATOM     81  O   UNL A   1      36.653  33.204  40.109  1.00  0.00    -0.237 OA
ATOM     82  O   UNL A   1      38.774  32.920  41.335  1.00  0.00    -0.237 OA
ATOM     83  O   UNL A   1      37.611  35.078  41.405  1.00  0.00    -0.744 OA
ENDBRANCH  77  80
ENDBRANCH  49  73
BRANCH  61  84
ATOM     84  C   UNL A   1      44.168  28.817  35.360  1.00  0.00     0.023 A 
ATOM     85  C   UNL A   1      45.438  29.409  35.229  1.00  0.00     0.012 A 
ATOM     86  C   UNL A   1      43.979  27.754  36.264  1.00  0.00     0.148 A 
ATOM     87  C   UNL A   1      46.511  28.946  35.987  1.00  0.00     0.002 A 
ATOM     88  C   UNL A   1      45.047  27.319  37.039  1.00  0.00     0.091 A 
ATOM     89  F   UNL A   1      42.759  27.206  36.359  1.00  0.00    -0.205 F 
ATOM     90  C   UNL A   1      46.314  27.911  36.899  1.00  0.00     0.022 A 
BRANCH  88  91
ATOM     91  S   UNL A   1      44.875  26.045  38.293  1.00  0.00     0.127 S 
ATOM     92  O   UNL A   1      43.765  26.563  39.091  1.00  0.00    -0.237 OA
ATOM     93  O   UNL A   1      44.553  24.865  37.491  1.00  0.00    -0.237 OA
ATOM     94  O   UNL A   1      46.156  25.981  38.983  1.00  0.00    -0.744 OA
ENDBRANCH  88  91
ENDBRANCH  61  84
ENDBRANCH  35  36
ENDBRANCH  27  30
ENDBRANCH  25  26
ENDBRANCH   1  25
TORSDOF 16
ENDMDL
MODEL 3
REMARK VINA RESULT:     -12.5      1.993      2.555
REMARK SMILES CCCc1cc2c(cc1Cl)C=C(C(=O)NCCCNC(=O)c1ccc(-c3c4nc(c(-c5cccc(S(=O)(=O)[O-])c5F)c5ccc([nH]5)c(-c5cccc(S(=O)(=O)[O-])c5F)c5nc(c(-c6cccc(S(=O)(=O)[O-])c6F)c6ccc3[nH]6)C=C5)C=C4)cc1)[C@@H](C(F)(F)F)O2
REMARK SMILES IDX 17 1 16 2 15 3 13 4 14 5 12 7 4 8 5 9 9 10 6 11 8 12 10 13
REMARK SMILES IDX 7 14 90 15 11 16 85 17 3 18 2 19 1 20 86 21 87 22 88 23
REMARK SMILES IDX 89 24 18 25 19 26 20 27 21 29 22 30 23 31 84 32 24 33 83 34
REMARK SMILES IDX 25 35 26 36 27 37 77 38 28 39 82 40 76 41 78 42 29 43 81 44
REMARK SMILES IDX 75 45 74 46 30 48 62 49 42 50 61 51 43 52 46 53 60 54 79 55
REMARK SMILES IDX 44 56 45 57 59 59 80 60 47 61 31 62 32 63 40 64 33 65 35 66
REMARK SMILES IDX 41 67 34 68 36 69 37 70 38 71 39 72 63 73 64 74 72 75 65 76
REMARK SMILES IDX 67 77 73 78 66 79 68 80 69 81 70 82 71 83 48 84 49 85 57 86
REMARK SMILES IDX 50 87 52 88 58 89 51 90 53 91 54 92 55 93 56 94
REMARK H PARENT 15 6 19 28 78 47 46 58
REMARK Flexibility Score: inf
ROOT
ATOM      1  C   UNL A   1      32.941  29.043  23.965  1.00  0.00     0.042 C 
ENDROOT
BRANCH   1   2
ATOM      2  C   UNL A   1      31.950  27.890  24.023  1.00  0.00     0.118 C 
BRANCH   2   3
ATOM      3  N   UNL A   1      31.457  27.654  25.372  1.00  0.00    -0.352 N 
ATOM      4  C   UNL A   1      31.269  26.588  26.185  1.00  0.00     0.251 C 
ATOM      5  O   UNL A   1      30.837  26.849  27.311  1.00  0.00    -0.270 OA
ATOM      6  H   UNL A   1      31.188  28.494  25.811  1.00  0.00     0.163 HD
BRANCH   4   7
ATOM      7  C   UNL A   1      31.543  25.171  25.813  1.00  0.00     0.067 C 
ATOM      8  C   UNL A   1      33.557  20.622  24.999  1.00  0.00    -0.026 A 
ATOM      9  C   UNL A   1      32.253  21.119  25.123  1.00  0.00     0.052 A 
ATOM     10  C   UNL A   1      34.619  21.501  25.306  1.00  0.00     0.045 A 
ATOM     11  C   UNL A   1      32.027  22.452  25.452  1.00  0.00     0.128 A 
ATOM     12  C   UNL A   1      34.382  22.829  25.693  1.00  0.00     0.032 A 
ATOM     13  Cl  UNL A   1      36.271  20.988  25.214  1.00  0.00    -0.084 Cl
ATOM     14  C   UNL A   1      33.079  23.317  25.748  1.00  0.00     0.019 A 
ATOM     15  O   UNL A   1      30.723  22.866  25.461  1.00  0.00    -0.475 OA
ATOM     16  C   UNL A   1      32.769  24.696  26.112  1.00  0.00     0.025 C 
ATOM     17  C   UNL A   1      30.553  24.272  25.128  1.00  0.00     0.314 C 
BRANCH   8  18
ATOM     18  C   UNL A   1      33.828  19.201  24.541  1.00  0.00     0.037 C 
BRANCH  18  19
ATOM     19  C   UNL A   1      32.630  18.279  24.258  1.00  0.00     0.001 C 
ATOM     20  C   UNL A   1      32.363  18.050  22.774  1.00  0.00     0.004 C 
ENDBRANCH  18  19
ENDBRANCH   8  18
BRANCH  17  21
ATOM     21  C   UNL A   1      30.551  24.462  23.594  1.00  0.00     0.429 C 
ATOM     22  F   UNL A   1      29.761  25.507  23.244  1.00  0.00    -0.167 F 
ATOM     23  F   UNL A   1      31.786  24.732  23.105  1.00  0.00    -0.167 F 
ATOM     24  F   UNL A   1      30.103  23.376  22.923  1.00  0.00    -0.167 F 
ENDBRANCH  17  21
ENDBRANCH   4   7
ENDBRANCH   2   3
ENDBRANCH   1   2
BRANCH   1  25
ATOM     25  C   UNL A   1      33.583  29.325  25.318  1.00  0.00     0.118 C 
BRANCH  25  26
ATOM     26  N   UNL A   1      33.102  30.573  25.905  1.00  0.00    -0.352 N 
ATOM     27  C   UNL A   1      33.553  31.277  27.000  1.00  0.00     0.251 C 
ATOM     28  H   UNL A   1      32.330  30.975  25.445  1.00  0.00     0.163 HD
ATOM     29  O   UNL A   1      32.869  32.178  27.462  1.00  0.00    -0.269 OA
BRANCH  27  30
ATOM     30  C   UNL A   1      34.850  30.923  27.616  1.00  0.00     0.039 A 
ATOM     31  C   UNL A   1      35.097  29.613  28.025  1.00  0.00     0.014 A 
ATOM     32  C   UNL A   1      35.823  31.909  27.794  1.00  0.00     0.014 A 
ATOM     33  C   UNL A   1      36.220  29.334  28.791  1.00  0.00     0.010 A 
ATOM     34  C   UNL A   1      37.007  31.598  28.470  1.00  0.00     0.010 A 
ATOM     35  C   UNL A   1      37.191  30.322  29.024  1.00  0.00    -0.014 A 
BRANCH  35  36
ATOM     36  C   UNL A   1      38.384  29.978  29.840  1.00  0.00     0.031 A 
ATOM     37  C   UNL A   1      38.546  30.512  31.239  1.00  0.00     0.074 A 
ATOM     38  C   UNL A   1      39.299  29.128  29.330  1.00  0.00     0.049 A 
ATOM     39  N   UNL A   1      39.515  30.289  32.090  1.00  0.00    -0.248 NA
ATOM     40  C   UNL A   1      37.500  31.412  31.753  1.00  0.00     0.031 C 
ATOM     41  C   UNL A   1      39.263  28.564  27.978  1.00  0.00     0.029 A 
ATOM     42  N   UNL A   1      40.422  28.573  29.888  1.00  0.00    -0.354 N 
ATOM     43  C   UNL A   1      39.223  31.055  33.212  1.00  0.00     0.074 A 
ATOM     44  C   UNL A   1      37.983  31.748  32.943  1.00  0.00     0.031 C 
ATOM     45  C   UNL A   1      40.284  27.710  27.829  1.00  0.00     0.029 A 
ATOM     46  C   UNL A   1      41.083  27.708  29.048  1.00  0.00     0.049 A 
ATOM     47  H   UNL A   1      40.726  28.775  30.803  1.00  0.00     0.167 HD
ATOM     48  C   UNL A   1      39.917  31.155  34.369  1.00  0.00     0.034 A 
ATOM     49  C   UNL A   1      42.216  27.003  29.227  1.00  0.00     0.034 A 
ATOM     50  C   UNL A   1      41.110  30.409  34.664  1.00  0.00     0.049 A 
ATOM     51  C   UNL A   1      42.940  27.103  30.536  1.00  0.00     0.074 A 
ATOM     52  C   UNL A   1      41.850  30.410  35.834  1.00  0.00     0.029 A 
ATOM     53  N   UNL A   1      41.728  29.525  33.797  1.00  0.00    -0.354 N 
ATOM     54  N   UNL A   1      42.602  27.778  31.607  1.00  0.00    -0.248 NA
ATOM     55  C   UNL A   1      44.190  26.342  30.670  1.00  0.00     0.031 C 
ATOM     56  C   UNL A   1      42.918  29.524  35.674  1.00  0.00     0.029 A 
ATOM     57  C   UNL A   1      42.839  28.970  34.405  1.00  0.00     0.049 A 
ATOM     58  H   UNL A   1      41.422  29.321  32.883  1.00  0.00     0.167 HD
ATOM     59  C   UNL A   1      43.595  27.521  32.543  1.00  0.00     0.074 A 
ATOM     60  C   UNL A   1      44.531  26.606  31.925  1.00  0.00     0.031 C 
ATOM     61  C   UNL A   1      43.730  28.023  33.794  1.00  0.00     0.034 A 
BRANCH  48  62
ATOM     62  C   UNL A   1      39.392  32.059  35.448  1.00  0.00     0.023 A 
ATOM     63  C   UNL A   1      38.557  31.520  36.447  1.00  0.00     0.012 A 
ATOM     64  C   UNL A   1      39.842  33.389  35.558  1.00  0.00     0.148 A 
ATOM     65  C   UNL A   1      38.180  32.293  37.545  1.00  0.00     0.002 A 
ATOM     66  C   UNL A   1      39.484  34.145  36.667  1.00  0.00     0.091 A 
ATOM     67  F   UNL A   1      40.633  33.875  34.590  1.00  0.00    -0.205 F 
ATOM     68  C   UNL A   1      38.652  33.599  37.660  1.00  0.00     0.022 A 
BRANCH  66  69
ATOM     69  S   UNL A   1      40.080  35.817  36.946  1.00  0.00     0.127 S 
ATOM     70  O   UNL A   1      39.426  36.157  38.209  1.00  0.00    -0.237 OA
ATOM     71  O   UNL A   1      41.524  35.612  37.042  1.00  0.00    -0.237 OA
ATOM     72  O   UNL A   1      39.640  36.599  35.798  1.00  0.00    -0.744 OA
ENDBRANCH  66  69
ENDBRANCH  48  62
BRANCH  49  73
ATOM     73  C   UNL A   1      42.707  26.122  28.134  1.00  0.00     0.023 A 
ATOM     74  C   UNL A   1      43.844  26.500  27.395  1.00  0.00     0.012 A 
ATOM     75  C   UNL A   1      42.096  24.880  27.875  1.00  0.00     0.148 A 
ATOM     76  C   UNL A   1      44.360  25.655  26.412  1.00  0.00     0.002 A 
ATOM     77  C   UNL A   1      42.645  24.022  26.931  1.00  0.00     0.091 A 
ATOM     78  F   UNL A   1      41.005  24.551  28.581  1.00  0.00    -0.205 F 
ATOM     79  C   UNL A   1      43.771  24.413  26.189  1.00  0.00     0.022 A 
BRANCH  77  80
ATOM     80  S   UNL A   1      42.027  22.356  26.676  1.00  0.00     0.127 S 
ATOM     81  O   UNL A   1      42.388  21.709  27.935  1.00  0.00    -0.237 OA
ATOM     82  O   UNL A   1      40.594  22.588  26.490  1.00  0.00    -0.237 OA
ATOM     83  O   UNL A   1      42.712  21.862  25.490  1.00  0.00    -0.744 OA
ENDBRANCH  77  80
ENDBRANCH  49  73
BRANCH  61  84
ATOM     84  C   UNL A   1      44.927  27.600  34.594  1.00  0.00     0.023 A 
ATOM     85  C   UNL A   1      46.101  28.374  34.531  1.00  0.00     0.012 A 
ATOM     86  C   UNL A   1      44.845  26.523  35.498  1.00  0.00     0.148 A 
ATOM     87  C   UNL A   1      47.184  28.078  35.355  1.00  0.00     0.002 A 
ATOM     88  C   UNL A   1      45.917  26.255  36.340  1.00  0.00     0.091 A 
ATOM     89  F   UNL A   1      43.717  25.800  35.529  1.00  0.00    -0.205 F 
ATOM     90  C   UNL A   1      47.088  27.029  36.267  1.00  0.00     0.022 A 
BRANCH  88  91
ATOM     91  S   UNL A   1      45.862  24.975  37.598  1.00  0.00     0.127 S 
ATOM     92  O   UNL A   1      47.178  25.111  38.219  1.00  0.00    -0.237 OA
ATOM     93  O   UNL A   1      44.743  25.412  38.434  1.00  0.00    -0.237 OA
ATOM     94  O   UNL A   1      45.638  23.722  36.890  1.00  0.00    -0.744 OA
ENDBRANCH  88  91
ENDBRANCH  61  84
ENDBRANCH  35  36
ENDBRANCH  27  30
ENDBRANCH  25  26
ENDBRANCH   1  25
TORSDOF 16
ENDMDL
