MODEL 1
REMARK VINA RESULT:     -13.3      0.000      0.000
REMARK SMILES Cc1ccc2nc(NC3=[NH+]C(=O)[C@@H](CC(=O)NCCCNC(=O)c4ccc(-c5c6nc(c(-c7cccc(S(=O)(=O)[O-])c7F)c7ccc([nH]7)c(-c7cccc(S(=O)(=O)[O-])c7F)c7nc(c(-c8cccc(S(=O)(=O)[O-])c8F)c8ccc5[nH]8)C=C7)C=C6)cc4)N3)nc(C)c2c1
REMARK SMILES IDX 19 1 18 2 17 3 15 4 16 5 14 7 13 8 8 9 9 10 10 12 87 13
REMARK SMILES IDX 11 14 12 17 7 18 1 19 2 20 3 21 92 22 4 23 91 24 5 25 89 26
REMARK SMILES IDX 6 27 88 28 90 29 20 30 21 31 22 32 23 34 24 35 25 36 86 37
REMARK SMILES IDX 26 38 85 39 27 40 28 41 29 42 79 43 30 44 84 45 78 46 80 47
REMARK SMILES IDX 31 48 83 49 77 50 76 51 32 53 64 54 44 55 63 56 45 57 48 58
REMARK SMILES IDX 62 59 81 60 46 61 47 62 61 64 82 65 49 66 33 67 34 68 42 69
REMARK SMILES IDX 35 70 37 71 43 72 36 73 38 74 39 75 40 76 41 77 65 78 66 79
REMARK SMILES IDX 74 80 67 81 69 82 75 83 68 84 70 85 71 86 72 87 73 88 50 89
REMARK SMILES IDX 51 90 59 91 52 92 54 93 60 94 53 95 55 96 56 97 57 98 58 99
REMARK H PARENT 17 6 8 11 10 15 87 16 21 33 80 52 48 63
REMARK Flexibility Score: inf
ROOT
ATOM      1  C   UNL A   1      31.026  31.769  26.083  1.00  0.00     0.042 C 
ENDROOT
BRANCH   1   2
ATOM      2  C   UNL A   1      31.012  30.490  25.248  1.00  0.00     0.117 C 
BRANCH   2   3
ATOM      3  N   UNL A   1      32.334  29.884  25.206  1.00  0.00    -0.356 N 
ATOM      4  C   UNL A   1      32.776  28.709  25.742  1.00  0.00     0.224 C 
ATOM      5  O   UNL A   1      33.985  28.473  25.712  1.00  0.00    -0.275 OA
ATOM      6  H   UNL A   1      33.015  30.400  24.715  1.00  0.00     0.163 HD
BRANCH   4   7
ATOM      7  C   UNL A   1      31.807  27.705  26.316  1.00  0.00     0.153 C 
BRANCH   7   8
ATOM      8  C   UNL A   1      31.577  26.504  25.413  1.00  0.00     0.260 C 
ATOM      9  N   UNL A   1      33.841  23.980  26.326  1.00  0.00    -0.212 N 
ATOM     10  C   UNL A   1      32.685  24.634  26.114  1.00  0.00     0.358 C 
ATOM     11  H   UNL A   1      34.547  24.462  26.816  1.00  0.00     0.270 HD
ATOM     12  N   UNL A   1      31.513  24.457  26.649  1.00  0.00    -0.211 N 
ATOM     13  N   UNL A   1      32.789  25.712  25.293  1.00  0.00    -0.263 N 
ATOM     14  C   UNL A   1      30.708  25.485  26.176  1.00  0.00     0.320 C 
ATOM     15  H   UNL A   1      31.249  23.738  27.266  1.00  0.00     0.270 HD
ATOM     16  H   UNL A   1      33.557  25.922  24.714  1.00  0.00     0.261 HD
ATOM     17  O   UNL A   1      29.509  25.616  26.388  1.00  0.00    -0.252 OA
BRANCH   9  18
ATOM     18  C   UNL A   1      34.124  22.691  25.920  1.00  0.00     0.291 A 
ATOM     19  C   UNL A   1      34.197  16.621  23.803  1.00  0.00     0.044 C 
ATOM     20  C   UNL A   1      33.931  18.029  24.245  1.00  0.00    -0.050 A 
ATOM     21  C   UNL A   1      32.627  18.468  24.471  1.00  0.00     0.005 A 
ATOM     22  C   UNL A   1      34.992  18.907  24.495  1.00  0.00     0.015 A 
ATOM     23  C   UNL A   1      32.396  19.759  24.941  1.00  0.00     0.029 A 
ATOM     24  C   UNL A   1      34.751  20.220  24.965  1.00  0.00     0.022 A 
ATOM     25  C   UNL A   1      33.437  20.634  25.203  1.00  0.00     0.078 A 
ATOM     26  C   UNL A   1      35.726  21.189  25.225  1.00  0.00     0.052 A 
ATOM     27  N   UNL A   1      33.127  21.841  25.674  1.00  0.00    -0.198 NA
ATOM     28  N   UNL A   1      35.417  22.423  25.685  1.00  0.00    -0.203 NA
ATOM     29  C   UNL A   1      37.189  20.925  25.005  1.00  0.00     0.067 C 
ENDBRANCH   9  18
ENDBRANCH   7   8
ENDBRANCH   4   7
ENDBRANCH   2   3
ENDBRANCH   1   2
BRANCH   1  30
ATOM     30  C   UNL A   1      32.338  32.021  26.804  1.00  0.00     0.118 C 
BRANCH  30  31
ATOM     31  N   UNL A   1      32.476  33.397  27.251  1.00  0.00    -0.352 N 
ATOM     32  C   UNL A   1      33.419  33.974  28.071  1.00  0.00     0.251 C 
ATOM     33  H   UNL A   1      31.785  34.014  26.915  1.00  0.00     0.163 HD
ATOM     34  O   UNL A   1      33.243  35.123  28.469  1.00  0.00    -0.269 OA
BRANCH  32  35
ATOM     35  C   UNL A   1      34.611  33.207  28.505  1.00  0.00     0.039 A 
ATOM     36  C   UNL A   1      34.482  31.959  29.114  1.00  0.00     0.014 A 
ATOM     37  C   UNL A   1      35.885  33.754  28.317  1.00  0.00     0.014 A 
ATOM     38  C   UNL A   1      35.582  31.370  29.727  1.00  0.00     0.010 A 
ATOM     39  C   UNL A   1      37.009  33.096  28.827  1.00  0.00     0.010 A 
ATOM     40  C   UNL A   1      36.862  31.931  29.594  1.00  0.00    -0.014 A 
BRANCH  40  41
ATOM     41  C   UNL A   1      38.022  31.281  30.265  1.00  0.00     0.031 A 
ATOM     42  C   UNL A   1      38.364  31.596  31.699  1.00  0.00     0.074 A 
ATOM     43  C   UNL A   1      38.748  30.366  29.590  1.00  0.00     0.049 A 
ATOM     44  N   UNL A   1      39.335  31.116  32.434  1.00  0.00    -0.248 NA
ATOM     45  C   UNL A   1      37.516  32.574  32.403  1.00  0.00     0.031 C 
ATOM     46  C   UNL A   1      38.528  29.976  28.195  1.00  0.00     0.029 A 
ATOM     47  N   UNL A   1      39.809  29.590  29.985  1.00  0.00    -0.354 N 
ATOM     48  C   UNL A   1      39.245  31.763  33.660  1.00  0.00     0.074 A 
ATOM     49  C   UNL A   1      38.126  32.675  33.577  1.00  0.00     0.031 C 
ATOM     50  C   UNL A   1      39.392  29.005  27.866  1.00  0.00     0.029 A 
ATOM     51  C   UNL A   1      40.273  28.750  29.000  1.00  0.00     0.049 A 
ATOM     52  H   UNL A   1      40.201  29.630  30.888  1.00  0.00     0.167 HD
ATOM     53  C   UNL A   1      40.013  31.599  34.763  1.00  0.00     0.034 A 
ATOM     54  C   UNL A   1      41.303  27.883  28.993  1.00  0.00     0.034 A 
ATOM     55  C   UNL A   1      41.088  30.652  34.869  1.00  0.00     0.049 A 
ATOM     56  C   UNL A   1      42.142  27.726  30.227  1.00  0.00     0.074 A 
ATOM     57  C   UNL A   1      41.881  30.379  35.971  1.00  0.00     0.029 A 
ATOM     58  N   UNL A   1      41.525  29.827  33.846  1.00  0.00    -0.354 N 
ATOM     59  N   UNL A   1      41.991  28.298  31.396  1.00  0.00    -0.248 NA
ATOM     60  C   UNL A   1      43.283  26.803  30.146  1.00  0.00     0.031 C 
ATOM     61  C   UNL A   1      42.812  29.404  35.607  1.00  0.00     0.029 A 
ATOM     62  C   UNL A   1      42.583  29.054  34.287  1.00  0.00     0.049 A 
ATOM     63  H   UNL A   1      41.139  29.796  32.941  1.00  0.00     0.167 HD
ATOM     64  C   UNL A   1      43.008  27.795  32.196  1.00  0.00     0.074 A 
ATOM     65  C   UNL A   1      43.758  26.858  31.385  1.00  0.00     0.031 C 
ATOM     66  C   UNL A   1      43.297  28.096  33.484  1.00  0.00     0.034 A 
BRANCH  53  67
ATOM     67  C   UNL A   1      39.704  32.431  35.978  1.00  0.00     0.023 A 
ATOM     68  C   UNL A   1      40.287  33.706  36.110  1.00  0.00     0.012 A 
ATOM     69  C   UNL A   1      38.748  32.000  36.919  1.00  0.00     0.148 A 
ATOM     70  C   UNL A   1      39.923  34.543  37.165  1.00  0.00     0.002 A 
ATOM     71  C   UNL A   1      38.372  32.850  37.952  1.00  0.00     0.091 A 
ATOM     72  F   UNL A   1      38.216  30.778  36.775  1.00  0.00    -0.205 F 
ATOM     73  C   UNL A   1      38.958  34.121  38.075  1.00  0.00     0.022 A 
BRANCH  71  74
ATOM     74  S   UNL A   1      37.118  32.421  39.162  1.00  0.00     0.127 S 
ATOM     75  O   UNL A   1      37.460  33.322  40.264  1.00  0.00    -0.237 OA
ATOM     76  O   UNL A   1      35.883  32.762  38.458  1.00  0.00    -0.237 OA
ATOM     77  O   UNL A   1      37.297  31.005  39.447  1.00  0.00    -0.744 OA
ENDBRANCH  71  74
ENDBRANCH  53  67
BRANCH  54  78
ATOM     78  C   UNL A   1      41.565  27.077  27.771  1.00  0.00     0.023 A 
ATOM     79  C   UNL A   1      42.175  27.688  26.659  1.00  0.00     0.012 A 
ATOM     80  C   UNL A   1      41.292  25.696  27.739  1.00  0.00     0.148 A 
ATOM     81  C   UNL A   1      42.506  26.934  25.532  1.00  0.00     0.002 A 
ATOM     82  C   UNL A   1      41.660  24.944  26.631  1.00  0.00     0.091 A 
ATOM     83  F   UNL A   1      40.713  25.142  28.814  1.00  0.00    -0.205 F 
ATOM     84  C   UNL A   1      42.259  25.563  25.522  1.00  0.00     0.022 A 
BRANCH  82  85
ATOM     85  S   UNL A   1      41.475  23.160  26.565  1.00  0.00     0.127 S 
ATOM     86  O   UNL A   1      40.027  23.015  26.435  1.00  0.00    -0.237 OA
ATOM     87  O   UNL A   1      42.239  22.827  25.362  1.00  0.00    -0.237 OA
ATOM     88  O   UNL A   1      42.044  22.653  27.805  1.00  0.00    -0.744 OA
ENDBRANCH  82  85
ENDBRANCH  54  78
BRANCH  66  89
ATOM     89  C   UNL A   1      44.470  27.409  34.128  1.00  0.00     0.023 A 
ATOM     90  C   UNL A   1      45.746  27.999  34.047  1.00  0.00     0.012 A 
ATOM     91  C   UNL A   1      44.277  26.266  34.927  1.00  0.00     0.148 A 
ATOM     92  C   UNL A   1      46.818  27.457  34.754  1.00  0.00     0.002 A 
ATOM     93  C   UNL A   1      45.342  25.752  35.656  1.00  0.00     0.091 A 
ATOM     94  F   UNL A   1      43.052  25.726  34.983  1.00  0.00    -0.205 F 
ATOM     95  C   UNL A   1      46.614  26.344  35.568  1.00  0.00     0.022 A 
BRANCH  93  96
ATOM     96  S   UNL A   1      45.166  24.367  36.786  1.00  0.00     0.127 S 
ATOM     97  O   UNL A   1      44.713  23.306  35.886  1.00  0.00    -0.237 OA
ATOM     98  O   UNL A   1      46.530  24.202  37.287  1.00  0.00    -0.237 OA
ATOM     99  O   UNL A   1      44.193  24.782  37.787  1.00  0.00    -0.744 OA
ENDBRANCH  93  96
ENDBRANCH  66  89
ENDBRANCH  40  41
ENDBRANCH  32  35
ENDBRANCH  30  31
ENDBRANCH   1  30
TORSDOF 15
ENDMDL
MODEL 2
REMARK VINA RESULT:     -13.2      1.959      2.437
REMARK SMILES Cc1ccc2nc(NC3=[NH+]C(=O)[C@@H](CC(=O)NCCCNC(=O)c4ccc(-c5c6nc(c(-c7cccc(S(=O)(=O)[O-])c7F)c7ccc([nH]7)c(-c7cccc(S(=O)(=O)[O-])c7F)c7nc(c(-c8cccc(S(=O)(=O)[O-])c8F)c8ccc5[nH]8)C=C7)C=C6)cc4)N3)nc(C)c2c1
REMARK SMILES IDX 19 1 18 2 17 3 15 4 16 5 14 7 13 8 8 9 9 10 10 12 87 13
REMARK SMILES IDX 11 14 12 17 7 18 1 19 2 20 3 21 92 22 4 23 91 24 5 25 89 26
REMARK SMILES IDX 6 27 88 28 90 29 20 30 21 31 22 32 23 34 24 35 25 36 86 37
REMARK SMILES IDX 26 38 85 39 27 40 28 41 29 42 79 43 30 44 84 45 78 46 80 47
REMARK SMILES IDX 31 48 83 49 77 50 76 51 32 53 64 54 44 55 63 56 45 57 48 58
REMARK SMILES IDX 62 59 81 60 46 61 47 62 61 64 82 65 49 66 33 67 34 68 42 69
REMARK SMILES IDX 35 70 37 71 43 72 36 73 38 74 39 75 40 76 41 77 65 78 66 79
REMARK SMILES IDX 74 80 67 81 69 82 75 83 68 84 70 85 71 86 72 87 73 88 50 89
REMARK SMILES IDX 51 90 59 91 52 92 54 93 60 94 53 95 55 96 56 97 57 98 58 99
REMARK H PARENT 17 6 8 11 10 15 87 16 21 33 80 52 48 63
REMARK Flexibility Score: inf
ROOT
ATOM      1  C   UNL A   1      32.337  29.314  24.755  1.00  0.00     0.042 C 
ENDROOT
BRANCH   1   2
ATOM      2  C   UNL A   1      30.938  29.295  24.143  1.00  0.00     0.117 C 
BRANCH   2   3
ATOM      3  N   UNL A   1      30.319  27.987  24.302  1.00  0.00    -0.356 N 
ATOM      4  C   UNL A   1      30.312  26.915  23.460  1.00  0.00     0.224 C 
ATOM      5  O   UNL A   1      29.586  25.959  23.738  1.00  0.00    -0.275 OA
ATOM      6  H   UNL A   1      29.831  27.856  25.148  1.00  0.00     0.163 HD
BRANCH   4   7
ATOM      7  C   UNL A   1      31.202  26.878  22.243  1.00  0.00     0.153 C 
BRANCH   7   8
ATOM      8  C   UNL A   1      32.524  26.166  22.481  1.00  0.00     0.260 C 
ATOM      9  N   UNL A   1      31.845  22.909  23.601  1.00  0.00    -0.212 N 
ATOM     10  C   UNL A   1      32.281  23.923  22.834  1.00  0.00     0.358 C 
ATOM     11  H   UNL A   1      30.918  22.961  23.931  1.00  0.00     0.270 HD
ATOM     12  N   UNL A   1      32.531  23.960  21.559  1.00  0.00    -0.211 N 
ATOM     13  N   UNL A   1      32.371  25.118  23.476  1.00  0.00    -0.263 N 
ATOM     14  C   UNL A   1      32.826  25.283  21.256  1.00  0.00     0.320 C 
ATOM     15  H   UNL A   1      32.515  23.202  20.932  1.00  0.00     0.270 HD
ATOM     16  H   UNL A   1      32.337  25.251  24.450  1.00  0.00     0.261 HD
ATOM     17  O   UNL A   1      33.196  25.707  20.168  1.00  0.00    -0.252 OA
BRANCH   9  18
ATOM     18  C   UNL A   1      32.581  21.799  23.965  1.00  0.00     0.291 A 
ATOM     19  C   UNL A   1      35.189  16.002  24.932  1.00  0.00     0.044 C 
ATOM     20  C   UNL A   1      34.419  17.232  24.553  1.00  0.00    -0.050 A 
ATOM     21  C   UNL A   1      33.175  17.127  23.931  1.00  0.00     0.005 A 
ATOM     22  C   UNL A   1      34.910  18.503  24.871  1.00  0.00     0.015 A 
ATOM     23  C   UNL A   1      32.440  18.276  23.640  1.00  0.00     0.029 A 
ATOM     24  C   UNL A   1      34.163  19.666  24.566  1.00  0.00     0.022 A 
ATOM     25  C   UNL A   1      32.909  19.538  23.960  1.00  0.00     0.078 A 
ATOM     26  C   UNL A   1      34.562  20.985  24.813  1.00  0.00     0.052 A 
ATOM     27  N   UNL A   1      32.132  20.580  23.668  1.00  0.00    -0.198 NA
ATOM     28  N   UNL A   1      33.785  22.047  24.502  1.00  0.00    -0.203 NA
ATOM     29  C   UNL A   1      35.888  21.310  25.440  1.00  0.00     0.067 C 
ENDBRANCH   9  18
ENDBRANCH   7   8
ENDBRANCH   4   7
ENDBRANCH   2   3
ENDBRANCH   1   2
BRANCH   1  30
ATOM     30  C   UNL A   1      32.358  29.646  26.237  1.00  0.00     0.118 C 
BRANCH  30  31
ATOM     31  N   UNL A   1      32.221  31.071  26.492  1.00  0.00    -0.352 N 
ATOM     32  C   UNL A   1      33.036  31.929  27.196  1.00  0.00     0.251 C 
ATOM     33  H   UNL A   1      31.420  31.488  26.099  1.00  0.00     0.163 HD
ATOM     34  O   UNL A   1      32.636  33.064  27.443  1.00  0.00    -0.269 OA
BRANCH  32  35
ATOM     35  C   UNL A   1      34.359  31.477  27.689  1.00  0.00     0.039 A 
ATOM     36  C   UNL A   1      34.604  30.133  27.966  1.00  0.00     0.014 A 
ATOM     37  C   UNL A   1      35.371  32.420  27.896  1.00  0.00     0.014 A 
ATOM     38  C   UNL A   1      35.757  29.766  28.650  1.00  0.00     0.010 A 
ATOM     39  C   UNL A   1      36.584  32.026  28.473  1.00  0.00     0.010 A 
ATOM     40  C   UNL A   1      36.764  30.707  28.915  1.00  0.00    -0.014 A 
BRANCH  40  41
ATOM     41  C   UNL A   1      37.987  30.287  29.653  1.00  0.00     0.031 A 
ATOM     42  C   UNL A   1      38.233  30.742  31.069  1.00  0.00     0.074 A 
ATOM     43  C   UNL A   1      38.864  29.452  29.057  1.00  0.00     0.049 A 
ATOM     44  N   UNL A   1      39.241  30.464  31.856  1.00  0.00    -0.248 NA
ATOM     45  C   UNL A   1      37.225  31.622  31.686  1.00  0.00     0.031 C 
ATOM     46  C   UNL A   1      38.749  28.944  27.688  1.00  0.00     0.029 A 
ATOM     47  N   UNL A   1      40.017  28.874  29.527  1.00  0.00    -0.354 N 
ATOM     48  C   UNL A   1      39.017  31.168  33.033  1.00  0.00     0.074 A 
ATOM     49  C   UNL A   1      37.776  31.890  32.863  1.00  0.00     0.031 C 
ATOM     50  C   UNL A   1      39.759  28.098  27.444  1.00  0.00     0.029 A 
ATOM     51  C   UNL A   1      40.633  28.053  28.611  1.00  0.00     0.049 A 
ATOM     52  H   UNL A   1      40.369  29.031  30.433  1.00  0.00     0.167 HD
ATOM     53  C   UNL A   1      39.765  31.194  34.160  1.00  0.00     0.034 A 
ATOM     54  C   UNL A   1      41.782  27.355  28.686  1.00  0.00     0.034 A 
ATOM     55  C   UNL A   1      40.968  30.431  34.353  1.00  0.00     0.049 A 
ATOM     56  C   UNL A   1      42.596  27.408  29.944  1.00  0.00     0.074 A 
ATOM     57  C   UNL A   1      41.758  30.354  35.487  1.00  0.00     0.029 A 
ATOM     58  N   UNL A   1      41.556  29.618  33.398  1.00  0.00    -0.354 N 
ATOM     59  N   UNL A   1      42.324  28.024  31.069  1.00  0.00    -0.248 NA
ATOM     60  C   UNL A   1      43.864  26.667  29.951  1.00  0.00     0.031 C 
ATOM     61  C   UNL A   1      42.836  29.511  35.210  1.00  0.00     0.029 A 
ATOM     62  C   UNL A   1      42.704  29.046  33.913  1.00  0.00     0.049 A 
ATOM     63  H   UNL A   1      41.207  29.470  32.490  1.00  0.00     0.167 HD
ATOM     64  C   UNL A   1      43.379  27.734  31.922  1.00  0.00     0.074 A 
ATOM     65  C   UNL A   1      44.288  26.874  31.193  1.00  0.00     0.031 C 
ATOM     66  C   UNL A   1      43.580  28.158  33.193  1.00  0.00     0.034 A 
BRANCH  53  67
ATOM     67  C   UNL A   1      39.297  32.045  35.308  1.00  0.00     0.023 A 
ATOM     68  C   UNL A   1      38.470  31.480  36.297  1.00  0.00     0.012 A 
ATOM     69  C   UNL A   1      39.776  33.361  35.468  1.00  0.00     0.148 A 
ATOM     70  C   UNL A   1      38.122  32.213  37.431  1.00  0.00     0.002 A 
ATOM     71  C   UNL A   1      39.446  34.076  36.613  1.00  0.00     0.091 A 
ATOM     72  F   UNL A   1      40.554  33.879  34.507  1.00  0.00    -0.205 F 
ATOM     73  C   UNL A   1      38.621  33.502  37.595  1.00  0.00     0.022 A 
BRANCH  71  74
ATOM     74  S   UNL A   1      40.056  35.732  36.940  1.00  0.00     0.127 S 
ATOM     75  O   UNL A   1      41.500  35.501  37.003  1.00  0.00    -0.237 OA
ATOM     76  O   UNL A   1      39.607  36.463  35.757  1.00  0.00    -0.237 OA
ATOM     77  O   UNL A   1      39.444  36.149  38.194  1.00  0.00    -0.744 OA
ENDBRANCH  71  74
ENDBRANCH  53  67
BRANCH  54  78
ATOM     78  C   UNL A   1      42.201  26.522  27.527  1.00  0.00     0.023 A 
ATOM     79  C   UNL A   1      43.005  27.091  26.523  1.00  0.00     0.012 A 
ATOM     80  C   UNL A   1      41.877  25.153  27.462  1.00  0.00     0.148 A 
ATOM     81  C   UNL A   1      43.479  26.308  25.468  1.00  0.00     0.002 A 
ATOM     82  C   UNL A   1      42.384  24.371  26.433  1.00  0.00     0.091 A 
ATOM     83  F   UNL A   1      41.111  24.638  28.435  1.00  0.00    -0.205 F 
ATOM     84  C   UNL A   1      43.179  24.949  25.430  1.00  0.00     0.022 A 
BRANCH  82  85
ATOM     85  S   UNL A   1      42.136  22.595  26.351  1.00  0.00     0.127 S 
ATOM     86  O   UNL A   1      42.803  22.144  27.571  1.00  0.00    -0.237 OA
ATOM     87  O   UNL A   1      40.677  22.498  26.374  1.00  0.00    -0.237 OA
ATOM     88  O   UNL A   1      42.754  22.163  25.106  1.00  0.00    -0.744 OA
ENDBRANCH  82  85
ENDBRANCH  54  78
BRANCH  66  89
ATOM     89  C   UNL A   1      44.821  27.702  33.906  1.00  0.00     0.023 A 
ATOM     90  C   UNL A   1      45.971  28.514  33.882  1.00  0.00     0.012 A 
ATOM     91  C   UNL A   1      44.798  26.548  34.713  1.00  0.00     0.148 A 
ATOM     92  C   UNL A   1      47.085  28.182  34.651  1.00  0.00     0.002 A 
ATOM     93  C   UNL A   1      45.899  26.241  35.503  1.00  0.00     0.091 A 
ATOM     94  F   UNL A   1      43.691  25.793  34.714  1.00  0.00    -0.205 F 
ATOM     95  C   UNL A   1      47.044  27.056  35.471  1.00  0.00     0.022 A 
BRANCH  93  96
ATOM     96  S   UNL A   1      45.918  24.855  36.645  1.00  0.00     0.127 S 
ATOM     97  O   UNL A   1      47.302  24.879  37.118  1.00  0.00    -0.237 OA
ATOM     98  O   UNL A   1      44.925  25.260  37.639  1.00  0.00    -0.237 OA
ATOM     99  O   UNL A   1      45.556  23.681  35.863  1.00  0.00    -0.744 OA
ENDBRANCH  93  96
ENDBRANCH  66  89
ENDBRANCH  40  41
ENDBRANCH  32  35
ENDBRANCH  30  31
ENDBRANCH   1  30
TORSDOF 15
ENDMDL
MODEL 3
REMARK VINA RESULT:     -13.1      1.855      7.715
REMARK SMILES Cc1ccc2nc(NC3=[NH+]C(=O)[C@@H](CC(=O)NCCCNC(=O)c4ccc(-c5c6nc(c(-c7cccc(S(=O)(=O)[O-])c7F)c7ccc([nH]7)c(-c7cccc(S(=O)(=O)[O-])c7F)c7nc(c(-c8cccc(S(=O)(=O)[O-])c8F)c8ccc5[nH]8)C=C7)C=C6)cc4)N3)nc(C)c2c1
REMARK SMILES IDX 19 1 18 2 17 3 15 4 16 5 14 7 13 8 8 9 9 10 10 12 87 13
REMARK SMILES IDX 11 14 12 17 7 18 1 19 2 20 3 21 92 22 4 23 91 24 5 25 89 26
REMARK SMILES IDX 6 27 88 28 90 29 20 30 21 31 22 32 23 34 24 35 25 36 86 37
REMARK SMILES IDX 26 38 85 39 27 40 28 41 29 42 79 43 30 44 84 45 78 46 80 47
REMARK SMILES IDX 31 48 83 49 77 50 76 51 32 53 64 54 44 55 63 56 45 57 48 58
REMARK SMILES IDX 62 59 81 60 46 61 47 62 61 64 82 65 49 66 33 67 34 68 42 69
REMARK SMILES IDX 35 70 37 71 43 72 36 73 38 74 39 75 40 76 41 77 65 78 66 79
REMARK SMILES IDX 74 80 67 81 69 82 75 83 68 84 70 85 71 86 72 87 73 88 50 89
REMARK SMILES IDX 51 90 59 91 52 92 54 93 60 94 53 95 55 96 56 97 57 98 58 99
REMARK H PARENT 17 6 8 11 10 15 87 16 21 33 80 52 48 63
REMARK Flexibility Score: inf
ROOT
ATOM      1  C   UNL A   1      31.008  30.148  25.191  1.00  0.00     0.042 C 
ENDROOT
BRANCH   1   2
ATOM      2  C   UNL A   1      31.394  29.100  24.150  1.00  0.00     0.117 C 
BRANCH   2   3
ATOM      3  N   UNL A   1      30.621  27.880  24.330  1.00  0.00    -0.356 N 
ATOM      4  C   UNL A   1      30.454  26.819  23.490  1.00  0.00     0.224 C 
ATOM      5  O   UNL A   1      29.621  25.962  23.792  1.00  0.00    -0.275 OA
ATOM      6  H   UNL A   1      30.146  27.810  25.190  1.00  0.00     0.163 HD
BRANCH   4   7
ATOM      7  C   UNL A   1      31.296  26.672  22.247  1.00  0.00     0.153 C 
BRANCH   7   8
ATOM      8  C   UNL A   1      32.611  25.950  22.490  1.00  0.00     0.260 C 
ATOM      9  N   UNL A   1      31.904  22.708  23.636  1.00  0.00    -0.212 N 
ATOM     10  C   UNL A   1      32.348  23.712  22.860  1.00  0.00     0.358 C 
ATOM     11  H   UNL A   1      30.978  22.771  23.967  1.00  0.00     0.270 HD
ATOM     12  N   UNL A   1      32.597  23.737  21.584  1.00  0.00    -0.211 N 
ATOM     13  N   UNL A   1      32.450  24.911  23.492  1.00  0.00    -0.263 N 
ATOM     14  C   UNL A   1      32.904  25.054  21.270  1.00  0.00     0.320 C 
ATOM     15  H   UNL A   1      32.573  22.974  20.963  1.00  0.00     0.270 HD
ATOM     16  H   UNL A   1      32.419  25.052  24.466  1.00  0.00     0.261 HD
ATOM     17  O   UNL A   1      33.276  25.467  20.179  1.00  0.00    -0.252 OA
BRANCH   9  18
ATOM     18  C   UNL A   1      32.630  21.594  24.007  1.00  0.00     0.291 A 
ATOM     19  C   UNL A   1      35.192  15.782  25.006  1.00  0.00     0.044 C 
ATOM     20  C   UNL A   1      34.432  17.016  24.620  1.00  0.00    -0.050 A 
ATOM     21  C   UNL A   1      33.191  16.918  23.992  1.00  0.00     0.005 A 
ATOM     22  C   UNL A   1      34.931  18.285  24.935  1.00  0.00     0.015 A 
ATOM     23  C   UNL A   1      32.465  18.070  23.694  1.00  0.00     0.029 A 
ATOM     24  C   UNL A   1      34.194  19.452  24.623  1.00  0.00     0.022 A 
ATOM     25  C   UNL A   1      32.942  19.331  24.012  1.00  0.00     0.078 A 
ATOM     26  C   UNL A   1      34.601  20.769  24.867  1.00  0.00     0.052 A 
ATOM     27  N   UNL A   1      32.173  20.377  23.712  1.00  0.00    -0.198 NA
ATOM     28  N   UNL A   1      33.833  21.836  24.549  1.00  0.00    -0.203 NA
ATOM     29  C   UNL A   1      35.927  21.086  25.499  1.00  0.00     0.067 C 
ENDBRANCH   9  18
ENDBRANCH   7   8
ENDBRANCH   4   7
ENDBRANCH   2   3
ENDBRANCH   1   2
BRANCH   1  30
ATOM     30  C   UNL A   1      32.152  30.569  26.097  1.00  0.00     0.118 C 
BRANCH  30  31
ATOM     31  N   UNL A   1      32.080  31.971  26.475  1.00  0.00    -0.352 N 
ATOM     32  C   UNL A   1      32.898  32.711  27.298  1.00  0.00     0.251 C 
ATOM     33  H   UNL A   1      31.327  32.469  26.080  1.00  0.00     0.163 HD
ATOM     34  O   UNL A   1      32.549  33.842  27.627  1.00  0.00    -0.269 OA
BRANCH  32  35
ATOM     35  C   UNL A   1      34.163  32.138  27.817  1.00  0.00     0.039 A 
ATOM     36  C   UNL A   1      34.272  30.778  28.107  1.00  0.00     0.014 A 
ATOM     37  C   UNL A   1      35.258  32.980  28.036  1.00  0.00     0.014 A 
ATOM     38  C   UNL A   1      35.373  30.308  28.814  1.00  0.00     0.010 A 
ATOM     39  C   UNL A   1      36.417  32.476  28.636  1.00  0.00     0.010 A 
ATOM     40  C   UNL A   1      36.461  31.149  29.090  1.00  0.00    -0.014 A 
BRANCH  40  41
ATOM     41  C   UNL A   1      37.626  30.619  29.852  1.00  0.00     0.031 A 
ATOM     42  C   UNL A   1      38.616  29.685  29.205  1.00  0.00     0.074 A 
ATOM     43  C   UNL A   1      37.817  31.017  31.127  1.00  0.00     0.049 A 
ATOM     44  N   UNL A   1      39.686  29.137  29.723  1.00  0.00    -0.248 NA
ATOM     45  C   UNL A   1      38.382  29.312  27.799  1.00  0.00     0.031 C 
ATOM     46  C   UNL A   1      36.929  31.911  31.874  1.00  0.00     0.029 A 
ATOM     47  N   UNL A   1      38.823  30.734  32.017  1.00  0.00    -0.354 N 
ATOM     48  C   UNL A   1      40.221  28.324  28.732  1.00  0.00     0.074 A 
ATOM     49  C   UNL A   1      39.361  28.444  27.576  1.00  0.00     0.031 C 
ATOM     50  C   UNL A   1      37.450  32.139  33.088  1.00  0.00     0.029 A 
ATOM     51  C   UNL A   1      38.672  31.356  33.234  1.00  0.00     0.049 A 
ATOM     52  H   UNL A   1      39.580  30.142  31.804  1.00  0.00     0.167 HD
ATOM     53  C   UNL A   1      41.339  27.562  28.773  1.00  0.00     0.034 A 
ATOM     54  C   UNL A   1      39.416  31.294  34.354  1.00  0.00     0.034 A 
ATOM     55  C   UNL A   1      42.228  27.487  29.900  1.00  0.00     0.049 A 
ATOM     56  C   UNL A   1      40.646  30.436  34.375  1.00  0.00     0.074 A 
ATOM     57  C   UNL A   1      43.416  26.784  30.005  1.00  0.00     0.029 A 
ATOM     58  N   UNL A   1      42.033  28.129  31.111  1.00  0.00    -0.354 N 
ATOM     59  N   UNL A   1      41.169  29.733  33.400  1.00  0.00    -0.248 NA
ATOM     60  C   UNL A   1      41.392  30.367  35.639  1.00  0.00     0.031 C 
ATOM     61  C   UNL A   1      43.928  26.984  31.289  1.00  0.00     0.029 A 
ATOM     62  C   UNL A   1      43.072  27.830  31.974  1.00  0.00     0.049 A 
ATOM     63  H   UNL A   1      41.270  28.713  31.325  1.00  0.00     0.167 HD
ATOM     64  C   UNL A   1      42.313  29.149  33.928  1.00  0.00     0.074 A 
ATOM     65  C   UNL A   1      42.418  29.594  35.302  1.00  0.00     0.031 C 
ATOM     66  C   UNL A   1      43.188  28.309  33.326  1.00  0.00     0.034 A 
BRANCH  53  67
ATOM     67  C   UNL A   1      41.706  26.766  27.551  1.00  0.00     0.023 A 
ATOM     68  C   UNL A   1      42.337  27.409  26.469  1.00  0.00     0.012 A 
ATOM     69  C   UNL A   1      41.537  25.367  27.528  1.00  0.00     0.148 A 
ATOM     70  C   UNL A   1      42.794  26.671  25.378  1.00  0.00     0.002 A 
ATOM     71  C   UNL A   1      42.018  24.636  26.449  1.00  0.00     0.091 A 
ATOM     72  F   UNL A   1      40.924  24.781  28.566  1.00  0.00    -0.205 F 
ATOM     73  C   UNL A   1      42.648  25.288  25.374  1.00  0.00     0.022 A 
BRANCH  71  74
ATOM     74  S   UNL A   1      41.909  22.847  26.354  1.00  0.00     0.127 S 
ATOM     75  O   UNL A   1      42.589  22.584  25.085  1.00  0.00    -0.237 OA
ATOM     76  O   UNL A   1      42.654  22.432  27.541  1.00  0.00    -0.237 OA
ATOM     77  O   UNL A   1      40.489  22.526  26.371  1.00  0.00    -0.744 OA
ENDBRANCH  71  74
ENDBRANCH  53  67
BRANCH  54  78
ATOM     78  C   UNL A   1      39.017  32.104  35.536  1.00  0.00     0.023 A 
ATOM     79  C   UNL A   1      38.178  31.536  36.511  1.00  0.00     0.012 A 
ATOM     80  C   UNL A   1      39.535  33.399  35.737  1.00  0.00     0.148 A 
ATOM     81  C   UNL A   1      37.856  32.247  37.669  1.00  0.00     0.002 A 
ATOM     82  C   UNL A   1      39.244  34.085  36.908  1.00  0.00     0.091 A 
ATOM     83  F   UNL A   1      40.334  33.913  34.791  1.00  0.00    -0.205 F 
ATOM     84  C   UNL A   1      38.397  33.514  37.872  1.00  0.00     0.022 A 
BRANCH  82  85
ATOM     85  S   UNL A   1      39.971  35.678  37.306  1.00  0.00     0.127 S 
ATOM     86  O   UNL A   1      41.382  35.331  37.460  1.00  0.00    -0.237 OA
ATOM     87  O   UNL A   1      39.653  36.456  36.109  1.00  0.00    -0.237 OA
ATOM     88  O   UNL A   1      39.303  36.129  38.518  1.00  0.00    -0.744 OA
ENDBRANCH  82  85
ENDBRANCH  54  78
BRANCH  66  89
ATOM     89  C   UNL A   1      44.356  27.806  34.127  1.00  0.00     0.023 A 
ATOM     90  C   UNL A   1      45.517  28.595  34.227  1.00  0.00     0.012 A 
ATOM     91  C   UNL A   1      44.244  26.628  34.891  1.00  0.00     0.148 A 
ATOM     92  C   UNL A   1      46.555  28.217  35.077  1.00  0.00     0.002 A 
ATOM     93  C   UNL A   1      45.267  26.275  35.761  1.00  0.00     0.091 A 
ATOM     94  F   UNL A   1      43.127  25.896  34.773  1.00  0.00    -0.205 F 
ATOM     95  C   UNL A   1      46.424  27.067  35.854  1.00  0.00     0.022 A 
BRANCH  93  96
ATOM     96  S   UNL A   1      45.163  24.854  36.854  1.00  0.00     0.127 S 
ATOM     97  O   UNL A   1      46.457  24.908  37.535  1.00  0.00    -0.237 OA
ATOM     98  O   UNL A   1      44.016  25.194  37.695  1.00  0.00    -0.237 OA
ATOM     99  O   UNL A   1      44.968  23.695  35.995  1.00  0.00    -0.744 OA
ENDBRANCH  93  96
ENDBRANCH  66  89
ENDBRANCH  40  41
ENDBRANCH  32  35
ENDBRANCH  30  31
ENDBRANCH   1  30
TORSDOF 15
ENDMDL
