MODEL 1
REMARK VINA RESULT:     -13.0      0.000      0.000
REMARK SMILES CC(C)(C)c1cc2c(cc1Cl)C=C(C(=O)NCCCNC(=O)c1ccc(-c3c4nc(c(-c5cccc(S(=O)(=O)[O-])c5F)c5ccc([nH]5)c(-c5cccc(S(=O)(=O)[O-])c5F)c5nc(c(-c6cccc(S(=O)(=O)[O-])c6F)c6ccc3[nH]6)C=C5)C=C4)cc1)[C@@H](C(F)(F)F)O2
REMARK SMILES IDX 19 1 18 2 17 3 16 4 14 5 15 6 13 8 5 9 6 10 10 11 7 12 9 13
REMARK SMILES IDX 11 14 8 15 91 16 12 17 86 18 2 19 1 20 3 21 4 22 87 23 88 24
REMARK SMILES IDX 89 25 90 26 20 27 21 28 22 30 23 31 24 32 85 33 25 34 84 35
REMARK SMILES IDX 26 36 27 37 28 38 78 39 29 40 83 41 77 42 79 43 30 44 82 45
REMARK SMILES IDX 76 46 75 47 31 49 63 50 43 51 62 52 44 53 47 54 61 55 80 56
REMARK SMILES IDX 45 57 46 58 60 60 81 61 48 62 32 63 33 64 41 65 34 66 36 67
REMARK SMILES IDX 42 68 35 69 37 70 38 71 39 72 40 73 64 74 65 75 73 76 66 77
REMARK SMILES IDX 68 78 74 79 67 80 69 81 70 82 71 83 72 84 49 85 50 86 58 87
REMARK SMILES IDX 51 88 53 89 59 90 52 91 54 92 55 93 56 94 57 95
REMARK H PARENT 16 7 20 29 79 48 47 59
REMARK Flexibility Score: inf
ROOT
ATOM      1  C   UNL A   1      37.396  22.031  24.870  1.00  0.00     0.118 C 
ENDROOT
BRANCH   1   2
ATOM      2  C   UNL A   1      36.089  21.511  24.283  1.00  0.00     0.042 C 
BRANCH   2   3
ATOM      3  C   UNL A   1      35.559  20.297  25.032  1.00  0.00     0.118 C 
BRANCH   3   4
ATOM      4  N   UNL A   1      34.158  20.038  24.735  1.00  0.00    -0.352 N 
ATOM      5  C   UNL A   1      32.988  20.715  24.800  1.00  0.00     0.251 C 
ATOM      6  O   UNL A   1      31.994  20.087  24.424  1.00  0.00    -0.270 OA
ATOM      7  H   UNL A   1      34.025  19.124  24.396  1.00  0.00     0.163 HD
BRANCH   5   8
ATOM      8  C   UNL A   1      32.836  22.120  25.275  1.00  0.00     0.067 C 
ATOM      9  C   UNL A   1      32.641  27.187  25.630  1.00  0.00    -0.020 A 
ATOM     10  C   UNL A   1      32.203  26.096  26.410  1.00  0.00     0.053 A 
ATOM     11  C   UNL A   1      33.228  26.860  24.382  1.00  0.00     0.045 A 
ATOM     12  C   UNL A   1      32.360  24.774  25.992  1.00  0.00     0.128 A 
ATOM     13  C   UNL A   1      33.363  25.523  23.960  1.00  0.00     0.032 A 
ATOM     14  Cl  UNL A   1      33.831  28.027  23.255  1.00  0.00    -0.084 Cl
ATOM     15  C   UNL A   1      32.934  24.474  24.767  1.00  0.00     0.019 A 
ATOM     16  O   UNL A   1      31.889  23.809  26.837  1.00  0.00    -0.475 OA
ATOM     17  C   UNL A   1      33.042  23.080  24.354  1.00  0.00     0.025 C 
ATOM     18  C   UNL A   1      32.507  22.501  26.692  1.00  0.00     0.314 C 
BRANCH   9  19
ATOM     19  C   UNL A   1      32.456  28.626  26.173  1.00  0.00    -0.012 C 
ATOM     20  C   UNL A   1      31.663  29.492  25.171  1.00  0.00     0.016 C 
ATOM     21  C   UNL A   1      33.818  29.275  26.498  1.00  0.00     0.016 C 
ATOM     22  C   UNL A   1      31.647  28.689  27.502  1.00  0.00     0.016 C 
ENDBRANCH   9  19
BRANCH  18  23
ATOM     23  C   UNL A   1      33.729  22.408  27.628  1.00  0.00     0.429 C 
ATOM     24  F   UNL A   1      33.461  22.994  28.821  1.00  0.00    -0.167 F 
ATOM     25  F   UNL A   1      34.084  21.130  27.897  1.00  0.00    -0.167 F 
ATOM     26  F   UNL A   1      34.826  23.015  27.118  1.00  0.00    -0.167 F 
ENDBRANCH  18  23
ENDBRANCH   5   8
ENDBRANCH   3   4
ENDBRANCH   2   3
ENDBRANCH   1   2
BRANCH   1  27
ATOM     27  N   UNL A   1      38.208  20.957  25.437  1.00  0.00    -0.352 N 
ATOM     28  C   UNL A   1      39.389  21.005  26.138  1.00  0.00     0.251 C 
ATOM     29  H   UNL A   1      37.853  20.051  25.292  1.00  0.00     0.163 HD
ATOM     30  O   UNL A   1      40.031  19.970  26.308  1.00  0.00    -0.269 OA
BRANCH  28  31
ATOM     31  C   UNL A   1      39.887  22.291  26.669  1.00  0.00     0.039 A 
ATOM     32  C   UNL A   1      39.365  23.495  26.197  1.00  0.00     0.014 A 
ATOM     33  C   UNL A   1      40.877  22.297  27.656  1.00  0.00     0.014 A 
ATOM     34  C   UNL A   1      39.964  24.692  26.558  1.00  0.00     0.010 A 
ATOM     35  C   UNL A   1      41.401  23.514  28.104  1.00  0.00     0.010 A 
ATOM     36  C   UNL A   1      40.984  24.719  27.522  1.00  0.00    -0.014 A 
BRANCH  36  37
ATOM     37  C   UNL A   1      41.571  26.028  27.906  1.00  0.00     0.031 A 
ATOM     38  C   UNL A   1      42.950  26.425  27.454  1.00  0.00     0.074 A 
ATOM     39  C   UNL A   1      40.820  26.891  28.621  1.00  0.00     0.049 A 
ATOM     40  N   UNL A   1      43.587  27.548  27.663  1.00  0.00    -0.248 NA
ATOM     41  C   UNL A   1      43.720  25.442  26.672  1.00  0.00     0.031 C 
ATOM     42  C   UNL A   1      39.477  26.609  29.135  1.00  0.00     0.029 A 
ATOM     43  N   UNL A   1      41.059  28.182  29.014  1.00  0.00    -0.354 N 
ATOM     44  C   UNL A   1      44.842  27.390  27.088  1.00  0.00     0.074 A 
ATOM     45  C   UNL A   1      44.882  26.065  26.515  1.00  0.00     0.031 C 
ATOM     46  C   UNL A   1      38.985  27.712  29.716  1.00  0.00     0.029 A 
ATOM     47  C   UNL A   1      39.999  28.759  29.675  1.00  0.00     0.049 A 
ATOM     48  H   UNL A   1      41.906  28.651  28.840  1.00  0.00     0.167 HD
ATOM     49  C   UNL A   1      45.859  28.280  27.026  1.00  0.00     0.034 A 
ATOM     50  C   UNL A   1      39.856  29.991  30.199  1.00  0.00     0.034 A 
ATOM     51  C   UNL A   1      45.792  29.622  27.536  1.00  0.00     0.049 A 
ATOM     52  C   UNL A   1      40.989  30.966  30.088  1.00  0.00     0.074 A 
ATOM     53  C   UNL A   1      46.758  30.611  27.470  1.00  0.00     0.029 A 
ATOM     54  N   UNL A   1      44.702  30.166  28.194  1.00  0.00    -0.354 N 
ATOM     55  N   UNL A   1      42.139  30.817  29.479  1.00  0.00    -0.248 NA
ATOM     56  C   UNL A   1      40.808  32.275  30.729  1.00  0.00     0.031 C 
ATOM     57  C   UNL A   1      46.251  31.755  28.093  1.00  0.00     0.029 A 
ATOM     58  C   UNL A   1      44.969  31.478  28.542  1.00  0.00     0.049 A 
ATOM     59  H   UNL A   1      43.862  29.690  28.386  1.00  0.00     0.167 HD
ATOM     60  C   UNL A   1      42.820  32.013  29.657  1.00  0.00     0.074 A 
ATOM     61  C   UNL A   1      41.943  32.887  30.411  1.00  0.00     0.031 C 
ATOM     62  C   UNL A   1      44.068  32.346  29.252  1.00  0.00     0.034 A 
BRANCH  49  63
ATOM     63  C   UNL A   1      47.127  27.862  26.336  1.00  0.00     0.023 A 
ATOM     64  C   UNL A   1      48.144  27.236  27.083  1.00  0.00     0.012 A 
ATOM     65  C   UNL A   1      47.267  27.989  24.940  1.00  0.00     0.148 A 
ATOM     66  C   UNL A   1      49.288  26.748  26.451  1.00  0.00     0.002 A 
ATOM     67  C   UNL A   1      48.397  27.475  24.314  1.00  0.00     0.091 A 
ATOM     68  F   UNL A   1      46.290  28.600  24.254  1.00  0.00    -0.205 F 
ATOM     69  C   UNL A   1      49.409  26.857  25.068  1.00  0.00     0.022 A 
BRANCH  67  70
ATOM     70  S   UNL A   1      48.628  27.514  22.533  1.00  0.00     0.127 S 
ATOM     71  O   UNL A   1      49.924  28.185  22.420  1.00  0.00    -0.237 OA
ATOM     72  O   UNL A   1      48.648  26.092  22.195  1.00  0.00    -0.237 OA
ATOM     73  O   UNL A   1      47.499  28.258  21.995  1.00  0.00    -0.744 OA
ENDBRANCH  67  70
ENDBRANCH  49  63
BRANCH  50  74
ATOM     74  C   UNL A   1      38.562  30.364  30.831  1.00  0.00     0.023 A 
ATOM     75  C   UNL A   1      38.359  30.091  32.198  1.00  0.00     0.012 A 
ATOM     76  C   UNL A   1      37.581  31.075  30.114  1.00  0.00     0.148 A 
ATOM     77  C   UNL A   1      37.198  30.522  32.838  1.00  0.00     0.002 A 
ATOM     78  C   UNL A   1      36.449  31.542  30.770  1.00  0.00     0.091 A 
ATOM     79  F   UNL A   1      37.798  31.315  28.814  1.00  0.00    -0.205 F 
ATOM     80  C   UNL A   1      36.250  31.257  32.130  1.00  0.00     0.022 A 
BRANCH  78  81
ATOM     81  S   UNL A   1      35.240  32.603  29.973  1.00  0.00     0.127 S 
ATOM     82  O   UNL A   1      34.727  31.731  28.919  1.00  0.00    -0.237 OA
ATOM     83  O   UNL A   1      34.304  32.864  31.068  1.00  0.00    -0.237 OA
ATOM     84  O   UNL A   1      35.977  33.773  29.518  1.00  0.00    -0.744 OA
ENDBRANCH  78  81
ENDBRANCH  50  74
BRANCH  62  85
ATOM     85  C   UNL A   1      44.580  33.713  29.606  1.00  0.00     0.023 A 
ATOM     86  C   UNL A   1      45.328  33.879  30.786  1.00  0.00     0.012 A 
ATOM     87  C   UNL A   1      44.436  34.790  28.711  1.00  0.00     0.148 A 
ATOM     88  C   UNL A   1      45.926  35.104  31.075  1.00  0.00     0.002 A 
ATOM     89  C   UNL A   1      45.060  35.998  28.989  1.00  0.00     0.091 A 
ATOM     90  F   UNL A   1      43.711  34.602  27.599  1.00  0.00    -0.205 F 
ATOM     91  C   UNL A   1      45.803  36.159  30.172  1.00  0.00     0.022 A 
BRANCH  89  92
ATOM     92  S   UNL A   1      45.025  37.391  27.855  1.00  0.00     0.127 S 
ATOM     93  O   UNL A   1      45.746  38.411  28.615  1.00  0.00    -0.237 OA
ATOM     94  O   UNL A   1      45.749  36.865  26.699  1.00  0.00    -0.237 OA
ATOM     95  O   UNL A   1      43.618  37.680  27.614  1.00  0.00    -0.744 OA
ENDBRANCH  89  92
ENDBRANCH  62  85
ENDBRANCH  36  37
ENDBRANCH  28  31
ENDBRANCH   1  27
TORSDOF 15
ENDMDL
MODEL 2
REMARK VINA RESULT:     -12.8      5.969     10.886
REMARK SMILES CC(C)(C)c1cc2c(cc1Cl)C=C(C(=O)NCCCNC(=O)c1ccc(-c3c4nc(c(-c5cccc(S(=O)(=O)[O-])c5F)c5ccc([nH]5)c(-c5cccc(S(=O)(=O)[O-])c5F)c5nc(c(-c6cccc(S(=O)(=O)[O-])c6F)c6ccc3[nH]6)C=C5)C=C4)cc1)[C@@H](C(F)(F)F)O2
REMARK SMILES IDX 19 1 18 2 17 3 16 4 14 5 15 6 13 8 5 9 6 10 10 11 7 12 9 13
REMARK SMILES IDX 11 14 8 15 91 16 12 17 86 18 2 19 1 20 3 21 4 22 87 23 88 24
REMARK SMILES IDX 89 25 90 26 20 27 21 28 22 30 23 31 24 32 85 33 25 34 84 35
REMARK SMILES IDX 26 36 27 37 28 38 78 39 29 40 83 41 77 42 79 43 30 44 82 45
REMARK SMILES IDX 76 46 75 47 31 49 63 50 43 51 62 52 44 53 47 54 61 55 80 56
REMARK SMILES IDX 45 57 46 58 60 60 81 61 48 62 32 63 33 64 41 65 34 66 36 67
REMARK SMILES IDX 42 68 35 69 37 70 38 71 39 72 40 73 64 74 65 75 73 76 66 77
REMARK SMILES IDX 68 78 74 79 67 80 69 81 70 82 71 83 72 84 49 85 50 86 58 87
REMARK SMILES IDX 51 88 53 89 59 90 52 91 54 92 55 93 56 94 57 95
REMARK H PARENT 16 7 20 29 79 48 47 59
REMARK Flexibility Score: inf
ROOT
ATOM      1  C   UNL A   1      32.917  32.561  27.290  1.00  0.00     0.118 C 
ENDROOT
BRANCH   1   2
ATOM      2  C   UNL A   1      31.679  31.887  26.711  1.00  0.00     0.042 C 
BRANCH   2   3
ATOM      3  C   UNL A   1      31.905  30.411  26.418  1.00  0.00     0.118 C 
BRANCH   3   4
ATOM      4  N   UNL A   1      31.557  30.064  25.048  1.00  0.00    -0.352 N 
ATOM      5  C   UNL A   1      31.547  28.953  24.278  1.00  0.00     0.251 C 
ATOM      6  O   UNL A   1      31.150  29.115  23.121  1.00  0.00    -0.270 OA
ATOM      7  H   UNL A   1      31.245  30.852  24.546  1.00  0.00     0.163 HD
BRANCH   5   8
ATOM      8  C   UNL A   1      31.964  27.594  24.729  1.00  0.00     0.067 C 
ATOM      9  C   UNL A   1      34.351  23.149  25.357  1.00  0.00    -0.020 A 
ATOM     10  C   UNL A   1      33.388  23.896  26.069  1.00  0.00     0.053 A 
ATOM     11  C   UNL A   1      34.886  23.771  24.201  1.00  0.00     0.045 A 
ATOM     12  C   UNL A   1      32.967  25.158  25.648  1.00  0.00     0.128 A 
ATOM     13  C   UNL A   1      34.470  25.055  23.797  1.00  0.00     0.032 A 
ATOM     14  Cl  UNL A   1      36.081  23.054  23.175  1.00  0.00    -0.084 Cl
ATOM     15  C   UNL A   1      33.504  25.752  24.517  1.00  0.00     0.019 A 
ATOM     16  O   UNL A   1      32.033  25.778  26.428  1.00  0.00    -0.475 OA
ATOM     17  C   UNL A   1      33.064  27.088  24.137  1.00  0.00     0.025 C 
ATOM     18  C   UNL A   1      31.223  26.778  25.751  1.00  0.00     0.314 C 
BRANCH   9  19
ATOM     19  C   UNL A   1      34.748  21.744  25.871  1.00  0.00    -0.012 C 
ATOM     20  C   UNL A   1      34.182  21.498  27.286  1.00  0.00     0.016 C 
ATOM     21  C   UNL A   1      36.281  21.561  25.857  1.00  0.00     0.016 C 
ATOM     22  C   UNL A   1      34.191  20.582  24.998  1.00  0.00     0.016 C 
ENDBRANCH   9  19
BRANCH  18  23
ATOM     23  C   UNL A   1      29.964  26.105  25.169  1.00  0.00     0.429 C 
ATOM     24  F   UNL A   1      29.199  27.013  24.514  1.00  0.00    -0.167 F 
ATOM     25  F   UNL A   1      30.258  25.132  24.276  1.00  0.00    -0.167 F 
ATOM     26  F   UNL A   1      29.189  25.535  26.120  1.00  0.00    -0.167 F 
ENDBRANCH  18  23
ENDBRANCH   5   8
ENDBRANCH   3   4
ENDBRANCH   2   3
ENDBRANCH   1   2
BRANCH   1  27
ATOM     27  N   UNL A   1      32.658  33.946  27.675  1.00  0.00    -0.352 N 
ATOM     28  C   UNL A   1      33.158  34.693  28.715  1.00  0.00     0.251 C 
ATOM     29  H   UNL A   1      32.021  34.423  27.096  1.00  0.00     0.163 HD
ATOM     30  O   UNL A   1      32.619  35.760  29.002  1.00  0.00    -0.269 OA
BRANCH  28  31
ATOM     31  C   UNL A   1      34.320  34.209  29.487  1.00  0.00     0.039 A 
ATOM     32  C   UNL A   1      35.615  34.534  29.084  1.00  0.00     0.014 A 
ATOM     33  C   UNL A   1      34.118  33.433  30.631  1.00  0.00     0.014 A 
ATOM     34  C   UNL A   1      36.699  33.925  29.699  1.00  0.00     0.010 A 
ATOM     35  C   UNL A   1      35.219  32.912  31.320  1.00  0.00     0.010 A 
ATOM     36  C   UNL A   1      36.517  33.112  30.829  1.00  0.00    -0.014 A 
BRANCH  36  37
ATOM     37  C   UNL A   1      37.710  32.511  31.477  1.00  0.00     0.031 A 
ATOM     38  C   UNL A   1      38.150  32.946  32.849  1.00  0.00     0.074 A 
ATOM     39  C   UNL A   1      38.363  31.518  30.841  1.00  0.00     0.049 A 
ATOM     40  N   UNL A   1      39.140  32.489  33.572  1.00  0.00    -0.248 NA
ATOM     41  C   UNL A   1      37.394  34.032  33.495  1.00  0.00     0.031 C 
ATOM     42  C   UNL A   1      38.042  31.026  29.498  1.00  0.00     0.029 A 
ATOM     43  N   UNL A   1      39.407  30.724  31.241  1.00  0.00    -0.354 N 
ATOM     44  C   UNL A   1      39.158  33.258  34.728  1.00  0.00     0.074 A 
ATOM     45  C   UNL A   1      38.079  34.214  34.618  1.00  0.00     0.031 C 
ATOM     46  C   UNL A   1      38.824  29.976  29.212  1.00  0.00     0.029 A 
ATOM     47  C   UNL A   1      39.745  29.759  30.321  1.00  0.00     0.049 A 
ATOM     48  H   UNL A   1      39.868  30.834  32.103  1.00  0.00     0.167 HD
ATOM     49  C   UNL A   1      39.986  33.162  35.794  1.00  0.00     0.034 A 
ATOM     50  C   UNL A   1      40.697  28.807  30.357  1.00  0.00     0.034 A 
ATOM     51  C   UNL A   1      41.014  32.167  35.932  1.00  0.00     0.049 A 
ATOM     52  C   UNL A   1      41.580  28.704  31.563  1.00  0.00     0.074 A 
ATOM     53  C   UNL A   1      41.868  31.961  37.002  1.00  0.00     0.029 A 
ATOM     54  N   UNL A   1      41.321  31.208  34.980  1.00  0.00    -0.354 N 
ATOM     55  N   UNL A   1      41.532  29.399  32.674  1.00  0.00    -0.248 NA
ATOM     56  C   UNL A   1      42.642  27.689  31.529  1.00  0.00     0.031 C 
ATOM     57  C   UNL A   1      42.696  30.878  36.694  1.00  0.00     0.029 A 
ATOM     58  C   UNL A   1      42.353  30.408  35.436  1.00  0.00     0.049 A 
ATOM     59  H   UNL A   1      40.873  31.112  34.109  1.00  0.00     0.167 HD
ATOM     60  C   UNL A   1      42.553  28.905  33.473  1.00  0.00     0.074 A 
ATOM     61  C   UNL A   1      43.188  27.835  32.731  1.00  0.00     0.031 C 
ATOM     62  C   UNL A   1      42.942  29.319  34.702  1.00  0.00     0.034 A 
BRANCH  49  63
ATOM     63  C   UNL A   1      39.793  34.123  36.934  1.00  0.00     0.023 A 
ATOM     64  C   UNL A   1      40.100  35.485  36.746  1.00  0.00     0.012 A 
ATOM     65  C   UNL A   1      39.210  33.701  38.144  1.00  0.00     0.148 A 
ATOM     66  C   UNL A   1      39.836  36.414  37.752  1.00  0.00     0.002 A 
ATOM     67  C   UNL A   1      38.924  34.638  39.131  1.00  0.00     0.091 A 
ATOM     68  F   UNL A   1      38.939  32.397  38.302  1.00  0.00    -0.205 F 
ATOM     69  C   UNL A   1      39.239  35.993  38.937  1.00  0.00     0.022 A 
BRANCH  67  70
ATOM     70  S   UNL A   1      38.108  34.211  40.674  1.00  0.00     0.127 S 
ATOM     71  O   UNL A   1      36.952  33.453  40.194  1.00  0.00    -0.237 OA
ATOM     72  O   UNL A   1      39.127  33.407  41.347  1.00  0.00    -0.237 OA
ATOM     73  O   UNL A   1      37.791  35.473  41.326  1.00  0.00    -0.744 OA
ENDBRANCH  67  70
ENDBRANCH  49  63
BRANCH  50  74
ATOM     74  C   UNL A   1      40.814  27.856  29.219  1.00  0.00     0.023 A 
ATOM     75  C   UNL A   1      39.969  26.730  29.172  1.00  0.00     0.012 A 
ATOM     76  C   UNL A   1      41.681  28.116  28.140  1.00  0.00     0.148 A 
ATOM     77  C   UNL A   1      39.988  25.879  28.068  1.00  0.00     0.002 A 
ATOM     78  C   UNL A   1      41.659  27.291  27.023  1.00  0.00     0.091 A 
ATOM     79  F   UNL A   1      42.477  29.191  28.215  1.00  0.00    -0.205 F 
ATOM     80  C   UNL A   1      40.821  26.166  26.989  1.00  0.00     0.022 A 
BRANCH  78  81
ATOM     81  S   UNL A   1      42.601  27.653  25.537  1.00  0.00     0.127 S 
ATOM     82  O   UNL A   1      43.963  27.736  26.062  1.00  0.00    -0.237 OA
ATOM     83  O   UNL A   1      42.329  26.472  24.717  1.00  0.00    -0.237 OA
ATOM     84  O   UNL A   1      42.052  28.894  25.011  1.00  0.00    -0.744 OA
ENDBRANCH  78  81
ENDBRANCH  50  74
BRANCH  62  85
ATOM     85  C   UNL A   1      44.109  28.623  35.341  1.00  0.00     0.023 A 
ATOM     86  C   UNL A   1      45.410  29.097  35.089  1.00  0.00     0.012 A 
ATOM     87  C   UNL A   1      43.908  27.599  36.285  1.00  0.00     0.148 A 
ATOM     88  C   UNL A   1      46.501  28.557  35.767  1.00  0.00     0.002 A 
ATOM     89  C   UNL A   1      44.995  27.086  36.981  1.00  0.00     0.091 A 
ATOM     90  F   UNL A   1      42.658  27.164  36.497  1.00  0.00    -0.205 F 
ATOM     91  C   UNL A   1      46.292  27.561  36.721  1.00  0.00     0.022 A 
BRANCH  89  92
ATOM     92  S   UNL A   1      44.823  25.858  38.280  1.00  0.00     0.127 S 
ATOM     93  O   UNL A   1      46.198  25.741  38.763  1.00  0.00    -0.237 OA
ATOM     94  O   UNL A   1      43.904  26.518  39.207  1.00  0.00    -0.237 OA
ATOM     95  O   UNL A   1      44.289  24.664  37.639  1.00  0.00    -0.744 OA
ENDBRANCH  89  92
ENDBRANCH  62  85
ENDBRANCH  36  37
ENDBRANCH  28  31
ENDBRANCH   1  27
TORSDOF 15
ENDMDL
MODEL 3
REMARK VINA RESULT:     -12.7      0.424      7.451
REMARK SMILES CC(C)(C)c1cc2c(cc1Cl)C=C(C(=O)NCCCNC(=O)c1ccc(-c3c4nc(c(-c5cccc(S(=O)(=O)[O-])c5F)c5ccc([nH]5)c(-c5cccc(S(=O)(=O)[O-])c5F)c5nc(c(-c6cccc(S(=O)(=O)[O-])c6F)c6ccc3[nH]6)C=C5)C=C4)cc1)[C@@H](C(F)(F)F)O2
REMARK SMILES IDX 19 1 18 2 17 3 16 4 14 5 15 6 13 8 5 9 6 10 10 11 7 12 9 13
REMARK SMILES IDX 11 14 8 15 91 16 12 17 86 18 2 19 1 20 3 21 4 22 87 23 88 24
REMARK SMILES IDX 89 25 90 26 20 27 21 28 22 30 23 31 24 32 85 33 25 34 84 35
REMARK SMILES IDX 26 36 27 37 28 38 78 39 29 40 83 41 77 42 79 43 30 44 82 45
REMARK SMILES IDX 76 46 75 47 31 49 63 50 43 51 62 52 44 53 47 54 61 55 80 56
REMARK SMILES IDX 45 57 46 58 60 60 81 61 48 62 32 63 33 64 41 65 34 66 36 67
REMARK SMILES IDX 42 68 35 69 37 70 38 71 39 72 40 73 64 74 65 75 73 76 66 77
REMARK SMILES IDX 68 78 74 79 67 80 69 81 70 82 71 83 72 84 49 85 50 86 58 87
REMARK SMILES IDX 51 88 53 89 59 90 52 91 54 92 55 93 56 94 57 95
REMARK H PARENT 16 7 20 29 79 48 47 59
REMARK Flexibility Score: inf
ROOT
ATOM      1  C   UNL A   1      37.280  21.921  25.432  1.00  0.00     0.118 C 
ENDROOT
BRANCH   1   2
ATOM      2  C   UNL A   1      36.292  21.327  24.435  1.00  0.00     0.042 C 
BRANCH   2   3
ATOM      3  C   UNL A   1      35.476  20.191  25.033  1.00  0.00     0.118 C 
BRANCH   3   4
ATOM      4  N   UNL A   1      34.170  20.064  24.404  1.00  0.00    -0.352 N 
ATOM      5  C   UNL A   1      33.043  20.805  24.298  1.00  0.00     0.251 C 
ATOM      6  O   UNL A   1      32.136  20.295  23.634  1.00  0.00    -0.270 OA
ATOM      7  H   UNL A   1      34.082  19.207  23.928  1.00  0.00     0.163 HD
BRANCH   5   8
ATOM      8  C   UNL A   1      32.841  22.150  24.907  1.00  0.00     0.067 C 
ATOM      9  C   UNL A   1      32.658  27.149  25.817  1.00  0.00    -0.020 A 
ATOM     10  C   UNL A   1      32.101  25.989  26.396  1.00  0.00     0.053 A 
ATOM     11  C   UNL A   1      33.411  26.949  24.633  1.00  0.00     0.045 A 
ATOM     12  C   UNL A   1      32.300  24.719  25.854  1.00  0.00     0.128 A 
ATOM     13  C   UNL A   1      33.588  25.665  24.081  1.00  0.00     0.032 A 
ATOM     14  Cl  UNL A   1      34.180  28.219  23.744  1.00  0.00    -0.084 Cl
ATOM     15  C   UNL A   1      33.037  24.543  24.694  1.00  0.00     0.019 A 
ATOM     16  O   UNL A   1      31.704  23.678  26.508  1.00  0.00    -0.475 OA
ATOM     17  C   UNL A   1      33.186  23.203  24.141  1.00  0.00     0.025 C 
ATOM     18  C   UNL A   1      32.321  22.378  26.300  1.00  0.00     0.314 C 
BRANCH   9  19
ATOM     19  C   UNL A   1      32.415  28.521  26.492  1.00  0.00    -0.012 C 
ATOM     20  C   UNL A   1      33.751  29.171  26.910  1.00  0.00     0.016 C 
ATOM     21  C   UNL A   1      31.472  28.381  27.707  1.00  0.00     0.016 C 
ATOM     22  C   UNL A   1      31.726  29.560  25.559  1.00  0.00     0.016 C 
ENDBRANCH   9  19
BRANCH  18  23
ATOM     23  C   UNL A   1      33.398  22.146  27.378  1.00  0.00     0.429 C 
ATOM     24  F   UNL A   1      32.969  22.594  28.583  1.00  0.00    -0.167 F 
ATOM     25  F   UNL A   1      33.702  20.836  27.539  1.00  0.00    -0.167 F 
ATOM     26  F   UNL A   1      34.560  22.781  27.102  1.00  0.00    -0.167 F 
ENDBRANCH  18  23
ENDBRANCH   5   8
ENDBRANCH   3   4
ENDBRANCH   2   3
ENDBRANCH   1   2
BRANCH   1  27
ATOM     27  N   UNL A   1      38.264  20.938  25.881  1.00  0.00    -0.352 N 
ATOM     28  C   UNL A   1      39.527  21.109  26.395  1.00  0.00     0.251 C 
ATOM     29  H   UNL A   1      37.975  20.000  25.801  1.00  0.00     0.163 HD
ATOM     30  O   UNL A   1      40.279  20.140  26.477  1.00  0.00    -0.269 OA
BRANCH  28  31
ATOM     31  C   UNL A   1      39.978  22.446  26.831  1.00  0.00     0.039 A 
ATOM     32  C   UNL A   1      39.445  23.593  26.243  1.00  0.00     0.014 A 
ATOM     33  C   UNL A   1      40.934  22.560  27.844  1.00  0.00     0.014 A 
ATOM     34  C   UNL A   1      40.005  24.831  26.521  1.00  0.00     0.010 A 
ATOM     35  C   UNL A   1      41.415  23.822  28.204  1.00  0.00     0.010 A 
ATOM     36  C   UNL A   1      40.992  24.964  27.510  1.00  0.00    -0.014 A 
BRANCH  36  37
ATOM     37  C   UNL A   1      41.536  26.315  27.801  1.00  0.00     0.031 A 
ATOM     38  C   UNL A   1      40.729  27.329  28.567  1.00  0.00     0.074 A 
ATOM     39  C   UNL A   1      42.797  26.602  27.420  1.00  0.00     0.049 A 
ATOM     40  N   UNL A   1      41.077  28.533  28.942  1.00  0.00    -0.248 NA
ATOM     41  C   UNL A   1      39.360  26.955  28.960  1.00  0.00     0.031 C 
ATOM     42  C   UNL A   1      43.667  25.707  26.653  1.00  0.00     0.029 A 
ATOM     43  N   UNL A   1      43.578  27.706  27.646  1.00  0.00    -0.354 N 
ATOM     44  C   UNL A   1      39.961  29.076  29.567  1.00  0.00     0.074 A 
ATOM     45  C   UNL A   1      38.922  28.073  29.526  1.00  0.00     0.031 C 
ATOM     46  C   UNL A   1      44.879  26.266  26.529  1.00  0.00     0.029 A 
ATOM     47  C   UNL A   1      44.855  27.585  27.150  1.00  0.00     0.049 A 
ATOM     48  H   UNL A   1      43.256  28.507  28.119  1.00  0.00     0.167 HD
ATOM     49  C   UNL A   1      39.824  30.294  30.141  1.00  0.00     0.034 A 
ATOM     50  C   UNL A   1      45.894  28.441  27.181  1.00  0.00     0.034 A 
ATOM     51  C   UNL A   1      40.881  31.263  30.242  1.00  0.00     0.049 A 
ATOM     52  C   UNL A   1      45.723  29.771  27.850  1.00  0.00     0.074 A 
ATOM     53  C   UNL A   1      40.847  32.505  30.854  1.00  0.00     0.029 A 
ATOM     54  N   UNL A   1      42.157  31.101  29.730  1.00  0.00    -0.354 N 
ATOM     55  N   UNL A   1      44.680  30.234  28.495  1.00  0.00    -0.248 NA
ATOM     56  C   UNL A   1      46.865  30.693  27.805  1.00  0.00     0.031 C 
ATOM     57  C   UNL A   1      42.106  33.095  30.708  1.00  0.00     0.029 A 
ATOM     58  C   UNL A   1      42.922  32.218  30.009  1.00  0.00     0.049 A 
ATOM     59  H   UNL A   1      42.473  30.308  29.239  1.00  0.00     0.167 HD
ATOM     60  C   UNL A   1      45.039  31.500  28.935  1.00  0.00     0.074 A 
ATOM     61  C   UNL A   1      46.405  31.723  28.507  1.00  0.00     0.031 C 
ATOM     62  C   UNL A   1      44.293  32.404  29.614  1.00  0.00     0.034 A 
BRANCH  49  63
ATOM     63  C   UNL A   1      38.500  30.643  30.760  1.00  0.00     0.023 A 
ATOM     64  C   UNL A   1      38.257  30.302  32.104  1.00  0.00     0.012 A 
ATOM     65  C   UNL A   1      37.546  31.397  30.050  1.00  0.00     0.148 A 
ATOM     66  C   UNL A   1      37.078  30.701  32.734  1.00  0.00     0.002 A 
ATOM     67  C   UNL A   1      36.386  31.816  30.693  1.00  0.00     0.091 A 
ATOM     68  F   UNL A   1      37.796  31.699  28.768  1.00  0.00    -0.205 F 
ATOM     69  C   UNL A   1      36.150  31.466  32.032  1.00  0.00     0.022 A 
BRANCH  67  70
ATOM     70  S   UNL A   1      35.150  32.850  29.898  1.00  0.00     0.127 S 
ATOM     71  O   UNL A   1      34.656  31.962  28.846  1.00  0.00    -0.237 OA
ATOM     72  O   UNL A   1      34.205  33.089  30.988  1.00  0.00    -0.237 OA
ATOM     73  O   UNL A   1      35.855  34.033  29.427  1.00  0.00    -0.744 OA
ENDBRANCH  67  70
ENDBRANCH  49  63
BRANCH  50  74
ATOM     74  C   UNL A   1      47.194  28.024  26.591  1.00  0.00     0.023 A 
ATOM     75  C   UNL A   1      48.198  27.506  27.431  1.00  0.00     0.012 A 
ATOM     76  C   UNL A   1      47.399  28.044  25.197  1.00  0.00     0.148 A 
ATOM     77  C   UNL A   1      49.386  27.014  26.891  1.00  0.00     0.002 A 
ATOM     78  C   UNL A   1      48.565  27.508  24.664  1.00  0.00     0.091 A 
ATOM     79  F   UNL A   1      46.430  28.548  24.423  1.00  0.00    -0.205 F 
ATOM     80  C   UNL A   1      49.564  27.003  25.510  1.00  0.00     0.022 A 
BRANCH  78  81
ATOM     81  S   UNL A   1      48.827  27.335  22.896  1.00  0.00     0.127 S 
ATOM     82  O   UNL A   1      50.282  27.429  22.800  1.00  0.00    -0.237 OA
ATOM     83  O   UNL A   1      48.277  26.002  22.643  1.00  0.00    -0.237 OA
ATOM     84  O   UNL A   1      48.083  28.422  22.276  1.00  0.00    -0.744 OA
ENDBRANCH  78  81
ENDBRANCH  50  74
BRANCH  62  85
ATOM     85  C   UNL A   1      44.923  33.726  29.946  1.00  0.00     0.023 A 
ATOM     86  C   UNL A   1      45.701  33.839  31.113  1.00  0.00     0.012 A 
ATOM     87  C   UNL A   1      44.856  34.803  29.042  1.00  0.00     0.148 A 
ATOM     88  C   UNL A   1      46.404  35.012  31.381  1.00  0.00     0.002 A 
ATOM     89  C   UNL A   1      45.584  35.957  29.298  1.00  0.00     0.091 A 
ATOM     90  F   UNL A   1      44.100  34.666  27.943  1.00  0.00    -0.205 F 
ATOM     91  C   UNL A   1      46.355  36.065  30.468  1.00  0.00     0.022 A 
BRANCH  89  92
ATOM     92  S   UNL A   1      45.647  37.337  28.151  1.00  0.00     0.127 S 
ATOM     93  O   UNL A   1      44.256  37.789  28.152  1.00  0.00    -0.237 OA
ATOM     94  O   UNL A   1      46.584  38.245  28.812  1.00  0.00    -0.237 OA
ATOM     95  O   UNL A   1      46.118  36.790  26.886  1.00  0.00    -0.744 OA
ENDBRANCH  89  92
ENDBRANCH  62  85
ENDBRANCH  36  37
ENDBRANCH  28  31
ENDBRANCH   1  27
TORSDOF 15
ENDMDL
