MODEL 1
REMARK VINA RESULT:     -12.9      0.000      0.000
REMARK SMILES Cc1ccc2cc(C[N@H+]3CC[NH2+][C@H](C(=O)NCCCNC(=O)c4ccc(-c5c6nc(c(-c7cccc(S(=O)(=O)[O-])c7F)c7ccc([nH]7)c(-c7cccc(S(=O)(=O)[O-])c7F)c7nc(c(-c8cccc(S(=O)(=O)[O-])c8F)c8ccc5[nH]8)C=C7)C=C6)cc4)C3)c(N3CCOCC3)nc2c1
REMARK SMILES IDX 18 1 17 2 16 3 14 4 15 5 13 7 9 8 10 9 86 10 11 12 12 13
REMARK SMILES IDX 8 16 7 17 1 18 2 19 3 20 96 21 4 22 95 23 5 24 94 25 6 26
REMARK SMILES IDX 87 27 88 28 89 29 93 30 90 31 92 32 91 33 19 34 20 35 21 36
REMARK SMILES IDX 22 38 23 39 24 40 85 41 25 42 84 43 26 44 27 45 28 46 78 47
REMARK SMILES IDX 29 48 83 49 77 50 79 51 30 52 82 53 76 54 75 55 31 57 63 58
REMARK SMILES IDX 43 59 62 60 44 61 47 62 61 63 80 64 45 65 46 66 60 68 81 69
REMARK SMILES IDX 48 70 32 71 33 72 41 73 34 74 36 75 42 76 35 77 37 78 38 79
REMARK SMILES IDX 39 80 40 81 64 82 65 83 73 84 66 85 68 86 74 87 67 88 69 89
REMARK SMILES IDX 70 90 71 91 72 92 49 93 50 94 58 95 51 96 53 97 59 98 52 99
REMARK SMILES IDX 54 100 55 101 56 102 57 103
REMARK H PARENT 16 6 9 11 12 14 12 15 20 37 79 56 47 67
REMARK Flexibility Score: inf
ROOT
ATOM      1  C   UNL A   1      31.759  27.929  26.855  1.00  0.00     0.042 C 
ENDROOT
BRANCH   1   2
ATOM      2  C   UNL A   1      32.004  26.467  26.530  1.00  0.00     0.118 C 
BRANCH   2   3
ATOM      3  N   UNL A   1      30.824  25.632  26.679  1.00  0.00    -0.351 N 
ATOM      4  C   UNL A   1      30.736  24.274  26.811  1.00  0.00     0.284 C 
ATOM      5  O   UNL A   1      29.624  23.791  27.036  1.00  0.00    -0.268 OA
ATOM      6  H   UNL A   1      29.964  26.113  26.687  1.00  0.00     0.163 HD
BRANCH   4   7
ATOM      7  C   UNL A   1      31.972  23.401  26.557  1.00  0.00     0.328 C 
ATOM      8  N   UNL A   1      32.721  21.255  25.386  1.00  0.00    -0.321 N 
ATOM      9  C   UNL A   1      33.661  21.086  26.508  1.00  0.00     0.324 C 
ATOM     10  C   UNL A   1      31.596  22.148  25.720  1.00  0.00     0.339 C 
ATOM     11  H   UNL A   1      32.304  20.334  25.251  1.00  0.00     0.348 HD
ATOM     12  C   UNL A   1      33.903  22.321  27.409  1.00  0.00     0.323 C 
ATOM     13  N   UNL A   1      32.643  22.974  27.814  1.00  0.00    -0.327 N 
ATOM     14  H   UNL A   1      32.839  23.783  28.402  1.00  0.00     0.347 HD
ATOM     15  H   UNL A   1      32.054  22.339  28.353  1.00  0.00     0.347 HD
BRANCH   8  16
ATOM     16  C   UNL A   1      33.344  21.501  24.073  1.00  0.00     0.303 C 
BRANCH  16  17
ATOM     17  C   UNL A   1      33.427  22.936  23.597  1.00  0.00     0.049 A 
ATOM     18  C   UNL A   1      31.758  29.143  22.761  1.00  0.00     0.044 C 
ATOM     19  C   UNL A   1      31.910  27.648  22.771  1.00  0.00    -0.049 A 
ATOM     20  C   UNL A   1      30.859  26.835  22.349  1.00  0.00     0.004 A 
ATOM     21  C   UNL A   1      33.117  27.049  23.186  1.00  0.00     0.032 A 
ATOM     22  C   UNL A   1      31.004  25.453  22.375  1.00  0.00     0.010 A 
ATOM     23  C   UNL A   1      33.285  25.665  23.246  1.00  0.00     0.073 A 
ATOM     24  C   UNL A   1      32.200  24.876  22.832  1.00  0.00     0.001 A 
ATOM     25  N   UNL A   1      34.430  25.114  23.720  1.00  0.00    -0.230 NA
ATOM     26  C   UNL A   1      32.310  23.495  22.966  1.00  0.00     0.023 A 
ATOM     27  C   UNL A   1      34.518  23.771  23.875  1.00  0.00     0.138 A 
BRANCH  27  28
ATOM     28  N   UNL A   1      35.691  23.228  24.365  1.00  0.00    -0.352 N 
ATOM     29  C   UNL A   1      36.545  22.472  23.437  1.00  0.00     0.146 C 
ATOM     30  C   UNL A   1      36.461  23.941  25.384  1.00  0.00     0.146 C 
ATOM     31  C   UNL A   1      37.346  21.452  24.264  1.00  0.00     0.181 C 
ATOM     32  C   UNL A   1      37.299  22.893  26.151  1.00  0.00     0.181 C 
ATOM     33  O   UNL A   1      38.134  22.106  25.276  1.00  0.00    -0.378 OA
ENDBRANCH  27  28
ENDBRANCH  16  17
ENDBRANCH   8  16
ENDBRANCH   4   7
ENDBRANCH   2   3
ENDBRANCH   1   2
BRANCH   1  34
ATOM     34  C   UNL A   1      32.698  28.893  26.151  1.00  0.00     0.118 C 
BRANCH  34  35
ATOM     35  N   UNL A   1      32.362  30.293  26.396  1.00  0.00    -0.352 N 
ATOM     36  C   UNL A   1      33.053  31.251  27.099  1.00  0.00     0.251 C 
ATOM     37  H   UNL A   1      31.514  30.595  25.997  1.00  0.00     0.163 HD
ATOM     38  O   UNL A   1      32.516  32.324  27.362  1.00  0.00    -0.269 OA
BRANCH  36  39
ATOM     39  C   UNL A   1      34.428  30.965  27.561  1.00  0.00     0.039 A 
ATOM     40  C   UNL A   1      34.837  29.646  27.752  1.00  0.00     0.014 A 
ATOM     41  C   UNL A   1      35.298  32.019  27.847  1.00  0.00     0.014 A 
ATOM     42  C   UNL A   1      36.020  29.390  28.430  1.00  0.00     0.010 A 
ATOM     43  C   UNL A   1      36.544  31.749  28.422  1.00  0.00     0.010 A 
ATOM     44  C   UNL A   1      36.889  30.437  28.781  1.00  0.00    -0.014 A 
BRANCH  44  45
ATOM     45  C   UNL A   1      38.133  30.113  29.529  1.00  0.00     0.031 A 
ATOM     46  C   UNL A   1      38.326  30.570  30.953  1.00  0.00     0.074 A 
ATOM     47  C   UNL A   1      39.063  29.330  28.944  1.00  0.00     0.049 A 
ATOM     48  N   UNL A   1      39.307  30.289  31.773  1.00  0.00    -0.248 NA
ATOM     49  C   UNL A   1      37.301  31.451  31.536  1.00  0.00     0.031 C 
ATOM     50  C   UNL A   1      39.003  28.843  27.563  1.00  0.00     0.029 A 
ATOM     51  N   UNL A   1      40.219  28.780  29.438  1.00  0.00    -0.354 N 
ATOM     52  C   UNL A   1      39.041  30.988  32.944  1.00  0.00     0.074 A 
ATOM     53  C   UNL A   1      37.811  31.715  32.732  1.00  0.00     0.031 C 
ATOM     54  C   UNL A   1      40.038  28.020  27.341  1.00  0.00     0.029 A 
ATOM     55  C   UNL A   1      40.868  27.967  28.538  1.00  0.00     0.049 A 
ATOM     56  H   UNL A   1      40.551  28.952  30.348  1.00  0.00     0.167 HD
ATOM     57  C   UNL A   1      39.746  31.005  34.099  1.00  0.00     0.034 A 
ATOM     58  C   UNL A   1      42.007  27.257  28.654  1.00  0.00     0.034 A 
ATOM     59  C   UNL A   1      40.938  30.238  34.331  1.00  0.00     0.049 A 
ATOM     60  C   UNL A   1      42.760  27.281  29.950  1.00  0.00     0.074 A 
ATOM     61  C   UNL A   1      41.682  30.150  35.495  1.00  0.00     0.029 A 
ATOM     62  N   UNL A   1      41.560  29.434  33.392  1.00  0.00    -0.354 N 
ATOM     63  N   UNL A   1      42.439  27.881  31.071  1.00  0.00    -0.248 NA
ATOM     64  C   UNL A   1      44.020  26.525  30.011  1.00  0.00     0.031 C 
ATOM     65  C   UNL A   1      42.766  29.304  35.254  1.00  0.00     0.029 A 
ATOM     66  C   UNL A   1      42.683  28.849  33.947  1.00  0.00     0.049 A 
ATOM     67  H   UNL A   1      41.249  29.298  32.468  1.00  0.00     0.167 HD
ATOM     68  C   UNL A   1      43.445  27.563  31.973  1.00  0.00     0.074 A 
ATOM     69  C   UNL A   1      44.382  26.707  31.275  1.00  0.00     0.031 C 
ATOM     70  C   UNL A   1      43.581  27.959  33.259  1.00  0.00     0.034 A 
BRANCH  57  71
ATOM     71  C   UNL A   1      39.230  31.839  35.239  1.00  0.00     0.023 A 
ATOM     72  C   UNL A   1      38.342  31.265  36.169  1.00  0.00     0.012 A 
ATOM     73  C   UNL A   1      39.722  33.141  35.458  1.00  0.00     0.148 A 
ATOM     74  C   UNL A   1      37.943  31.977  37.299  1.00  0.00     0.002 A 
ATOM     75  C   UNL A   1      39.344  33.834  36.602  1.00  0.00     0.091 A 
ATOM     76  F   UNL A   1      40.562  33.666  34.555  1.00  0.00    -0.205 F 
ATOM     77  C   UNL A   1      38.452  33.255  37.521  1.00  0.00     0.022 A 
BRANCH  75  78
ATOM     78  S   UNL A   1      39.981  35.462  37.012  1.00  0.00     0.127 S 
ATOM     79  O   UNL A   1      39.258  35.757  38.249  1.00  0.00    -0.237 OA
ATOM     80  O   UNL A   1      41.409  35.196  37.189  1.00  0.00    -0.237 OA
ATOM     81  O   UNL A   1      39.652  36.322  35.885  1.00  0.00    -0.744 OA
ENDBRANCH  75  78
ENDBRANCH  57  71
BRANCH  58  82
ATOM     82  C   UNL A   1      42.466  26.432  27.504  1.00  0.00     0.023 A 
ATOM     83  C   UNL A   1      43.328  26.997  26.546  1.00  0.00     0.012 A 
ATOM     84  C   UNL A   1      42.120  25.071  27.407  1.00  0.00     0.148 A 
ATOM     85  C   UNL A   1      43.837  26.218  25.507  1.00  0.00     0.002 A 
ATOM     86  C   UNL A   1      42.663  24.291  26.394  1.00  0.00     0.091 A 
ATOM     87  F   UNL A   1      41.299  24.559  28.336  1.00  0.00    -0.205 F 
ATOM     88  C   UNL A   1      43.515  24.865  25.438  1.00  0.00     0.022 A 
BRANCH  86  89
ATOM     89  S   UNL A   1      42.388  22.519  26.282  1.00  0.00     0.127 S 
ATOM     90  O   UNL A   1      43.028  22.200  25.007  1.00  0.00    -0.237 OA
ATOM     91  O   UNL A   1      43.095  22.034  27.466  1.00  0.00    -0.237 OA
ATOM     92  O   UNL A   1      40.943  22.338  26.318  1.00  0.00    -0.744 OA
ENDBRANCH  86  89
ENDBRANCH  58  82
BRANCH  70  93
ATOM     93  C   UNL A   1      44.766  27.470  34.043  1.00  0.00     0.023 A 
ATOM     94  C   UNL A   1      45.918  28.275  34.122  1.00  0.00     0.012 A 
ATOM     95  C   UNL A   1      44.660  26.317  34.843  1.00  0.00     0.148 A 
ATOM     96  C   UNL A   1      46.948  27.941  34.998  1.00  0.00     0.002 A 
ATOM     97  C   UNL A   1      45.675  26.010  35.740  1.00  0.00     0.091 A 
ATOM     98  F   UNL A   1      43.549  25.572  34.744  1.00  0.00    -0.205 F 
ATOM     99  C   UNL A   1      46.821  26.820  35.817  1.00  0.00     0.022 A 
BRANCH  97 100
ATOM    100  S   UNL A   1      45.569  24.637  36.892  1.00  0.00     0.127 S 
ATOM    101  O   UNL A   1      44.393  25.002  37.681  1.00  0.00    -0.237 OA
ATOM    102  O   UNL A   1      45.374  23.498  35.996  1.00  0.00    -0.237 OA
ATOM    103  O   UNL A   1      46.824  24.628  37.632  1.00  0.00    -0.744 OA
ENDBRANCH  97 100
ENDBRANCH  70  93
ENDBRANCH  44  45
ENDBRANCH  36  39
ENDBRANCH  34  35
ENDBRANCH   1  34
TORSDOF 16
ENDMDL
MODEL 2
REMARK VINA RESULT:     -12.8      1.837      3.617
REMARK SMILES Cc1ccc2cc(C[N@H+]3CC[NH2+][C@H](C(=O)NCCCNC(=O)c4ccc(-c5c6nc(c(-c7cccc(S(=O)(=O)[O-])c7F)c7ccc([nH]7)c(-c7cccc(S(=O)(=O)[O-])c7F)c7nc(c(-c8cccc(S(=O)(=O)[O-])c8F)c8ccc5[nH]8)C=C7)C=C6)cc4)C3)c(N3CCOCC3)nc2c1
REMARK SMILES IDX 18 1 17 2 16 3 14 4 15 5 13 7 9 8 10 9 86 10 11 12 12 13
REMARK SMILES IDX 8 16 7 17 1 18 2 19 3 20 96 21 4 22 95 23 5 24 94 25 6 26
REMARK SMILES IDX 87 27 88 28 89 29 93 30 90 31 92 32 91 33 19 34 20 35 21 36
REMARK SMILES IDX 22 38 23 39 24 40 85 41 25 42 84 43 26 44 27 45 28 46 78 47
REMARK SMILES IDX 29 48 83 49 77 50 79 51 30 52 82 53 76 54 75 55 31 57 63 58
REMARK SMILES IDX 43 59 62 60 44 61 47 62 61 63 80 64 45 65 46 66 60 68 81 69
REMARK SMILES IDX 48 70 32 71 33 72 41 73 34 74 36 75 42 76 35 77 37 78 38 79
REMARK SMILES IDX 39 80 40 81 64 82 65 83 73 84 66 85 68 86 74 87 67 88 69 89
REMARK SMILES IDX 70 90 71 91 72 92 49 93 50 94 58 95 51 96 53 97 59 98 52 99
REMARK SMILES IDX 54 100 55 101 56 102 57 103
REMARK H PARENT 16 6 9 11 12 14 12 15 20 37 79 56 47 67
REMARK Flexibility Score: inf
ROOT
ATOM      1  C   UNL A   1      31.462  30.500  26.402  1.00  0.00     0.042 C 
ENDROOT
BRANCH   1   2
ATOM      2  C   UNL A   1      31.500  29.251  25.539  1.00  0.00     0.118 C 
BRANCH   2   3
ATOM      3  N   UNL A   1      31.847  29.513  24.152  1.00  0.00    -0.351 N 
ATOM      4  C   UNL A   1      31.739  28.692  23.064  1.00  0.00     0.284 C 
ATOM      5  O   UNL A   1      31.996  29.172  21.957  1.00  0.00    -0.268 OA
ATOM      6  H   UNL A   1      32.212  30.410  23.970  1.00  0.00     0.163 HD
BRANCH   4   7
ATOM      7  C   UNL A   1      31.431  27.202  23.259  1.00  0.00     0.328 C 
ATOM      8  N   UNL A   1      31.554  24.943  22.068  1.00  0.00    -0.321 N 
ATOM      9  C   UNL A   1      30.312  24.606  22.787  1.00  0.00     0.324 C 
ATOM     10  C   UNL A   1      31.778  26.397  21.977  1.00  0.00     0.339 C 
ATOM     11  H   UNL A   1      31.396  24.633  21.109  1.00  0.00     0.348 HD
ATOM     12  C   UNL A   1      29.923  25.519  23.974  1.00  0.00     0.323 C 
ATOM     13  N   UNL A   1      30.014  26.951  23.633  1.00  0.00    -0.327 N 
ATOM     14  H   UNL A   1      29.754  27.522  24.437  1.00  0.00     0.347 HD
ATOM     15  H   UNL A   1      29.380  27.191  22.870  1.00  0.00     0.347 HD
BRANCH   8  16
ATOM     16  C   UNL A   1      32.738  24.152  22.450  1.00  0.00     0.303 C 
BRANCH  16  17
ATOM     17  C   UNL A   1      32.516  22.945  23.335  1.00  0.00     0.049 A 
ATOM     18  C   UNL A   1      33.129  16.901  25.595  1.00  0.00     0.044 C 
ATOM     19  C   UNL A   1      32.845  18.168  24.839  1.00  0.00    -0.049 A 
ATOM     20  C   UNL A   1      32.497  18.115  23.490  1.00  0.00     0.004 A 
ATOM     21  C   UNL A   1      32.906  19.421  25.483  1.00  0.00     0.032 A 
ATOM     22  C   UNL A   1      32.250  19.293  22.796  1.00  0.00     0.010 A 
ATOM     23  C   UNL A   1      32.687  20.622  24.808  1.00  0.00     0.073 A 
ATOM     24  C   UNL A   1      32.357  20.533  23.446  1.00  0.00     0.001 A 
ATOM     25  N   UNL A   1      32.826  21.817  25.432  1.00  0.00    -0.230 NA
ATOM     26  C   UNL A   1      32.222  21.718  22.729  1.00  0.00     0.023 A 
ATOM     27  C   UNL A   1      32.721  22.966  24.722  1.00  0.00     0.138 A 
BRANCH  27  28
ATOM     28  N   UNL A   1      32.871  24.176  25.375  1.00  0.00    -0.352 N 
ATOM     29  C   UNL A   1      32.050  24.424  26.569  1.00  0.00     0.146 C 
ATOM     30  C   UNL A   1      34.188  24.809  25.455  1.00  0.00     0.146 C 
ATOM     31  C   UNL A   1      31.867  25.945  26.702  1.00  0.00     0.181 C 
ATOM     32  C   UNL A   1      33.962  26.325  25.651  1.00  0.00     0.181 C 
ATOM     33  O   UNL A   1      33.137  26.617  26.798  1.00  0.00    -0.378 OA
ENDBRANCH  27  28
ENDBRANCH  16  17
ENDBRANCH   8  16
ENDBRANCH   4   7
ENDBRANCH   2   3
ENDBRANCH   1   2
BRANCH   1  34
ATOM     34  C   UNL A   1      32.826  30.981  26.866  1.00  0.00     0.118 C 
BRANCH  34  35
ATOM     35  N   UNL A   1      32.837  32.397  27.222  1.00  0.00    -0.352 N 
ATOM     36  C   UNL A   1      33.763  33.112  27.944  1.00  0.00     0.251 C 
ATOM     37  H   UNL A   1      32.066  32.915  26.897  1.00  0.00     0.163 HD
ATOM     38  O   UNL A   1      33.504  34.257  28.308  1.00  0.00    -0.269 OA
BRANCH  36  39
ATOM     39  C   UNL A   1      35.053  32.484  28.300  1.00  0.00     0.039 A 
ATOM     40  C   UNL A   1      35.085  31.157  28.726  1.00  0.00     0.014 A 
ATOM     41  C   UNL A   1      36.229  33.235  28.251  1.00  0.00     0.014 A 
ATOM     42  C   UNL A   1      36.241  30.655  29.308  1.00  0.00     0.010 A 
ATOM     43  C   UNL A   1      37.422  32.682  28.729  1.00  0.00     0.010 A 
ATOM     44  C   UNL A   1      37.424  31.411  29.324  1.00  0.00    -0.014 A 
BRANCH  44  45
ATOM     45  C   UNL A   1      38.629  30.838  29.982  1.00  0.00     0.031 A 
ATOM     46  C   UNL A   1      38.985  31.196  31.402  1.00  0.00     0.074 A 
ATOM     47  C   UNL A   1      39.365  29.924  29.316  1.00  0.00     0.049 A 
ATOM     48  N   UNL A   1      39.944  30.711  32.149  1.00  0.00    -0.248 NA
ATOM     49  C   UNL A   1      38.174  32.225  32.074  1.00  0.00     0.031 C 
ATOM     50  C   UNL A   1      39.138  29.510  27.928  1.00  0.00     0.029 A 
ATOM     51  N   UNL A   1      40.428  29.156  29.719  1.00  0.00    -0.354 N 
ATOM     52  C   UNL A   1      39.879  31.400  33.355  1.00  0.00     0.074 A 
ATOM     53  C   UNL A   1      38.791  32.345  33.243  1.00  0.00     0.031 C 
ATOM     54  C   UNL A   1      39.990  28.524  27.617  1.00  0.00     0.029 A 
ATOM     55  C   UNL A   1      40.864  28.274  28.757  1.00  0.00     0.049 A 
ATOM     56  H   UNL A   1      40.838  29.228  30.611  1.00  0.00     0.167 HD
ATOM     57  C   UNL A   1      40.640  31.243  34.462  1.00  0.00     0.034 A 
ATOM     58  C   UNL A   1      41.859  27.366  28.779  1.00  0.00     0.034 A 
ATOM     59  C   UNL A   1      41.683  30.266  34.595  1.00  0.00     0.049 A 
ATOM     60  C   UNL A   1      42.678  27.203  30.025  1.00  0.00     0.074 A 
ATOM     61  C   UNL A   1      42.465  29.999  35.706  1.00  0.00     0.029 A 
ATOM     62  N   UNL A   1      42.092  29.400  33.596  1.00  0.00    -0.354 N 
ATOM     63  N   UNL A   1      42.537  27.806  31.180  1.00  0.00    -0.248 NA
ATOM     64  C   UNL A   1      43.779  26.230  29.983  1.00  0.00     0.031 C 
ATOM     65  C   UNL A   1      43.360  28.980  35.372  1.00  0.00     0.029 A 
ATOM     66  C   UNL A   1      43.120  28.600  34.061  1.00  0.00     0.049 A 
ATOM     67  H   UNL A   1      41.709  29.359  32.690  1.00  0.00     0.167 HD
ATOM     68  C   UNL A   1      43.519  27.276  32.006  1.00  0.00     0.074 A 
ATOM     69  C   UNL A   1      44.241  26.294  31.226  1.00  0.00     0.031 C 
ATOM     70  C   UNL A   1      43.798  27.590  33.292  1.00  0.00     0.034 A 
BRANCH  57  71
ATOM     71  C   UNL A   1      40.352  32.112  35.656  1.00  0.00     0.023 A 
ATOM     72  C   UNL A   1      41.097  33.292  35.846  1.00  0.00     0.012 A 
ATOM     73  C   UNL A   1      39.269  31.827  36.509  1.00  0.00     0.148 A 
ATOM     74  C   UNL A   1      40.772  34.175  36.875  1.00  0.00     0.002 A 
ATOM     75  C   UNL A   1      38.932  32.726  37.515  1.00  0.00     0.091 A 
ATOM     76  F   UNL A   1      38.580  30.694  36.309  1.00  0.00    -0.205 F 
ATOM     77  C   UNL A   1      39.685  33.898  37.701  1.00  0.00     0.022 A 
BRANCH  75  78
ATOM     78  S   UNL A   1      37.519  32.493  38.598  1.00  0.00     0.127 S 
ATOM     79  O   UNL A   1      37.834  33.412  39.692  1.00  0.00    -0.237 OA
ATOM     80  O   UNL A   1      36.408  32.917  37.746  1.00  0.00    -0.237 OA
ATOM     81  O   UNL A   1      37.513  31.083  38.959  1.00  0.00    -0.744 OA
ENDBRANCH  75  78
ENDBRANCH  57  71
BRANCH  58  82
ATOM     82  C   UNL A   1      42.092  26.518  27.580  1.00  0.00     0.023 A 
ATOM     83  C   UNL A   1      42.799  27.047  26.483  1.00  0.00     0.012 A 
ATOM     84  C   UNL A   1      41.692  25.168  27.560  1.00  0.00     0.148 A 
ATOM     85  C   UNL A   1      43.101  26.243  25.384  1.00  0.00     0.002 A 
ATOM     86  C   UNL A   1      42.033  24.363  26.480  1.00  0.00     0.091 A 
ATOM     87  F   UNL A   1      41.023  24.691  28.619  1.00  0.00    -0.205 F 
ATOM     88  C   UNL A   1      42.729  24.902  25.387  1.00  0.00     0.022 A 
BRANCH  86  89
ATOM     89  S   UNL A   1      41.688  22.601  26.438  1.00  0.00     0.127 S 
ATOM     90  O   UNL A   1      40.229  22.586  26.355  1.00  0.00    -0.237 OA
ATOM     91  O   UNL A   1      42.380  22.192  25.217  1.00  0.00    -0.237 OA
ATOM     92  O   UNL A   1      42.249  22.057  27.668  1.00  0.00    -0.744 OA
ENDBRANCH  86  89
ENDBRANCH  58  82
BRANCH  70  93
ATOM     93  C   UNL A   1      44.918  26.865  33.984  1.00  0.00     0.023 A 
ATOM     94  C   UNL A   1      46.208  27.428  33.982  1.00  0.00     0.012 A 
ATOM     95  C   UNL A   1      44.646  25.739  34.785  1.00  0.00     0.148 A 
ATOM     96  C   UNL A   1      47.212  26.883  34.779  1.00  0.00     0.002 A 
ATOM     97  C   UNL A   1      45.642  25.224  35.603  1.00  0.00     0.091 A 
ATOM     98  F   UNL A   1      43.406  25.228  34.764  1.00  0.00    -0.205 F 
ATOM     99  C   UNL A   1      46.926  25.793  35.600  1.00  0.00     0.022 A 
BRANCH  97 100
ATOM    100  S   UNL A   1      45.351  23.875  36.753  1.00  0.00     0.127 S 
ATOM    101  O   UNL A   1      44.448  24.499  37.719  1.00  0.00    -0.237 OA
ATOM    102  O   UNL A   1      44.727  22.869  35.895  1.00  0.00    -0.237 OA
ATOM    103  O   UNL A   1      46.656  23.505  37.284  1.00  0.00    -0.744 OA
ENDBRANCH  97 100
ENDBRANCH  70  93
ENDBRANCH  44  45
ENDBRANCH  36  39
ENDBRANCH  34  35
ENDBRANCH   1  34
TORSDOF 16
ENDMDL
MODEL 3
REMARK VINA RESULT:     -12.7      4.472      9.752
REMARK SMILES Cc1ccc2cc(C[N@H+]3CC[NH2+][C@H](C(=O)NCCCNC(=O)c4ccc(-c5c6nc(c(-c7cccc(S(=O)(=O)[O-])c7F)c7ccc([nH]7)c(-c7cccc(S(=O)(=O)[O-])c7F)c7nc(c(-c8cccc(S(=O)(=O)[O-])c8F)c8ccc5[nH]8)C=C7)C=C6)cc4)C3)c(N3CCOCC3)nc2c1
REMARK SMILES IDX 18 1 17 2 16 3 14 4 15 5 13 7 9 8 10 9 86 10 11 12 12 13
REMARK SMILES IDX 8 16 7 17 1 18 2 19 3 20 96 21 4 22 95 23 5 24 94 25 6 26
REMARK SMILES IDX 87 27 88 28 89 29 93 30 90 31 92 32 91 33 19 34 20 35 21 36
REMARK SMILES IDX 22 38 23 39 24 40 85 41 25 42 84 43 26 44 27 45 28 46 78 47
REMARK SMILES IDX 29 48 83 49 77 50 79 51 30 52 82 53 76 54 75 55 31 57 63 58
REMARK SMILES IDX 43 59 62 60 44 61 47 62 61 63 80 64 45 65 46 66 60 68 81 69
REMARK SMILES IDX 48 70 32 71 33 72 41 73 34 74 36 75 42 76 35 77 37 78 38 79
REMARK SMILES IDX 39 80 40 81 64 82 65 83 73 84 66 85 68 86 74 87 67 88 69 89
REMARK SMILES IDX 70 90 71 91 72 92 49 93 50 94 58 95 51 96 53 97 59 98 52 99
REMARK SMILES IDX 54 100 55 101 56 102 57 103
REMARK H PARENT 16 6 9 11 12 14 12 15 20 37 79 56 47 67
REMARK Flexibility Score: inf
ROOT
ATOM      1  C   UNL A   1      35.789  22.890  23.742  1.00  0.00     0.042 C 
ENDROOT
BRANCH   1   2
ATOM      2  C   UNL A   1      34.703  23.943  23.613  1.00  0.00     0.118 C 
BRANCH   2   3
ATOM      3  N   UNL A   1      34.000  23.901  22.341  1.00  0.00    -0.351 N 
ATOM      4  C   UNL A   1      33.334  24.900  21.688  1.00  0.00     0.284 C 
ATOM      5  O   UNL A   1      32.903  24.657  20.558  1.00  0.00    -0.268 OA
ATOM      6  H   UNL A   1      34.005  23.028  21.885  1.00  0.00     0.163 HD
BRANCH   4   7
ATOM      7  C   UNL A   1      33.040  26.221  22.410  1.00  0.00     0.328 C 
ATOM      8  N   UNL A   1      31.174  27.916  22.837  1.00  0.00    -0.321 N 
ATOM      9  C   UNL A   1      32.232  28.941  22.811  1.00  0.00     0.324 C 
ATOM     10  C   UNL A   1      31.575  26.671  22.156  1.00  0.00     0.339 C 
ATOM     11  H   UNL A   1      30.419  28.302  22.270  1.00  0.00     0.348 HD
ATOM     12  C   UNL A   1      33.692  28.441  22.924  1.00  0.00     0.323 C 
ATOM     13  N   UNL A   1      33.969  27.313  22.015  1.00  0.00    -0.327 N 
ATOM     14  H   UNL A   1      34.937  27.007  22.118  1.00  0.00     0.347 HD
ATOM     15  H   UNL A   1      33.835  27.581  21.040  1.00  0.00     0.347 HD
BRANCH   8  16
ATOM     16  C   UNL A   1      30.509  27.727  24.138  1.00  0.00     0.303 C 
BRANCH  16  17
ATOM     17  C   UNL A   1      31.012  26.608  25.024  1.00  0.00     0.049 A 
ATOM     18  C   UNL A   1      33.533  20.874  26.689  1.00  0.00     0.044 C 
ATOM     19  C   UNL A   1      32.709  22.038  26.217  1.00  0.00    -0.049 A 
ATOM     20  C   UNL A   1      31.611  21.826  25.385  1.00  0.00     0.004 A 
ATOM     21  C   UNL A   1      33.020  23.352  26.622  1.00  0.00     0.032 A 
ATOM     22  C   UNL A   1      30.863  22.911  24.942  1.00  0.00     0.010 A 
ATOM     23  C   UNL A   1      32.304  24.464  26.175  1.00  0.00     0.073 A 
ATOM     24  C   UNL A   1      31.215  24.216  25.323  1.00  0.00     0.001 A 
ATOM     25  N   UNL A   1      32.670  25.722  26.519  1.00  0.00    -0.230 NA
ATOM     26  C   UNL A   1      30.540  25.311  24.793  1.00  0.00     0.023 A 
ATOM     27  C   UNL A   1      32.026  26.784  25.976  1.00  0.00     0.138 A 
BRANCH  27  28
ATOM     28  N   UNL A   1      32.417  28.061  26.336  1.00  0.00    -0.352 N 
ATOM     29  C   UNL A   1      31.502  28.857  27.167  1.00  0.00     0.146 C 
ATOM     30  C   UNL A   1      33.824  28.347  26.614  1.00  0.00     0.146 C 
ATOM     31  C   UNL A   1      31.778  30.341  26.876  1.00  0.00     0.181 C 
ATOM     32  C   UNL A   1      34.047  29.857  26.371  1.00  0.00     0.181 C 
ATOM     33  O   UNL A   1      33.151  30.679  27.147  1.00  0.00    -0.378 OA
ENDBRANCH  27  28
ENDBRANCH  16  17
ENDBRANCH   8  16
ENDBRANCH   4   7
ENDBRANCH   2   3
ENDBRANCH   1   2
BRANCH   1  34
ATOM     34  C   UNL A   1      36.224  22.611  25.171  1.00  0.00     0.118 C 
BRANCH  34  35
ATOM     35  N   UNL A   1      37.130  21.471  25.275  1.00  0.00    -0.352 N 
ATOM     36  C   UNL A   1      38.423  21.418  25.741  1.00  0.00     0.251 C 
ATOM     37  H   UNL A   1      36.759  20.613  24.968  1.00  0.00     0.163 HD
ATOM     38  O   UNL A   1      39.094  20.403  25.570  1.00  0.00    -0.269 OA
BRANCH  36  39
ATOM     39  C   UNL A   1      39.003  22.598  26.415  1.00  0.00     0.039 A 
ATOM     40  C   UNL A   1      38.503  23.871  26.142  1.00  0.00     0.014 A 
ATOM     41  C   UNL A   1      40.080  22.439  27.290  1.00  0.00     0.014 A 
ATOM     42  C   UNL A   1      39.212  24.988  26.564  1.00  0.00     0.010 A 
ATOM     43  C   UNL A   1      40.719  23.569  27.811  1.00  0.00     0.010 A 
ATOM     44  C   UNL A   1      40.333  24.854  27.399  1.00  0.00    -0.014 A 
BRANCH  44  45
ATOM     45  C   UNL A   1      41.073  26.080  27.803  1.00  0.00     0.031 A 
ATOM     46  C   UNL A   1      42.467  26.350  27.295  1.00  0.00     0.074 A 
ATOM     47  C   UNL A   1      40.450  26.996  28.572  1.00  0.00     0.049 A 
ATOM     48  N   UNL A   1      43.207  27.414  27.475  1.00  0.00    -0.248 NA
ATOM     49  C   UNL A   1      43.119  25.304  26.489  1.00  0.00     0.031 C 
ATOM     50  C   UNL A   1      39.110  26.841  29.146  1.00  0.00     0.029 A 
ATOM     51  N   UNL A   1      40.840  28.248  28.978  1.00  0.00    -0.354 N 
ATOM     52  C   UNL A   1      44.419  27.151  26.846  1.00  0.00     0.074 A 
ATOM     53  C   UNL A   1      44.323  25.823  26.284  1.00  0.00     0.031 C 
ATOM     54  C   UNL A   1      38.766  27.973  29.774  1.00  0.00     0.029 A 
ATOM     55  C   UNL A   1      39.878  28.913  29.704  1.00  0.00     0.049 A 
ATOM     56  H   UNL A   1      41.722  28.631  28.770  1.00  0.00     0.167 HD
ATOM     57  C   UNL A   1      45.503  27.951  26.728  1.00  0.00     0.034 A 
ATOM     58  C   UNL A   1      39.885  30.141  30.257  1.00  0.00     0.034 A 
ATOM     59  C   UNL A   1      45.579  29.291  27.237  1.00  0.00     0.049 A 
ATOM     60  C   UNL A   1      41.095  31.013  30.098  1.00  0.00     0.074 A 
ATOM     61  C   UNL A   1      46.620  30.194  27.109  1.00  0.00     0.029 A 
ATOM     62  N   UNL A   1      44.586  29.921  27.967  1.00  0.00    -0.354 N 
ATOM     63  N   UNL A   1      42.192  30.772  29.423  1.00  0.00    -0.248 NA
ATOM     64  C   UNL A   1      41.069  32.326  30.758  1.00  0.00     0.031 C 
ATOM     65  C   UNL A   1      46.263  31.367  27.777  1.00  0.00     0.029 A 
ATOM     66  C   UNL A   1      44.991  31.200  28.302  1.00  0.00     0.049 A 
ATOM     67  H   UNL A   1      43.721  29.519  28.211  1.00  0.00     0.167 HD
ATOM     68  C   UNL A   1      42.980  31.907  29.563  1.00  0.00     0.074 A 
ATOM     69  C   UNL A   1      42.231  32.842  30.376  1.00  0.00     0.031 C 
ATOM     70  C   UNL A   1      44.217  32.141  29.069  1.00  0.00     0.034 A 
BRANCH  57  71
ATOM     71  C   UNL A   1      46.696  27.431  25.974  1.00  0.00     0.023 A 
ATOM     72  C   UNL A   1      46.815  27.703  24.598  1.00  0.00     0.012 A 
ATOM     73  C   UNL A   1      47.752  26.790  26.651  1.00  0.00     0.148 A 
ATOM     74  C   UNL A   1      47.966  27.336  23.901  1.00  0.00     0.002 A 
ATOM     75  C   UNL A   1      48.909  26.454  25.958  1.00  0.00     0.091 A 
ATOM     76  F   UNL A   1      47.611  26.539  27.960  1.00  0.00    -0.205 F 
ATOM     77  C   UNL A   1      49.016  26.724  24.582  1.00  0.00     0.022 A 
BRANCH  75  78
ATOM     78  S   UNL A   1      50.340  25.713  26.749  1.00  0.00     0.127 S 
ATOM     79  O   UNL A   1      49.782  24.455  27.245  1.00  0.00    -0.237 OA
ATOM     80  O   UNL A   1      51.268  25.567  25.627  1.00  0.00    -0.237 OA
ATOM     81  O   UNL A   1      50.764  26.649  27.779  1.00  0.00    -0.744 OA
ENDBRANCH  75  78
ENDBRANCH  57  71
BRANCH  58  82
ATOM     82  C   UNL A   1      38.674  30.617  30.977  1.00  0.00     0.023 A 
ATOM     83  C   UNL A   1      38.583  30.445  32.371  1.00  0.00     0.012 A 
ATOM     84  C   UNL A   1      37.656  31.314  30.297  1.00  0.00     0.148 A 
ATOM     85  C   UNL A   1      37.495  30.959  33.077  1.00  0.00     0.002 A 
ATOM     86  C   UNL A   1      36.596  31.858  31.012  1.00  0.00     0.091 A 
ATOM     87  F   UNL A   1      37.770  31.465  28.970  1.00  0.00    -0.205 F 
ATOM     88  C   UNL A   1      36.510  31.674  32.401  1.00  0.00     0.022 A 
BRANCH  86  89
ATOM     89  S   UNL A   1      35.334  32.881  30.246  1.00  0.00     0.127 S 
ATOM     90  O   UNL A   1      34.400  33.078  31.352  1.00  0.00    -0.237 OA
ATOM     91  O   UNL A   1      36.103  34.067  29.867  1.00  0.00    -0.237 OA
ATOM     92  O   UNL A   1      34.821  32.105  29.125  1.00  0.00    -0.744 OA
ENDBRANCH  86  89
ENDBRANCH  58  82
BRANCH  70  93
ATOM     93  C   UNL A   1      44.869  33.465  29.353  1.00  0.00     0.023 A 
ATOM     94  C   UNL A   1      45.714  33.590  30.472  1.00  0.00     0.012 A 
ATOM     95  C   UNL A   1      44.790  34.511  28.414  1.00  0.00     0.148 A 
ATOM     96  C   UNL A   1      46.483  34.738  30.645  1.00  0.00     0.002 A 
ATOM     97  C   UNL A   1      45.585  35.637  28.575  1.00  0.00     0.091 A 
ATOM     98  F   UNL A   1      43.975  34.359  27.360  1.00  0.00    -0.205 F 
ATOM     99  C   UNL A   1      46.431  35.754  29.691  1.00  0.00     0.022 A 
BRANCH  97 100
ATOM    100  S   UNL A   1      45.650  36.960  27.362  1.00  0.00     0.127 S 
ATOM    101  O   UNL A   1      44.251  37.380  27.305  1.00  0.00    -0.237 OA
ATOM    102  O   UNL A   1      46.551  37.918  28.000  1.00  0.00    -0.237 OA
ATOM    103  O   UNL A   1      46.160  36.362  26.135  1.00  0.00    -0.744 OA
ENDBRANCH  97 100
ENDBRANCH  70  93
ENDBRANCH  44  45
ENDBRANCH  36  39
ENDBRANCH  34  35
ENDBRANCH   1  34
TORSDOF 16
ENDMDL
