MODEL 1
REMARK VINA RESULT:     -12.6      0.000      0.000
REMARK SMILES C[NH2+][C@@H](C)c1ccc(SCc2ccc(C(=O)NCCCNC(=O)c3ccc(-c4c5nc(c(-c6cccc(S(=O)(=O)[O-])c6F)c6ccc([nH]6)c(-c6cccc(S(=O)(=O)[O-])c6F)c6nc(c(-c7cccc(S(=O)(=O)[O-])c7F)c7ccc4[nH]7)C=C6)C=C5)cc3)cc2)cc1
REMARK SMILES IDX 18 1 17 2 15 3 16 4 14 6 11 7 12 8 88 9 13 10 87 11 10 12
REMARK SMILES IDX 9 13 8 14 5 15 6 16 90 17 7 18 89 19 3 20 4 21 2 22 1 23
REMARK SMILES IDX 19 26 20 27 21 28 22 29 23 31 24 32 25 33 86 34 26 35 85 36
REMARK SMILES IDX 27 37 28 38 29 39 79 40 30 41 84 42 78 43 80 44 31 45 83 46
REMARK SMILES IDX 77 47 76 48 32 50 64 51 44 52 63 53 45 54 48 55 62 56 81 57
REMARK SMILES IDX 46 58 47 59 61 61 82 62 49 63 33 64 34 65 42 66 35 67 37 68
REMARK SMILES IDX 43 69 36 70 38 71 39 72 40 73 41 74 65 75 66 76 74 77 67 78
REMARK SMILES IDX 69 79 75 80 68 81 70 82 71 83 72 84 73 85 50 86 51 87 59 88
REMARK SMILES IDX 52 89 54 90 60 91 53 92 55 93 56 94 57 95 58 96
REMARK H PARENT 17 5 2 24 2 25 21 30 80 49 48 60
REMARK Flexibility Score: inf
ROOT
ATOM      1  C   UNL A   1      31.187  29.669  24.935  1.00  0.00     0.118 C 
ENDROOT
BRANCH   1   2
ATOM      2  N   UNL A   1      30.479  29.916  23.686  1.00  0.00    -0.352 N 
ATOM      3  C   UNL A   1      30.066  29.032  22.718  1.00  0.00     0.251 C 
ATOM      4  O   UNL A   1      29.311  29.415  21.829  1.00  0.00    -0.269 OA
ATOM      5  H   UNL A   1      30.263  30.859  23.509  1.00  0.00     0.163 HD
BRANCH   3   6
ATOM      6  C   UNL A   1      30.473  27.607  22.766  1.00  0.00     0.039 A 
ATOM      7  C   UNL A   1      31.295  24.929  23.022  1.00  0.00    -0.038 A 
ATOM      8  C   UNL A   1      30.229  25.424  23.790  1.00  0.00     0.005 A 
ATOM      9  C   UNL A   1      31.876  25.770  22.063  1.00  0.00     0.005 A 
ATOM     10  C   UNL A   1      29.816  26.753  23.658  1.00  0.00     0.014 A 
ATOM     11  C   UNL A   1      31.464  27.095  21.929  1.00  0.00     0.014 A 
BRANCH   7  12
ATOM     12  C   UNL A   1      31.808  23.522  23.211  1.00  0.00     0.110 C 
BRANCH  12  13
ATOM     13  S   UNL A   1      32.466  23.177  24.886  1.00  0.00    -0.121 SA
BRANCH  13  14
ATOM     14  C   UNL A   1      33.010  21.474  24.813  1.00  0.00     0.008 A 
ATOM     15  C   UNL A   1      34.029  18.823  24.598  1.00  0.00     0.009 A 
ATOM     16  C   UNL A   1      34.888  19.921  24.771  1.00  0.00     0.011 A 
ATOM     17  C   UNL A   1      32.651  19.073  24.610  1.00  0.00     0.011 A 
ATOM     18  C   UNL A   1      34.385  21.226  24.874  1.00  0.00     0.015 A 
ATOM     19  C   UNL A   1      32.151  20.378  24.734  1.00  0.00     0.015 A 
BRANCH  15  20
ATOM     20  C   UNL A   1      34.636  17.433  24.400  1.00  0.00     0.210 C 
ATOM     21  C   UNL A   1      34.172  16.726  23.117  1.00  0.00     0.081 C 
BRANCH  20  22
ATOM     22  N   UNL A   1      34.394  16.621  25.604  1.00  0.00    -0.343 N 
ATOM     23  C   UNL A   1      33.183  15.816  25.530  1.00  0.00     0.331 C 
ATOM     24  H   UNL A   1      35.189  15.995  25.736  1.00  0.00     0.346 HD
ATOM     25  H   UNL A   1      34.276  17.267  26.384  1.00  0.00     0.346 HD
ENDBRANCH  20  22
ENDBRANCH  15  20
ENDBRANCH  13  14
ENDBRANCH  12  13
ENDBRANCH   7  12
ENDBRANCH   3   6
ENDBRANCH   1   2
BRANCH   1  26
ATOM     26  C   UNL A   1      32.676  29.412  24.714  1.00  0.00     0.042 C 
BRANCH  26  27
ATOM     27  C   UNL A   1      33.543  29.686  25.939  1.00  0.00     0.118 C 
BRANCH  27  28
ATOM     28  N   UNL A   1      33.323  31.016  26.482  1.00  0.00    -0.352 N 
ATOM     29  C   UNL A   1      33.980  31.686  27.483  1.00  0.00     0.251 C 
ATOM     30  H   UNL A   1      32.584  31.516  26.065  1.00  0.00     0.163 HD
ATOM     31  O   UNL A   1      33.493  32.732  27.909  1.00  0.00    -0.269 OA
BRANCH  29  32
ATOM     32  C   UNL A   1      35.250  31.177  28.058  1.00  0.00     0.039 A 
ATOM     33  C   UNL A   1      35.260  29.890  28.608  1.00  0.00     0.014 A 
ATOM     34  C   UNL A   1      36.400  31.968  28.138  1.00  0.00     0.014 A 
ATOM     35  C   UNL A   1      36.414  29.398  29.224  1.00  0.00     0.010 A 
ATOM     36  C   UNL A   1      37.574  31.447  28.683  1.00  0.00     0.010 A 
ATOM     37  C   UNL A   1      37.585  30.170  29.263  1.00  0.00    -0.014 A 
BRANCH  37  38
ATOM     38  C   UNL A   1      38.804  29.677  29.955  1.00  0.00     0.031 A 
ATOM     39  C   UNL A   1      39.169  30.211  31.318  1.00  0.00     0.074 A 
ATOM     40  C   UNL A   1      39.612  28.787  29.344  1.00  0.00     0.049 A 
ATOM     41  N   UNL A   1      40.195  29.914  32.073  1.00  0.00    -0.248 NA
ATOM     42  C   UNL A   1      38.279  31.232  31.896  1.00  0.00     0.031 C 
ATOM     43  C   UNL A   1      39.412  28.252  27.996  1.00  0.00     0.029 A 
ATOM     44  N   UNL A   1      40.772  28.191  29.770  1.00  0.00    -0.354 N 
ATOM     45  C   UNL A   1      40.097  30.735  33.192  1.00  0.00     0.074 A 
ATOM     46  C   UNL A   1      38.930  31.569  33.001  1.00  0.00     0.031 C 
ATOM     47  C   UNL A   1      40.413  27.403  27.709  1.00  0.00     0.029 A 
ATOM     48  C   UNL A   1      41.331  27.345  28.842  1.00  0.00     0.049 A 
ATOM     49  H   UNL A   1      41.167  28.353  30.657  1.00  0.00     0.167 HD
ATOM     50  C   UNL A   1      40.883  30.772  34.294  1.00  0.00     0.034 A 
ATOM     51  C   UNL A   1      42.454  26.601  28.899  1.00  0.00     0.034 A 
ATOM     52  C   UNL A   1      42.007  29.902  34.508  1.00  0.00     0.049 A 
ATOM     53  C   UNL A   1      43.264  26.599  30.169  1.00  0.00     0.074 A 
ATOM     54  C   UNL A   1      42.821  29.804  35.623  1.00  0.00     0.029 A 
ATOM     55  N   UNL A   1      42.473  28.975  33.590  1.00  0.00    -0.354 N 
ATOM     56  N   UNL A   1      43.064  27.271  31.276  1.00  0.00    -0.248 NA
ATOM     57  C   UNL A   1      44.425  25.699  30.216  1.00  0.00     0.031 C 
ATOM     58  C   UNL A   1      43.786  28.821  35.374  1.00  0.00     0.029 A 
ATOM     59  C   UNL A   1      43.558  28.294  34.113  1.00  0.00     0.049 A 
ATOM     60  H   UNL A   1      42.089  28.823  32.696  1.00  0.00     0.167 HD
ATOM     61  C   UNL A   1      44.042  26.841  32.166  1.00  0.00     0.074 A 
ATOM     62  C   UNL A   1      44.823  25.837  31.472  1.00  0.00     0.031 C 
ATOM     63  C   UNL A   1      44.281  27.249  33.437  1.00  0.00     0.034 A 
BRANCH  50  64
ATOM     64  C   UNL A   1      40.515  31.745  35.386  1.00  0.00     0.023 A 
ATOM     65  C   UNL A   1      41.270  32.926  35.546  1.00  0.00     0.012 A 
ATOM     66  C   UNL A   1      39.398  31.523  36.214  1.00  0.00     0.148 A 
ATOM     67  C   UNL A   1      40.941  33.852  36.535  1.00  0.00     0.002 A 
ATOM     68  C   UNL A   1      39.049  32.474  37.168  1.00  0.00     0.091 A 
ATOM     69  F   UNL A   1      38.704  30.386  36.063  1.00  0.00    -0.205 F 
ATOM     70  C   UNL A   1      39.826  33.632  37.338  1.00  0.00     0.022 A 
BRANCH  68  71
ATOM     71  S   UNL A   1      37.584  32.321  38.198  1.00  0.00     0.127 S 
ATOM     72  O   UNL A   1      36.601  33.083  37.428  1.00  0.00    -0.237 OA
ATOM     73  O   UNL A   1      37.363  30.875  38.206  1.00  0.00    -0.237 OA
ATOM     74  O   UNL A   1      37.942  32.887  39.491  1.00  0.00    -0.744 OA
ENDBRANCH  68  71
ENDBRANCH  50  64
BRANCH  51  75
ATOM     75  C   UNL A   1      42.825  25.722  27.754  1.00  0.00     0.023 A 
ATOM     76  C   UNL A   1      43.757  26.183  26.803  1.00  0.00     0.012 A 
ATOM     77  C   UNL A   1      42.286  24.430  27.615  1.00  0.00     0.148 A 
ATOM     78  C   UNL A   1      44.116  25.388  25.715  1.00  0.00     0.002 A 
ATOM     79  C   UNL A   1      42.689  23.621  26.558  1.00  0.00     0.091 A 
ATOM     80  F   UNL A   1      41.392  24.012  28.523  1.00  0.00    -0.205 F 
ATOM     81  C   UNL A   1      43.590  24.105  25.597  1.00  0.00     0.022 A 
BRANCH  79  82
ATOM     82  S   UNL A   1      42.167  21.908  26.405  1.00  0.00     0.127 S 
ATOM     83  O   UNL A   1      42.481  21.381  27.729  1.00  0.00    -0.237 OA
ATOM     84  O   UNL A   1      40.740  22.051  26.118  1.00  0.00    -0.237 OA
ATOM     85  O   UNL A   1      42.945  21.361  25.300  1.00  0.00    -0.744 OA
ENDBRANCH  79  82
ENDBRANCH  51  75
BRANCH  63  86
ATOM     86  C   UNL A   1      45.398  26.573  34.189  1.00  0.00     0.023 A 
ATOM     87  C   UNL A   1      46.708  27.087  34.117  1.00  0.00     0.012 A 
ATOM     88  C   UNL A   1      45.135  25.465  35.017  1.00  0.00     0.148 A 
ATOM     89  C   UNL A   1      47.744  26.485  34.829  1.00  0.00     0.002 A 
ATOM     90  C   UNL A   1      46.163  24.900  35.762  1.00  0.00     0.091 A 
ATOM     91  F   UNL A   1      43.887  24.975  35.056  1.00  0.00    -0.205 F 
ATOM     92  C   UNL A   1      47.471  25.401  35.659  1.00  0.00     0.022 A 
BRANCH  90  93
ATOM     93  S   UNL A   1      45.872  23.564  36.927  1.00  0.00     0.127 S 
ATOM     94  O   UNL A   1      47.221  23.302  37.424  1.00  0.00    -0.237 OA
ATOM     95  O   UNL A   1      44.973  24.186  37.901  1.00  0.00    -0.237 OA
ATOM     96  O   UNL A   1      45.265  22.490  36.152  1.00  0.00    -0.744 OA
ENDBRANCH  90  93
ENDBRANCH  63  86
ENDBRANCH  37  38
ENDBRANCH  29  32
ENDBRANCH  27  28
ENDBRANCH  26  27
ENDBRANCH   1  26
TORSDOF 18
ENDMDL
MODEL 2
REMARK VINA RESULT:     -12.4      1.673      2.194
REMARK SMILES C[NH2+][C@@H](C)c1ccc(SCc2ccc(C(=O)NCCCNC(=O)c3ccc(-c4c5nc(c(-c6cccc(S(=O)(=O)[O-])c6F)c6ccc([nH]6)c(-c6cccc(S(=O)(=O)[O-])c6F)c6nc(c(-c7cccc(S(=O)(=O)[O-])c7F)c7ccc4[nH]7)C=C6)C=C5)cc3)cc2)cc1
REMARK SMILES IDX 18 1 17 2 15 3 16 4 14 6 11 7 12 8 88 9 13 10 87 11 10 12
REMARK SMILES IDX 9 13 8 14 5 15 6 16 90 17 7 18 89 19 3 20 4 21 2 22 1 23
REMARK SMILES IDX 19 26 20 27 21 28 22 29 23 31 24 32 25 33 86 34 26 35 85 36
REMARK SMILES IDX 27 37 28 38 29 39 79 40 30 41 84 42 78 43 80 44 31 45 83 46
REMARK SMILES IDX 77 47 76 48 32 50 64 51 44 52 63 53 45 54 48 55 62 56 81 57
REMARK SMILES IDX 46 58 47 59 61 61 82 62 49 63 33 64 34 65 42 66 35 67 37 68
REMARK SMILES IDX 43 69 36 70 38 71 39 72 40 73 41 74 65 75 66 76 74 77 67 78
REMARK SMILES IDX 69 79 75 80 68 81 70 82 71 83 72 84 73 85 50 86 51 87 59 88
REMARK SMILES IDX 52 89 54 90 60 91 53 92 55 93 56 94 57 95 58 96
REMARK H PARENT 17 5 2 24 2 25 21 30 80 49 48 60
REMARK Flexibility Score: inf
ROOT
ATOM      1  C   UNL A   1      32.778  29.071  22.792  1.00  0.00     0.118 C 
ENDROOT
BRANCH   1   2
ATOM      2  N   UNL A   1      33.378  28.014  21.991  1.00  0.00    -0.352 N 
ATOM      3  C   UNL A   1      33.234  26.650  22.083  1.00  0.00     0.251 C 
ATOM      4  O   UNL A   1      33.674  25.932  21.188  1.00  0.00    -0.269 OA
ATOM      5  H   UNL A   1      33.977  28.323  21.274  1.00  0.00     0.163 HD
BRANCH   3   6
ATOM      6  C   UNL A   1      32.505  26.037  23.218  1.00  0.00     0.039 A 
ATOM      7  C   UNL A   1      31.002  25.003  25.359  1.00  0.00    -0.038 A 
ATOM      8  C   UNL A   1      30.461  25.048  24.065  1.00  0.00     0.005 A 
ATOM      9  C   UNL A   1      32.335  25.396  25.541  1.00  0.00     0.005 A 
ATOM     10  C   UNL A   1      31.210  25.556  22.999  1.00  0.00     0.014 A 
ATOM     11  C   UNL A   1      33.083  25.901  24.479  1.00  0.00     0.014 A 
BRANCH   7  12
ATOM     12  C   UNL A   1      30.180  24.535  26.536  1.00  0.00     0.110 C 
BRANCH  12  13
ATOM     13  S   UNL A   1      30.208  22.722  26.803  1.00  0.00    -0.121 SA
BRANCH  13  14
ATOM     14  C   UNL A   1      31.899  22.245  26.463  1.00  0.00     0.008 A 
ATOM     15  C   UNL A   1      34.646  21.640  26.019  1.00  0.00     0.009 A 
ATOM     16  C   UNL A   1      34.210  22.199  27.231  1.00  0.00     0.011 A 
ATOM     17  C   UNL A   1      33.669  21.323  25.066  1.00  0.00     0.011 A 
ATOM     18  C   UNL A   1      32.857  22.498  27.448  1.00  0.00     0.015 A 
ATOM     19  C   UNL A   1      32.314  21.606  25.295  1.00  0.00     0.015 A 
BRANCH  15  20
ATOM     20  C   UNL A   1      36.144  21.418  25.801  1.00  0.00     0.210 C 
ATOM     21  C   UNL A   1      36.855  22.589  25.105  1.00  0.00     0.081 C 
BRANCH  20  22
ATOM     22  N   UNL A   1      36.348  20.141  25.097  1.00  0.00    -0.343 N 
ATOM     23  C   UNL A   1      37.749  19.829  24.854  1.00  0.00     0.331 C 
ATOM     24  H   UNL A   1      35.945  19.393  25.663  1.00  0.00     0.346 HD
ATOM     25  H   UNL A   1      35.897  20.224  24.187  1.00  0.00     0.346 HD
ENDBRANCH  20  22
ENDBRANCH  15  20
ENDBRANCH  13  14
ENDBRANCH  12  13
ENDBRANCH   7  12
ENDBRANCH   3   6
ENDBRANCH   1   2
BRANCH   1  26
ATOM     26  C   UNL A   1      33.622  29.419  24.017  1.00  0.00     0.042 C 
BRANCH  26  27
ATOM     27  C   UNL A   1      32.866  29.330  25.339  1.00  0.00     0.118 C 
BRANCH  27  28
ATOM     28  N   UNL A   1      32.501  30.640  25.852  1.00  0.00    -0.352 N 
ATOM     29  C   UNL A   1      33.054  31.382  26.865  1.00  0.00     0.251 C 
ATOM     30  H   UNL A   1      31.733  31.062  25.402  1.00  0.00     0.163 HD
ATOM     31  O   UNL A   1      32.454  32.381  27.257  1.00  0.00    -0.269 OA
BRANCH  29  32
ATOM     32  C   UNL A   1      34.346  31.005  27.491  1.00  0.00     0.039 A 
ATOM     33  C   UNL A   1      34.520  29.678  27.903  1.00  0.00     0.014 A 
ATOM     34  C   UNL A   1      35.348  31.942  27.754  1.00  0.00     0.014 A 
ATOM     35  C   UNL A   1      35.692  29.294  28.561  1.00  0.00     0.010 A 
ATOM     36  C   UNL A   1      36.548  31.542  28.341  1.00  0.00     0.010 A 
ATOM     37  C   UNL A   1      36.720  30.223  28.783  1.00  0.00    -0.014 A 
BRANCH  37  38
ATOM     38  C   UNL A   1      37.951  29.839  29.523  1.00  0.00     0.031 A 
ATOM     39  C   UNL A   1      38.199  30.378  30.910  1.00  0.00     0.074 A 
ATOM     40  C   UNL A   1      38.870  29.047  28.936  1.00  0.00     0.049 A 
ATOM     41  N   UNL A   1      39.215  30.170  31.707  1.00  0.00    -0.248 NA
ATOM     42  C   UNL A   1      37.186  31.294  31.463  1.00  0.00     0.031 C 
ATOM     43  C   UNL A   1      38.786  28.523  27.572  1.00  0.00     0.029 A 
ATOM     44  N   UNL A   1      40.064  28.561  29.406  1.00  0.00    -0.354 N 
ATOM     45  C   UNL A   1      38.984  30.954  32.833  1.00  0.00     0.074 A 
ATOM     46  C   UNL A   1      37.750  31.670  32.601  1.00  0.00     0.031 C 
ATOM     47  C   UNL A   1      39.879  27.785  27.317  1.00  0.00     0.029 A 
ATOM     48  C   UNL A   1      40.747  27.794  28.491  1.00  0.00     0.049 A 
ATOM     49  H   UNL A   1      40.401  28.743  30.312  1.00  0.00     0.167 HD
ATOM     50  C   UNL A   1      39.713  31.045  33.972  1.00  0.00     0.034 A 
ATOM     51  C   UNL A   1      41.935  27.165  28.588  1.00  0.00     0.034 A 
ATOM     52  C   UNL A   1      40.908  30.287  34.224  1.00  0.00     0.049 A 
ATOM     53  C   UNL A   1      42.683  27.218  29.894  1.00  0.00     0.074 A 
ATOM     54  C   UNL A   1      41.677  30.247  35.373  1.00  0.00     0.029 A 
ATOM     55  N   UNL A   1      41.506  29.431  33.313  1.00  0.00    -0.354 N 
ATOM     56  N   UNL A   1      42.368  27.843  31.002  1.00  0.00    -0.248 NA
ATOM     57  C   UNL A   1      43.926  26.437  29.980  1.00  0.00     0.031 C 
ATOM     58  C   UNL A   1      42.746  29.372  35.153  1.00  0.00     0.029 A 
ATOM     59  C   UNL A   1      42.629  28.850  33.875  1.00  0.00     0.049 A 
ATOM     60  H   UNL A   1      41.179  29.260  32.399  1.00  0.00     0.167 HD
ATOM     61  C   UNL A   1      43.344  27.494  31.929  1.00  0.00     0.074 A 
ATOM     62  C   UNL A   1      44.252  26.588  31.256  1.00  0.00     0.031 C 
ATOM     63  C   UNL A   1      43.483  27.897  33.216  1.00  0.00     0.034 A 
BRANCH  50  64
ATOM     64  C   UNL A   1      39.201  31.953  35.061  1.00  0.00     0.023 A 
ATOM     65  C   UNL A   1      39.308  33.352  34.905  1.00  0.00     0.012 A 
ATOM     66  C   UNL A   1      38.567  31.434  36.206  1.00  0.00     0.148 A 
ATOM     67  C   UNL A   1      38.826  34.215  35.888  1.00  0.00     0.002 A 
ATOM     68  C   UNL A   1      38.048  32.303  37.159  1.00  0.00     0.091 A 
ATOM     69  F   UNL A   1      38.492  30.102  36.348  1.00  0.00    -0.205 F 
ATOM     70  C   UNL A   1      38.187  33.693  37.009  1.00  0.00     0.022 A 
BRANCH  68  71
ATOM     71  S   UNL A   1      37.137  31.731  38.599  1.00  0.00     0.127 S 
ATOM     72  O   UNL A   1      38.090  31.994  39.676  1.00  0.00    -0.237 OA
ATOM     73  O   UNL A   1      35.967  32.609  38.592  1.00  0.00    -0.237 OA
ATOM     74  O   UNL A   1      36.841  30.326  38.354  1.00  0.00    -0.744 OA
ENDBRANCH  68  71
ENDBRANCH  50  64
BRANCH  51  75
ATOM     75  C   UNL A   1      42.444  26.352  27.447  1.00  0.00     0.023 A 
ATOM     76  C   UNL A   1      43.328  26.938  26.521  1.00  0.00     0.012 A 
ATOM     77  C   UNL A   1      42.081  25.001  27.289  1.00  0.00     0.148 A 
ATOM     78  C   UNL A   1      43.811  26.206  25.437  1.00  0.00     0.002 A 
ATOM     79  C   UNL A   1      42.611  24.260  26.238  1.00  0.00     0.091 A 
ATOM     80  F   UNL A   1      41.230  24.463  28.175  1.00  0.00    -0.205 F 
ATOM     81  C   UNL A   1      43.462  24.866  25.300  1.00  0.00     0.022 A 
BRANCH  79  82
ATOM     82  S   UNL A   1      42.322  22.496  26.065  1.00  0.00     0.127 S 
ATOM     83  O   UNL A   1      42.983  22.207  24.796  1.00  0.00    -0.237 OA
ATOM     84  O   UNL A   1      42.993  21.960  27.248  1.00  0.00    -0.237 OA
ATOM     85  O   UNL A   1      40.872  22.336  26.078  1.00  0.00    -0.744 OA
ENDBRANCH  79  82
ENDBRANCH  51  75
BRANCH  63  86
ATOM     86  C   UNL A   1      44.627  27.321  34.008  1.00  0.00     0.023 A 
ATOM     87  C   UNL A   1      45.880  27.965  34.008  1.00  0.00     0.012 A 
ATOM     88  C   UNL A   1      44.440  26.174  34.804  1.00  0.00     0.148 A 
ATOM     89  C   UNL A   1      46.939  27.455  34.757  1.00  0.00     0.002 A 
ATOM     90  C   UNL A   1      45.487  25.698  35.586  1.00  0.00     0.091 A 
ATOM     91  F   UNL A   1      43.248  25.559  34.774  1.00  0.00    -0.205 F 
ATOM     92  C   UNL A   1      46.740  26.330  35.554  1.00  0.00     0.022 A 
BRANCH  90  93
ATOM     93  S   UNL A   1      45.280  24.314  36.712  1.00  0.00     0.127 S 
ATOM     94  O   UNL A   1      44.402  24.886  37.731  1.00  0.00    -0.237 OA
ATOM     95  O   UNL A   1      44.650  23.306  35.859  1.00  0.00    -0.237 OA
ATOM     96  O   UNL A   1      46.623  23.966  37.159  1.00  0.00    -0.744 OA
ENDBRANCH  90  93
ENDBRANCH  63  86
ENDBRANCH  37  38
ENDBRANCH  29  32
ENDBRANCH  27  28
ENDBRANCH  26  27
ENDBRANCH   1  26
TORSDOF 18
ENDMDL
MODEL 3
REMARK VINA RESULT:     -12.3      3.609      9.174
REMARK SMILES C[NH2+][C@@H](C)c1ccc(SCc2ccc(C(=O)NCCCNC(=O)c3ccc(-c4c5nc(c(-c6cccc(S(=O)(=O)[O-])c6F)c6ccc([nH]6)c(-c6cccc(S(=O)(=O)[O-])c6F)c6nc(c(-c7cccc(S(=O)(=O)[O-])c7F)c7ccc4[nH]7)C=C6)C=C5)cc3)cc2)cc1
REMARK SMILES IDX 18 1 17 2 15 3 16 4 14 6 11 7 12 8 88 9 13 10 87 11 10 12
REMARK SMILES IDX 9 13 8 14 5 15 6 16 90 17 7 18 89 19 3 20 4 21 2 22 1 23
REMARK SMILES IDX 19 26 20 27 21 28 22 29 23 31 24 32 25 33 86 34 26 35 85 36
REMARK SMILES IDX 27 37 28 38 29 39 79 40 30 41 84 42 78 43 80 44 31 45 83 46
REMARK SMILES IDX 77 47 76 48 32 50 64 51 44 52 63 53 45 54 48 55 62 56 81 57
REMARK SMILES IDX 46 58 47 59 61 61 82 62 49 63 33 64 34 65 42 66 35 67 37 68
REMARK SMILES IDX 43 69 36 70 38 71 39 72 40 73 41 74 65 75 66 76 74 77 67 78
REMARK SMILES IDX 69 79 75 80 68 81 70 82 71 83 72 84 73 85 50 86 51 87 59 88
REMARK SMILES IDX 52 89 54 90 60 91 53 92 55 93 56 94 57 95 58 96
REMARK H PARENT 17 5 2 24 2 25 21 30 80 49 48 60
REMARK Flexibility Score: inf
ROOT
ATOM      1  C   UNL A   1      31.909  31.116  26.775  1.00  0.00     0.118 C 
ENDROOT
BRANCH   1   2
ATOM      2  N   UNL A   1      33.219  30.758  27.300  1.00  0.00    -0.352 N 
ATOM      3  C   UNL A   1      33.863  29.543  27.309  1.00  0.00     0.251 C 
ATOM      4  O   UNL A   1      35.048  29.487  27.626  1.00  0.00    -0.269 OA
ATOM      5  H   UNL A   1      33.720  31.498  27.712  1.00  0.00     0.163 HD
BRANCH   3   6
ATOM      6  C   UNL A   1      33.163  28.308  26.883  1.00  0.00     0.039 A 
ATOM      7  C   UNL A   1      31.847  26.020  25.909  1.00  0.00    -0.038 A 
ATOM      8  C   UNL A   1      33.190  26.264  25.581  1.00  0.00     0.005 A 
ATOM      9  C   UNL A   1      31.209  26.889  26.804  1.00  0.00     0.005 A 
ATOM     10  C   UNL A   1      33.846  27.398  26.070  1.00  0.00     0.014 A 
ATOM     11  C   UNL A   1      31.862  28.019  27.294  1.00  0.00     0.014 A 
BRANCH   7  12
ATOM     12  C   UNL A   1      31.100  24.846  25.324  1.00  0.00     0.110 C 
BRANCH  12  13
ATOM     13  S   UNL A   1      30.745  24.996  23.532  1.00  0.00    -0.121 SA
BRANCH  13  14
ATOM     14  C   UNL A   1      30.197  26.686  23.322  1.00  0.00     0.008 A 
ATOM     15  C   UNL A   1      29.493  29.433  23.061  1.00  0.00     0.009 A 
ATOM     16  C   UNL A   1      30.810  28.995  22.844  1.00  0.00     0.011 A 
ATOM     17  C   UNL A   1      28.526  28.459  23.338  1.00  0.00     0.011 A 
ATOM     18  C   UNL A   1      31.156  27.643  22.975  1.00  0.00     0.015 A 
ATOM     19  C   UNL A   1      28.872  27.104  23.448  1.00  0.00     0.015 A 
BRANCH  15  20
ATOM     20  C   UNL A   1      29.190  30.931  22.994  1.00  0.00     0.210 C 
ATOM     21  C   UNL A   1      27.852  31.328  23.638  1.00  0.00     0.081 C 
BRANCH  20  22
ATOM     22  N   UNL A   1      29.296  31.387  21.598  1.00  0.00    -0.343 N 
ATOM     23  C   UNL A   1      28.069  31.210  20.834  1.00  0.00     0.331 C 
ATOM     24  H   UNL A   1      29.534  32.379  21.600  1.00  0.00     0.346 HD
ATOM     25  H   UNL A   1      30.013  30.817  21.150  1.00  0.00     0.346 HD
ENDBRANCH  20  22
ENDBRANCH  15  20
ENDBRANCH  13  14
ENDBRANCH  12  13
ENDBRANCH   7  12
ENDBRANCH   3   6
ENDBRANCH   1   2
BRANCH   1  26
ATOM     26  C   UNL A   1      31.635  32.615  26.876  1.00  0.00     0.042 C 
BRANCH  26  27
ATOM     27  C   UNL A   1      32.882  33.461  27.112  1.00  0.00     0.118 C 
BRANCH  27  28
ATOM     28  N   UNL A   1      32.612  34.616  27.952  1.00  0.00    -0.352 N 
ATOM     29  C   UNL A   1      33.129  34.964  29.174  1.00  0.00     0.251 C 
ATOM     30  H   UNL A   1      31.953  35.249  27.586  1.00  0.00     0.163 HD
ATOM     31  O   UNL A   1      32.606  35.891  29.791  1.00  0.00    -0.269 OA
BRANCH  29  32
ATOM     32  C   UNL A   1      34.291  34.251  29.761  1.00  0.00     0.039 A 
ATOM     33  C   UNL A   1      34.052  33.326  30.784  1.00  0.00     0.014 A 
ATOM     34  C   UNL A   1      35.606  34.534  29.384  1.00  0.00     0.014 A 
ATOM     35  C   UNL A   1      35.122  32.684  31.415  1.00  0.00     0.010 A 
ATOM     36  C   UNL A   1      36.668  33.836  29.960  1.00  0.00     0.010 A 
ATOM     37  C   UNL A   1      36.441  32.930  31.005  1.00  0.00    -0.014 A 
BRANCH  37  38
ATOM     38  C   UNL A   1      37.589  32.289  31.698  1.00  0.00     0.031 A 
ATOM     39  C   UNL A   1      38.358  31.180  31.023  1.00  0.00     0.074 A 
ATOM     40  C   UNL A   1      37.915  32.666  32.951  1.00  0.00     0.049 A 
ATOM     41  N   UNL A   1      39.377  30.492  31.470  1.00  0.00    -0.248 NA
ATOM     42  C   UNL A   1      37.904  30.772  29.683  1.00  0.00     0.031 C 
ATOM     43  C   UNL A   1      37.204  33.671  33.742  1.00  0.00     0.029 A 
ATOM     44  N   UNL A   1      38.916  32.234  33.784  1.00  0.00    -0.354 N 
ATOM     45  C   UNL A   1      39.661  29.549  30.487  1.00  0.00     0.074 A 
ATOM     46  C   UNL A   1      38.683  29.728  29.437  1.00  0.00     0.031 C 
ATOM     47  C   UNL A   1      37.794  33.782  34.944  1.00  0.00     0.029 A 
ATOM     48  C   UNL A   1      38.913  32.848  35.015  1.00  0.00     0.049 A 
ATOM     49  H   UNL A   1      39.573  31.549  33.526  1.00  0.00     0.167 HD
ATOM     50  C   UNL A   1      40.663  28.638  30.444  1.00  0.00     0.034 A 
ATOM     51  C   UNL A   1      39.724  32.681  36.079  1.00  0.00     0.034 A 
ATOM     52  C   UNL A   1      41.668  28.501  31.462  1.00  0.00     0.049 A 
ATOM     53  C   UNL A   1      40.879  31.720  35.971  1.00  0.00     0.074 A 
ATOM     54  C   UNL A   1      42.770  27.664  31.478  1.00  0.00     0.029 A 
ATOM     55  N   UNL A   1      41.698  29.224  32.644  1.00  0.00    -0.354 N 
ATOM     56  N   UNL A   1      41.220  30.947  34.969  1.00  0.00    -0.248 NA
ATOM     57  C   UNL A   1      41.791  31.646  37.122  1.00  0.00     0.031 C 
ATOM     58  C   UNL A   1      43.462  27.876  32.676  1.00  0.00     0.029 A 
ATOM     59  C   UNL A   1      42.802  28.860  33.394  1.00  0.00     0.049 A 
ATOM     60  H   UNL A   1      41.031  29.898  32.911  1.00  0.00     0.167 HD
ATOM     61  C   UNL A   1      42.408  30.332  35.348  1.00  0.00     0.074 A 
ATOM     62  C   UNL A   1      42.736  30.836  36.666  1.00  0.00     0.031 C 
ATOM     63  C   UNL A   1      43.153  29.422  34.673  1.00  0.00     0.034 A 
BRANCH  50  64
ATOM     64  C   UNL A   1      40.759  27.759  29.223  1.00  0.00     0.023 A 
ATOM     65  C   UNL A   1      39.927  26.623  29.119  1.00  0.00     0.012 A 
ATOM     66  C   UNL A   1      41.623  28.080  28.159  1.00  0.00     0.148 A 
ATOM     67  C   UNL A   1      39.982  25.803  27.993  1.00  0.00     0.002 A 
ATOM     68  C   UNL A   1      41.638  27.282  27.020  1.00  0.00     0.091 A 
ATOM     69  F   UNL A   1      42.421  29.150  28.283  1.00  0.00    -0.205 F 
ATOM     70  C   UNL A   1      40.828  26.137  26.940  1.00  0.00     0.022 A 
BRANCH  68  71
ATOM     71  S   UNL A   1      42.635  27.673  25.576  1.00  0.00     0.127 S 
ATOM     72  O   UNL A   1      42.276  26.586  24.666  1.00  0.00    -0.237 OA
ATOM     73  O   UNL A   1      42.117  28.986  25.191  1.00  0.00    -0.237 OA
ATOM     74  O   UNL A   1      44.018  27.677  26.032  1.00  0.00    -0.744 OA
ENDBRANCH  68  71
ENDBRANCH  50  64
BRANCH  51  75
ATOM     75  C   UNL A   1      39.532  33.512  37.301  1.00  0.00     0.023 A 
ATOM     76  C   UNL A   1      40.143  34.779  37.378  1.00  0.00     0.012 A 
ATOM     77  C   UNL A   1      38.731  33.071  38.370  1.00  0.00     0.148 A 
ATOM     78  C   UNL A   1      39.991  35.575  38.513  1.00  0.00     0.002 A 
ATOM     79  C   UNL A   1      38.538  33.893  39.476  1.00  0.00     0.091 A 
ATOM     80  F   UNL A   1      38.166  31.858  38.284  1.00  0.00    -0.205 F 
ATOM     81  C   UNL A   1      39.182  35.137  39.557  1.00  0.00     0.022 A 
BRANCH  79  82
ATOM     82  S   UNL A   1      37.405  33.467  40.804  1.00  0.00     0.127 S 
ATOM     83  O   UNL A   1      38.158  32.445  41.524  1.00  0.00    -0.237 OA
ATOM     84  O   UNL A   1      37.266  34.743  41.506  1.00  0.00    -0.237 OA
ATOM     85  O   UNL A   1      36.186  33.013  40.145  1.00  0.00    -0.744 OA
ENDBRANCH  79  82
ENDBRANCH  51  75
BRANCH  63  86
ATOM     86  C   UNL A   1      44.430  28.949  35.316  1.00  0.00     0.023 A 
ATOM     87  C   UNL A   1      45.632  29.650  35.095  1.00  0.00     0.012 A 
ATOM     88  C   UNL A   1      44.424  27.846  36.191  1.00  0.00     0.148 A 
ATOM     89  C   UNL A   1      46.815  29.237  35.705  1.00  0.00     0.002 A 
ATOM     90  C   UNL A   1      45.598  27.469  36.834  1.00  0.00     0.091 A 
ATOM     91  F   UNL A   1      43.276  27.176  36.373  1.00  0.00    -0.205 F 
ATOM     92  C   UNL A   1      46.797  28.155  36.582  1.00  0.00     0.022 A 
BRANCH  90  93
ATOM     93  S   UNL A   1      45.634  26.149  38.052  1.00  0.00     0.127 S 
ATOM     94  O   UNL A   1      47.066  25.876  38.155  1.00  0.00    -0.237 OA
ATOM     95  O   UNL A   1      45.048  26.791  39.230  1.00  0.00    -0.237 OA
ATOM     96  O   UNL A   1      44.825  25.074  37.492  1.00  0.00    -0.744 OA
ENDBRANCH  90  93
ENDBRANCH  63  86
ENDBRANCH  37  38
ENDBRANCH  29  32
ENDBRANCH  27  28
ENDBRANCH  26  27
ENDBRANCH   1  26
TORSDOF 18
ENDMDL
