MODEL 1
REMARK VINA RESULT:     -12.8      0.000      0.000
REMARK SMILES O=C(CCC(=O)c1c[nH]c2ccccc12)NCCCNC(=O)c1ccc(-c2c3nc(c(-c4cccc(S(=O)(=O)[O-])c4F)c4ccc([nH]4)c(-c4cccc(S(=O)(=O)[O-])c4F)c4nc(c(-c5cccc(S(=O)(=O)[O-])c5F)c5ccc2[nH]5)C=C4)C=C3)cc1
REMARK SMILES IDX 18 1 17 2 16 3 1 4 2 5 3 7 4 8 5 9 6 10 7 11 8 12 15 13 9 14
REMARK SMILES IDX 10 15 14 16 11 18 13 19 12 20 19 21 20 22 21 23 22 25 23 26
REMARK SMILES IDX 24 27 85 28 25 29 84 30 26 31 27 32 28 33 78 34 29 35 83 36
REMARK SMILES IDX 77 37 79 38 30 39 82 40 76 41 75 42 31 44 63 45 43 46 62 47
REMARK SMILES IDX 44 48 47 49 61 50 80 51 45 52 46 53 60 55 81 56 48 57 32 58
REMARK SMILES IDX 33 59 41 60 34 61 36 62 42 63 35 64 37 65 38 66 39 67 40 68
REMARK SMILES IDX 64 69 65 70 73 71 66 72 68 73 74 74 67 75 69 76 70 77 71 78
REMARK SMILES IDX 72 79 49 80 50 81 58 82 51 83 53 84 59 85 52 86 54 87 55 88
REMARK SMILES IDX 56 89 57 90
REMARK H PARENT 16 6 9 17 20 24 79 43 47 54
REMARK Flexibility Score: inf
ROOT
ATOM      1  C   UNL A   1      33.468  29.263  25.419  1.00  0.00     0.042 C 
ENDROOT
BRANCH   1   2
ATOM      2  C   UNL A   1      32.937  28.510  23.421  1.00  0.00     0.117 C 
BRANCH   2   3
ATOM      3  N   UNL A   1      31.775  27.495  22.926  1.00  0.00    -0.356 N 
ATOM      4  O   UNL A   1      29.805  28.514  23.485  1.00  0.00    -0.275 OA
ATOM      5  C   UNL A   1      30.462  27.491  23.313  1.00  0.00     0.220 C 
ATOM      6  H   UNL A   1      32.043  26.805  22.277  1.00  0.00     0.163 HD
BRANCH   5   7
ATOM      7  C   UNL A   1      29.911  26.125  23.733  1.00  0.00     0.108 C 
BRANCH   7   8
ATOM      8  C   UNL A   1      29.563  25.871  25.198  1.00  0.00     0.091 C 
BRANCH   8   9
ATOM      9  C   UNL A   1      30.758  25.723  26.151  1.00  0.00     0.165 C 
ATOM     10  O   UNL A   1      31.142  26.654  26.852  1.00  0.00    -0.294 OA
BRANCH   9  11
ATOM     11  C   UNL A   1      31.319  24.384  26.277  1.00  0.00     0.043 A 
ATOM     12  C   UNL A   1      30.575  23.222  26.481  1.00  0.00     0.095 A 
ATOM     13  C   UNL A   1      32.645  24.009  25.930  1.00  0.00     0.010 A 
ATOM     14  N   UNL A   1      31.234  22.035  26.165  1.00  0.00    -0.360 N 
ATOM     15  C   UNL A   1      32.502  22.272  25.696  1.00  0.00     0.046 A 
ATOM     16  C   UNL A   1      34.164  24.855  25.380  1.00  0.00     0.011 A 
ATOM     17  H   UNL A   1      30.840  21.139  26.266  1.00  0.00     0.166 HD
ATOM     18  C   UNL A   1      33.827  21.328  24.922  1.00  0.00     0.027 A 
ATOM     19  C   UNL A   1      35.479  23.946  24.553  1.00  0.00     0.001 A 
ATOM     20  C   UNL A   1      35.305  22.183  24.352  1.00  0.00     0.002 A 
ENDBRANCH   9  11
ENDBRANCH   8   9
ENDBRANCH   7   8
ENDBRANCH   5   7
ENDBRANCH   2   3
ENDBRANCH   1   2
BRANCH   1  21
ATOM     21  C   UNL A   1      32.678  30.059  26.718  1.00  0.00     0.118 C 
BRANCH  21  22
ATOM     22  N   UNL A   1      32.925  31.488  26.884  1.00  0.00    -0.352 N 
ATOM     23  C   UNL A   1      33.795  32.179  27.681  1.00  0.00     0.251 C 
ATOM     24  H   UNL A   1      32.361  32.061  26.316  1.00  0.00     0.163 HD
ATOM     25  O   UNL A   1      33.560  33.360  27.934  1.00  0.00    -0.269 OA
BRANCH  23  26
ATOM     26  C   UNL A   1      35.043  31.548  28.165  1.00  0.00     0.039 A 
ATOM     27  C   UNL A   1      35.010  30.223  28.614  1.00  0.00     0.014 A 
ATOM     28  C   UNL A   1      36.213  32.297  28.307  1.00  0.00     0.014 A 
ATOM     29  C   UNL A   1      36.148  29.659  29.195  1.00  0.00     0.010 A 
ATOM     30  C   UNL A   1      37.373  31.704  28.783  1.00  0.00     0.010 A 
ATOM     31  C   UNL A   1      37.338  30.398  29.281  1.00  0.00    -0.014 A 
BRANCH  31  32
ATOM     32  C   UNL A   1      38.544  29.862  29.953  1.00  0.00     0.031 A 
ATOM     33  C   UNL A   1      38.910  30.353  31.331  1.00  0.00     0.074 A 
ATOM     34  C   UNL A   1      39.348  29.011  29.289  1.00  0.00     0.049 A 
ATOM     35  N   UNL A   1      39.957  30.066  32.060  1.00  0.00    -0.248 NA
ATOM     36  C   UNL A   1      38.001  31.331  31.957  1.00  0.00     0.031 C 
ATOM     37  C   UNL A   1      39.136  28.548  27.915  1.00  0.00     0.029 A 
ATOM     38  N   UNL A   1      40.517  28.406  29.667  1.00  0.00    -0.354 N 
ATOM     39  C   UNL A   1      39.858  30.861  33.197  1.00  0.00     0.074 A 
ATOM     40  C   UNL A   1      38.673  31.673  33.046  1.00  0.00     0.031 C 
ATOM     41  C   UNL A   1      40.138  27.723  27.571  1.00  0.00     0.029 A 
ATOM     42  C   UNL A   1      41.070  27.616  28.687  1.00  0.00     0.049 A 
ATOM     43  H   UNL A   1      40.922  28.526  30.556  1.00  0.00     0.167 HD
ATOM     44  C   UNL A   1      40.662  30.884  34.287  1.00  0.00     0.034 A 
ATOM     45  C   UNL A   1      42.200  26.884  28.698  1.00  0.00     0.034 A 
ATOM     46  C   UNL A   1      41.797  30.019  34.450  1.00  0.00     0.049 A 
ATOM     47  C   UNL A   1      43.015  26.843  29.962  1.00  0.00     0.074 A 
ATOM     48  C   UNL A   1      42.631  29.884  35.544  1.00  0.00     0.029 A 
ATOM     49  N   UNL A   1      42.250  29.129  33.487  1.00  0.00    -0.354 N 
ATOM     50  N   UNL A   1      42.822  27.487  31.088  1.00  0.00    -0.248 NA
ATOM     51  C   UNL A   1      44.175  25.941  29.975  1.00  0.00     0.031 C 
ATOM     52  C   UNL A   1      43.594  28.915  35.238  1.00  0.00     0.029 A 
ATOM     53  C   UNL A   1      43.346  28.434  33.962  1.00  0.00     0.049 A 
ATOM     54  H   UNL A   1      41.849  29.010  32.595  1.00  0.00     0.167 HD
ATOM     55  C   UNL A   1      43.808  27.039  31.958  1.00  0.00     0.074 A 
ATOM     56  C   UNL A   1      44.585  26.055  31.231  1.00  0.00     0.031 C 
ATOM     57  C   UNL A   1      44.061  27.416  33.236  1.00  0.00     0.034 A 
BRANCH  44  58
ATOM     58  C   UNL A   1      40.300  31.827  35.408  1.00  0.00     0.023 A 
ATOM     59  C   UNL A   1      41.036  33.018  35.582  1.00  0.00     0.012 A 
ATOM     60  C   UNL A   1      39.213  31.561  36.265  1.00  0.00     0.148 A 
ATOM     61  C   UNL A   1      40.728  33.905  36.612  1.00  0.00     0.002 A 
ATOM     62  C   UNL A   1      38.880  32.475  37.260  1.00  0.00     0.091 A 
ATOM     63  F   UNL A   1      38.534  30.417  36.102  1.00  0.00    -0.205 F 
ATOM     64  C   UNL A   1      39.645  33.639  37.444  1.00  0.00     0.022 A 
BRANCH  62  65
ATOM     65  S   UNL A   1      37.456  32.266  38.335  1.00  0.00     0.127 S 
ATOM     66  O   UNL A   1      36.432  33.030  37.622  1.00  0.00    -0.237 OA
ATOM     67  O   UNL A   1      37.261  30.816  38.311  1.00  0.00    -0.237 OA
ATOM     68  O   UNL A   1      37.849  32.804  39.630  1.00  0.00    -0.744 OA
ENDBRANCH  62  65
ENDBRANCH  44  58
BRANCH  45  69
ATOM     69  C   UNL A   1      42.552  26.050  27.515  1.00  0.00     0.023 A 
ATOM     70  C   UNL A   1      43.382  26.590  26.514  1.00  0.00     0.012 A 
ATOM     71  C   UNL A   1      42.120  24.713  27.400  1.00  0.00     0.148 A 
ATOM     72  C   UNL A   1      43.751  25.829  25.405  1.00  0.00     0.002 A 
ATOM     73  C   UNL A   1      42.535  23.943  26.319  1.00  0.00     0.091 A 
ATOM     74  F   UNL A   1      41.325  24.217  28.358  1.00  0.00    -0.205 F 
ATOM     75  C   UNL A   1      43.338  24.503  25.313  1.00  0.00     0.022 A 
BRANCH  73  76
ATOM     76  S   UNL A   1      42.165  22.189  26.190  1.00  0.00     0.127 S 
ATOM     77  O   UNL A   1      40.710  22.198  26.079  1.00  0.00    -0.237 OA
ATOM     78  O   UNL A   1      42.874  21.817  24.965  1.00  0.00    -0.237 OA
ATOM     79  O   UNL A   1      42.709  21.586  27.399  1.00  0.00    -0.744 OA
ENDBRANCH  73  76
ENDBRANCH  45  69
BRANCH  57  80
ATOM     80  C   UNL A   1      45.196  26.732  33.948  1.00  0.00     0.023 A 
ATOM     81  C   UNL A   1      46.495  27.270  33.874  1.00  0.00     0.012 A 
ATOM     82  C   UNL A   1      44.957  25.597  34.749  1.00  0.00     0.148 A 
ATOM     83  C   UNL A   1      47.548  26.669  34.562  1.00  0.00     0.002 A 
ATOM     84  C   UNL A   1      46.002  25.033  35.470  1.00  0.00     0.091 A 
ATOM     85  F   UNL A   1      43.717  25.088  34.786  1.00  0.00    -0.205 F 
ATOM     86  C   UNL A   1      47.299  25.560  35.368  1.00  0.00     0.022 A 
BRANCH  84  87
ATOM     87  S   UNL A   1      45.747  23.667  36.607  1.00  0.00     0.127 S 
ATOM     88  O   UNL A   1      47.112  23.381  37.042  1.00  0.00    -0.237 OA
ATOM     89  O   UNL A   1      44.893  24.267  37.632  1.00  0.00    -0.237 OA
ATOM     90  O   UNL A   1      45.102  22.617  35.828  1.00  0.00    -0.744 OA
ENDBRANCH  84  87
ENDBRANCH  57  80
ENDBRANCH  31  32
ENDBRANCH  23  26
ENDBRANCH  21  22
ENDBRANCH   1  21
TORSDOF 16
ENDMDL
MODEL 2
REMARK VINA RESULT:     -12.7      1.542      2.027
REMARK SMILES O=C(CCC(=O)c1c[nH]c2ccccc12)NCCCNC(=O)c1ccc(-c2c3nc(c(-c4cccc(S(=O)(=O)[O-])c4F)c4ccc([nH]4)c(-c4cccc(S(=O)(=O)[O-])c4F)c4nc(c(-c5cccc(S(=O)(=O)[O-])c5F)c5ccc2[nH]5)C=C4)C=C3)cc1
REMARK SMILES IDX 18 1 17 2 16 3 1 4 2 5 3 7 4 8 5 9 6 10 7 11 8 12 15 13 9 14
REMARK SMILES IDX 10 15 14 16 11 18 13 19 12 20 19 21 20 22 21 23 22 25 23 26
REMARK SMILES IDX 24 27 85 28 25 29 84 30 26 31 27 32 28 33 78 34 29 35 83 36
REMARK SMILES IDX 77 37 79 38 30 39 82 40 76 41 75 42 31 44 63 45 43 46 62 47
REMARK SMILES IDX 44 48 47 49 61 50 80 51 45 52 46 53 60 55 81 56 48 57 32 58
REMARK SMILES IDX 33 59 41 60 34 61 36 62 42 63 35 64 37 65 38 66 39 67 40 68
REMARK SMILES IDX 64 69 65 70 73 71 66 72 68 73 74 74 67 75 69 76 70 77 71 78
REMARK SMILES IDX 72 79 49 80 50 81 58 82 51 83 53 84 59 85 52 86 54 87 55 88
REMARK SMILES IDX 56 89 57 90
REMARK H PARENT 16 6 9 17 20 24 79 43 47 54
REMARK Flexibility Score: inf
ROOT
ATOM      1  C   UNL A   1      33.450  28.777  23.457  1.00  0.00     0.042 C 
ENDROOT
BRANCH   1   2
ATOM      2  C   UNL A   1      33.313  27.011  22.151  1.00  0.00     0.117 C 
BRANCH   2   3
ATOM      3  N   UNL A   1      32.393  25.679  22.233  1.00  0.00    -0.356 N 
ATOM      4  O   UNL A   1      30.782  26.154  23.785  1.00  0.00    -0.275 OA
ATOM      5  C   UNL A   1      31.515  25.342  23.228  1.00  0.00     0.220 C 
ATOM      6  H   UNL A   1      32.476  25.043  21.487  1.00  0.00     0.163 HD
BRANCH   5   7
ATOM      7  C   UNL A   1      31.654  23.913  23.762  1.00  0.00     0.108 C 
BRANCH   7   8
ATOM      8  C   UNL A   1      31.141  23.578  25.161  1.00  0.00     0.091 C 
BRANCH   8   9
ATOM      9  C   UNL A   1      31.991  24.107  26.325  1.00  0.00     0.165 C 
ATOM     10  O   UNL A   1      31.635  25.070  26.998  1.00  0.00    -0.294 OA
BRANCH   9  11
ATOM     11  C   UNL A   1      33.167  23.321  26.673  1.00  0.00     0.043 A 
ATOM     12  C   UNL A   1      33.198  22.311  27.635  1.00  0.00     0.095 A 
ATOM     13  C   UNL A   1      34.366  23.249  25.913  1.00  0.00     0.010 A 
ATOM     14  N   UNL A   1      34.269  21.425  27.527  1.00  0.00    -0.360 N 
ATOM     15  C   UNL A   1      35.077  21.737  26.463  1.00  0.00     0.046 A 
ATOM     16  C   UNL A   1      35.050  24.063  24.431  1.00  0.00     0.011 A 
ATOM     17  H   UNL A   1      34.426  20.670  28.138  1.00  0.00     0.166 HD
ATOM     18  C   UNL A   1      36.460  20.989  25.583  1.00  0.00     0.027 A 
ATOM     19  C   UNL A   1      36.394  23.308  23.501  1.00  0.00     0.001 A 
ATOM     20  C   UNL A   1      37.101  21.786  24.102  1.00  0.00     0.002 A 
ENDBRANCH   9  11
ENDBRANCH   8   9
ENDBRANCH   7   8
ENDBRANCH   5   7
ENDBRANCH   2   3
ENDBRANCH   1   2
BRANCH   1  21
ATOM     21  C   UNL A   1      33.487  29.099  25.142  1.00  0.00     0.118 C 
BRANCH  21  22
ATOM     22  N   UNL A   1      33.059  30.423  25.585  1.00  0.00    -0.352 N 
ATOM     23  C   UNL A   1      33.257  31.102  26.755  1.00  0.00     0.251 C 
ATOM     24  H   UNL A   1      32.532  30.918  24.918  1.00  0.00     0.163 HD
ATOM     25  O   UNL A   1      32.492  32.021  27.045  1.00  0.00    -0.269 OA
BRANCH  23  26
ATOM     26  C   UNL A   1      34.417  30.800  27.621  1.00  0.00     0.039 A 
ATOM     27  C   UNL A   1      35.455  31.733  27.725  1.00  0.00     0.014 A 
ATOM     28  C   UNL A   1      34.553  29.545  28.221  1.00  0.00     0.014 A 
ATOM     29  C   UNL A   1      36.614  31.405  28.433  1.00  0.00     0.010 A 
ATOM     30  C   UNL A   1      35.655  29.261  29.014  1.00  0.00     0.010 A 
ATOM     31  C   UNL A   1      36.719  30.166  29.083  1.00  0.00    -0.014 A 
BRANCH  31  32
ATOM     32  C   UNL A   1      37.958  29.753  29.782  1.00  0.00     0.031 A 
ATOM     33  C   UNL A   1      38.231  30.261  31.176  1.00  0.00     0.074 A 
ATOM     34  C   UNL A   1      38.866  29.004  29.132  1.00  0.00     0.049 A 
ATOM     35  N   UNL A   1      39.282  30.078  31.931  1.00  0.00    -0.248 NA
ATOM     36  C   UNL A   1      37.204  31.126  31.786  1.00  0.00     0.031 C 
ATOM     37  C   UNL A   1      38.743  28.540  27.747  1.00  0.00     0.029 A 
ATOM     38  N   UNL A   1      40.084  28.523  29.537  1.00  0.00    -0.354 N 
ATOM     39  C   UNL A   1      39.066  30.841  33.074  1.00  0.00     0.074 A 
ATOM     40  C   UNL A   1      37.805  31.523  32.898  1.00  0.00     0.031 C 
ATOM     41  C   UNL A   1      39.838  27.833  27.423  1.00  0.00     0.029 A 
ATOM     42  C   UNL A   1      40.745  27.811  28.564  1.00  0.00     0.049 A 
ATOM     43  H   UNL A   1      40.449  28.673  30.438  1.00  0.00     0.167 HD
ATOM     44  C   UNL A   1      39.833  30.936  34.186  1.00  0.00     0.034 A 
ATOM     45  C   UNL A   1      41.947  27.205  28.599  1.00  0.00     0.034 A 
ATOM     46  C   UNL A   1      41.050  30.196  34.372  1.00  0.00     0.049 A 
ATOM     47  C   UNL A   1      42.728  27.235  29.885  1.00  0.00     0.074 A 
ATOM     48  C   UNL A   1      41.864  30.136  35.488  1.00  0.00     0.029 A 
ATOM     49  N   UNL A   1      41.623  29.374  33.412  1.00  0.00    -0.354 N 
ATOM     50  N   UNL A   1      42.435  27.838  31.013  1.00  0.00    -0.248 NA
ATOM     51  C   UNL A   1      43.977  26.463  29.921  1.00  0.00     0.031 C 
ATOM     52  C   UNL A   1      42.934  29.282  35.199  1.00  0.00     0.029 A 
ATOM     53  C   UNL A   1      42.775  28.795  33.911  1.00  0.00     0.049 A 
ATOM     54  H   UNL A   1      41.262  29.226  32.508  1.00  0.00     0.167 HD
ATOM     55  C   UNL A   1      43.440  27.486  31.905  1.00  0.00     0.074 A 
ATOM     56  C   UNL A   1      44.339  26.603  31.190  1.00  0.00     0.031 C 
ATOM     57  C   UNL A   1      43.616  27.870  33.194  1.00  0.00     0.034 A 
BRANCH  44  58
ATOM     58  C   UNL A   1      39.341  31.818  35.308  1.00  0.00     0.023 A 
ATOM     59  C   UNL A   1      38.434  31.298  36.256  1.00  0.00     0.012 A 
ATOM     60  C   UNL A   1      39.799  33.143  35.451  1.00  0.00     0.148 A 
ATOM     61  C   UNL A   1      37.959  32.090  37.300  1.00  0.00     0.002 A 
ATOM     62  C   UNL A   1      39.359  33.913  36.523  1.00  0.00     0.091 A 
ATOM     63  F   UNL A   1      40.645  33.631  34.533  1.00  0.00    -0.205 F 
ATOM     64  C   UNL A   1      38.429  33.393  37.439  1.00  0.00     0.022 A 
BRANCH  62  65
ATOM     65  S   UNL A   1      39.962  35.575  36.840  1.00  0.00     0.127 S 
ATOM     66  O   UNL A   1      39.299  35.895  38.104  1.00  0.00    -0.237 OA
ATOM     67  O   UNL A   1      41.406  35.364  36.945  1.00  0.00    -0.237 OA
ATOM     68  O   UNL A   1      39.548  36.376  35.696  1.00  0.00    -0.744 OA
ENDBRANCH  62  65
ENDBRANCH  44  58
BRANCH  45  69
ATOM     69  C   UNL A   1      42.419  26.431  27.417  1.00  0.00     0.023 A 
ATOM     70  C   UNL A   1      43.217  27.071  26.449  1.00  0.00     0.012 A 
ATOM     71  C   UNL A   1      42.134  25.059  27.272  1.00  0.00     0.148 A 
ATOM     72  C   UNL A   1      43.697  26.370  25.343  1.00  0.00     0.002 A 
ATOM     73  C   UNL A   1      42.660  24.354  26.195  1.00  0.00     0.091 A 
ATOM     74  F   UNL A   1      41.368  24.467  28.199  1.00  0.00    -0.205 F 
ATOM     75  C   UNL A   1      43.429  25.010  25.221  1.00  0.00     0.022 A 
BRANCH  73  76
ATOM     76  S   UNL A   1      42.480  22.573  26.033  1.00  0.00     0.127 S 
ATOM     77  O   UNL A   1      43.133  22.322  24.752  1.00  0.00    -0.237 OA
ATOM     78  O   UNL A   1      43.210  22.085  27.204  1.00  0.00    -0.237 OA
ATOM     79  O   UNL A   1      41.046  22.320  26.078  1.00  0.00    -0.744 OA
ENDBRANCH  73  76
ENDBRANCH  45  69
BRANCH  57  80
ATOM     80  C   UNL A   1      44.798  27.303  33.931  1.00  0.00     0.023 A 
ATOM     81  C   UNL A   1      46.028  27.987  33.913  1.00  0.00     0.012 A 
ATOM     82  C   UNL A   1      44.665  26.129  34.699  1.00  0.00     0.148 A 
ATOM     83  C   UNL A   1      47.120  27.493  34.624  1.00  0.00     0.002 A 
ATOM     84  C   UNL A   1      45.744  25.671  35.444  1.00  0.00     0.091 A 
ATOM     85  F   UNL A   1      43.491  25.482  34.684  1.00  0.00    -0.205 F 
ATOM     86  C   UNL A   1      46.975  26.343  35.397  1.00  0.00     0.022 A 
BRANCH  84  87
ATOM     87  S   UNL A   1      45.611  24.257  36.543  1.00  0.00     0.127 S 
ATOM     88  O   UNL A   1      44.569  24.694  37.469  1.00  0.00    -0.237 OA
ATOM     89  O   UNL A   1      45.207  23.187  35.630  1.00  0.00    -0.237 OA
ATOM     90  O   UNL A   1      46.936  24.080  37.125  1.00  0.00    -0.744 OA
ENDBRANCH  84  87
ENDBRANCH  57  80
ENDBRANCH  31  32
ENDBRANCH  23  26
ENDBRANCH  21  22
ENDBRANCH   1  21
TORSDOF 16
ENDMDL
MODEL 3
REMARK VINA RESULT:     -12.6      2.587      3.550
REMARK SMILES O=C(CCC(=O)c1c[nH]c2ccccc12)NCCCNC(=O)c1ccc(-c2c3nc(c(-c4cccc(S(=O)(=O)[O-])c4F)c4ccc([nH]4)c(-c4cccc(S(=O)(=O)[O-])c4F)c4nc(c(-c5cccc(S(=O)(=O)[O-])c5F)c5ccc2[nH]5)C=C4)C=C3)cc1
REMARK SMILES IDX 18 1 17 2 16 3 1 4 2 5 3 7 4 8 5 9 6 10 7 11 8 12 15 13 9 14
REMARK SMILES IDX 10 15 14 16 11 18 13 19 12 20 19 21 20 22 21 23 22 25 23 26
REMARK SMILES IDX 24 27 85 28 25 29 84 30 26 31 27 32 28 33 78 34 29 35 83 36
REMARK SMILES IDX 77 37 79 38 30 39 82 40 76 41 75 42 31 44 63 45 43 46 62 47
REMARK SMILES IDX 44 48 47 49 61 50 80 51 45 52 46 53 60 55 81 56 48 57 32 58
REMARK SMILES IDX 33 59 41 60 34 61 36 62 42 63 35 64 37 65 38 66 39 67 40 68
REMARK SMILES IDX 64 69 65 70 73 71 66 72 68 73 74 74 67 75 69 76 70 77 71 78
REMARK SMILES IDX 72 79 49 80 50 81 58 82 51 83 53 84 59 85 52 86 54 87 55 88
REMARK SMILES IDX 56 89 57 90
REMARK H PARENT 16 6 9 17 20 24 79 43 47 54
REMARK Flexibility Score: inf
ROOT
ATOM      1  C   UNL A   1      33.096  27.544  26.607  1.00  0.00     0.042 C 
ENDROOT
BRANCH   1   2
ATOM      2  C   UNL A   1      32.571  25.453  26.168  1.00  0.00     0.117 C 
BRANCH   2   3
ATOM      3  N   UNL A   1      33.337  24.060  26.482  1.00  0.00    -0.356 N 
ATOM      4  O   UNL A   1      35.469  24.357  25.707  1.00  0.00    -0.275 OA
ATOM      5  C   UNL A   1      34.512  23.621  25.932  1.00  0.00     0.220 C 
ATOM      6  H   UNL A   1      32.912  23.465  27.141  1.00  0.00     0.163 HD
BRANCH   5   7
ATOM      7  C   UNL A   1      34.487  22.183  25.407  1.00  0.00     0.108 C 
BRANCH   7   8
ATOM      8  C   UNL A   1      33.862  21.889  24.045  1.00  0.00     0.091 C 
BRANCH   8   9
ATOM      9  C   UNL A   1      33.855  23.058  23.049  1.00  0.00     0.165 C 
ATOM     10  O   UNL A   1      34.842  23.333  22.373  1.00  0.00    -0.294 OA
BRANCH   9  11
ATOM     11  C   UNL A   1      32.578  23.729  22.853  1.00  0.00     0.043 A 
ATOM     12  C   UNL A   1      31.329  23.166  23.122  1.00  0.00     0.095 A 
ATOM     13  C   UNL A   1      32.401  25.123  22.642  1.00  0.00     0.010 A 
ATOM     14  N   UNL A   1      30.287  24.081  23.263  1.00  0.00    -0.360 N 
ATOM     15  C   UNL A   1      30.726  25.373  23.116  1.00  0.00     0.046 A 
ATOM     16  C   UNL A   1      33.476  26.574  22.389  1.00  0.00     0.011 A 
ATOM     17  H   UNL A   1      29.353  23.832  23.445  1.00  0.00     0.166 HD
ATOM     18  C   UNL A   1      30.068  27.033  23.355  1.00  0.00     0.027 A 
ATOM     19  C   UNL A   1      32.860  28.241  22.676  1.00  0.00     0.001 A 
ATOM     20  C   UNL A   1      31.151  28.454  23.136  1.00  0.00     0.002 A 
ENDBRANCH   9  11
ENDBRANCH   8   9
ENDBRANCH   7   8
ENDBRANCH   5   7
ENDBRANCH   2   3
ENDBRANCH   1   2
BRANCH   1  21
ATOM     21  C   UNL A   1      34.184  28.725  26.002  1.00  0.00     0.118 C 
BRANCH  21  22
ATOM     22  N   UNL A   1      34.010  30.100  26.460  1.00  0.00    -0.352 N 
ATOM     23  C   UNL A   1      34.525  30.779  27.529  1.00  0.00     0.251 C 
ATOM     24  H   UNL A   1      33.411  30.639  25.894  1.00  0.00     0.163 HD
ATOM     25  O   UNL A   1      33.947  31.789  27.928  1.00  0.00    -0.269 OA
BRANCH  23  26
ATOM     26  C   UNL A   1      35.803  30.361  28.148  1.00  0.00     0.039 A 
ATOM     27  C   UNL A   1      36.997  30.548  27.444  1.00  0.00     0.014 A 
ATOM     28  C   UNL A   1      35.815  29.661  29.357  1.00  0.00     0.014 A 
ATOM     29  C   UNL A   1      38.192  30.040  27.958  1.00  0.00     0.010 A 
ATOM     30  C   UNL A   1      37.015  29.253  29.920  1.00  0.00     0.010 A 
ATOM     31  C   UNL A   1      38.207  29.389  29.202  1.00  0.00    -0.014 A 
BRANCH  31  32
ATOM     32  C   UNL A   1      39.439  28.775  29.748  1.00  0.00     0.031 A 
ATOM     33  C   UNL A   1      40.072  29.352  30.990  1.00  0.00     0.074 A 
ATOM     34  C   UNL A   1      40.029  27.768  29.079  1.00  0.00     0.049 A 
ATOM     35  N   UNL A   1      41.184  29.010  31.586  1.00  0.00    -0.248 NA
ATOM     36  C   UNL A   1      39.387  30.495  31.622  1.00  0.00     0.031 C 
ATOM     37  C   UNL A   1      39.551  27.200  27.816  1.00  0.00     0.029 A 
ATOM     38  N   UNL A   1      41.171  27.062  29.351  1.00  0.00    -0.354 N 
ATOM     39  C   UNL A   1      41.356  29.921  32.623  1.00  0.00     0.074 A 
ATOM     40  C   UNL A   1      40.258  30.857  32.553  1.00  0.00     0.031 C 
ATOM     41  C   UNL A   1      40.389  26.225  27.429  1.00  0.00     0.029 A 
ATOM     42  C   UNL A   1      41.470  26.114  28.401  1.00  0.00     0.049 A 
ATOM     43  H   UNL A   1      41.723  27.217  30.150  1.00  0.00     0.167 HD
ATOM     44  C   UNL A   1      42.321  29.952  33.572  1.00  0.00     0.034 A 
ATOM     45  C   UNL A   1      42.501  25.249  28.332  1.00  0.00     0.034 A 
ATOM     46  C   UNL A   1      43.366  28.971  33.669  1.00  0.00     0.049 A 
ATOM     47  C   UNL A   1      43.498  25.234  29.458  1.00  0.00     0.074 A 
ATOM     48  C   UNL A   1      44.345  28.843  34.637  1.00  0.00     0.029 A 
ATOM     49  N   UNL A   1      43.560  27.940  32.762  1.00  0.00    -0.354 N 
ATOM     50  N   UNL A   1      43.559  26.006  30.517  1.00  0.00    -0.248 NA
ATOM     51  C   UNL A   1      44.539  24.198  29.408  1.00  0.00     0.031 C 
ATOM     52  C   UNL A   1      45.135  27.735  34.310  1.00  0.00     0.029 A 
ATOM     53  C   UNL A   1      44.636  27.163  33.150  1.00  0.00     0.049 A 
ATOM     54  H   UNL A   1      43.011  27.783  31.959  1.00  0.00     0.167 HD
ATOM     55  C   UNL A   1      44.617  25.527  31.279  1.00  0.00     0.074 A 
ATOM     56  C   UNL A   1      45.155  24.385  30.568  1.00  0.00     0.031 C 
ATOM     57  C   UNL A   1      45.110  25.995  32.452  1.00  0.00     0.034 A 
BRANCH  44  58
ATOM     58  C   UNL A   1      42.248  31.041  34.615  1.00  0.00     0.023 A 
ATOM     59  C   UNL A   1      41.545  30.809  35.816  1.00  0.00     0.012 A 
ATOM     60  C   UNL A   1      42.903  32.275  34.431  1.00  0.00     0.148 A 
ATOM     61  C   UNL A   1      41.457  31.797  36.795  1.00  0.00     0.002 A 
ATOM     62  C   UNL A   1      42.852  33.239  35.433  1.00  0.00     0.091 A 
ATOM     63  F   UNL A   1      43.552  32.490  33.278  1.00  0.00    -0.205 F 
ATOM     64  C   UNL A   1      42.118  33.007  36.608  1.00  0.00     0.022 A 
BRANCH  62  65
ATOM     65  S   UNL A   1      43.735  34.800  35.327  1.00  0.00     0.127 S 
ATOM     66  O   UNL A   1      45.115  34.349  35.153  1.00  0.00    -0.237 OA
ATOM     67  O   UNL A   1      43.138  35.411  34.139  1.00  0.00    -0.237 OA
ATOM     68  O   UNL A   1      43.459  35.502  36.573  1.00  0.00    -0.744 OA
ENDBRANCH  62  65
ENDBRANCH  44  58
BRANCH  45  69
ATOM     69  C   UNL A   1      42.566  24.263  27.218  1.00  0.00     0.023 A 
ATOM     70  C   UNL A   1      43.293  24.585  26.056  1.00  0.00     0.012 A 
ATOM     71  C   UNL A   1      41.964  22.993  27.321  1.00  0.00     0.148 A 
ATOM     72  C   UNL A   1      43.395  23.676  25.003  1.00  0.00     0.002 A 
ATOM     73  C   UNL A   1      42.115  22.071  26.290  1.00  0.00     0.091 A 
ATOM     74  F   UNL A   1      41.271  22.706  28.431  1.00  0.00    -0.205 F 
ATOM     75  C   UNL A   1      42.817  22.416  25.124  1.00  0.00     0.022 A 
BRANCH  73  76
ATOM     76  S   UNL A   1      41.522  20.380  26.420  1.00  0.00     0.127 S 
ATOM     77  O   UNL A   1      40.087  20.550  26.212  1.00  0.00    -0.237 OA
ATOM     78  O   UNL A   1      42.231  19.723  25.321  1.00  0.00    -0.237 OA
ATOM     79  O   UNL A   1      41.925  19.926  27.744  1.00  0.00    -0.744 OA
ENDBRANCH  73  76
ENDBRANCH  45  69
BRANCH  57  80
ATOM     80  C   UNL A   1      46.262  25.248  33.066  1.00  0.00     0.023 A 
ATOM     81  C   UNL A   1      47.581  25.689  32.843  1.00  0.00     0.012 A 
ATOM     82  C   UNL A   1      46.030  24.154  33.923  1.00  0.00     0.148 A 
ATOM     83  C   UNL A   1      48.655  25.031  33.439  1.00  0.00     0.002 A 
ATOM     84  C   UNL A   1      47.103  23.534  34.551  1.00  0.00     0.091 A 
ATOM     85  F   UNL A   1      44.769  23.737  34.103  1.00  0.00    -0.205 F 
ATOM     86  C   UNL A   1      48.416  23.962  34.300  1.00  0.00     0.022 A 
BRANCH  84  87
ATOM     87  S   UNL A   1      46.873  22.218  35.751  1.00  0.00     0.127 S 
ATOM     88  O   UNL A   1      48.245  21.970  36.189  1.00  0.00    -0.237 OA
ATOM     89  O   UNL A   1      46.018  22.853  36.754  1.00  0.00    -0.237 OA
ATOM     90  O   UNL A   1      46.238  21.125  35.026  1.00  0.00    -0.744 OA
ENDBRANCH  84  87
ENDBRANCH  57  80
ENDBRANCH  31  32
ENDBRANCH  23  26
ENDBRANCH  21  22
ENDBRANCH   1  21
TORSDOF 16
ENDMDL
