MODEL 1
REMARK VINA RESULT:      -9.3      0.000      0.000
REMARK SMILES C=CC[N@@H+](CC(=O)NCCCNC(=O)c1ccc(-c2c3nc(c(-c4cccc(S(=O)(=O)[O-])c4F)c4ccc([nH]4)c(-c4cccc(S(=O)(=O)[O-])c4F)c4nc(c(-c5cccc(S(=O)(=O)[O-])c5F)c5ccc2[nH]5)C=C4)C=C3)cc1)C(C)C
REMARK SMILES IDX 10 1 9 2 8 3 6 4 7 5 5 7 4 8 3 10 2 11 1 12 78 13 79 14
REMARK SMILES IDX 80 15 11 16 12 17 13 18 14 20 15 21 16 22 77 23 17 24 76 25
REMARK SMILES IDX 18 26 19 27 20 28 70 29 21 30 75 31 69 32 71 33 22 34 74 35
REMARK SMILES IDX 68 36 67 37 23 39 55 40 35 41 54 42 36 43 39 44 53 45 72 46
REMARK SMILES IDX 37 47 38 48 52 50 73 51 40 52 24 53 25 54 33 55 26 56 28 57
REMARK SMILES IDX 34 58 27 59 29 60 30 61 31 62 32 63 56 64 57 65 65 66 58 67
REMARK SMILES IDX 60 68 66 69 59 70 61 71 62 72 63 73 64 74 41 75 42 76 50 77
REMARK SMILES IDX 43 78 45 79 51 80 44 81 46 82 47 83 48 84 49 85
REMARK H PARENT 8 6 4 9 12 19 71 38 39 49
REMARK Flexibility Score: inf
ROOT
ATOM      1  C   UNL A   1      41.480  19.962  26.603  1.00  0.00     0.042 C 
ENDROOT
BRANCH   1   2
ATOM      2  C   UNL A   1      42.921  19.993  26.083  1.00  0.00     0.118 C 
BRANCH   2   3
ATOM      3  N   UNL A   1      43.129  21.015  25.070  1.00  0.00    -0.351 N 
ATOM      4  C   UNL A   1      44.082  21.981  24.929  1.00  0.00     0.275 C 
ATOM      5  O   UNL A   1      44.056  22.620  23.869  1.00  0.00    -0.269 OA
ATOM      6  H   UNL A   1      42.457  21.008  24.350  1.00  0.00     0.163 HD
BRANCH   4   7
ATOM      7  C   UNL A   1      45.184  22.251  25.965  1.00  0.00     0.363 C 
BRANCH   7   8
ATOM      8  N   UNL A   1      45.005  23.403  26.891  1.00  0.00    -0.322 N 
ATOM      9  H   UNL A   1      45.368  23.156  27.811  1.00  0.00     0.349 HD
BRANCH   8  10
ATOM     10  C   UNL A   1      43.596  23.638  27.167  1.00  0.00     0.291 C 
BRANCH  10  11
ATOM     11  C   UNL A   1      43.110  23.714  28.577  1.00  0.00     0.025 C 
ATOM     12  C   UNL A   1      43.384  22.777  29.497  1.00  0.00     0.010 C 
ENDBRANCH  10  11
ENDBRANCH   8  10
BRANCH   8  13
ATOM     13  C   UNL A   1      45.912  24.545  26.649  1.00  0.00     0.178 C 
ATOM     14  C   UNL A   1      46.829  24.974  27.805  1.00  0.00     0.075 C 
ATOM     15  C   UNL A   1      46.782  24.374  25.392  1.00  0.00     0.075 C 
ENDBRANCH   8  13
ENDBRANCH   7   8
ENDBRANCH   4   7
ENDBRANCH   2   3
ENDBRANCH   1   2
BRANCH   1  16
ATOM     16  C   UNL A   1      40.882  21.310  26.966  1.00  0.00     0.118 C 
BRANCH  16  17
ATOM     17  N   UNL A   1      39.645  21.585  26.260  1.00  0.00    -0.352 N 
ATOM     18  C   UNL A   1      38.857  22.711  26.216  1.00  0.00     0.251 C 
ATOM     19  H   UNL A   1      39.313  20.835  25.716  1.00  0.00     0.163 HD
ATOM     20  O   UNL A   1      37.749  22.617  25.687  1.00  0.00    -0.269 OA
BRANCH  18  21
ATOM     21  C   UNL A   1      39.282  24.015  26.793  1.00  0.00     0.039 A 
ATOM     22  C   UNL A   1      39.982  24.905  25.969  1.00  0.00     0.014 A 
ATOM     23  C   UNL A   1      39.086  24.352  28.134  1.00  0.00     0.014 A 
ATOM     24  C   UNL A   1      40.444  26.127  26.473  1.00  0.00     0.010 A 
ATOM     25  C   UNL A   1      39.457  25.612  28.610  1.00  0.00     0.010 A 
ATOM     26  C   UNL A   1      40.165  26.507  27.795  1.00  0.00    -0.014 A 
BRANCH  26  27
ATOM     27  C   UNL A   1      40.623  27.817  28.336  1.00  0.00     0.031 A 
ATOM     28  C   UNL A   1      42.094  28.120  28.485  1.00  0.00     0.074 A 
ATOM     29  C   UNL A   1      39.717  28.717  28.768  1.00  0.00     0.049 A 
ATOM     30  N   UNL A   1      42.671  29.197  28.955  1.00  0.00    -0.248 NA
ATOM     31  C   UNL A   1      43.039  27.066  28.084  1.00  0.00     0.031 C 
ATOM     32  C   UNL A   1      38.267  28.515  28.777  1.00  0.00     0.029 A 
ATOM     33  N   UNL A   1      39.881  29.967  29.313  1.00  0.00    -0.354 N 
ATOM     34  C   UNL A   1      44.036  28.933  28.951  1.00  0.00     0.074 A 
ATOM     35  C   UNL A   1      44.199  27.581  28.463  1.00  0.00     0.031 C 
ATOM     36  C   UNL A   1      37.676  29.600  29.301  1.00  0.00     0.029 A 
ATOM     37  C   UNL A   1      38.701  30.565  29.689  1.00  0.00     0.049 A 
ATOM     38  H   UNL A   1      40.761  30.395  29.423  1.00  0.00     0.167 HD
ATOM     39  C   UNL A   1      45.065  29.745  29.295  1.00  0.00     0.034 A 
ATOM     40  C   UNL A   1      38.464  31.750  30.286  1.00  0.00     0.034 A 
ATOM     41  C   UNL A   1      44.908  31.108  29.727  1.00  0.00     0.049 A 
ATOM     42  C   UNL A   1      39.616  32.667  30.585  1.00  0.00     0.074 A 
ATOM     43  C   UNL A   1      45.889  32.052  29.971  1.00  0.00     0.029 A 
ATOM     44  N   UNL A   1      43.692  31.718  29.996  1.00  0.00    -0.354 N 
ATOM     45  N   UNL A   1      40.898  32.472  30.389  1.00  0.00    -0.248 NA
ATOM     46  C   UNL A   1      39.290  33.986  31.150  1.00  0.00     0.031 C 
ATOM     47  C   UNL A   1      45.268  33.224  30.417  1.00  0.00     0.029 A 
ATOM     48  C   UNL A   1      43.898  33.018  30.424  1.00  0.00     0.049 A 
ATOM     49  H   UNL A   1      42.812  31.289  29.898  1.00  0.00     0.167 HD
ATOM     50  C   UNL A   1      41.529  33.647  30.782  1.00  0.00     0.074 A 
ATOM     51  C   UNL A   1      40.485  34.559  31.203  1.00  0.00     0.031 C 
ATOM     52  C   UNL A   1      42.853  33.935  30.806  1.00  0.00     0.034 A 
BRANCH  39  53
ATOM     53  C   UNL A   1      46.464  29.192  29.172  1.00  0.00     0.023 A 
ATOM     54  C   UNL A   1      47.096  28.630  30.300  1.00  0.00     0.012 A 
ATOM     55  C   UNL A   1      47.136  29.191  27.934  1.00  0.00     0.148 A 
ATOM     56  C   UNL A   1      48.391  28.119  30.211  1.00  0.00     0.002 A 
ATOM     57  C   UNL A   1      48.409  28.638  27.842  1.00  0.00     0.091 A 
ATOM     58  F   UNL A   1      46.532  29.748  26.875  1.00  0.00    -0.205 F 
ATOM     59  C   UNL A   1      49.043  28.115  28.981  1.00  0.00     0.022 A 
BRANCH  57  60
ATOM     60  S   UNL A   1      49.294  28.511  26.283  1.00  0.00     0.127 S 
ATOM     61  O   UNL A   1      49.935  29.823  26.202  1.00  0.00    -0.237 OA
ATOM     62  O   UNL A   1      50.212  27.400  26.536  1.00  0.00    -0.237 OA
ATOM     63  O   UNL A   1      48.282  28.240  25.272  1.00  0.00    -0.744 OA
ENDBRANCH  57  60
ENDBRANCH  39  53
BRANCH  40  64
ATOM     64  C   UNL A   1      37.059  32.150  30.577  1.00  0.00     0.023 A 
ATOM     65  C   UNL A   1      36.555  32.023  31.886  1.00  0.00     0.012 A 
ATOM     66  C   UNL A   1      36.246  32.724  29.580  1.00  0.00     0.148 A 
ATOM     67  C   UNL A   1      35.262  32.445  32.193  1.00  0.00     0.002 A 
ATOM     68  C   UNL A   1      34.980  33.195  29.905  1.00  0.00     0.091 A 
ATOM     69  F   UNL A   1      36.743  32.826  28.339  1.00  0.00    -0.205 F 
ATOM     70  C   UNL A   1      34.479  33.042  31.208  1.00  0.00     0.022 A 
BRANCH  68  71
ATOM     71  S   UNL A   1      33.964  34.109  28.739  1.00  0.00     0.127 S 
ATOM     72  O   UNL A   1      34.924  35.073  28.201  1.00  0.00    -0.237 OA
ATOM     73  O   UNL A   1      33.561  33.057  27.805  1.00  0.00    -0.237 OA
ATOM     74  O   UNL A   1      32.874  34.671  29.519  1.00  0.00    -0.744 OA
ENDBRANCH  68  71
ENDBRANCH  40  64
BRANCH  52  75
ATOM     75  C   UNL A   1      43.263  35.304  31.289  1.00  0.00     0.023 A 
ATOM     76  C   UNL A   1      43.494  35.520  32.662  1.00  0.00     0.012 A 
ATOM     77  C   UNL A   1      43.493  36.352  30.377  1.00  0.00     0.148 A 
ATOM     78  C   UNL A   1      43.914  36.768  33.123  1.00  0.00     0.002 A 
ATOM     79  C   UNL A   1      43.958  37.579  30.838  1.00  0.00     0.091 A 
ATOM     80  F   UNL A   1      43.250  36.133  29.076  1.00  0.00    -0.205 F 
ATOM     81  C   UNL A   1      44.158  37.791  32.211  1.00  0.00     0.022 A 
BRANCH  79  82
ATOM     82  S   UNL A   1      44.389  38.923  29.726  1.00  0.00     0.127 S 
ATOM     83  O   UNL A   1      43.094  39.242  29.128  1.00  0.00    -0.237 OA
ATOM     84  O   UNL A   1      44.903  39.938  30.648  1.00  0.00    -0.237 OA
ATOM     85  O   UNL A   1      45.386  38.381  28.812  1.00  0.00    -0.744 OA
ENDBRANCH  79  82
ENDBRANCH  52  75
ENDBRANCH  26  27
ENDBRANCH  18  21
ENDBRANCH  16  17
ENDBRANCH   1  16
TORSDOF 17
ENDMDL
MODEL 2
REMARK VINA RESULT:      -9.3      5.435     10.879
REMARK SMILES C=CC[N@@H+](CC(=O)NCCCNC(=O)c1ccc(-c2c3nc(c(-c4cccc(S(=O)(=O)[O-])c4F)c4ccc([nH]4)c(-c4cccc(S(=O)(=O)[O-])c4F)c4nc(c(-c5cccc(S(=O)(=O)[O-])c5F)c5ccc2[nH]5)C=C4)C=C3)cc1)C(C)C
REMARK SMILES IDX 10 1 9 2 8 3 6 4 7 5 5 7 4 8 3 10 2 11 1 12 78 13 79 14
REMARK SMILES IDX 80 15 11 16 12 17 13 18 14 20 15 21 16 22 77 23 17 24 76 25
REMARK SMILES IDX 18 26 19 27 20 28 70 29 21 30 75 31 69 32 71 33 22 34 74 35
REMARK SMILES IDX 68 36 67 37 23 39 55 40 35 41 54 42 36 43 39 44 53 45 72 46
REMARK SMILES IDX 37 47 38 48 52 50 73 51 40 52 24 53 25 54 33 55 26 56 28 57
REMARK SMILES IDX 34 58 27 59 29 60 30 61 31 62 32 63 56 64 57 65 65 66 58 67
REMARK SMILES IDX 60 68 66 69 59 70 61 71 62 72 63 73 64 74 41 75 42 76 50 77
REMARK SMILES IDX 43 78 45 79 51 80 44 81 46 82 47 83 48 84 49 85
REMARK H PARENT 8 6 4 9 12 19 71 38 39 49
REMARK Flexibility Score: inf
ROOT
ATOM      1  C   UNL A   1      32.519  27.771  27.072  1.00  0.00     0.042 C 
ENDROOT
BRANCH   1   2
ATOM      2  C   UNL A   1      31.770  26.856  26.098  1.00  0.00     0.118 C 
BRANCH   2   3
ATOM      3  N   UNL A   1      31.194  25.693  26.753  1.00  0.00    -0.351 N 
ATOM      4  C   UNL A   1      31.259  24.360  26.469  1.00  0.00     0.275 C 
ATOM      5  O   UNL A   1      30.759  23.600  27.310  1.00  0.00    -0.269 OA
ATOM      6  H   UNL A   1      30.658  25.907  27.550  1.00  0.00     0.163 HD
BRANCH   4   7
ATOM      7  C   UNL A   1      31.958  23.783  25.229  1.00  0.00     0.363 C 
BRANCH   7   8
ATOM      8  N   UNL A   1      33.256  23.079  25.423  1.00  0.00    -0.322 N 
ATOM      9  H   UNL A   1      33.145  22.356  26.134  1.00  0.00     0.349 HD
BRANCH   8  10
ATOM     10  C   UNL A   1      34.243  23.958  26.029  1.00  0.00     0.291 C 
BRANCH  10  11
ATOM     11  C   UNL A   1      35.541  24.220  25.339  1.00  0.00     0.025 C 
ATOM     12  C   UNL A   1      36.711  23.722  25.769  1.00  0.00     0.010 C 
ENDBRANCH  10  11
ENDBRANCH   8  10
BRANCH   8  13
ATOM     13  C   UNL A   1      33.647  22.176  24.320  1.00  0.00     0.178 C 
ATOM     14  C   UNL A   1      33.883  20.698  24.668  1.00  0.00     0.075 C 
ATOM     15  C   UNL A   1      32.686  22.233  23.119  1.00  0.00     0.075 C 
ENDBRANCH   8  13
ENDBRANCH   7   8
ENDBRANCH   4   7
ENDBRANCH   2   3
ENDBRANCH   1   2
BRANCH   1  16
ATOM     16  C   UNL A   1      33.610  28.632  26.460  1.00  0.00     0.118 C 
BRANCH  16  17
ATOM     17  N   UNL A   1      33.559  30.009  26.911  1.00  0.00    -0.352 N 
ATOM     18  C   UNL A   1      34.404  30.730  27.722  1.00  0.00     0.251 C 
ATOM     19  H   UNL A   1      32.784  30.517  26.579  1.00  0.00     0.163 HD
ATOM     20  O   UNL A   1      34.028  31.836  28.108  1.00  0.00    -0.269 OA
BRANCH  18  21
ATOM     21  C   UNL A   1      35.732  30.219  28.159  1.00  0.00     0.039 A 
ATOM     22  C   UNL A   1      35.834  29.652  29.437  1.00  0.00     0.014 A 
ATOM     23  C   UNL A   1      36.889  30.353  27.389  1.00  0.00     0.014 A 
ATOM     24  C   UNL A   1      37.068  29.195  29.915  1.00  0.00     0.010 A 
ATOM     25  C   UNL A   1      38.098  29.806  27.825  1.00  0.00     0.010 A 
ATOM     26  C   UNL A   1      38.213  29.245  29.105  1.00  0.00    -0.014 A 
BRANCH  26  27
ATOM     27  C   UNL A   1      39.525  28.734  29.589  1.00  0.00     0.031 A 
ATOM     28  C   UNL A   1      40.259  29.429  30.710  1.00  0.00     0.074 A 
ATOM     29  C   UNL A   1      40.104  27.684  28.973  1.00  0.00     0.049 A 
ATOM     30  N   UNL A   1      41.418  29.137  31.244  1.00  0.00    -0.248 NA
ATOM     31  C   UNL A   1      39.625  30.627  31.284  1.00  0.00     0.031 C 
ATOM     32  C   UNL A   1      39.555  26.979  27.814  1.00  0.00     0.029 A 
ATOM     33  N   UNL A   1      41.295  27.045  29.215  1.00  0.00    -0.354 N 
ATOM     34  C   UNL A   1      41.672  30.136  32.177  1.00  0.00     0.074 A 
ATOM     35  C   UNL A   1      40.562  31.061  32.114  1.00  0.00     0.031 C 
ATOM     36  C   UNL A   1      40.405  26.010  27.445  1.00  0.00     0.029 A 
ATOM     37  C   UNL A   1      41.572  26.036  28.323  1.00  0.00     0.049 A 
ATOM     38  H   UNL A   1      41.895  27.288  29.958  1.00  0.00     0.167 HD
ATOM     39  C   UNL A   1      42.717  30.261  33.031  1.00  0.00     0.034 A 
ATOM     40  C   UNL A   1      42.644  25.226  28.213  1.00  0.00     0.034 A 
ATOM     41  C   UNL A   1      43.793  29.313  33.134  1.00  0.00     0.049 A 
ATOM     42  C   UNL A   1      43.755  25.333  29.219  1.00  0.00     0.074 A 
ATOM     43  C   UNL A   1      44.827  29.280  34.053  1.00  0.00     0.029 A 
ATOM     44  N   UNL A   1      43.986  28.238  32.280  1.00  0.00    -0.354 N 
ATOM     45  N   UNL A   1      43.880  26.167  30.223  1.00  0.00    -0.248 NA
ATOM     46  C   UNL A   1      44.854  24.362  29.106  1.00  0.00     0.031 C 
ATOM     47  C   UNL A   1      45.662  28.203  33.737  1.00  0.00     0.029 A 
ATOM     48  C   UNL A   1      45.133  27.548  32.637  1.00  0.00     0.049 A 
ATOM     49  H   UNL A   1      43.395  28.001  31.530  1.00  0.00     0.167 HD
ATOM     50  C   UNL A   1      45.055  25.809  30.875  1.00  0.00     0.074 A 
ATOM     51  C   UNL A   1      45.591  24.664  30.167  1.00  0.00     0.031 C 
ATOM     52  C   UNL A   1      45.642  26.386  31.952  1.00  0.00     0.034 A 
BRANCH  39  53
ATOM     53  C   UNL A   1      42.723  31.452  33.959  1.00  0.00     0.023 A 
ATOM     54  C   UNL A   1      43.269  32.677  33.522  1.00  0.00     0.012 A 
ATOM     55  C   UNL A   1      42.153  31.371  35.244  1.00  0.00     0.148 A 
ATOM     56  C   UNL A   1      43.291  33.787  34.365  1.00  0.00     0.002 A 
ATOM     57  C   UNL A   1      42.136  32.496  36.062  1.00  0.00     0.091 A 
ATOM     58  F   UNL A   1      41.657  30.195  35.653  1.00  0.00    -0.205 F 
ATOM     59  C   UNL A   1      42.717  33.700  35.630  1.00  0.00     0.022 A 
BRANCH  57  60
ATOM     60  S   UNL A   1      41.345  32.502  37.675  1.00  0.00     0.127 S 
ATOM     61  O   UNL A   1      39.991  32.061  37.340  1.00  0.00    -0.237 OA
ATOM     62  O   UNL A   1      42.139  31.520  38.415  1.00  0.00    -0.237 OA
ATOM     63  O   UNL A   1      41.459  33.867  38.168  1.00  0.00    -0.744 OA
ENDBRANCH  57  60
ENDBRANCH  39  53
BRANCH  40  64
ATOM     64  C   UNL A   1      42.674  24.201  27.132  1.00  0.00     0.023 A 
ATOM     65  C   UNL A   1      43.404  24.451  25.954  1.00  0.00     0.012 A 
ATOM     66  C   UNL A   1      42.043  22.952  27.299  1.00  0.00     0.148 A 
ATOM     67  C   UNL A   1      43.491  23.482  24.954  1.00  0.00     0.002 A 
ATOM     68  C   UNL A   1      42.183  21.971  26.326  1.00  0.00     0.091 A 
ATOM     69  F   UNL A   1      41.346  22.741  28.424  1.00  0.00    -0.205 F 
ATOM     70  C   UNL A   1      42.893  22.239  25.145  1.00  0.00     0.022 A 
BRANCH  68  71
ATOM     71  S   UNL A   1      41.574  20.296  26.553  1.00  0.00     0.127 S 
ATOM     72  O   UNL A   1      40.127  20.501  26.539  1.00  0.00    -0.237 OA
ATOM     73  O   UNL A   1      42.111  19.620  25.370  1.00  0.00    -0.237 OA
ATOM     74  O   UNL A   1      42.136  19.838  27.814  1.00  0.00    -0.744 OA
ENDBRANCH  68  71
ENDBRANCH  40  64
BRANCH  52  75
ATOM     75  C   UNL A   1      46.931  25.786  32.453  1.00  0.00     0.023 A 
ATOM     76  C   UNL A   1      48.160  26.225  31.922  1.00  0.00     0.012 A 
ATOM     77  C   UNL A   1      46.928  24.843  33.500  1.00  0.00     0.148 A 
ATOM     78  C   UNL A   1      49.365  25.711  32.403  1.00  0.00     0.002 A 
ATOM     79  C   UNL A   1      48.134  24.372  34.007  1.00  0.00     0.091 A 
ATOM     80  F   UNL A   1      45.749  24.423  33.980  1.00  0.00    -0.205 F 
ATOM     81  C   UNL A   1      49.352  24.796  33.452  1.00  0.00     0.022 A 
BRANCH  79  82
ATOM     82  S   UNL A   1      48.216  23.264  35.419  1.00  0.00     0.127 S 
ATOM     83  O   UNL A   1      49.640  22.934  35.457  1.00  0.00    -0.237 OA
ATOM     84  O   UNL A   1      47.759  24.121  36.515  1.00  0.00    -0.237 OA
ATOM     85  O   UNL A   1      47.324  22.155  35.110  1.00  0.00    -0.744 OA
ENDBRANCH  79  82
ENDBRANCH  52  75
ENDBRANCH  26  27
ENDBRANCH  18  21
ENDBRANCH  16  17
ENDBRANCH   1  16
TORSDOF 17
ENDMDL
MODEL 3
REMARK VINA RESULT:      -9.1      5.064     10.698
REMARK SMILES C=CC[N@@H+](CC(=O)NCCCNC(=O)c1ccc(-c2c3nc(c(-c4cccc(S(=O)(=O)[O-])c4F)c4ccc([nH]4)c(-c4cccc(S(=O)(=O)[O-])c4F)c4nc(c(-c5cccc(S(=O)(=O)[O-])c5F)c5ccc2[nH]5)C=C4)C=C3)cc1)C(C)C
REMARK SMILES IDX 10 1 9 2 8 3 6 4 7 5 5 7 4 8 3 10 2 11 1 12 78 13 79 14
REMARK SMILES IDX 80 15 11 16 12 17 13 18 14 20 15 21 16 22 77 23 17 24 76 25
REMARK SMILES IDX 18 26 19 27 20 28 70 29 21 30 75 31 69 32 71 33 22 34 74 35
REMARK SMILES IDX 68 36 67 37 23 39 55 40 35 41 54 42 36 43 39 44 53 45 72 46
REMARK SMILES IDX 37 47 38 48 52 50 73 51 40 52 24 53 25 54 33 55 26 56 28 57
REMARK SMILES IDX 34 58 27 59 29 60 30 61 31 62 32 63 56 64 57 65 65 66 58 67
REMARK SMILES IDX 60 68 66 69 59 70 61 71 62 72 63 73 64 74 41 75 42 76 50 77
REMARK SMILES IDX 43 78 45 79 51 80 44 81 46 82 47 83 48 84 49 85
REMARK H PARENT 8 6 4 9 12 19 71 38 39 49
REMARK Flexibility Score: inf
ROOT
ATOM      1  C   UNL A   1      32.226  27.887  27.111  1.00  0.00     0.042 C 
ENDROOT
BRANCH   1   2
ATOM      2  C   UNL A   1      31.569  27.001  26.048  1.00  0.00     0.118 C 
BRANCH   2   3
ATOM      3  N   UNL A   1      31.152  25.711  26.574  1.00  0.00    -0.351 N 
ATOM      4  C   UNL A   1      31.808  24.522  26.705  1.00  0.00     0.275 C 
ATOM      5  O   UNL A   1      31.206  23.634  27.323  1.00  0.00    -0.269 OA
ATOM      6  H   UNL A   1      30.222  25.693  26.899  1.00  0.00     0.163 HD
BRANCH   4   7
ATOM      7  C   UNL A   1      33.234  24.273  26.191  1.00  0.00     0.363 C 
BRANCH   7   8
ATOM      8  N   UNL A   1      33.423  23.259  25.117  1.00  0.00    -0.322 N 
ATOM      9  H   UNL A   1      32.512  22.967  24.765  1.00  0.00     0.349 HD
BRANCH   8  10
ATOM     10  C   UNL A   1      33.956  22.019  25.657  1.00  0.00     0.291 C 
BRANCH  10  11
ATOM     11  C   UNL A   1      33.098  20.799  25.727  1.00  0.00     0.025 C 
ATOM     12  C   UNL A   1      32.315  20.396  24.714  1.00  0.00     0.010 C 
ENDBRANCH  10  11
ENDBRANCH   8  10
BRANCH   8  13
ATOM     13  C   UNL A   1      33.939  23.793  23.839  1.00  0.00     0.178 C 
ATOM     14  C   UNL A   1      33.295  23.270  22.545  1.00  0.00     0.075 C 
ATOM     15  C   UNL A   1      33.942  25.331  23.780  1.00  0.00     0.075 C 
ENDBRANCH   8  13
ENDBRANCH   7   8
ENDBRANCH   4   7
ENDBRANCH   2   3
ENDBRANCH   1   2
BRANCH   1  16
ATOM     16  C   UNL A   1      33.525  28.557  26.699  1.00  0.00     0.118 C 
BRANCH  16  17
ATOM     17  N   UNL A   1      33.534  29.981  26.971  1.00  0.00    -0.352 N 
ATOM     18  C   UNL A   1      34.398  30.759  27.706  1.00  0.00     0.251 C 
ATOM     19  H   UNL A   1      32.793  30.479  26.556  1.00  0.00     0.163 HD
ATOM     20  O   UNL A   1      34.069  31.922  27.939  1.00  0.00    -0.269 OA
BRANCH  18  21
ATOM     21  C   UNL A   1      35.688  30.245  28.240  1.00  0.00     0.039 A 
ATOM     22  C   UNL A   1      36.819  30.315  27.415  1.00  0.00     0.014 A 
ATOM     23  C   UNL A   1      35.803  29.626  29.487  1.00  0.00     0.014 A 
ATOM     24  C   UNL A   1      38.049  29.806  27.850  1.00  0.00     0.010 A 
ATOM     25  C   UNL A   1      37.050  29.212  29.960  1.00  0.00     0.010 A 
ATOM     26  C   UNL A   1      38.185  29.269  29.139  1.00  0.00    -0.014 A 
BRANCH  26  27
ATOM     27  C   UNL A   1      39.495  28.753  29.627  1.00  0.00     0.031 A 
ATOM     28  C   UNL A   1      40.232  29.449  30.743  1.00  0.00     0.074 A 
ATOM     29  C   UNL A   1      40.067  27.695  29.016  1.00  0.00     0.049 A 
ATOM     30  N   UNL A   1      41.390  29.152  31.279  1.00  0.00    -0.248 NA
ATOM     31  C   UNL A   1      39.606  30.654  31.311  1.00  0.00     0.031 C 
ATOM     32  C   UNL A   1      39.513  26.988  27.861  1.00  0.00     0.029 A 
ATOM     33  N   UNL A   1      41.254  27.051  29.261  1.00  0.00    -0.354 N 
ATOM     34  C   UNL A   1      41.651  30.154  32.207  1.00  0.00     0.074 A 
ATOM     35  C   UNL A   1      40.546  31.086  32.139  1.00  0.00     0.031 C 
ATOM     36  C   UNL A   1      40.357  26.012  27.497  1.00  0.00     0.029 A 
ATOM     37  C   UNL A   1      41.524  26.035  28.375  1.00  0.00     0.049 A 
ATOM     38  H   UNL A   1      41.855  27.293  30.003  1.00  0.00     0.167 HD
ATOM     39  C   UNL A   1      42.697  30.278  33.060  1.00  0.00     0.034 A 
ATOM     40  C   UNL A   1      42.591  25.218  28.268  1.00  0.00     0.034 A 
ATOM     41  C   UNL A   1      43.767  29.323  33.168  1.00  0.00     0.049 A 
ATOM     42  C   UNL A   1      43.703  25.323  29.274  1.00  0.00     0.074 A 
ATOM     43  C   UNL A   1      44.800  29.289  34.087  1.00  0.00     0.029 A 
ATOM     44  N   UNL A   1      43.953  28.243  32.320  1.00  0.00    -0.354 N 
ATOM     45  N   UNL A   1      43.833  26.161  30.274  1.00  0.00    -0.248 NA
ATOM     46  C   UNL A   1      44.795  24.344  29.166  1.00  0.00     0.031 C 
ATOM     47  C   UNL A   1      45.628  28.205  33.776  1.00  0.00     0.029 A 
ATOM     48  C   UNL A   1      45.095  27.547  32.680  1.00  0.00     0.049 A 
ATOM     49  H   UNL A   1      43.360  28.005  31.571  1.00  0.00     0.167 HD
ATOM     50  C   UNL A   1      45.006  25.799  30.927  1.00  0.00     0.074 A 
ATOM     51  C   UNL A   1      45.535  24.647  30.225  1.00  0.00     0.031 C 
ATOM     52  C   UNL A   1      45.596  26.378  32.001  1.00  0.00     0.034 A 
BRANCH  39  53
ATOM     53  C   UNL A   1      42.710  31.473  33.982  1.00  0.00     0.023 A 
ATOM     54  C   UNL A   1      43.246  32.698  33.532  1.00  0.00     0.012 A 
ATOM     55  C   UNL A   1      42.157  31.397  35.274  1.00  0.00     0.148 A 
ATOM     56  C   UNL A   1      43.275  33.812  34.369  1.00  0.00     0.002 A 
ATOM     57  C   UNL A   1      42.146  32.526  36.087  1.00  0.00     0.091 A 
ATOM     58  F   UNL A   1      41.670  30.221  35.696  1.00  0.00    -0.205 F 
ATOM     59  C   UNL A   1      42.717  33.729  35.642  1.00  0.00     0.022 A 
BRANCH  57  60
ATOM     60  S   UNL A   1      41.376  32.538  37.710  1.00  0.00     0.127 S 
ATOM     61  O   UNL A   1      41.506  33.945  38.087  1.00  0.00    -0.237 OA
ATOM     62  O   UNL A   1      40.008  32.114  37.408  1.00  0.00    -0.237 OA
ATOM     63  O   UNL A   1      42.136  31.595  38.518  1.00  0.00    -0.744 OA
ENDBRANCH  57  60
ENDBRANCH  39  53
BRANCH  40  64
ATOM     64  C   UNL A   1      42.614  24.187  27.193  1.00  0.00     0.023 A 
ATOM     65  C   UNL A   1      43.328  24.435  26.005  1.00  0.00     0.012 A 
ATOM     66  C   UNL A   1      41.994  22.935  27.375  1.00  0.00     0.148 A 
ATOM     67  C   UNL A   1      43.409  23.461  25.009  1.00  0.00     0.002 A 
ATOM     68  C   UNL A   1      42.128  21.949  26.405  1.00  0.00     0.091 A 
ATOM     69  F   UNL A   1      41.313  22.725  28.510  1.00  0.00    -0.205 F 
ATOM     70  C   UNL A   1      42.822  22.215  25.214  1.00  0.00     0.022 A 
BRANCH  68  71
ATOM     71  S   UNL A   1      41.534  20.271  26.650  1.00  0.00     0.127 S 
ATOM     72  O   UNL A   1      41.945  19.626  25.404  1.00  0.00    -0.237 OA
ATOM     73  O   UNL A   1      42.289  19.857  27.835  1.00  0.00    -0.237 OA
ATOM     74  O   UNL A   1      40.100  20.385  26.860  1.00  0.00    -0.744 OA
ENDBRANCH  68  71
ENDBRANCH  40  64
BRANCH  52  75
ATOM     75  C   UNL A   1      46.882  25.772  32.506  1.00  0.00     0.023 A 
ATOM     76  C   UNL A   1      46.860  24.924  33.631  1.00  0.00     0.012 A 
ATOM     77  C   UNL A   1      48.096  25.982  31.823  1.00  0.00     0.148 A 
ATOM     78  C   UNL A   1      48.032  24.321  34.087  1.00  0.00     0.002 A 
ATOM     79  C   UNL A   1      49.250  25.340  32.255  1.00  0.00     0.091 A 
ATOM     80  F   UNL A   1      48.101  26.807  30.765  1.00  0.00    -0.205 F 
ATOM     81  C   UNL A   1      49.222  24.518  33.393  1.00  0.00     0.022 A 
BRANCH  79  82
ATOM     82  S   UNL A   1      50.807  25.460  31.366  1.00  0.00     0.127 S 
ATOM     83  O   UNL A   1      50.433  24.967  30.042  1.00  0.00    -0.237 OA
ATOM     84  O   UNL A   1      51.090  26.896  31.425  1.00  0.00    -0.237 OA
ATOM     85  O   UNL A   1      51.753  24.631  32.101  1.00  0.00    -0.744 OA
ENDBRANCH  79  82
ENDBRANCH  52  75
ENDBRANCH  26  27
ENDBRANCH  18  21
ENDBRANCH  16  17
ENDBRANCH   1  16
TORSDOF 17
ENDMDL
