MODEL 1
REMARK VINA RESULT:     -11.9      0.000      0.000
REMARK SMILES COc1cc(C[N@H+]2CCC[C@@](O)(CO)C2)cc(Cl)c1OCC(=O)NCCCNC(=O)c1ccc(-c2c3nc(c(-c4cccc(S(=O)(=O)[O-])c4F)c4ccc([nH]4)c(-c4cccc(S(=O)(=O)[O-])c4F)c4nc(c(-c5cccc(S(=O)(=O)[O-])c5F)c5ccc2[nH]5)C=C4)C=C3)cc1
REMARK SMILES IDX 22 1 23 2 24 3 21 5 20 6 19 7 3 8 4 9 5 10 17 11 16 12 18 13
REMARK SMILES IDX 2 14 1 15 6 16 7 17 8 18 15 19 9 21 11 22 10 23 13 24 14 25
REMARK SMILES IDX 12 27 25 29 26 30 27 31 28 32 29 33 30 35 31 36 32 37 93 38
REMARK SMILES IDX 33 39 92 40 34 41 35 42 36 43 86 44 37 45 91 46 85 47 87 48
REMARK SMILES IDX 38 49 90 50 84 51 83 52 39 54 71 55 51 56 70 57 52 58 55 59
REMARK SMILES IDX 69 60 88 61 53 62 54 63 68 65 89 66 56 67 40 68 41 69 49 70
REMARK SMILES IDX 42 71 44 72 50 73 43 74 45 75 46 76 47 77 48 78 72 79 73 80
REMARK SMILES IDX 81 81 74 82 76 83 82 84 75 85 77 86 78 87 79 88 80 89 57 90
REMARK SMILES IDX 58 91 66 92 59 93 61 94 67 95 60 96 62 97 63 98 64 99 65 100
REMARK H PARENT 24 4 7 20 14 26 12 28 28 34 87 53 55 64
REMARK Flexibility Score: inf
ROOT
ATOM      1  C   UNL A   1      30.273  29.800  23.786  1.00  0.00     0.257 C 
ATOM      2  O   UNL A   1      29.310  30.083  23.069  1.00  0.00    -0.271 OA
ATOM      3  N   UNL A   1      30.694  30.753  24.665  1.00  0.00    -0.353 N 
ATOM      4  H   UNL A   1      30.294  31.645  24.544  1.00  0.00     0.163 HD
ENDROOT
BRANCH   1   5
ATOM      5  C   UNL A   1      30.916  28.401  23.775  1.00  0.00     0.329 C 
BRANCH   5   6
ATOM      6  O   UNL A   1      32.317  28.247  23.739  1.00  0.00    -0.478 OA
BRANCH   6   7
ATOM      7  C   UNL A   1      32.970  27.158  24.245  1.00  0.00     0.180 A 
ATOM      8  C   UNL A   1      33.421  26.271  23.242  1.00  0.00     0.162 A 
ATOM      9  C   UNL A   1      34.018  25.041  23.552  1.00  0.00     0.060 A 
ATOM     10  C   UNL A   1      34.073  24.608  24.875  1.00  0.00     0.012 A 
ATOM     11  C   UNL A   1      33.231  26.803  25.573  1.00  0.00     0.087 A 
ATOM     12  C   UNL A   1      33.740  25.529  25.877  1.00  0.00     0.034 A 
ATOM     13  Cl  UNL A   1      33.048  27.833  26.943  1.00  0.00    -0.080 Cl
BRANCH   8  14
ATOM     14  O   UNL A   1      33.324  26.661  21.923  1.00  0.00    -0.493 OA
ATOM     15  C   UNL A   1      32.527  25.764  21.151  1.00  0.00     0.278 C 
ENDBRANCH   8  14
BRANCH  10  16
ATOM     16  C   UNL A   1      34.375  23.173  25.248  1.00  0.00     0.299 C 
BRANCH  16  17
ATOM     17  N   UNL A   1      33.233  22.353  25.641  1.00  0.00    -0.329 N 
ATOM     18  C   UNL A   1      32.026  22.326  24.835  1.00  0.00     0.262 C 
ATOM     19  C   UNL A   1      33.477  21.058  26.270  1.00  0.00     0.300 C 
ATOM     20  H   UNL A   1      33.009  23.007  26.391  1.00  0.00     0.348 HD
ATOM     21  C   UNL A   1      32.086  21.287  23.718  1.00  0.00     0.065 C 
ATOM     22  C   UNL A   1      33.549  19.817  25.343  1.00  0.00     0.136 C 
ATOM     23  C   UNL A   1      32.535  19.890  24.168  1.00  0.00     0.049 C 
BRANCH  22  24
ATOM     24  C   UNL A   1      34.983  19.460  24.859  1.00  0.00     0.197 C 
BRANCH  24  25
ATOM     25  O   UNL A   1      35.247  18.062  24.771  1.00  0.00    -0.393 OA
ATOM     26  H   UNL A   1      36.053  17.852  25.269  1.00  0.00     0.210 HD
ENDBRANCH  24  25
ENDBRANCH  22  24
BRANCH  22  27
ATOM     27  O   UNL A   1      33.106  18.704  26.159  1.00  0.00    -0.382 OA
ATOM     28  H   UNL A   1      32.219  18.889  26.503  1.00  0.00     0.211 HD
ENDBRANCH  22  27
ENDBRANCH  16  17
ENDBRANCH  10  16
ENDBRANCH   6   7
ENDBRANCH   5   6
ENDBRANCH   1   5
BRANCH   3  29
ATOM     29  C   UNL A   1      31.645  30.642  25.752  1.00  0.00     0.117 C 
BRANCH  29  30
ATOM     30  C   UNL A   1      31.448  31.719  26.810  1.00  0.00     0.042 C 
BRANCH  30  31
ATOM     31  C   UNL A   1      32.709  32.473  27.225  1.00  0.00     0.118 C 
BRANCH  31  32
ATOM     32  N   UNL A   1      32.471  33.865  27.577  1.00  0.00    -0.352 N 
ATOM     33  C   UNL A   1      33.095  34.671  28.498  1.00  0.00     0.251 C 
ATOM     34  H   UNL A   1      31.746  34.300  27.073  1.00  0.00     0.163 HD
ATOM     35  O   UNL A   1      32.639  35.795  28.717  1.00  0.00    -0.269 OA
BRANCH  33  36
ATOM     36  C   UNL A   1      34.280  34.201  29.250  1.00  0.00     0.039 A 
ATOM     37  C   UNL A   1      34.082  33.525  30.459  1.00  0.00     0.014 A 
ATOM     38  C   UNL A   1      35.578  34.427  28.786  1.00  0.00     0.014 A 
ATOM     39  C   UNL A   1      35.178  33.013  31.158  1.00  0.00     0.010 A 
ATOM     40  C   UNL A   1      36.662  33.844  29.439  1.00  0.00     0.010 A 
ATOM     41  C   UNL A   1      36.476  33.129  30.632  1.00  0.00    -0.014 A 
BRANCH  41  42
ATOM     42  C   UNL A   1      37.636  32.480  31.298  1.00  0.00     0.031 A 
ATOM     43  C   UNL A   1      38.341  31.316  30.656  1.00  0.00     0.074 A 
ATOM     44  C   UNL A   1      38.002  32.883  32.531  1.00  0.00     0.049 A 
ATOM     45  N   UNL A   1      39.330  30.596  31.117  1.00  0.00    -0.248 NA
ATOM     46  C   UNL A   1      37.855  30.890  29.334  1.00  0.00     0.031 C 
ATOM     47  C   UNL A   1      37.349  33.945  33.300  1.00  0.00     0.029 A 
ATOM     48  N   UNL A   1      38.992  32.430  33.368  1.00  0.00    -0.354 N 
ATOM     49  C   UNL A   1      39.566  29.615  30.161  1.00  0.00     0.074 A 
ATOM     50  C   UNL A   1      38.588  29.809  29.112  1.00  0.00     0.031 C 
ATOM     51  C   UNL A   1      37.954  34.061  34.492  1.00  0.00     0.029 A 
ATOM     52  C   UNL A   1      39.011  33.060  34.589  1.00  0.00     0.049 A 
ATOM     53  H   UNL A   1      39.627  31.721  33.116  1.00  0.00     0.167 HD
ATOM     54  C   UNL A   1      40.526  28.658  30.140  1.00  0.00     0.034 A 
ATOM     55  C   UNL A   1      39.780  32.849  35.677  1.00  0.00     0.034 A 
ATOM     56  C   UNL A   1      41.512  28.480  31.173  1.00  0.00     0.049 A 
ATOM     57  C   UNL A   1      40.853  31.797  35.625  1.00  0.00     0.074 A 
ATOM     58  C   UNL A   1      42.574  27.593  31.207  1.00  0.00     0.029 A 
ATOM     59  N   UNL A   1      41.549  29.189  32.364  1.00  0.00    -0.354 N 
ATOM     60  N   UNL A   1      41.161  30.983  34.645  1.00  0.00    -0.248 NA
ATOM     61  C   UNL A   1      41.706  31.657  36.813  1.00  0.00     0.031 C 
ATOM     62  C   UNL A   1      43.231  27.742  32.433  1.00  0.00     0.029 A 
ATOM     63  C   UNL A   1      42.604  28.750  33.147  1.00  0.00     0.049 A 
ATOM     64  H   UNL A   1      40.917  29.901  32.617  1.00  0.00     0.167 HD
ATOM     65  C   UNL A   1      42.261  30.255  35.085  1.00  0.00     0.074 A 
ATOM     66  C   UNL A   1      42.578  30.743  36.411  1.00  0.00     0.031 C 
ATOM     67  C   UNL A   1      42.937  29.265  34.451  1.00  0.00     0.034 A 
BRANCH  54  68
ATOM     68  C   UNL A   1      40.579  27.755  28.932  1.00  0.00     0.023 A 
ATOM     69  C   UNL A   1      39.625  26.726  28.789  1.00  0.00     0.012 A 
ATOM     70  C   UNL A   1      41.543  27.945  27.923  1.00  0.00     0.148 A 
ATOM     71  C   UNL A   1      39.660  25.870  27.690  1.00  0.00     0.002 A 
ATOM     72  C   UNL A   1      41.541  27.118  26.804  1.00  0.00     0.091 A 
ATOM     73  F   UNL A   1      42.455  28.916  28.081  1.00  0.00    -0.205 F 
ATOM     74  C   UNL A   1      40.611  26.072  26.695  1.00  0.00     0.022 A 
BRANCH  72  75
ATOM     75  S   UNL A   1      42.672  27.348  25.428  1.00  0.00     0.127 S 
ATOM     76  O   UNL A   1      42.496  26.097  24.691  1.00  0.00    -0.237 OA
ATOM     77  O   UNL A   1      42.114  28.528  24.766  1.00  0.00    -0.237 OA
ATOM     78  O   UNL A   1      43.987  27.549  26.018  1.00  0.00    -0.744 OA
ENDBRANCH  72  75
ENDBRANCH  54  68
BRANCH  55  79
ATOM     79  C   UNL A   1      39.578  33.685  36.892  1.00  0.00     0.023 A 
ATOM     80  C   UNL A   1      39.998  35.028  36.897  1.00  0.00     0.012 A 
ATOM     81  C   UNL A   1      38.920  33.165  38.024  1.00  0.00     0.148 A 
ATOM     82  C   UNL A   1      39.790  35.833  38.019  1.00  0.00     0.002 A 
ATOM     83  C   UNL A   1      38.659  33.988  39.111  1.00  0.00     0.091 A 
ATOM     84  F   UNL A   1      38.537  31.880  38.001  1.00  0.00    -0.205 F 
ATOM     85  C   UNL A   1      39.110  35.317  39.120  1.00  0.00     0.022 A 
BRANCH  83  86
ATOM     86  S   UNL A   1      37.651  33.450  40.496  1.00  0.00     0.127 S 
ATOM     87  O   UNL A   1      38.493  32.420  41.097  1.00  0.00    -0.237 OA
ATOM     88  O   UNL A   1      37.529  34.682  41.276  1.00  0.00    -0.237 OA
ATOM     89  O   UNL A   1      36.396  32.987  39.915  1.00  0.00    -0.744 OA
ENDBRANCH  83  86
ENDBRANCH  55  79
BRANCH  67  90
ATOM     90  C   UNL A   1      44.114  28.655  35.168  1.00  0.00     0.023 A 
ATOM     91  C   UNL A   1      45.415  29.141  34.928  1.00  0.00     0.012 A 
ATOM     92  C   UNL A   1      43.922  27.644  36.131  1.00  0.00     0.148 A 
ATOM     93  C   UNL A   1      46.509  28.607  35.608  1.00  0.00     0.002 A 
ATOM     94  C   UNL A   1      45.010  27.154  36.843  1.00  0.00     0.091 A 
ATOM     95  F   UNL A   1      42.680  27.182  36.333  1.00  0.00    -0.205 F 
ATOM     96  C   UNL A   1      46.305  27.623  36.573  1.00  0.00     0.022 A 
BRANCH  94  97
ATOM     97  S   UNL A   1      44.834  25.956  38.170  1.00  0.00     0.127 S 
ATOM     98  O   UNL A   1      46.226  25.738  38.561  1.00  0.00    -0.237 OA
ATOM     99  O   UNL A   1      44.034  26.693  39.148  1.00  0.00    -0.237 OA
ATOM    100  O   UNL A   1      44.164  24.802  37.586  1.00  0.00    -0.744 OA
ENDBRANCH  94  97
ENDBRANCH  67  90
ENDBRANCH  41  42
ENDBRANCH  33  36
ENDBRANCH  31  32
ENDBRANCH  30  31
ENDBRANCH  29  30
ENDBRANCH   3  29
TORSDOF 21
ENDMDL
MODEL 2
REMARK VINA RESULT:     -11.1      2.144      7.961
REMARK SMILES COc1cc(C[N@H+]2CCC[C@@](O)(CO)C2)cc(Cl)c1OCC(=O)NCCCNC(=O)c1ccc(-c2c3nc(c(-c4cccc(S(=O)(=O)[O-])c4F)c4ccc([nH]4)c(-c4cccc(S(=O)(=O)[O-])c4F)c4nc(c(-c5cccc(S(=O)(=O)[O-])c5F)c5ccc2[nH]5)C=C4)C=C3)cc1
REMARK SMILES IDX 22 1 23 2 24 3 21 5 20 6 19 7 3 8 4 9 5 10 17 11 16 12 18 13
REMARK SMILES IDX 2 14 1 15 6 16 7 17 8 18 15 19 9 21 11 22 10 23 13 24 14 25
REMARK SMILES IDX 12 27 25 29 26 30 27 31 28 32 29 33 30 35 31 36 32 37 93 38
REMARK SMILES IDX 33 39 92 40 34 41 35 42 36 43 86 44 37 45 91 46 85 47 87 48
REMARK SMILES IDX 38 49 90 50 84 51 83 52 39 54 71 55 51 56 70 57 52 58 55 59
REMARK SMILES IDX 69 60 88 61 53 62 54 63 68 65 89 66 56 67 40 68 41 69 49 70
REMARK SMILES IDX 42 71 44 72 50 73 43 74 45 75 46 76 47 77 48 78 72 79 73 80
REMARK SMILES IDX 81 81 74 82 76 83 82 84 75 85 77 86 78 87 79 88 80 89 57 90
REMARK SMILES IDX 58 91 66 92 59 93 61 94 67 95 60 96 62 97 63 98 64 99 65 100
REMARK H PARENT 24 4 7 20 14 26 12 28 28 34 87 53 55 64
REMARK Flexibility Score: inf
ROOT
ATOM      1  C   UNL A   1      31.545  27.692  24.649  1.00  0.00     0.257 C 
ATOM      2  O   UNL A   1      31.699  27.359  23.471  1.00  0.00    -0.271 OA
ATOM      3  N   UNL A   1      31.782  28.996  24.962  1.00  0.00    -0.353 N 
ATOM      4  H   UNL A   1      32.209  29.529  24.252  1.00  0.00     0.163 HD
ENDROOT
BRANCH   1   5
ATOM      5  C   UNL A   1      31.008  26.713  25.709  1.00  0.00     0.329 C 
BRANCH   5   6
ATOM      6  O   UNL A   1      31.888  25.955  26.508  1.00  0.00    -0.478 OA
BRANCH   6   7
ATOM      7  C   UNL A   1      32.390  24.740  26.134  1.00  0.00     0.180 A 
ATOM      8  C   UNL A   1      31.666  23.654  26.675  1.00  0.00     0.162 A 
ATOM      9  C   UNL A   1      32.078  22.326  26.501  1.00  0.00     0.060 A 
ATOM     10  C   UNL A   1      33.295  22.050  25.881  1.00  0.00     0.012 A 
ATOM     11  C   UNL A   1      33.491  24.431  25.329  1.00  0.00     0.087 A 
ATOM     12  C   UNL A   1      33.954  23.107  25.240  1.00  0.00     0.034 A 
ATOM     13  Cl  UNL A   1      34.349  25.545  24.330  1.00  0.00    -0.080 Cl
BRANCH   8  14
ATOM     14  O   UNL A   1      30.486  23.913  27.339  1.00  0.00    -0.493 OA
ATOM     15  C   UNL A   1      29.502  22.906  27.108  1.00  0.00     0.278 C 
ENDBRANCH   8  14
BRANCH  10  16
ATOM     16  C   UNL A   1      33.963  20.695  25.967  1.00  0.00     0.299 C 
BRANCH  16  17
ATOM     17  N   UNL A   1      34.338  20.078  24.698  1.00  0.00    -0.329 N 
ATOM     18  C   UNL A   1      35.689  19.597  24.478  1.00  0.00     0.262 C 
ATOM     19  C   UNL A   1      33.361  19.245  24.002  1.00  0.00     0.300 C 
ATOM     20  H   UNL A   1      34.327  20.990  24.241  1.00  0.00     0.348 HD
ATOM     21  C   UNL A   1      35.893  18.164  24.963  1.00  0.00     0.065 C 
ATOM     22  C   UNL A   1      33.381  17.723  24.298  1.00  0.00     0.136 C 
ATOM     23  C   UNL A   1      34.821  17.172  24.490  1.00  0.00     0.049 C 
BRANCH  22  24
ATOM     24  C   UNL A   1      32.426  17.279  25.442  1.00  0.00     0.197 C 
BRANCH  24  25
ATOM     25  O   UNL A   1      32.487  18.090  26.613  1.00  0.00    -0.393 OA
ATOM     26  H   UNL A   1      33.367  18.013  27.015  1.00  0.00     0.210 HD
ENDBRANCH  24  25
ENDBRANCH  22  24
BRANCH  22  27
ATOM     27  O   UNL A   1      32.890  17.092  23.090  1.00  0.00    -0.382 OA
ATOM     28  H   UNL A   1      31.924  17.033  23.126  1.00  0.00     0.211 HD
ENDBRANCH  22  27
ENDBRANCH  16  17
ENDBRANCH  10  16
ENDBRANCH   6   7
ENDBRANCH   5   6
ENDBRANCH   1   5
BRANCH   3  29
ATOM     29  C   UNL A   1      31.496  29.711  26.188  1.00  0.00     0.117 C 
BRANCH  29  30
ATOM     30  C   UNL A   1      32.040  31.134  26.174  1.00  0.00     0.042 C 
BRANCH  30  31
ATOM     31  C   UNL A   1      32.528  31.666  27.518  1.00  0.00     0.118 C 
BRANCH  31  32
ATOM     32  N   UNL A   1      32.958  33.056  27.478  1.00  0.00    -0.352 N 
ATOM     33  C   UNL A   1      34.126  33.641  27.905  1.00  0.00     0.251 C 
ATOM     34  H   UNL A   1      32.308  33.678  27.079  1.00  0.00     0.163 HD
ATOM     35  O   UNL A   1      34.224  34.869  27.883  1.00  0.00    -0.269 OA
BRANCH  33  36
ATOM     36  C   UNL A   1      35.249  32.825  28.417  1.00  0.00     0.039 A 
ATOM     37  C   UNL A   1      36.548  33.331  28.312  1.00  0.00     0.014 A 
ATOM     38  C   UNL A   1      35.039  31.566  28.986  1.00  0.00     0.014 A 
ATOM     39  C   UNL A   1      37.622  32.612  28.844  1.00  0.00     0.010 A 
ATOM     40  C   UNL A   1      36.097  30.890  29.591  1.00  0.00     0.010 A 
ATOM     41  C   UNL A   1      37.400  31.405  29.529  1.00  0.00    -0.014 A 
BRANCH  41  42
ATOM     42  C   UNL A   1      38.514  30.692  30.210  1.00  0.00     0.031 A 
ATOM     43  C   UNL A   1      38.929  31.069  31.607  1.00  0.00     0.074 A 
ATOM     44  C   UNL A   1      39.215  29.760  29.536  1.00  0.00     0.049 A 
ATOM     45  N   UNL A   1      39.909  30.596  32.331  1.00  0.00    -0.248 NA
ATOM     46  C   UNL A   1      38.157  32.135  32.266  1.00  0.00     0.031 C 
ATOM     47  C   UNL A   1      38.969  29.360  28.148  1.00  0.00     0.029 A 
ATOM     48  N   UNL A   1      40.295  29.000  29.912  1.00  0.00    -0.354 N 
ATOM     49  C   UNL A   1      39.894  31.323  33.516  1.00  0.00     0.074 A 
ATOM     50  C   UNL A   1      38.831  32.297  33.395  1.00  0.00     0.031 C 
ATOM     51  C   UNL A   1      39.869  28.431  27.792  1.00  0.00     0.029 A 
ATOM     52  C   UNL A   1      40.780  28.196  28.908  1.00  0.00     0.049 A 
ATOM     53  H   UNL A   1      40.685  29.030  30.816  1.00  0.00     0.167 HD
ATOM     54  C   UNL A   1      40.672  31.176  34.617  1.00  0.00     0.034 A 
ATOM     55  C   UNL A   1      41.847  27.374  28.878  1.00  0.00     0.034 A 
ATOM     56  C   UNL A   1      41.714  30.192  34.743  1.00  0.00     0.049 A 
ATOM     57  C   UNL A   1      42.684  27.209  30.116  1.00  0.00     0.074 A 
ATOM     58  C   UNL A   1      42.504  29.911  35.845  1.00  0.00     0.029 A 
ATOM     59  N   UNL A   1      42.127  29.340  33.730  1.00  0.00    -0.354 N 
ATOM     60  N   UNL A   1      42.553  27.794  31.281  1.00  0.00    -0.248 NA
ATOM     61  C   UNL A   1      43.792  26.247  30.047  1.00  0.00     0.031 C 
ATOM     62  C   UNL A   1      43.416  28.913  35.487  1.00  0.00     0.029 A 
ATOM     63  C   UNL A   1      43.170  28.543  34.174  1.00  0.00     0.049 A 
ATOM     64  H   UNL A   1      41.737  29.306  32.827  1.00  0.00     0.167 HD
ATOM     65  C   UNL A   1      43.542  27.251  32.093  1.00  0.00     0.074 A 
ATOM     66  C   UNL A   1      44.248  26.273  31.292  1.00  0.00     0.031 C 
ATOM     67  C   UNL A   1      43.844  27.546  33.382  1.00  0.00     0.034 A 
BRANCH  54  68
ATOM     68  C   UNL A   1      40.389  32.079  35.791  1.00  0.00     0.023 A 
ATOM     69  C   UNL A   1      41.217  33.198  36.025  1.00  0.00     0.012 A 
ATOM     70  C   UNL A   1      39.288  31.849  36.639  1.00  0.00     0.148 A 
ATOM     71  C   UNL A   1      40.986  34.041  37.111  1.00  0.00     0.002 A 
ATOM     72  C   UNL A   1      39.034  32.724  37.690  1.00  0.00     0.091 A 
ATOM     73  F   UNL A   1      38.520  30.773  36.414  1.00  0.00    -0.205 F 
ATOM     74  C   UNL A   1      39.891  33.809  37.937  1.00  0.00     0.022 A 
BRANCH  72  75
ATOM     75  S   UNL A   1      37.601  32.560  38.762  1.00  0.00     0.127 S 
ATOM     76  O   UNL A   1      37.909  33.528  39.815  1.00  0.00    -0.237 OA
ATOM     77  O   UNL A   1      36.507  32.955  37.873  1.00  0.00    -0.237 OA
ATOM     78  O   UNL A   1      37.571  31.166  39.180  1.00  0.00    -0.744 OA
ENDBRANCH  72  75
ENDBRANCH  54  68
BRANCH  55  79
ATOM     79  C   UNL A   1      42.154  26.616  27.633  1.00  0.00     0.023 A 
ATOM     80  C   UNL A   1      42.828  27.251  26.573  1.00  0.00     0.012 A 
ATOM     81  C   UNL A   1      41.827  25.250  27.522  1.00  0.00     0.148 A 
ATOM     82  C   UNL A   1      43.148  26.545  25.412  1.00  0.00     0.002 A 
ATOM     83  C   UNL A   1      42.205  24.538  26.391  1.00  0.00     0.091 A 
ATOM     84  F   UNL A   1      41.176  24.668  28.539  1.00  0.00    -0.205 F 
ATOM     85  C   UNL A   1      42.849  25.187  25.326  1.00  0.00     0.022 A 
BRANCH  83  86
ATOM     86  S   UNL A   1      42.001  22.758  26.271  1.00  0.00     0.127 S 
ATOM     87  O   UNL A   1      42.655  22.468  24.998  1.00  0.00    -0.237 OA
ATOM     88  O   UNL A   1      42.721  22.292  27.457  1.00  0.00    -0.237 OA
ATOM     89  O   UNL A   1      40.563  22.521  26.316  1.00  0.00    -0.744 OA
ENDBRANCH  83  86
ENDBRANCH  55  79
BRANCH  67  90
ATOM     90  C   UNL A   1      44.972  26.781  34.027  1.00  0.00     0.023 A 
ATOM     91  C   UNL A   1      46.301  27.225  33.878  1.00  0.00     0.012 A 
ATOM     92  C   UNL A   1      44.706  25.659  34.837  1.00  0.00     0.148 A 
ATOM     93  C   UNL A   1      47.350  26.545  34.496  1.00  0.00     0.002 A 
ATOM     94  C   UNL A   1      45.751  25.018  35.492  1.00  0.00     0.091 A 
ATOM     95  F   UNL A   1      43.438  25.241  34.953  1.00  0.00    -0.205 F 
ATOM     96  C   UNL A   1      47.074  25.450  35.312  1.00  0.00     0.022 A 
BRANCH  94  97
ATOM     97  S   UNL A   1      45.483  23.660  36.638  1.00  0.00     0.127 S 
ATOM     98  O   UNL A   1      44.767  22.699  35.799  1.00  0.00    -0.237 OA
ATOM     99  O   UNL A   1      46.851  23.270  36.980  1.00  0.00    -0.237 OA
ATOM    100  O   UNL A   1      44.716  24.213  37.746  1.00  0.00    -0.744 OA
ENDBRANCH  94  97
ENDBRANCH  67  90
ENDBRANCH  41  42
ENDBRANCH  33  36
ENDBRANCH  31  32
ENDBRANCH  30  31
ENDBRANCH  29  30
ENDBRANCH   3  29
TORSDOF 21
ENDMDL
MODEL 3
REMARK VINA RESULT:     -10.7      1.629      2.070
REMARK SMILES COc1cc(C[N@H+]2CCC[C@@](O)(CO)C2)cc(Cl)c1OCC(=O)NCCCNC(=O)c1ccc(-c2c3nc(c(-c4cccc(S(=O)(=O)[O-])c4F)c4ccc([nH]4)c(-c4cccc(S(=O)(=O)[O-])c4F)c4nc(c(-c5cccc(S(=O)(=O)[O-])c5F)c5ccc2[nH]5)C=C4)C=C3)cc1
REMARK SMILES IDX 22 1 23 2 24 3 21 5 20 6 19 7 3 8 4 9 5 10 17 11 16 12 18 13
REMARK SMILES IDX 2 14 1 15 6 16 7 17 8 18 15 19 9 21 11 22 10 23 13 24 14 25
REMARK SMILES IDX 12 27 25 29 26 30 27 31 28 32 29 33 30 35 31 36 32 37 93 38
REMARK SMILES IDX 33 39 92 40 34 41 35 42 36 43 86 44 37 45 91 46 85 47 87 48
REMARK SMILES IDX 38 49 90 50 84 51 83 52 39 54 71 55 51 56 70 57 52 58 55 59
REMARK SMILES IDX 69 60 88 61 53 62 54 63 68 65 89 66 56 67 40 68 41 69 49 70
REMARK SMILES IDX 42 71 44 72 50 73 43 74 45 75 46 76 47 77 48 78 72 79 73 80
REMARK SMILES IDX 81 81 74 82 76 83 82 84 75 85 77 86 78 87 79 88 80 89 57 90
REMARK SMILES IDX 58 91 66 92 59 93 61 94 67 95 60 96 62 97 63 98 64 99 65 100
REMARK H PARENT 24 4 7 20 14 26 12 28 28 34 87 53 55 64
REMARK Flexibility Score: inf
ROOT
ATOM      1  C   UNL A   1      31.226  29.830  24.488  1.00  0.00     0.257 C 
ATOM      2  O   UNL A   1      30.188  30.012  23.846  1.00  0.00    -0.271 OA
ATOM      3  N   UNL A   1      31.384  30.552  25.632  1.00  0.00    -0.353 N 
ATOM      4  H   UNL A   1      30.729  31.275  25.768  1.00  0.00     0.163 HD
ENDROOT
BRANCH   1   5
ATOM      5  C   UNL A   1      32.258  28.761  24.083  1.00  0.00     0.329 C 
BRANCH   5   6
ATOM      6  O   UNL A   1      31.863  27.595  23.396  1.00  0.00    -0.478 OA
BRANCH   6   7
ATOM      7  C   UNL A   1      32.115  26.330  23.849  1.00  0.00     0.180 A 
ATOM      8  C   UNL A   1      32.767  25.521  22.892  1.00  0.00     0.162 A 
ATOM      9  C   UNL A   1      33.020  24.161  23.118  1.00  0.00     0.060 A 
ATOM     10  C   UNL A   1      32.520  23.540  24.260  1.00  0.00     0.012 A 
ATOM     11  C   UNL A   1      31.813  25.740  25.081  1.00  0.00     0.087 A 
ATOM     12  C   UNL A   1      31.981  24.357  25.263  1.00  0.00     0.034 A 
ATOM     13  Cl  UNL A   1      31.293  26.578  26.496  1.00  0.00    -0.080 Cl
BRANCH   8  14
ATOM     14  O   UNL A   1      33.221  26.109  21.731  1.00  0.00    -0.493 OA
ATOM     15  C   UNL A   1      32.579  25.580  20.570  1.00  0.00     0.278 C 
ENDBRANCH   8  14
BRANCH  10  16
ATOM     16  C   UNL A   1      32.448  22.035  24.402  1.00  0.00     0.299 C 
BRANCH  16  17
ATOM     17  N   UNL A   1      33.218  21.452  25.497  1.00  0.00    -0.329 N 
ATOM     18  C   UNL A   1      33.290  20.013  25.669  1.00  0.00     0.262 C 
ATOM     19  C   UNL A   1      34.464  22.096  25.905  1.00  0.00     0.300 C 
ATOM     20  H   UNL A   1      32.504  21.741  26.166  1.00  0.00     0.348 HD
ATOM     21  C   UNL A   1      34.413  19.376  24.855  1.00  0.00     0.065 C 
ATOM     22  C   UNL A   1      35.774  21.599  25.240  1.00  0.00     0.136 C 
ATOM     23  C   UNL A   1      35.777  20.064  25.001  1.00  0.00     0.049 C 
BRANCH  22  24
ATOM     24  C   UNL A   1      36.188  22.392  23.968  1.00  0.00     0.197 C 
BRANCH  24  25
ATOM     25  O   UNL A   1      36.836  23.635  24.229  1.00  0.00    -0.393 OA
ATOM     26  H   UNL A   1      36.212  24.363  24.081  1.00  0.00     0.210 HD
ENDBRANCH  24  25
ENDBRANCH  22  24
BRANCH  22  27
ATOM     27  O   UNL A   1      36.813  21.834  26.222  1.00  0.00    -0.382 OA
ATOM     28  H   UNL A   1      37.155  20.984  26.540  1.00  0.00     0.211 HD
ENDBRANCH  22  27
ENDBRANCH  16  17
ENDBRANCH  10  16
ENDBRANCH   6   7
ENDBRANCH   5   6
ENDBRANCH   1   5
BRANCH   3  29
ATOM     29  C   UNL A   1      32.376  30.409  26.678  1.00  0.00     0.117 C 
BRANCH  29  30
ATOM     30  C   UNL A   1      32.533  31.675  27.509  1.00  0.00     0.042 C 
BRANCH  30  31
ATOM     31  C   UNL A   1      32.565  32.981  26.719  1.00  0.00     0.118 C 
BRANCH  31  32
ATOM     32  N   UNL A   1      32.420  34.170  27.547  1.00  0.00    -0.352 N 
ATOM     33  C   UNL A   1      33.105  34.564  28.671  1.00  0.00     0.251 C 
ATOM     34  H   UNL A   1      31.719  34.795  27.252  1.00  0.00     0.163 HD
ATOM     35  O   UNL A   1      32.725  35.562  29.286  1.00  0.00    -0.269 OA
BRANCH  33  36
ATOM     36  C   UNL A   1      34.266  33.793  29.169  1.00  0.00     0.039 A 
ATOM     37  C   UNL A   1      35.548  34.167  28.752  1.00  0.00     0.014 A 
ATOM     38  C   UNL A   1      34.107  32.703  30.028  1.00  0.00     0.014 A 
ATOM     39  C   UNL A   1      36.667  33.499  29.255  1.00  0.00     0.010 A 
ATOM     40  C   UNL A   1      35.225  32.094  30.594  1.00  0.00     0.010 A 
ATOM     41  C   UNL A   1      36.518  32.485  30.216  1.00  0.00    -0.014 A 
BRANCH  41  42
ATOM     42  C   UNL A   1      37.702  31.852  30.856  1.00  0.00     0.031 A 
ATOM     43  C   UNL A   1      38.481  30.779  30.144  1.00  0.00     0.074 A 
ATOM     44  C   UNL A   1      38.027  32.182  32.122  1.00  0.00     0.049 A 
ATOM     45  N   UNL A   1      39.501  30.081  30.570  1.00  0.00    -0.248 NA
ATOM     46  C   UNL A   1      38.039  30.426  28.785  1.00  0.00     0.031 C 
ATOM     47  C   UNL A   1      37.304  33.147  32.953  1.00  0.00     0.029 A 
ATOM     48  N   UNL A   1      39.028  31.723  32.942  1.00  0.00    -0.354 N 
ATOM     49  C   UNL A   1      39.806  29.188  29.549  1.00  0.00     0.074 A 
ATOM     50  C   UNL A   1      38.834  29.406  28.499  1.00  0.00     0.031 C 
ATOM     51  C   UNL A   1      37.884  33.207  34.162  1.00  0.00     0.029 A 
ATOM     52  C   UNL A   1      38.994  32.261  34.206  1.00  0.00     0.049 A 
ATOM     53  H   UNL A   1      39.705  31.070  32.651  1.00  0.00     0.167 HD
ATOM     54  C   UNL A   1      40.818  28.289  29.476  1.00  0.00     0.034 A 
ATOM     55  C   UNL A   1      39.757  32.012  35.289  1.00  0.00     0.034 A 
ATOM     56  C   UNL A   1      41.796  28.089  30.513  1.00  0.00     0.049 A 
ATOM     57  C   UNL A   1      40.887  31.027  35.181  1.00  0.00     0.074 A 
ATOM     58  C   UNL A   1      42.905  27.261  30.501  1.00  0.00     0.029 A 
ATOM     59  N   UNL A   1      41.776  28.709  31.753  1.00  0.00    -0.354 N 
ATOM     60  N   UNL A   1      41.255  30.306  34.151  1.00  0.00    -0.248 NA
ATOM     61  C   UNL A   1      41.729  30.846  36.372  1.00  0.00     0.031 C 
ATOM     62  C   UNL A   1      43.535  27.355  31.747  1.00  0.00     0.029 A 
ATOM     63  C   UNL A   1      42.842  28.271  32.521  1.00  0.00     0.049 A 
ATOM     64  H   UNL A   1      41.102  29.365  32.045  1.00  0.00     0.167 HD
ATOM     65  C   UNL A   1      42.387  29.608  34.557  1.00  0.00     0.074 A 
ATOM     66  C   UNL A   1      42.657  30.013  35.922  1.00  0.00     0.031 C 
ATOM     67  C   UNL A   1      43.126  28.706  33.866  1.00  0.00     0.034 A 
BRANCH  54  68
ATOM     68  C   UNL A   1      40.940  27.483  28.208  1.00  0.00     0.023 A 
ATOM     69  C   UNL A   1      41.562  28.051  27.076  1.00  0.00     0.012 A 
ATOM     70  C   UNL A   1      40.475  26.154  28.141  1.00  0.00     0.148 A 
ATOM     71  C   UNL A   1      41.675  27.332  25.888  1.00  0.00     0.002 A 
ATOM     72  C   UNL A   1      40.637  25.426  26.968  1.00  0.00     0.091 A 
ATOM     73  F   UNL A   1      39.870  25.633  29.219  1.00  0.00    -0.205 F 
ATOM     74  C   UNL A   1      41.221  26.018  25.837  1.00  0.00     0.022 A 
BRANCH  72  75
ATOM     75  S   UNL A   1      40.161  23.699  26.827  1.00  0.00     0.127 S 
ATOM     76  O   UNL A   1      40.479  23.196  28.163  1.00  0.00    -0.237 OA
ATOM     77  O   UNL A   1      38.729  23.799  26.539  1.00  0.00    -0.237 OA
ATOM     78  O   UNL A   1      40.961  23.150  25.742  1.00  0.00    -0.744 OA
ENDBRANCH  72  75
ENDBRANCH  54  68
BRANCH  55  79
ATOM     79  C   UNL A   1      39.490  32.743  36.559  1.00  0.00     0.023 A 
ATOM     80  C   UNL A   1      40.110  33.985  36.796  1.00  0.00     0.012 A 
ATOM     81  C   UNL A   1      38.581  32.236  37.507  1.00  0.00     0.148 A 
ATOM     82  C   UNL A   1      39.848  34.696  37.968  1.00  0.00     0.002 A 
ATOM     83  C   UNL A   1      38.276  32.978  38.640  1.00  0.00     0.091 A 
ATOM     84  F   UNL A   1      38.010  31.047  37.265  1.00  0.00    -0.205 F 
ATOM     85  C   UNL A   1      38.923  34.200  38.883  1.00  0.00     0.022 A 
BRANCH  83  86
ATOM     86  S   UNL A   1      36.980  32.488  39.783  1.00  0.00     0.127 S 
ATOM     87  O   UNL A   1      37.482  31.206  40.271  1.00  0.00    -0.237 OA
ATOM     88  O   UNL A   1      37.013  33.578  40.759  1.00  0.00    -0.237 OA
ATOM     89  O   UNL A   1      35.757  32.433  38.992  1.00  0.00    -0.744 OA
ENDBRANCH  83  86
ENDBRANCH  55  79
BRANCH  67  90
ATOM     90  C   UNL A   1      44.325  28.109  34.558  1.00  0.00     0.023 A 
ATOM     91  C   UNL A   1      45.595  28.700  34.403  1.00  0.00     0.012 A 
ATOM     92  C   UNL A   1      44.179  27.002  35.418  1.00  0.00     0.148 A 
ATOM     93  C   UNL A   1      46.707  28.177  35.064  1.00  0.00     0.002 A 
ATOM     94  C   UNL A   1      45.280  26.519  36.114  1.00  0.00     0.091 A 
ATOM     95  F   UNL A   1      42.966  26.443  35.539  1.00  0.00    -0.205 F 
ATOM     96  C   UNL A   1      46.547  27.096  35.928  1.00  0.00     0.022 A 
BRANCH  94  97
ATOM     97  S   UNL A   1      45.155  25.193  37.320  1.00  0.00     0.127 S 
ATOM     98  O   UNL A   1      43.983  25.603  38.093  1.00  0.00    -0.237 OA
ATOM     99  O   UNL A   1      44.944  24.021  36.470  1.00  0.00    -0.237 OA
ATOM    100  O   UNL A   1      46.415  25.193  38.050  1.00  0.00    -0.744 OA
ENDBRANCH  94  97
ENDBRANCH  67  90
ENDBRANCH  41  42
ENDBRANCH  33  36
ENDBRANCH  31  32
ENDBRANCH  30  31
ENDBRANCH  29  30
ENDBRANCH   3  29
TORSDOF 21
ENDMDL
