MODEL 1
REMARK VINA RESULT:     -11.8      0.000      0.000
REMARK SMILES CC(C)(Cn1ccc2ccc([N+](=O)[O-])cc21)C(=O)NCCCNC(=O)c1ccc(-c2c3nc(c(-c4cccc(S(=O)(=O)[O-])c4F)c4ccc([nH]4)c(-c4cccc(S(=O)(=O)[O-])c4F)c4nc(c(-c5cccc(S(=O)(=O)[O-])c5F)c5ccc2[nH]5)C=C4)C=C3)cc1
REMARK SMILES IDX 21 1 20 2 19 3 17 4 18 5 2 7 1 8 3 9 4 10 5 11 6 12 16 13
REMARK SMILES IDX 7 14 8 15 15 16 9 17 11 18 10 19 12 20 13 21 14 22 22 23
REMARK SMILES IDX 23 24 24 25 25 27 26 28 27 29 88 30 28 31 87 32 29 33 30 34
REMARK SMILES IDX 31 35 81 36 32 37 86 38 80 39 82 40 33 41 85 42 79 43 78 44
REMARK SMILES IDX 34 46 66 47 46 48 65 49 47 50 50 51 64 52 83 53 48 54 49 55
REMARK SMILES IDX 63 57 84 58 51 59 35 60 36 61 44 62 37 63 39 64 45 65 38 66
REMARK SMILES IDX 40 67 41 68 42 69 43 70 67 71 68 72 76 73 69 74 71 75 77 76
REMARK SMILES IDX 70 77 72 78 73 79 74 80 75 81 52 82 53 83 61 84 54 85 56 86
REMARK SMILES IDX 62 87 55 88 57 89 58 90 59 91 60 92
REMARK H PARENT 19 6 23 26 82 45 50 56
REMARK Flexibility Score: inf
ROOT
ATOM      1  C   UNL A   1      33.657  31.605  27.268  1.00  0.00     0.042 C 
ENDROOT
BRANCH   1   2
ATOM      2  C   UNL A   1      33.999  30.116  27.317  1.00  0.00     0.117 C 
BRANCH   2   3
ATOM      3  N   UNL A   1      32.920  29.277  27.817  1.00  0.00    -0.356 N 
ATOM      4  C   UNL A   1      32.098  28.356  27.241  1.00  0.00     0.227 C 
ATOM      5  O   UNL A   1      31.358  27.743  28.018  1.00  0.00    -0.274 OA
ATOM      6  H   UNL A   1      32.747  29.402  28.778  1.00  0.00     0.163 HD
BRANCH   4   7
ATOM      7  C   UNL A   1      32.069  28.075  25.727  1.00  0.00     0.061 C 
ATOM      8  C   UNL A   1      31.490  29.312  24.992  1.00  0.00     0.023 C 
ATOM      9  C   UNL A   1      31.084  26.927  25.431  1.00  0.00     0.023 C 
BRANCH   7  10
ATOM     10  C   UNL A   1      33.483  27.773  25.173  1.00  0.00     0.138 C 
BRANCH  10  11
ATOM     11  N   UNL A   1      33.526  26.801  24.080  1.00  0.00    -0.346 N 
ATOM     12  C   UNL A   1      33.255  27.104  22.769  1.00  0.00     0.087 A 
ATOM     13  C   UNL A   1      33.840  25.456  24.190  1.00  0.00     0.055 A 
ATOM     14  C   UNL A   1      33.287  25.941  22.041  1.00  0.00     0.028 A 
ATOM     15  C   UNL A   1      33.658  24.894  22.920  1.00  0.00     0.000 A 
ATOM     16  C   UNL A   1      34.252  24.679  25.288  1.00  0.00     0.112 A 
ATOM     17  C   UNL A   1      33.863  23.512  22.736  1.00  0.00     0.017 A 
ATOM     18  C   UNL A   1      34.466  23.305  25.070  1.00  0.00     0.271 A 
ATOM     19  C   UNL A   1      34.268  22.723  23.815  1.00  0.00     0.086 A 
BRANCH  18  20
ATOM     20  N   UNL A   1      34.899  22.461  26.192  1.00  0.00     0.062 N 
ATOM     21  O   UNL A   1      34.142  22.361  27.168  1.00  0.00    -0.258 OA
ATOM     22  O   UNL A   1      35.993  21.883  26.092  1.00  0.00    -0.258 OA
ENDBRANCH  18  20
ENDBRANCH  10  11
ENDBRANCH   7  10
ENDBRANCH   4   7
ENDBRANCH   2   3
ENDBRANCH   1   2
BRANCH   1  23
ATOM     23  C   UNL A   1      34.594  32.514  28.060  1.00  0.00     0.118 C 
BRANCH  23  24
ATOM     24  N   UNL A   1      34.355  32.528  29.489  1.00  0.00    -0.352 N 
ATOM     25  C   UNL A   1      35.087  32.217  30.601  1.00  0.00     0.251 C 
ATOM     26  H   UNL A   1      33.447  32.835  29.712  1.00  0.00     0.163 HD
ATOM     27  O   UNL A   1      34.565  32.526  31.675  1.00  0.00    -0.269 OA
BRANCH  25  28
ATOM     28  C   UNL A   1      36.387  31.491  30.614  1.00  0.00     0.039 A 
ATOM     29  C   UNL A   1      37.649  32.077  30.683  1.00  0.00     0.014 A 
ATOM     30  C   UNL A   1      36.305  30.089  30.480  1.00  0.00     0.014 A 
ATOM     31  C   UNL A   1      38.792  31.301  30.508  1.00  0.00     0.010 A 
ATOM     32  C   UNL A   1      37.445  29.307  30.327  1.00  0.00     0.010 A 
ATOM     33  C   UNL A   1      38.689  29.922  30.290  1.00  0.00    -0.014 A 
BRANCH  33  34
ATOM     34  C   UNL A   1      39.924  29.150  30.160  1.00  0.00     0.031 A 
ATOM     35  C   UNL A   1      40.624  28.917  31.452  1.00  0.00     0.074 A 
ATOM     36  C   UNL A   1      40.378  28.615  29.006  1.00  0.00     0.049 A 
ATOM     37  N   UNL A   1      41.736  29.443  31.851  1.00  0.00    -0.248 NA
ATOM     38  C   UNL A   1      39.933  28.123  32.479  1.00  0.00     0.031 C 
ATOM     39  C   UNL A   1      39.663  28.510  27.730  1.00  0.00     0.029 A 
ATOM     40  N   UNL A   1      41.545  27.948  28.757  1.00  0.00    -0.354 N 
ATOM     41  C   UNL A   1      42.002  28.853  33.086  1.00  0.00     0.074 A 
ATOM     42  C   UNL A   1      40.791  28.194  33.498  1.00  0.00     0.031 C 
ATOM     43  C   UNL A   1      40.300  27.621  26.932  1.00  0.00     0.029 A 
ATOM     44  C   UNL A   1      41.542  27.223  27.567  1.00  0.00     0.049 A 
ATOM     45  H   UNL A   1      42.319  27.977  29.365  1.00  0.00     0.167 HD
ATOM     46  C   UNL A   1      43.275  28.721  33.548  1.00  0.00     0.034 A 
ATOM     47  C   UNL A   1      42.482  26.331  27.164  1.00  0.00     0.034 A 
ATOM     48  C   UNL A   1      44.209  29.485  32.773  1.00  0.00     0.049 A 
ATOM     49  C   UNL A   1      43.737  26.686  27.860  1.00  0.00     0.074 A 
ATOM     50  C   UNL A   1      44.601  30.800  32.669  1.00  0.00     0.029 A 
ATOM     51  N   UNL A   1      44.638  28.831  31.651  1.00  0.00    -0.354 N 
ATOM     52  N   UNL A   1      44.391  27.793  27.647  1.00  0.00    -0.248 NA
ATOM     53  C   UNL A   1      44.165  25.912  29.020  1.00  0.00     0.031 C 
ATOM     54  C   UNL A   1      45.123  30.951  31.350  1.00  0.00     0.029 A 
ATOM     55  C   UNL A   1      45.059  29.719  30.701  1.00  0.00     0.049 A 
ATOM     56  H   UNL A   1      44.642  27.852  31.542  1.00  0.00     0.167 HD
ATOM     57  C   UNL A   1      44.984  28.062  28.863  1.00  0.00     0.074 A 
ATOM     58  C   UNL A   1      44.978  26.802  29.592  1.00  0.00     0.031 C 
ATOM     59  C   UNL A   1      45.112  29.341  29.308  1.00  0.00     0.034 A 
BRANCH  46  60
ATOM     60  C   UNL A   1      43.759  27.569  34.394  1.00  0.00     0.023 A 
ATOM     61  C   UNL A   1      44.439  27.858  35.597  1.00  0.00     0.012 A 
ATOM     62  C   UNL A   1      43.828  26.239  33.918  1.00  0.00     0.148 A 
ATOM     63  C   UNL A   1      45.144  26.869  36.295  1.00  0.00     0.002 A 
ATOM     64  C   UNL A   1      44.466  25.246  34.651  1.00  0.00     0.091 A 
ATOM     65  F   UNL A   1      43.396  25.961  32.684  1.00  0.00    -0.205 F 
ATOM     66  C   UNL A   1      45.143  25.558  35.832  1.00  0.00     0.022 A 
BRANCH  64  67
ATOM     67  S   UNL A   1      44.474  23.532  34.112  1.00  0.00     0.127 S 
ATOM     68  O   UNL A   1      45.153  23.631  32.825  1.00  0.00    -0.237 OA
ATOM     69  O   UNL A   1      45.242  22.889  35.176  1.00  0.00    -0.237 OA
ATOM     70  O   UNL A   1      43.069  23.136  34.067  1.00  0.00    -0.744 OA
ENDBRANCH  64  67
ENDBRANCH  46  60
BRANCH  47  71
ATOM     71  C   UNL A   1      42.393  25.079  26.369  1.00  0.00     0.023 A 
ATOM     72  C   UNL A   1      43.443  24.767  25.475  1.00  0.00     0.012 A 
ATOM     73  C   UNL A   1      41.496  24.050  26.721  1.00  0.00     0.148 A 
ATOM     74  C   UNL A   1      43.651  23.457  25.028  1.00  0.00     0.002 A 
ATOM     75  C   UNL A   1      41.704  22.749  26.265  1.00  0.00     0.091 A 
ATOM     76  F   UNL A   1      40.504  24.321  27.580  1.00  0.00    -0.205 F 
ATOM     77  C   UNL A   1      42.795  22.445  25.440  1.00  0.00     0.022 A 
BRANCH  75  78
ATOM     78  S   UNL A   1      40.646  21.383  26.762  1.00  0.00     0.127 S 
ATOM     79  O   UNL A   1      41.286  20.243  26.100  1.00  0.00    -0.237 OA
ATOM     80  O   UNL A   1      40.787  21.404  28.215  1.00  0.00    -0.237 OA
ATOM     81  O   UNL A   1      39.322  21.705  26.245  1.00  0.00    -0.744 OA
ENDBRANCH  75  78
ENDBRANCH  47  71
BRANCH  59  82
ATOM     82  C   UNL A   1      45.112  30.437  28.289  1.00  0.00     0.023 A 
ATOM     83  C   UNL A   1      43.931  30.991  27.757  1.00  0.00     0.012 A 
ATOM     84  C   UNL A   1      46.352  31.007  27.962  1.00  0.00     0.148 A 
ATOM     85  C   UNL A   1      43.994  32.102  26.912  1.00  0.00     0.002 A 
ATOM     86  C   UNL A   1      46.407  32.132  27.157  1.00  0.00     0.091 A 
ATOM     87  F   UNL A   1      47.457  30.451  28.484  1.00  0.00    -0.205 F 
ATOM     88  C   UNL A   1      45.230  32.682  26.624  1.00  0.00     0.022 A 
BRANCH  86  89
ATOM     89  S   UNL A   1      47.951  32.986  26.835  1.00  0.00     0.127 S 
ATOM     90  O   UNL A   1      48.822  31.893  26.407  1.00  0.00    -0.237 OA
ATOM     91  O   UNL A   1      47.567  33.918  25.774  1.00  0.00    -0.237 OA
ATOM     92  O   UNL A   1      48.329  33.627  28.088  1.00  0.00    -0.744 OA
ENDBRANCH  86  89
ENDBRANCH  59  82
ENDBRANCH  33  34
ENDBRANCH  25  28
ENDBRANCH  23  24
ENDBRANCH   1  23
TORSDOF 16
ENDMDL
MODEL 2
REMARK VINA RESULT:     -11.7      2.196      3.610
REMARK SMILES CC(C)(Cn1ccc2ccc([N+](=O)[O-])cc21)C(=O)NCCCNC(=O)c1ccc(-c2c3nc(c(-c4cccc(S(=O)(=O)[O-])c4F)c4ccc([nH]4)c(-c4cccc(S(=O)(=O)[O-])c4F)c4nc(c(-c5cccc(S(=O)(=O)[O-])c5F)c5ccc2[nH]5)C=C4)C=C3)cc1
REMARK SMILES IDX 21 1 20 2 19 3 17 4 18 5 2 7 1 8 3 9 4 10 5 11 6 12 16 13
REMARK SMILES IDX 7 14 8 15 15 16 9 17 11 18 10 19 12 20 13 21 14 22 22 23
REMARK SMILES IDX 23 24 24 25 25 27 26 28 27 29 88 30 28 31 87 32 29 33 30 34
REMARK SMILES IDX 31 35 81 36 32 37 86 38 80 39 82 40 33 41 85 42 79 43 78 44
REMARK SMILES IDX 34 46 66 47 46 48 65 49 47 50 50 51 64 52 83 53 48 54 49 55
REMARK SMILES IDX 63 57 84 58 51 59 35 60 36 61 44 62 37 63 39 64 45 65 38 66
REMARK SMILES IDX 40 67 41 68 42 69 43 70 67 71 68 72 76 73 69 74 71 75 77 76
REMARK SMILES IDX 70 77 72 78 73 79 74 80 75 81 52 82 53 83 61 84 54 85 56 86
REMARK SMILES IDX 62 87 55 88 57 89 58 90 59 91 60 92
REMARK H PARENT 19 6 23 26 82 45 50 56
REMARK Flexibility Score: inf
ROOT
ATOM      1  C   UNL A   1      32.095  30.608  26.787  1.00  0.00     0.042 C 
ENDROOT
BRANCH   1   2
ATOM      2  C   UNL A   1      31.799  29.863  25.485  1.00  0.00     0.117 C 
BRANCH   2   3
ATOM      3  N   UNL A   1      32.959  29.695  24.623  1.00  0.00    -0.356 N 
ATOM      4  C   UNL A   1      33.418  28.673  23.848  1.00  0.00     0.227 C 
ATOM      5  O   UNL A   1      34.401  28.936  23.147  1.00  0.00    -0.274 OA
ATOM      6  H   UNL A   1      33.537  30.492  24.592  1.00  0.00     0.163 HD
BRANCH   4   7
ATOM      7  C   UNL A   1      32.777  27.273  23.826  1.00  0.00     0.061 C 
ATOM      8  C   UNL A   1      32.070  27.017  25.183  1.00  0.00     0.023 C 
ATOM      9  C   UNL A   1      33.878  26.199  23.730  1.00  0.00     0.023 C 
BRANCH   7  10
ATOM     10  C   UNL A   1      31.742  27.135  22.682  1.00  0.00     0.138 C 
BRANCH  10  11
ATOM     11  N   UNL A   1      30.342  27.190  23.105  1.00  0.00    -0.346 N 
ATOM     12  C   UNL A   1      29.690  26.166  23.747  1.00  0.00     0.087 A 
ATOM     13  C   UNL A   1      29.473  28.256  22.931  1.00  0.00     0.055 A 
ATOM     14  C   UNL A   1      28.372  26.520  23.898  1.00  0.00     0.028 A 
ATOM     15  C   UNL A   1      28.219  27.835  23.392  1.00  0.00     0.000 A 
ATOM     16  C   UNL A   1      29.667  29.543  22.398  1.00  0.00     0.112 A 
ATOM     17  C   UNL A   1      27.115  28.705  23.297  1.00  0.00     0.017 A 
ATOM     18  C   UNL A   1      28.551  30.396  22.333  1.00  0.00     0.271 A 
ATOM     19  C   UNL A   1      27.288  29.986  22.768  1.00  0.00     0.086 A 
BRANCH  18  20
ATOM     20  N   UNL A   1      28.715  31.750  21.784  1.00  0.00     0.062 N 
ATOM     21  O   UNL A   1      29.155  32.631  22.536  1.00  0.00    -0.258 OA
ATOM     22  O   UNL A   1      28.418  31.931  20.593  1.00  0.00    -0.258 OA
ENDBRANCH  18  20
ENDBRANCH  10  11
ENDBRANCH   7  10
ENDBRANCH   4   7
ENDBRANCH   2   3
ENDBRANCH   1   2
BRANCH   1  23
ATOM     23  C   UNL A   1      33.572  30.888  27.054  1.00  0.00     0.118 C 
BRANCH  23  24
ATOM     24  N   UNL A   1      33.838  31.599  28.287  1.00  0.00    -0.352 N 
ATOM     25  C   UNL A   1      34.931  31.781  29.089  1.00  0.00     0.251 C 
ATOM     26  H   UNL A   1      33.040  32.060  28.632  1.00  0.00     0.163 HD
ATOM     27  O   UNL A   1      34.786  32.610  29.991  1.00  0.00    -0.269 OA
BRANCH  25  28
ATOM     28  C   UNL A   1      36.211  31.026  29.002  1.00  0.00     0.039 A 
ATOM     29  C   UNL A   1      36.338  29.650  28.827  1.00  0.00     0.014 A 
ATOM     30  C   UNL A   1      37.384  31.790  29.180  1.00  0.00     0.014 A 
ATOM     31  C   UNL A   1      37.586  29.041  28.941  1.00  0.00     0.010 A 
ATOM     32  C   UNL A   1      38.635  31.189  29.272  1.00  0.00     0.010 A 
ATOM     33  C   UNL A   1      38.729  29.806  29.203  1.00  0.00    -0.014 A 
BRANCH  33  34
ATOM     34  C   UNL A   1      40.018  29.119  29.265  1.00  0.00     0.031 A 
ATOM     35  C   UNL A   1      40.540  28.951  30.648  1.00  0.00     0.074 A 
ATOM     36  C   UNL A   1      40.665  28.602  28.199  1.00  0.00     0.049 A 
ATOM     37  N   UNL A   1      41.547  29.557  31.188  1.00  0.00    -0.248 NA
ATOM     38  C   UNL A   1      39.764  28.125  31.584  1.00  0.00     0.031 C 
ATOM     39  C   UNL A   1      40.148  28.431  26.838  1.00  0.00     0.029 A 
ATOM     40  N   UNL A   1      41.897  28.012  28.133  1.00  0.00    -0.354 N 
ATOM     41  C   UNL A   1      41.674  29.002  32.461  1.00  0.00     0.074 A 
ATOM     42  C   UNL A   1      40.463  28.267  32.713  1.00  0.00     0.031 C 
ATOM     43  C   UNL A   1      40.948  27.578  26.158  1.00  0.00     0.029 A 
ATOM     44  C   UNL A   1      42.112  27.274  26.970  1.00  0.00     0.049 A 
ATOM     45  H   UNL A   1      42.573  28.102  28.842  1.00  0.00     0.167 HD
ATOM     46  C   UNL A   1      42.874  28.963  33.101  1.00  0.00     0.034 A 
ATOM     47  C   UNL A   1      43.156  26.443  26.724  1.00  0.00     0.034 A 
ATOM     48  C   UNL A   1      43.856  29.779  32.448  1.00  0.00     0.049 A 
ATOM     49  C   UNL A   1      44.273  26.891  27.581  1.00  0.00     0.074 A 
ATOM     50  C   UNL A   1      44.172  31.116  32.371  1.00  0.00     0.029 A 
ATOM     51  N   UNL A   1      44.483  29.141  31.413  1.00  0.00    -0.354 N 
ATOM     52  N   UNL A   1      44.876  28.038  27.438  1.00  0.00    -0.248 NA
ATOM     53  C   UNL A   1      44.581  26.164  28.808  1.00  0.00     0.031 C 
ATOM     54  C   UNL A   1      44.865  31.285  31.136  1.00  0.00     0.029 A 
ATOM     55  C   UNL A   1      44.975  30.044  30.512  1.00  0.00     0.049 A 
ATOM     56  H   UNL A   1      44.567  28.163  31.327  1.00  0.00     0.167 HD
ATOM     57  C   UNL A   1      45.271  28.362  28.720  1.00  0.00     0.074 A 
ATOM     58  C   UNL A   1      45.245  27.114  29.468  1.00  0.00     0.031 C 
ATOM     59  C   UNL A   1      45.250  29.653  29.149  1.00  0.00     0.034 A 
BRANCH  46  60
ATOM     60  C   UNL A   1      43.307  27.857  34.032  1.00  0.00     0.023 A 
ATOM     61  C   UNL A   1      43.570  28.180  35.381  1.00  0.00     0.012 A 
ATOM     62  C   UNL A   1      43.741  26.591  33.576  1.00  0.00     0.148 A 
ATOM     63  C   UNL A   1      44.224  27.281  36.235  1.00  0.00     0.002 A 
ATOM     64  C   UNL A   1      44.322  25.675  34.444  1.00  0.00     0.091 A 
ATOM     65  F   UNL A   1      43.720  26.323  32.266  1.00  0.00    -0.205 F 
ATOM     66  C   UNL A   1      44.584  26.021  35.771  1.00  0.00     0.022 A 
BRANCH  64  67
ATOM     67  S   UNL A   1      44.785  24.025  33.904  1.00  0.00     0.127 S 
ATOM     68  O   UNL A   1      43.492  23.465  33.527  1.00  0.00    -0.237 OA
ATOM     69  O   UNL A   1      45.686  24.318  32.790  1.00  0.00    -0.237 OA
ATOM     70  O   UNL A   1      45.440  23.413  35.056  1.00  0.00    -0.744 OA
ENDBRANCH  64  67
ENDBRANCH  46  60
BRANCH  47  71
ATOM     71  C   UNL A   1      43.263  25.178  25.952  1.00  0.00     0.023 A 
ATOM     72  C   UNL A   1      44.365  25.005  25.083  1.00  0.00     0.012 A 
ATOM     73  C   UNL A   1      42.516  24.037  26.308  1.00  0.00     0.148 A 
ATOM     74  C   UNL A   1      44.768  23.731  24.666  1.00  0.00     0.002 A 
ATOM     75  C   UNL A   1      42.917  22.771  25.882  1.00  0.00     0.091 A 
ATOM     76  F   UNL A   1      41.478  24.177  27.144  1.00  0.00    -0.205 F 
ATOM     77  C   UNL A   1      44.057  22.614  25.082  1.00  0.00     0.022 A 
BRANCH  75  78
ATOM     78  S   UNL A   1      42.056  21.276  26.387  1.00  0.00     0.127 S 
ATOM     79  O   UNL A   1      42.344  21.226  27.822  1.00  0.00    -0.237 OA
ATOM     80  O   UNL A   1      40.672  21.596  26.052  1.00  0.00    -0.237 OA
ATOM     81  O   UNL A   1      42.665  20.197  25.620  1.00  0.00    -0.744 OA
ENDBRANCH  75  78
ENDBRANCH  47  71
BRANCH  59  82
ATOM     82  C   UNL A   1      45.323  30.733  28.116  1.00  0.00     0.023 A 
ATOM     83  C   UNL A   1      44.181  31.303  27.520  1.00  0.00     0.012 A 
ATOM     84  C   UNL A   1      46.590  31.272  27.843  1.00  0.00     0.148 A 
ATOM     85  C   UNL A   1      44.309  32.400  26.663  1.00  0.00     0.002 A 
ATOM     86  C   UNL A   1      46.708  32.384  27.026  1.00  0.00     0.091 A 
ATOM     87  F   UNL A   1      47.656  30.702  28.426  1.00  0.00    -0.205 F 
ATOM     88  C   UNL A   1      45.569  32.950  26.428  1.00  0.00     0.022 A 
BRANCH  86  89
ATOM     89  S   UNL A   1      48.282  33.201  26.768  1.00  0.00     0.127 S 
ATOM     90  O   UNL A   1      49.151  32.084  26.403  1.00  0.00    -0.237 OA
ATOM     91  O   UNL A   1      47.972  34.122  25.674  1.00  0.00    -0.237 OA
ATOM     92  O   UNL A   1      48.611  33.857  28.028  1.00  0.00    -0.744 OA
ENDBRANCH  86  89
ENDBRANCH  59  82
ENDBRANCH  33  34
ENDBRANCH  25  28
ENDBRANCH  23  24
ENDBRANCH   1  23
TORSDOF 16
ENDMDL
MODEL 3
REMARK VINA RESULT:     -11.6      3.036      8.967
REMARK SMILES CC(C)(Cn1ccc2ccc([N+](=O)[O-])cc21)C(=O)NCCCNC(=O)c1ccc(-c2c3nc(c(-c4cccc(S(=O)(=O)[O-])c4F)c4ccc([nH]4)c(-c4cccc(S(=O)(=O)[O-])c4F)c4nc(c(-c5cccc(S(=O)(=O)[O-])c5F)c5ccc2[nH]5)C=C4)C=C3)cc1
REMARK SMILES IDX 21 1 20 2 19 3 17 4 18 5 2 7 1 8 3 9 4 10 5 11 6 12 16 13
REMARK SMILES IDX 7 14 8 15 15 16 9 17 11 18 10 19 12 20 13 21 14 22 22 23
REMARK SMILES IDX 23 24 24 25 25 27 26 28 27 29 88 30 28 31 87 32 29 33 30 34
REMARK SMILES IDX 31 35 81 36 32 37 86 38 80 39 82 40 33 41 85 42 79 43 78 44
REMARK SMILES IDX 34 46 66 47 46 48 65 49 47 50 50 51 64 52 83 53 48 54 49 55
REMARK SMILES IDX 63 57 84 58 51 59 35 60 36 61 44 62 37 63 39 64 45 65 38 66
REMARK SMILES IDX 40 67 41 68 42 69 43 70 67 71 68 72 76 73 69 74 71 75 77 76
REMARK SMILES IDX 70 77 72 78 73 79 74 80 75 81 52 82 53 83 61 84 54 85 56 86
REMARK SMILES IDX 62 87 55 88 57 89 58 90 59 91 60 92
REMARK H PARENT 19 6 23 26 82 45 50 56
REMARK Flexibility Score: inf
ROOT
ATOM      1  C   UNL A   1      39.002  21.321  25.777  1.00  0.00     0.042 C 
ENDROOT
BRANCH   1   2
ATOM      2  C   UNL A   1      37.940  22.418  25.701  1.00  0.00     0.117 C 
BRANCH   2   3
ATOM      3  N   UNL A   1      37.474  22.698  24.350  1.00  0.00    -0.356 N 
ATOM      4  C   UNL A   1      36.241  22.803  23.781  1.00  0.00     0.227 C 
ATOM      5  O   UNL A   1      36.228  23.175  22.603  1.00  0.00    -0.274 OA
ATOM      6  H   UNL A   1      38.209  22.843  23.711  1.00  0.00     0.163 HD
BRANCH   4   7
ATOM      7  C   UNL A   1      34.933  22.486  24.530  1.00  0.00     0.061 C 
ATOM      8  C   UNL A   1      34.901  20.975  24.880  1.00  0.00     0.023 C 
ATOM      9  C   UNL A   1      33.731  22.713  23.592  1.00  0.00     0.023 C 
BRANCH   7  10
ATOM     10  C   UNL A   1      34.805  23.311  25.834  1.00  0.00     0.138 C 
BRANCH  10  11
ATOM     11  N   UNL A   1      33.455  23.787  26.136  1.00  0.00    -0.346 N 
ATOM     12  C   UNL A   1      32.476  23.014  26.710  1.00  0.00     0.087 A 
ATOM     13  C   UNL A   1      32.961  25.060  25.899  1.00  0.00     0.055 A 
ATOM     14  C   UNL A   1      31.315  23.746  26.751  1.00  0.00     0.028 A 
ATOM     15  C   UNL A   1      31.604  25.038  26.247  1.00  0.00     0.000 A 
ATOM     16  C   UNL A   1      33.574  26.222  25.398  1.00  0.00     0.112 A 
ATOM     17  C   UNL A   1      30.822  26.196  26.067  1.00  0.00     0.017 A 
ATOM     18  C   UNL A   1      32.773  27.368  25.246  1.00  0.00     0.271 A 
ATOM     19  C   UNL A   1      31.413  27.359  25.568  1.00  0.00     0.086 A 
BRANCH  18  20
ATOM     20  N   UNL A   1      33.379  28.603  24.728  1.00  0.00     0.062 N 
ATOM     21  O   UNL A   1      34.158  28.508  23.770  1.00  0.00    -0.258 OA
ATOM     22  O   UNL A   1      33.063  29.673  25.271  1.00  0.00    -0.258 OA
ENDBRANCH  18  20
ENDBRANCH  10  11
ENDBRANCH   7  10
ENDBRANCH   4   7
ENDBRANCH   2   3
ENDBRANCH   1   2
BRANCH   1  23
ATOM     23  C   UNL A   1      40.285  21.708  26.510  1.00  0.00     0.118 C 
BRANCH  23  24
ATOM     24  N   UNL A   1      41.407  22.006  25.644  1.00  0.00    -0.352 N 
ATOM     25  C   UNL A   1      42.336  23.007  25.566  1.00  0.00     0.251 C 
ATOM     26  H   UNL A   1      41.531  21.325  24.944  1.00  0.00     0.163 HD
ATOM     27  O   UNL A   1      43.252  22.809  24.764  1.00  0.00    -0.269 OA
BRANCH  25  28
ATOM     28  C   UNL A   1      42.285  24.303  26.296  1.00  0.00     0.039 A 
ATOM     29  C   UNL A   1      43.002  24.621  27.447  1.00  0.00     0.014 A 
ATOM     30  C   UNL A   1      41.372  25.253  25.791  1.00  0.00     0.014 A 
ATOM     31  C   UNL A   1      42.732  25.802  28.137  1.00  0.00     0.010 A 
ATOM     32  C   UNL A   1      41.116  26.443  26.464  1.00  0.00     0.010 A 
ATOM     33  C   UNL A   1      41.761  26.694  27.667  1.00  0.00    -0.014 A 
BRANCH  33  34
ATOM     34  C   UNL A   1      41.555  27.939  28.405  1.00  0.00     0.031 A 
ATOM     35  C   UNL A   1      42.550  28.997  28.085  1.00  0.00     0.074 A 
ATOM     36  C   UNL A   1      40.524  28.171  29.245  1.00  0.00     0.049 A 
ATOM     37  N   UNL A   1      43.499  29.440  28.844  1.00  0.00    -0.248 NA
ATOM     38  C   UNL A   1      42.588  29.518  26.711  1.00  0.00     0.031 C 
ATOM     39  C   UNL A   1      39.324  27.350  29.433  1.00  0.00     0.029 A 
ATOM     40  N   UNL A   1      40.276  29.258  30.037  1.00  0.00    -0.354 N 
ATOM     41  C   UNL A   1      44.101  30.470  28.122  1.00  0.00     0.074 A 
ATOM     42  C   UNL A   1      43.624  30.357  26.769  1.00  0.00     0.031 C 
ATOM     43  C   UNL A   1      38.383  28.073  30.084  1.00  0.00     0.029 A 
ATOM     44  C   UNL A   1      38.963  29.337  30.499  1.00  0.00     0.049 A 
ATOM     45  H   UNL A   1      40.964  29.926  30.261  1.00  0.00     0.167 HD
ATOM     46  C   UNL A   1      44.732  31.500  28.747  1.00  0.00     0.034 A 
ATOM     47  C   UNL A   1      38.396  30.390  31.141  1.00  0.00     0.034 A 
ATOM     48  C   UNL A   1      44.929  31.238  30.144  1.00  0.00     0.049 A 
ATOM     49  C   UNL A   1      39.495  31.149  31.775  1.00  0.00     0.074 A 
ATOM     50  C   UNL A   1      45.792  30.505  30.924  1.00  0.00     0.029 A 
ATOM     51  N   UNL A   1      43.839  31.552  30.909  1.00  0.00    -0.354 N 
ATOM     52  N   UNL A   1      40.228  30.680  32.745  1.00  0.00    -0.248 NA
ATOM     53  C   UNL A   1      39.977  32.378  31.155  1.00  0.00     0.031 C 
ATOM     54  C   UNL A   1      45.091  30.231  32.136  1.00  0.00     0.029 A 
ATOM     55  C   UNL A   1      43.835  30.830  32.069  1.00  0.00     0.049 A 
ATOM     56  H   UNL A   1      43.150  32.210  30.657  1.00  0.00     0.167 HD
ATOM     57  C   UNL A   1      41.451  31.290  32.555  1.00  0.00     0.074 A 
ATOM     58  C   UNL A   1      41.187  32.446  31.711  1.00  0.00     0.031 C 
ATOM     59  C   UNL A   1      42.609  30.622  32.805  1.00  0.00     0.034 A 
BRANCH  46  60
ATOM     60  C   UNL A   1      44.767  32.917  28.231  1.00  0.00     0.023 A 
ATOM     61  C   UNL A   1      43.550  33.623  28.124  1.00  0.00     0.012 A 
ATOM     62  C   UNL A   1      45.894  33.473  27.584  1.00  0.00     0.148 A 
ATOM     63  C   UNL A   1      43.463  34.829  27.414  1.00  0.00     0.002 A 
ATOM     64  C   UNL A   1      45.821  34.705  26.944  1.00  0.00     0.091 A 
ATOM     65  F   UNL A   1      47.009  32.744  27.464  1.00  0.00    -0.205 F 
ATOM     66  C   UNL A   1      44.602  35.379  26.839  1.00  0.00     0.022 A 
BRANCH  64  67
ATOM     67  S   UNL A   1      47.267  35.473  26.205  1.00  0.00     0.127 S 
ATOM     68  O   UNL A   1      47.510  34.604  25.060  1.00  0.00    -0.237 OA
ATOM     69  O   UNL A   1      46.763  36.807  25.882  1.00  0.00    -0.237 OA
ATOM     70  O   UNL A   1      48.287  35.458  27.251  1.00  0.00    -0.744 OA
ENDBRANCH  64  67
ENDBRANCH  46  60
BRANCH  47  71
ATOM     71  C   UNL A   1      37.014  30.934  31.135  1.00  0.00     0.023 A 
ATOM     72  C   UNL A   1      36.457  31.385  32.353  1.00  0.00     0.012 A 
ATOM     73  C   UNL A   1      36.387  31.328  29.935  1.00  0.00     0.148 A 
ATOM     74  C   UNL A   1      35.378  32.277  32.373  1.00  0.00     0.002 A 
ATOM     75  C   UNL A   1      35.307  32.209  29.961  1.00  0.00     0.091 A 
ATOM     76  F   UNL A   1      36.909  30.925  28.769  1.00  0.00    -0.205 F 
ATOM     77  C   UNL A   1      34.817  32.705  31.177  1.00  0.00     0.022 A 
BRANCH  75  78
ATOM     78  S   UNL A   1      34.534  32.817  28.457  1.00  0.00     0.127 S 
ATOM     79  O   UNL A   1      33.836  31.626  27.966  1.00  0.00    -0.237 OA
ATOM     80  O   UNL A   1      33.660  33.869  28.969  1.00  0.00    -0.237 OA
ATOM     81  O   UNL A   1      35.631  33.258  27.604  1.00  0.00    -0.744 OA
ENDBRANCH  75  78
ENDBRANCH  47  71
BRANCH  59  82
ATOM     82  C   UNL A   1      42.559  29.474  33.763  1.00  0.00     0.023 A 
ATOM     83  C   UNL A   1      41.955  28.240  33.451  1.00  0.00     0.012 A 
ATOM     84  C   UNL A   1      43.264  29.614  34.968  1.00  0.00     0.148 A 
ATOM     85  C   UNL A   1      42.059  27.162  34.335  1.00  0.00     0.002 A 
ATOM     86  C   UNL A   1      43.399  28.532  35.823  1.00  0.00     0.091 A 
ATOM     87  F   UNL A   1      43.823  30.805  35.235  1.00  0.00    -0.205 F 
ATOM     88  C   UNL A   1      42.793  27.303  35.513  1.00  0.00     0.022 A 
BRANCH  86  89
ATOM     89  S   UNL A   1      44.414  28.617  37.297  1.00  0.00     0.127 S 
ATOM     90  O   UNL A   1      44.106  27.350  37.956  1.00  0.00    -0.237 OA
ATOM     91  O   UNL A   1      45.762  28.704  36.733  1.00  0.00    -0.237 OA
ATOM     92  O   UNL A   1      43.988  29.811  38.016  1.00  0.00    -0.744 OA
ENDBRANCH  86  89
ENDBRANCH  59  82
ENDBRANCH  33  34
ENDBRANCH  25  28
ENDBRANCH  23  24
ENDBRANCH   1  23
TORSDOF 16
ENDMDL
