MODEL 1
REMARK VINA RESULT:     -13.7      0.000      0.000
REMARK SMILES Cc1cc(C(=O)NCCCNC(=O)c2ccc(-c3c4nc(c(-c5cccc(S(=O)(=O)[O-])c5F)c5ccc([nH]5)c(-c5cccc(S(=O)(=O)[O-])c5F)c5nc(c(-c6cccc(S(=O)(=O)[O-])c6F)c6ccc3[nH]6)C=C5)C=C4)cc2)ccc1NS(=O)(=O)c1ccc2c(c1)CCC2
REMARK SMILES IDX 9 1 8 2 7 3 5 4 6 5 4 7 1 8 2 9 3 10 79 11 78 12 77 13 80 14
REMARK SMILES IDX 81 16 82 17 83 18 84 19 85 20 89 21 86 22 88 23 87 24 90 25
REMARK SMILES IDX 92 26 91 27 10 28 11 29 12 30 13 32 14 33 15 34 76 35 16 36
REMARK SMILES IDX 75 37 17 38 18 39 19 40 69 41 20 42 74 43 68 44 70 45 21 46
REMARK SMILES IDX 73 47 67 48 66 49 22 51 54 52 34 53 53 54 35 55 38 56 52 57
REMARK SMILES IDX 71 58 36 59 37 60 51 62 72 63 39 64 23 65 24 66 32 67 25 68
REMARK SMILES IDX 27 69 33 70 26 71 28 72 29 73 30 74 31 75 55 76 56 77 64 78
REMARK SMILES IDX 57 79 59 80 65 81 58 82 60 83 61 84 62 85 63 86 40 87 41 88
REMARK SMILES IDX 49 89 42 90 44 91 50 92 43 93 45 94 46 95 47 96 48 97
REMARK H PARENT 7 6 80 15 11 31 70 50 38 61
REMARK Flexibility Score: inf
ROOT
ATOM      1  C   UNL A   1      37.799  21.144  24.934  1.00  0.00     0.042 C 
ENDROOT
BRANCH   1   2
ATOM      2  C   UNL A   1      36.288  21.005  24.801  1.00  0.00     0.118 C 
BRANCH   2   3
ATOM      3  N   UNL A   1      35.611  21.073  26.095  1.00  0.00    -0.352 N 
ATOM      4  C   UNL A   1      34.366  21.517  26.478  1.00  0.00     0.251 C 
ATOM      5  O   UNL A   1      34.107  21.600  27.678  1.00  0.00    -0.269 OA
ATOM      6  H   UNL A   1      36.154  20.732  26.841  1.00  0.00     0.163 HD
BRANCH   4   7
ATOM      7  C   UNL A   1      33.345  21.982  25.505  1.00  0.00     0.040 A 
ATOM      8  C   UNL A   1      30.681  24.686  25.428  1.00  0.00     0.046 C 
ATOM      9  C   UNL A   1      31.677  23.670  24.939  1.00  0.00    -0.026 A 
ATOM     10  C   UNL A   1      32.527  23.059  25.874  1.00  0.00     0.019 A 
ATOM     11  C   UNL A   1      31.751  23.260  23.600  1.00  0.00     0.052 A 
ATOM     12  C   UNL A   1      32.306  22.011  23.320  1.00  0.00     0.028 A 
ATOM     13  C   UNL A   1      33.107  21.374  24.275  1.00  0.00     0.016 A 
BRANCH  11  14
ATOM     14  N   UNL A   1      31.482  24.237  22.595  1.00  0.00    -0.279 N 
ATOM     15  H   UNL A   1      30.589  24.186  22.185  1.00  0.00     0.180 HD
BRANCH  14  16
ATOM     16  S   UNL A   1      32.468  25.453  22.020  1.00  0.00     0.261 S 
ATOM     17  O   UNL A   1      33.841  24.973  22.078  1.00  0.00    -0.201 OA
ATOM     18  O   UNL A   1      31.878  25.854  20.767  1.00  0.00    -0.201 OA
BRANCH  16  19
ATOM     19  C   UNL A   1      32.390  26.882  23.091  1.00  0.00     0.088 A 
ATOM     20  C   UNL A   1      31.269  27.720  23.148  1.00  0.00     0.022 A 
ATOM     21  C   UNL A   1      33.407  26.997  24.055  1.00  0.00     0.026 A 
ATOM     22  C   UNL A   1      31.027  28.465  24.302  1.00  0.00     0.005 A 
ATOM     23  C   UNL A   1      33.186  27.818  25.147  1.00  0.00    -0.043 A 
ATOM     24  C   UNL A   1      31.967  28.472  25.307  1.00  0.00    -0.045 A 
ATOM     25  C   UNL A   1      34.077  28.119  26.311  1.00  0.00     0.036 C 
ATOM     26  C   UNL A   1      31.857  29.117  26.654  1.00  0.00     0.036 C 
ATOM     27  C   UNL A   1      33.030  28.446  27.386  1.00  0.00     0.010 C 
ENDBRANCH  16  19
ENDBRANCH  14  16
ENDBRANCH  11  14
ENDBRANCH   4   7
ENDBRANCH   2   3
ENDBRANCH   1   2
BRANCH   1  28
ATOM     28  C   UNL A   1      38.224  22.276  25.857  1.00  0.00     0.118 C 
BRANCH  28  29
ATOM     29  N   UNL A   1      39.636  22.243  26.259  1.00  0.00    -0.352 N 
ATOM     30  C   UNL A   1      40.463  23.312  26.594  1.00  0.00     0.251 C 
ATOM     31  H   UNL A   1      40.050  21.350  26.297  1.00  0.00     0.163 HD
ATOM     32  O   UNL A   1      41.647  23.120  26.843  1.00  0.00    -0.269 OA
BRANCH  30  33
ATOM     33  C   UNL A   1      39.841  24.648  26.759  1.00  0.00     0.039 A 
ATOM     34  C   UNL A   1      40.527  25.732  26.206  1.00  0.00     0.014 A 
ATOM     35  C   UNL A   1      38.927  24.835  27.789  1.00  0.00     0.014 A 
ATOM     36  C   UNL A   1      40.562  26.929  26.909  1.00  0.00     0.010 A 
ATOM     37  C   UNL A   1      39.053  25.976  28.553  1.00  0.00     0.010 A 
ATOM     38  C   UNL A   1      39.945  26.978  28.155  1.00  0.00    -0.014 A 
BRANCH  38  39
ATOM     39  C   UNL A   1      40.146  28.048  29.115  1.00  0.00     0.031 A 
ATOM     40  C   UNL A   1      39.319  29.254  29.001  1.00  0.00     0.074 A 
ATOM     41  C   UNL A   1      41.005  27.902  30.148  1.00  0.00     0.049 A 
ATOM     42  N   UNL A   1      39.599  30.379  29.557  1.00  0.00    -0.248 NA
ATOM     43  C   UNL A   1      38.123  29.284  28.174  1.00  0.00     0.031 C 
ATOM     44  C   UNL A   1      41.077  28.707  31.362  1.00  0.00     0.029 A 
ATOM     45  N   UNL A   1      42.162  27.120  30.190  1.00  0.00    -0.354 N 
ATOM     46  C   UNL A   1      38.490  31.182  29.422  1.00  0.00     0.074 A 
ATOM     47  C   UNL A   1      37.665  30.506  28.452  1.00  0.00     0.031 C 
ATOM     48  C   UNL A   1      42.310  28.602  31.879  1.00  0.00     0.029 A 
ATOM     49  C   UNL A   1      43.113  27.868  30.917  1.00  0.00     0.049 A 
ATOM     50  H   UNL A   1      42.288  26.229  29.794  1.00  0.00     0.167 HD
ATOM     51  C   UNL A   1      38.343  32.231  30.280  1.00  0.00     0.034 A 
ATOM     52  C   UNL A   1      44.315  28.270  30.406  1.00  0.00     0.034 A 
ATOM     53  C   UNL A   1      39.569  32.429  31.080  1.00  0.00     0.049 A 
ATOM     54  C   UNL A   1      44.506  29.784  30.435  1.00  0.00     0.074 A 
ATOM     55  C   UNL A   1      39.940  32.124  32.381  1.00  0.00     0.029 A 
ATOM     56  N   UNL A   1      40.744  32.777  30.426  1.00  0.00    -0.354 N 
ATOM     57  N   UNL A   1      43.655  30.641  30.931  1.00  0.00    -0.248 NA
ATOM     58  C   UNL A   1      45.628  30.446  29.772  1.00  0.00     0.031 C 
ATOM     59  C   UNL A   1      41.357  32.265  32.490  1.00  0.00     0.029 A 
ATOM     60  C   UNL A   1      41.846  32.685  31.266  1.00  0.00     0.049 A 
ATOM     61  H   UNL A   1      40.791  33.055  29.483  1.00  0.00     0.167 HD
ATOM     62  C   UNL A   1      43.985  31.912  30.520  1.00  0.00     0.074 A 
ATOM     63  C   UNL A   1      45.240  31.731  29.807  1.00  0.00     0.031 C 
ATOM     64  C   UNL A   1      43.168  32.997  30.725  1.00  0.00     0.034 A 
BRANCH  51  65
ATOM     65  C   UNL A   1      37.010  32.891  30.616  1.00  0.00     0.023 A 
ATOM     66  C   UNL A   1      36.523  32.725  31.932  1.00  0.00     0.012 A 
ATOM     67  C   UNL A   1      36.145  33.584  29.735  1.00  0.00     0.148 A 
ATOM     68  C   UNL A   1      35.235  33.119  32.318  1.00  0.00     0.002 A 
ATOM     69  C   UNL A   1      34.839  33.927  30.096  1.00  0.00     0.091 A 
ATOM     70  F   UNL A   1      36.586  34.003  28.551  1.00  0.00    -0.205 F 
ATOM     71  C   UNL A   1      34.377  33.690  31.390  1.00  0.00     0.022 A 
BRANCH  69  72
ATOM     72  S   UNL A   1      33.659  34.625  28.921  1.00  0.00     0.127 S 
ATOM     73  O   UNL A   1      32.540  34.991  29.793  1.00  0.00    -0.237 OA
ATOM     74  O   UNL A   1      34.397  35.760  28.372  1.00  0.00    -0.237 OA
ATOM     75  O   UNL A   1      33.348  33.565  27.970  1.00  0.00    -0.744 OA
ENDBRANCH  69  72
ENDBRANCH  51  65
BRANCH  52  76
ATOM     76  C   UNL A   1      44.810  27.367  29.316  1.00  0.00     0.023 A 
ATOM     77  C   UNL A   1      45.032  26.009  29.658  1.00  0.00     0.012 A 
ATOM     78  C   UNL A   1      44.622  27.698  27.965  1.00  0.00     0.148 A 
ATOM     79  C   UNL A   1      44.838  24.999  28.713  1.00  0.00     0.002 A 
ATOM     80  C   UNL A   1      44.464  26.686  27.025  1.00  0.00     0.091 A 
ATOM     81  F   UNL A   1      44.511  28.984  27.613  1.00  0.00    -0.205 F 
ATOM     82  C   UNL A   1      44.503  25.338  27.406  1.00  0.00     0.022 A 
BRANCH  80  83
ATOM     83  S   UNL A   1      44.080  27.111  25.324  1.00  0.00     0.127 S 
ATOM     84  O   UNL A   1      45.386  27.535  24.827  1.00  0.00    -0.237 OA
ATOM     85  O   UNL A   1      43.595  25.846  24.776  1.00  0.00    -0.237 OA
ATOM     86  O   UNL A   1      43.058  28.141  25.440  1.00  0.00    -0.744 OA
ENDBRANCH  80  83
ENDBRANCH  52  76
BRANCH  64  87
ATOM     87  C   UNL A   1      43.505  34.445  30.358  1.00  0.00     0.023 A 
ATOM     88  C   UNL A   1      43.650  35.454  31.330  1.00  0.00     0.012 A 
ATOM     89  C   UNL A   1      43.605  34.878  29.005  1.00  0.00     0.148 A 
ATOM     90  C   UNL A   1      44.030  36.764  31.005  1.00  0.00     0.002 A 
ATOM     91  C   UNL A   1      43.955  36.187  28.679  1.00  0.00     0.091 A 
ATOM     92  F   UNL A   1      43.301  34.039  28.011  1.00  0.00    -0.205 F 
ATOM     93  C   UNL A   1      44.204  37.125  29.681  1.00  0.00     0.022 A 
BRANCH  91  94
ATOM     94  S   UNL A   1      44.071  36.761  26.977  1.00  0.00     0.127 S 
ATOM     95  O   UNL A   1      42.784  36.326  26.434  1.00  0.00    -0.237 OA
ATOM     96  O   UNL A   1      44.200  38.208  27.154  1.00  0.00    -0.237 OA
ATOM     97  O   UNL A   1      45.240  36.111  26.405  1.00  0.00    -0.744 OA
ENDBRANCH  91  94
ENDBRANCH  64  87
ENDBRANCH  38  39
ENDBRANCH  30  33
ENDBRANCH  28  29
ENDBRANCH   1  28
TORSDOF 16
ENDMDL
MODEL 2
REMARK VINA RESULT:     -13.4      3.935      9.324
REMARK SMILES Cc1cc(C(=O)NCCCNC(=O)c2ccc(-c3c4nc(c(-c5cccc(S(=O)(=O)[O-])c5F)c5ccc([nH]5)c(-c5cccc(S(=O)(=O)[O-])c5F)c5nc(c(-c6cccc(S(=O)(=O)[O-])c6F)c6ccc3[nH]6)C=C5)C=C4)cc2)ccc1NS(=O)(=O)c1ccc2c(c1)CCC2
REMARK SMILES IDX 9 1 8 2 7 3 5 4 6 5 4 7 1 8 2 9 3 10 79 11 78 12 77 13 80 14
REMARK SMILES IDX 81 16 82 17 83 18 84 19 85 20 89 21 86 22 88 23 87 24 90 25
REMARK SMILES IDX 92 26 91 27 10 28 11 29 12 30 13 32 14 33 15 34 76 35 16 36
REMARK SMILES IDX 75 37 17 38 18 39 19 40 69 41 20 42 74 43 68 44 70 45 21 46
REMARK SMILES IDX 73 47 67 48 66 49 22 51 54 52 34 53 53 54 35 55 38 56 52 57
REMARK SMILES IDX 71 58 36 59 37 60 51 62 72 63 39 64 23 65 24 66 32 67 25 68
REMARK SMILES IDX 27 69 33 70 26 71 28 72 29 73 30 74 31 75 55 76 56 77 64 78
REMARK SMILES IDX 57 79 59 80 65 81 58 82 60 83 61 84 62 85 63 86 40 87 41 88
REMARK SMILES IDX 49 89 42 90 44 91 50 92 43 93 45 94 46 95 47 96 48 97
REMARK H PARENT 7 6 80 15 11 31 70 50 38 61
REMARK Flexibility Score: inf
ROOT
ATOM      1  C   UNL A   1      33.314  29.884  27.636  1.00  0.00     0.042 C 
ENDROOT
BRANCH   1   2
ATOM      2  C   UNL A   1      32.372  29.355  26.561  1.00  0.00     0.118 C 
BRANCH   2   3
ATOM      3  N   UNL A   1      32.901  29.560  25.214  1.00  0.00    -0.352 N 
ATOM      4  C   UNL A   1      32.794  28.840  24.046  1.00  0.00     0.251 C 
ATOM      5  O   UNL A   1      33.479  29.169  23.079  1.00  0.00    -0.269 OA
ATOM      6  H   UNL A   1      33.442  30.377  25.124  1.00  0.00     0.163 HD
BRANCH   4   7
ATOM      7  C   UNL A   1      31.946  27.626  23.927  1.00  0.00     0.040 A 
ATOM      8  C   UNL A   1      32.388  24.113  22.556  1.00  0.00     0.046 C 
ATOM      9  C   UNL A   1      31.836  25.254  23.367  1.00  0.00    -0.026 A 
ATOM     10  C   UNL A   1      32.510  26.485  23.340  1.00  0.00     0.019 A 
ATOM     11  C   UNL A   1      30.643  25.161  24.099  1.00  0.00     0.052 A 
ATOM     12  C   UNL A   1      29.951  26.337  24.388  1.00  0.00     0.028 A 
ATOM     13  C   UNL A   1      30.607  27.572  24.304  1.00  0.00     0.016 A 
BRANCH  11  14
ATOM     14  N   UNL A   1      30.339  23.907  24.708  1.00  0.00    -0.279 N 
ATOM     15  H   UNL A   1      29.744  23.319  24.191  1.00  0.00     0.180 HD
BRANCH  14  16
ATOM     16  S   UNL A   1      30.853  23.298  26.174  1.00  0.00     0.261 S 
ATOM     17  O   UNL A   1      30.922  24.409  27.113  1.00  0.00    -0.201 OA
ATOM     18  O   UNL A   1      29.998  22.166  26.431  1.00  0.00    -0.201 OA
BRANCH  16  19
ATOM     19  C   UNL A   1      32.514  22.652  26.036  1.00  0.00     0.088 A 
ATOM     20  C   UNL A   1      32.777  21.326  25.670  1.00  0.00     0.022 A 
ATOM     21  C   UNL A   1      33.556  23.594  26.079  1.00  0.00     0.026 A 
ATOM     22  C   UNL A   1      34.002  21.008  25.082  1.00  0.00     0.005 A 
ATOM     23  C   UNL A   1      34.793  23.227  25.577  1.00  0.00    -0.043 A 
ATOM     24  C   UNL A   1      34.980  21.972  25.003  1.00  0.00    -0.045 A 
ATOM     25  C   UNL A   1      36.061  24.017  25.490  1.00  0.00     0.036 C 
ATOM     26  C   UNL A   1      36.312  21.866  24.326  1.00  0.00     0.036 C 
ATOM     27  C   UNL A   1      36.724  23.346  24.278  1.00  0.00     0.010 C 
ENDBRANCH  16  19
ENDBRANCH  14  16
ENDBRANCH  11  14
ENDBRANCH   4   7
ENDBRANCH   2   3
ENDBRANCH   1   2
BRANCH   1  28
ATOM     28  C   UNL A   1      34.070  31.135  27.216  1.00  0.00     0.118 C 
BRANCH  28  29
ATOM     29  N   UNL A   1      34.683  31.882  28.322  1.00  0.00    -0.352 N 
ATOM     30  C   UNL A   1      35.686  31.466  29.193  1.00  0.00     0.251 C 
ATOM     31  H   UNL A   1      34.340  32.794  28.465  1.00  0.00     0.163 HD
ATOM     32  O   UNL A   1      36.042  32.191  30.114  1.00  0.00    -0.269 OA
BRANCH  30  33
ATOM     33  C   UNL A   1      36.384  30.192  28.895  1.00  0.00     0.039 A 
ATOM     34  C   UNL A   1      36.736  29.398  29.989  1.00  0.00     0.014 A 
ATOM     35  C   UNL A   1      37.046  30.064  27.679  1.00  0.00     0.014 A 
ATOM     36  C   UNL A   1      37.960  28.743  29.972  1.00  0.00     0.010 A 
ATOM     37  C   UNL A   1      38.312  29.518  27.699  1.00  0.00     0.010 A 
ATOM     38  C   UNL A   1      38.798  28.943  28.880  1.00  0.00    -0.014 A 
BRANCH  38  39
ATOM     39  C   UNL A   1      40.200  28.568  28.856  1.00  0.00     0.031 A 
ATOM     40  C   UNL A   1      40.542  27.152  28.679  1.00  0.00     0.074 A 
ATOM     41  C   UNL A   1      41.171  29.506  28.899  1.00  0.00     0.049 A 
ATOM     42  N   UNL A   1      41.690  26.644  28.957  1.00  0.00    -0.248 NA
ATOM     43  C   UNL A   1      39.559  26.181  28.226  1.00  0.00     0.031 C 
ATOM     44  C   UNL A   1      42.578  29.343  28.551  1.00  0.00     0.029 A 
ATOM     45  N   UNL A   1      41.115  30.762  29.508  1.00  0.00    -0.354 N 
ATOM     46  C   UNL A   1      41.701  25.368  28.443  1.00  0.00     0.074 A 
ATOM     47  C   UNL A   1      40.323  25.092  28.121  1.00  0.00     0.031 C 
ATOM     48  C   UNL A   1      43.292  30.289  29.179  1.00  0.00     0.029 A 
ATOM     49  C   UNL A   1      42.387  30.975  30.083  1.00  0.00     0.049 A 
ATOM     50  H   UNL A   1      40.346  31.375  29.530  1.00  0.00     0.167 HD
ATOM     51  C   UNL A   1      42.906  24.779  28.202  1.00  0.00     0.034 A 
ATOM     52  C   UNL A   1      42.592  31.176  31.420  1.00  0.00     0.034 A 
ATOM     53  C   UNL A   1      44.006  25.586  28.768  1.00  0.00     0.049 A 
ATOM     54  C   UNL A   1      43.529  30.148  32.047  1.00  0.00     0.074 A 
ATOM     55  C   UNL A   1      44.943  26.460  28.237  1.00  0.00     0.029 A 
ATOM     56  N   UNL A   1      44.063  25.765  30.144  1.00  0.00    -0.354 N 
ATOM     57  N   UNL A   1      44.133  29.187  31.401  1.00  0.00    -0.248 NA
ATOM     58  C   UNL A   1      43.741  30.056  33.490  1.00  0.00     0.031 C 
ATOM     59  C   UNL A   1      45.540  27.187  29.311  1.00  0.00     0.029 A 
ATOM     60  C   UNL A   1      44.992  26.735  30.498  1.00  0.00     0.049 A 
ATOM     61  H   UNL A   1      43.513  25.266  30.790  1.00  0.00     0.167 HD
ATOM     62  C   UNL A   1      44.639  28.274  32.298  1.00  0.00     0.074 A 
ATOM     63  C   UNL A   1      44.376  28.878  33.594  1.00  0.00     0.031 C 
ATOM     64  C   UNL A   1      45.160  27.061  31.913  1.00  0.00     0.034 A 
BRANCH  51  65
ATOM     65  C   UNL A   1      43.128  23.642  27.209  1.00  0.00     0.023 A 
ATOM     66  C   UNL A   1      43.806  23.958  26.011  1.00  0.00     0.012 A 
ATOM     67  C   UNL A   1      42.653  22.311  27.303  1.00  0.00     0.148 A 
ATOM     68  C   UNL A   1      43.913  23.057  24.942  1.00  0.00     0.002 A 
ATOM     69  C   UNL A   1      42.704  21.429  26.220  1.00  0.00     0.091 A 
ATOM     70  F   UNL A   1      42.212  21.836  28.465  1.00  0.00    -0.205 F 
ATOM     71  C   UNL A   1      43.331  21.802  25.033  1.00  0.00     0.022 A 
BRANCH  69  72
ATOM     72  S   UNL A   1      41.921  19.802  26.257  1.00  0.00     0.127 S 
ATOM     73  O   UNL A   1      42.311  19.305  27.579  1.00  0.00    -0.237 OA
ATOM     74  O   UNL A   1      40.504  20.133  26.127  1.00  0.00    -0.237 OA
ATOM     75  O   UNL A   1      42.489  19.046  25.148  1.00  0.00    -0.744 OA
ENDBRANCH  69  72
ENDBRANCH  51  65
BRANCH  52  76
ATOM     76  C   UNL A   1      41.399  31.773  32.103  1.00  0.00     0.023 A 
ATOM     77  C   UNL A   1      40.976  33.051  31.658  1.00  0.00     0.012 A 
ATOM     78  C   UNL A   1      40.481  30.962  32.790  1.00  0.00     0.148 A 
ATOM     79  C   UNL A   1      39.625  33.402  31.693  1.00  0.00     0.002 A 
ATOM     80  C   UNL A   1      39.143  31.337  32.849  1.00  0.00     0.091 A 
ATOM     81  F   UNL A   1      40.889  29.798  33.304  1.00  0.00    -0.205 F 
ATOM     82  C   UNL A   1      38.700  32.520  32.244  1.00  0.00     0.022 A 
BRANCH  80  83
ATOM     83  S   UNL A   1      37.947  30.229  33.602  1.00  0.00     0.127 S 
ATOM     84  O   UNL A   1      38.389  28.934  33.094  1.00  0.00    -0.237 OA
ATOM     85  O   UNL A   1      38.169  30.438  35.031  1.00  0.00    -0.237 OA
ATOM     86  O   UNL A   1      36.663  30.718  33.120  1.00  0.00    -0.744 OA
ENDBRANCH  80  83
ENDBRANCH  52  76
BRANCH  64  87
ATOM     87  C   UNL A   1      45.801  26.033  32.849  1.00  0.00     0.023 A 
ATOM     88  C   UNL A   1      47.177  25.732  32.807  1.00  0.00     0.012 A 
ATOM     89  C   UNL A   1      45.031  25.255  33.759  1.00  0.00     0.148 A 
ATOM     90  C   UNL A   1      47.782  24.847  33.709  1.00  0.00     0.002 A 
ATOM     91  C   UNL A   1      45.627  24.352  34.637  1.00  0.00     0.091 A 
ATOM     92  F   UNL A   1      43.697  25.332  33.742  1.00  0.00    -0.205 F 
ATOM     93  C   UNL A   1      47.010  24.172  34.640  1.00  0.00     0.022 A 
BRANCH  91  94
ATOM     94  S   UNL A   1      44.673  23.344  35.783  1.00  0.00     0.127 S 
ATOM     95  O   UNL A   1      43.962  22.453  34.866  1.00  0.00    -0.237 OA
ATOM     96  O   UNL A   1      45.725  22.698  36.568  1.00  0.00    -0.237 OA
ATOM     97  O   UNL A   1      43.832  24.264  36.534  1.00  0.00    -0.744 OA
ENDBRANCH  91  94
ENDBRANCH  64  87
ENDBRANCH  38  39
ENDBRANCH  30  33
ENDBRANCH  28  29
ENDBRANCH   1  28
TORSDOF 16
ENDMDL
MODEL 3
REMARK VINA RESULT:     -13.2      2.038      2.751
REMARK SMILES Cc1cc(C(=O)NCCCNC(=O)c2ccc(-c3c4nc(c(-c5cccc(S(=O)(=O)[O-])c5F)c5ccc([nH]5)c(-c5cccc(S(=O)(=O)[O-])c5F)c5nc(c(-c6cccc(S(=O)(=O)[O-])c6F)c6ccc3[nH]6)C=C5)C=C4)cc2)ccc1NS(=O)(=O)c1ccc2c(c1)CCC2
REMARK SMILES IDX 9 1 8 2 7 3 5 4 6 5 4 7 1 8 2 9 3 10 79 11 78 12 77 13 80 14
REMARK SMILES IDX 81 16 82 17 83 18 84 19 85 20 89 21 86 22 88 23 87 24 90 25
REMARK SMILES IDX 92 26 91 27 10 28 11 29 12 30 13 32 14 33 15 34 76 35 16 36
REMARK SMILES IDX 75 37 17 38 18 39 19 40 69 41 20 42 74 43 68 44 70 45 21 46
REMARK SMILES IDX 73 47 67 48 66 49 22 51 54 52 34 53 53 54 35 55 38 56 52 57
REMARK SMILES IDX 71 58 36 59 37 60 51 62 72 63 39 64 23 65 24 66 32 67 25 68
REMARK SMILES IDX 27 69 33 70 26 71 28 72 29 73 30 74 31 75 55 76 56 77 64 78
REMARK SMILES IDX 57 79 59 80 65 81 58 82 60 83 61 84 62 85 63 86 40 87 41 88
REMARK SMILES IDX 49 89 42 90 44 91 50 92 43 93 45 94 46 95 47 96 48 97
REMARK H PARENT 7 6 80 15 11 31 70 50 38 61
REMARK Flexibility Score: inf
ROOT
ATOM      1  C   UNL A   1      38.381  22.033  26.241  1.00  0.00     0.042 C 
ENDROOT
BRANCH   1   2
ATOM      2  C   UNL A   1      37.204  22.875  25.764  1.00  0.00     0.118 C 
BRANCH   2   3
ATOM      3  N   UNL A   1      37.201  23.050  24.313  1.00  0.00    -0.352 N 
ATOM      4  C   UNL A   1      36.238  22.858  23.348  1.00  0.00     0.251 C 
ATOM      5  O   UNL A   1      36.559  22.939  22.163  1.00  0.00    -0.269 OA
ATOM      6  H   UNL A   1      38.060  23.369  23.953  1.00  0.00     0.163 HD
BRANCH   4   7
ATOM      7  C   UNL A   1      34.841  22.473  23.674  1.00  0.00     0.040 A 
ATOM      8  C   UNL A   1      33.171  19.861  25.865  1.00  0.00     0.046 C 
ATOM      9  C   UNL A   1      33.362  21.122  25.067  1.00  0.00    -0.026 A 
ATOM     10  C   UNL A   1      34.643  21.413  24.570  1.00  0.00     0.019 A 
ATOM     11  C   UNL A   1      32.307  21.987  24.744  1.00  0.00     0.052 A 
ATOM     12  C   UNL A   1      32.446  22.813  23.628  1.00  0.00     0.028 A 
ATOM     13  C   UNL A   1      33.718  23.058  23.095  1.00  0.00     0.016 A 
BRANCH  11  14
ATOM     14  N   UNL A   1      31.266  22.145  25.707  1.00  0.00    -0.279 N 
ATOM     15  H   UNL A   1      30.569  21.450  25.694  1.00  0.00     0.180 HD
BRANCH  14  16
ATOM     16  S   UNL A   1      31.065  23.342  26.851  1.00  0.00     0.261 S 
ATOM     17  O   UNL A   1      29.672  23.318  27.274  1.00  0.00    -0.201 OA
ATOM     18  O   UNL A   1      32.129  23.134  27.803  1.00  0.00    -0.201 OA
BRANCH  16  19
ATOM     19  C   UNL A   1      31.344  24.953  26.130  1.00  0.00     0.088 A 
ATOM     20  C   UNL A   1      30.381  25.602  25.347  1.00  0.00     0.022 A 
ATOM     21  C   UNL A   1      32.479  25.650  26.577  1.00  0.00     0.026 A 
ATOM     22  C   UNL A   1      30.404  26.994  25.247  1.00  0.00     0.005 A 
ATOM     23  C   UNL A   1      32.527  27.020  26.382  1.00  0.00    -0.043 A 
ATOM     24  C   UNL A   1      31.453  27.691  25.802  1.00  0.00    -0.045 A 
ATOM     25  C   UNL A   1      33.592  28.001  26.757  1.00  0.00     0.036 C 
ATOM     26  C   UNL A   1      31.614  29.177  25.894  1.00  0.00     0.036 C 
ATOM     27  C   UNL A   1      32.752  29.276  26.921  1.00  0.00     0.010 C 
ENDBRANCH  16  19
ENDBRANCH  14  16
ENDBRANCH  11  14
ENDBRANCH   4   7
ENDBRANCH   2   3
ENDBRANCH   1   2
BRANCH   1  28
ATOM     28  C   UNL A   1      39.732  22.582  25.808  1.00  0.00     0.118 C 
BRANCH  28  29
ATOM     29  N   UNL A   1      40.741  22.638  26.872  1.00  0.00    -0.352 N 
ATOM     30  C   UNL A   1      41.079  23.717  27.685  1.00  0.00     0.251 C 
ATOM     31  H   UNL A   1      41.245  21.807  27.031  1.00  0.00     0.163 HD
ATOM     32  O   UNL A   1      42.000  23.620  28.487  1.00  0.00    -0.269 OA
BRANCH  30  33
ATOM     33  C   UNL A   1      40.216  24.922  27.638  1.00  0.00     0.039 A 
ATOM     34  C   UNL A   1      40.634  25.960  26.801  1.00  0.00     0.014 A 
ATOM     35  C   UNL A   1      39.353  25.167  28.699  1.00  0.00     0.014 A 
ATOM     36  C   UNL A   1      40.476  27.270  27.233  1.00  0.00     0.010 A 
ATOM     37  C   UNL A   1      39.300  26.453  29.192  1.00  0.00     0.010 A 
ATOM     38  C   UNL A   1      39.946  27.485  28.501  1.00  0.00    -0.014 A 
BRANCH  38  39
ATOM     39  C   UNL A   1      39.994  28.761  29.192  1.00  0.00     0.031 A 
ATOM     40  C   UNL A   1      39.002  29.783  28.840  1.00  0.00     0.074 A 
ATOM     41  C   UNL A   1      40.866  28.973  30.202  1.00  0.00     0.049 A 
ATOM     42  N   UNL A   1      39.119  31.032  29.122  1.00  0.00    -0.248 NA
ATOM     43  C   UNL A   1      37.813  29.460  28.069  1.00  0.00     0.031 C 
ATOM     44  C   UNL A   1      40.824  30.032  31.203  1.00  0.00     0.029 A 
ATOM     45  N   UNL A   1      42.123  28.389  30.377  1.00  0.00    -0.354 N 
ATOM     46  C   UNL A   1      37.906  31.622  28.850  1.00  0.00     0.074 A 
ATOM     47  C   UNL A   1      37.184  30.636  28.083  1.00  0.00     0.031 C 
ATOM     48  C   UNL A   1      42.061  30.219  31.688  1.00  0.00     0.029 A 
ATOM     49  C   UNL A   1      42.959  29.406  30.888  1.00  0.00     0.049 A 
ATOM     50  H   UNL A   1      42.375  27.457  30.186  1.00  0.00     0.167 HD
ATOM     51  C   UNL A   1      37.612  32.806  29.456  1.00  0.00     0.034 A 
ATOM     52  C   UNL A   1      44.090  29.846  30.259  1.00  0.00     0.034 A 
ATOM     53  C   UNL A   1      38.797  33.348  30.151  1.00  0.00     0.049 A 
ATOM     54  C   UNL A   1      44.062  31.339  29.944  1.00  0.00     0.074 A 
ATOM     55  C   UNL A   1      39.211  33.398  31.474  1.00  0.00     0.029 A 
ATOM     56  N   UNL A   1      39.910  33.699  29.397  1.00  0.00    -0.354 N 
ATOM     57  N   UNL A   1      43.098  32.159  30.265  1.00  0.00    -0.248 NA
ATOM     58  C   UNL A   1      45.076  31.985  29.113  1.00  0.00     0.031 C 
ATOM     59  C   UNL A   1      40.593  33.755  31.500  1.00  0.00     0.029 A 
ATOM     60  C   UNL A   1      41.015  33.954  30.198  1.00  0.00     0.049 A 
ATOM     61  H   UNL A   1      39.914  33.762  28.414  1.00  0.00     0.167 HD
ATOM     62  C   UNL A   1      43.242  33.338  29.570  1.00  0.00     0.074 A 
ATOM     63  C   UNL A   1      44.508  33.177  28.874  1.00  0.00     0.031 C 
ATOM     64  C   UNL A   1      42.277  34.317  29.557  1.00  0.00     0.034 A 
BRANCH  51  65
ATOM     65  C   UNL A   1      36.198  33.332  29.683  1.00  0.00     0.023 A 
ATOM     66  C   UNL A   1      35.489  33.782  28.547  1.00  0.00     0.012 A 
ATOM     67  C   UNL A   1      35.534  33.511  30.921  1.00  0.00     0.148 A 
ATOM     68  C   UNL A   1      34.262  34.455  28.638  1.00  0.00     0.002 A 
ATOM     69  C   UNL A   1      34.340  34.232  31.024  1.00  0.00     0.091 A 
ATOM     70  F   UNL A   1      35.993  32.921  32.022  1.00  0.00    -0.205 F 
ATOM     71  C   UNL A   1      33.703  34.712  29.881  1.00  0.00     0.022 A 
BRANCH  69  72
ATOM     72  S   UNL A   1      33.590  34.643  32.614  1.00  0.00     0.127 S 
ATOM     73  O   UNL A   1      33.420  33.322  33.222  1.00  0.00    -0.237 OA
ATOM     74  O   UNL A   1      34.617  35.473  33.240  1.00  0.00    -0.237 OA
ATOM     75  O   UNL A   1      32.336  35.325  32.314  1.00  0.00    -0.744 OA
ENDBRANCH  69  72
ENDBRANCH  51  65
BRANCH  52  76
ATOM     76  C   UNL A   1      44.707  28.799  29.382  1.00  0.00     0.023 A 
ATOM     77  C   UNL A   1      45.140  27.605  30.012  1.00  0.00     0.012 A 
ATOM     78  C   UNL A   1      44.456  28.777  28.000  1.00  0.00     0.148 A 
ATOM     79  C   UNL A   1      45.095  26.387  29.332  1.00  0.00     0.002 A 
ATOM     80  C   UNL A   1      44.447  27.562  27.323  1.00  0.00     0.091 A 
ATOM     81  F   UNL A   1      44.144  29.914  27.371  1.00  0.00    -0.205 F 
ATOM     82  C   UNL A   1      44.698  26.360  27.998  1.00  0.00     0.022 A 
BRANCH  80  83
ATOM     83  S   UNL A   1      43.984  27.520  25.589  1.00  0.00     0.127 S 
ATOM     84  O   UNL A   1      42.895  28.491  25.554  1.00  0.00    -0.237 OA
ATOM     85  O   UNL A   1      45.210  27.947  24.917  1.00  0.00    -0.237 OA
ATOM     86  O   UNL A   1      43.629  26.129  25.353  1.00  0.00    -0.744 OA
ENDBRANCH  80  83
ENDBRANCH  52  76
BRANCH  64  87
ATOM     87  C   UNL A   1      42.403  35.677  28.865  1.00  0.00     0.023 A 
ATOM     88  C   UNL A   1      41.879  35.920  27.580  1.00  0.00     0.012 A 
ATOM     89  C   UNL A   1      43.133  36.754  29.443  1.00  0.00     0.148 A 
ATOM     90  C   UNL A   1      41.927  37.182  26.974  1.00  0.00     0.002 A 
ATOM     91  C   UNL A   1      43.207  38.003  28.828  1.00  0.00     0.091 A 
ATOM     92  F   UNL A   1      43.823  36.564  30.571  1.00  0.00    -0.205 F 
ATOM     93  C   UNL A   1      42.572  38.231  27.607  1.00  0.00     0.022 A 
BRANCH  91  94
ATOM     94  S   UNL A   1      44.139  39.373  29.530  1.00  0.00     0.127 S 
ATOM     95  O   UNL A   1      43.364  39.664  30.737  1.00  0.00    -0.237 OA
ATOM     96  O   UNL A   1      45.443  38.757  29.778  1.00  0.00    -0.237 OA
ATOM     97  O   UNL A   1      44.143  40.423  28.524  1.00  0.00    -0.744 OA
ENDBRANCH  91  94
ENDBRANCH  64  87
ENDBRANCH  38  39
ENDBRANCH  30  33
ENDBRANCH  28  29
ENDBRANCH   1  28
TORSDOF 16
ENDMDL
