MODEL 1
REMARK VINA RESULT:     -12.9      0.000      0.000
REMARK SMILES O=C(NCCCNC(=O)[C@@H]1CC=CC[C@@H]1C(=O)Nc1ccc(O)cc1)c1ccc(-c2c3nc(c(-c4cccc(S(=O)(=O)[O-])c4F)c4ccc([nH]4)c(-c4cccc(S(=O)(=O)[O-])c4F)c4nc(c(-c5cccc(S(=O)(=O)[O-])c5F)c5ccc2[nH]5)C=C4)C=C3)cc1
REMARK SMILES IDX 5 1 4 2 3 3 1 4 2 5 26 7 27 8 88 9 28 10 87 11 29 12 30 13
REMARK SMILES IDX 31 14 81 15 32 16 86 17 80 18 82 19 33 20 85 21 79 22 78 23
REMARK SMILES IDX 34 25 66 26 46 27 65 28 47 29 50 30 64 31 83 32 48 33 49 34
REMARK SMILES IDX 63 36 84 37 51 38 35 39 36 40 44 41 37 42 39 43 45 44 38 45
REMARK SMILES IDX 40 46 41 47 42 48 43 49 67 50 68 51 76 52 69 53 71 54 77 55
REMARK SMILES IDX 70 56 72 57 73 58 74 59 75 60 52 61 53 62 61 63 54 64 56 65
REMARK SMILES IDX 62 66 55 67 57 68 58 69 59 70 60 71 6 72 7 73 8 74 9 76
REMARK SMILES IDX 10 77 11 78 15 79 12 80 14 81 13 82 16 83 17 84 18 85 19 87
REMARK SMILES IDX 20 88 25 89 21 90 24 91 22 92 23 93
REMARK H PARENT 3 6 82 24 50 35 7 75 18 86 23 94
REMARK Flexibility Score: inf
ROOT
ATOM      1  C   UNL A   1      31.739  28.626  27.245  1.00  0.00     0.042 C 
ENDROOT
BRANCH   1   2
ATOM      2  C   UNL A   1      32.362  29.565  26.217  1.00  0.00     0.118 C 
BRANCH   2   3
ATOM      3  N   UNL A   1      32.170  30.978  26.515  1.00  0.00    -0.352 N 
ATOM      4  O   UNL A   1      32.471  33.012  27.419  1.00  0.00    -0.269 OA
ATOM      5  C   UNL A   1      32.938  31.905  27.189  1.00  0.00     0.251 C 
ATOM      6  H   UNL A   1      31.325  31.344  26.165  1.00  0.00     0.163 HD
BRANCH   5   7
ATOM      7  C   UNL A   1      34.287  31.545  27.685  1.00  0.00     0.039 A 
ATOM      8  C   UNL A   1      34.613  30.223  27.956  1.00  0.00     0.014 A 
ATOM      9  C   UNL A   1      35.246  32.542  27.892  1.00  0.00     0.014 A 
ATOM     10  C   UNL A   1      35.755  29.930  28.683  1.00  0.00     0.010 A 
ATOM     11  C   UNL A   1      36.478  32.218  28.478  1.00  0.00     0.010 A 
ATOM     12  C   UNL A   1      36.717  30.918  28.945  1.00  0.00    -0.014 A 
BRANCH  12  13
ATOM     13  C   UNL A   1      37.954  30.523  29.676  1.00  0.00     0.031 A 
ATOM     14  C   UNL A   1      38.163  30.883  31.124  1.00  0.00     0.074 A 
ATOM     15  C   UNL A   1      38.857  29.748  29.039  1.00  0.00     0.049 A 
ATOM     16  N   UNL A   1      39.137  30.527  31.923  1.00  0.00    -0.248 NA
ATOM     17  C   UNL A   1      37.172  31.766  31.758  1.00  0.00     0.031 C 
ATOM     18  C   UNL A   1      38.785  29.369  27.624  1.00  0.00     0.029 A 
ATOM     19  N   UNL A   1      39.978  29.101  29.492  1.00  0.00    -0.354 N 
ATOM     20  C   UNL A   1      38.915  31.194  33.124  1.00  0.00     0.074 A 
ATOM     21  C   UNL A   1      37.708  31.970  32.954  1.00  0.00     0.031 C 
ATOM     22  C   UNL A   1      39.747  28.478  27.354  1.00  0.00     0.029 A 
ATOM     23  C   UNL A   1      40.563  28.288  28.546  1.00  0.00     0.049 A 
ATOM     24  H   UNL A   1      40.331  29.207  30.405  1.00  0.00     0.167 HD
ATOM     25  C   UNL A   1      39.645  31.154  34.264  1.00  0.00     0.034 A 
ATOM     26  C   UNL A   1      41.637  27.480  28.622  1.00  0.00     0.034 A 
ATOM     27  C   UNL A   1      40.803  30.319  34.450  1.00  0.00     0.049 A 
ATOM     28  C   UNL A   1      42.380  27.397  29.922  1.00  0.00     0.074 A 
ATOM     29  C   UNL A   1      41.574  30.158  35.587  1.00  0.00     0.029 A 
ATOM     30  N   UNL A   1      41.352  29.498  33.476  1.00  0.00    -0.354 N 
ATOM     31  N   UNL A   1      42.096  27.965  31.069  1.00  0.00    -0.248 NA
ATOM     32  C   UNL A   1      43.585  26.558  29.943  1.00  0.00     0.031 C 
ATOM     33  C   UNL A   1      42.596  29.247  35.298  1.00  0.00     0.029 A 
ATOM     34  C   UNL A   1      42.453  28.830  33.983  1.00  0.00     0.049 A 
ATOM     35  H   UNL A   1      41.008  29.404  32.559  1.00  0.00     0.167 HD
ATOM     36  C   UNL A   1      43.082  27.549  31.952  1.00  0.00     0.074 A 
ATOM     37  C   UNL A   1      43.948  26.648  31.216  1.00  0.00     0.031 C 
ATOM     38  C   UNL A   1      43.273  27.905  33.246  1.00  0.00     0.034 A 
BRANCH  25  39
ATOM     39  C   UNL A   1      39.200  32.016  35.418  1.00  0.00     0.023 A 
ATOM     40  C   UNL A   1      38.321  31.492  36.387  1.00  0.00     0.012 A 
ATOM     41  C   UNL A   1      39.698  33.324  35.575  1.00  0.00     0.148 A 
ATOM     42  C   UNL A   1      37.924  32.266  37.478  1.00  0.00     0.002 A 
ATOM     43  C   UNL A   1      39.327  34.076  36.685  1.00  0.00     0.091 A 
ATOM     44  F   UNL A   1      40.512  33.817  34.630  1.00  0.00    -0.205 F 
ATOM     45  C   UNL A   1      38.435  33.552  37.633  1.00  0.00     0.022 A 
BRANCH  43  46
ATOM     46  S   UNL A   1      39.995  35.715  37.001  1.00  0.00     0.127 S 
ATOM     47  O   UNL A   1      39.340  36.064  38.261  1.00  0.00    -0.237 OA
ATOM     48  O   UNL A   1      41.431  35.451  37.114  1.00  0.00    -0.237 OA
ATOM     49  O   UNL A   1      39.621  36.523  35.849  1.00  0.00    -0.744 OA
ENDBRANCH  43  46
ENDBRANCH  25  39
BRANCH  26  50
ATOM     50  C   UNL A   1      42.027  26.655  27.443  1.00  0.00     0.023 A 
ATOM     51  C   UNL A   1      42.833  27.220  26.437  1.00  0.00     0.012 A 
ATOM     52  C   UNL A   1      41.670  25.295  27.350  1.00  0.00     0.148 A 
ATOM     53  C   UNL A   1      43.269  26.448  25.358  1.00  0.00     0.002 A 
ATOM     54  C   UNL A   1      42.165  24.516  26.311  1.00  0.00     0.091 A 
ATOM     55  F   UNL A   1      40.877  24.779  28.301  1.00  0.00    -0.205 F 
ATOM     56  C   UNL A   1      42.951  25.094  25.305  1.00  0.00     0.022 A 
BRANCH  54  57
ATOM     57  S   UNL A   1      41.940  22.733  26.280  1.00  0.00     0.127 S 
ATOM     58  O   UNL A   1      42.605  22.369  25.033  1.00  0.00    -0.237 OA
ATOM     59  O   UNL A   1      42.637  22.313  27.497  1.00  0.00    -0.237 OA
ATOM     60  O   UNL A   1      40.498  22.530  26.323  1.00  0.00    -0.744 OA
ENDBRANCH  54  57
ENDBRANCH  26  50
BRANCH  38  61
ATOM     61  C   UNL A   1      44.461  27.308  33.948  1.00  0.00     0.023 A 
ATOM     62  C   UNL A   1      45.717  27.938  33.840  1.00  0.00     0.012 A 
ATOM     63  C   UNL A   1      44.326  26.161  34.752  1.00  0.00     0.148 A 
ATOM     64  C   UNL A   1      46.829  27.414  34.497  1.00  0.00     0.002 A 
ATOM     65  C   UNL A   1      45.430  25.669  35.438  1.00  0.00     0.091 A 
ATOM     66  F   UNL A   1      43.127  25.562  34.820  1.00  0.00    -0.205 F 
ATOM     67  C   UNL A   1      46.683  26.287  35.304  1.00  0.00     0.022 A 
BRANCH  65  68
ATOM     68  S   UNL A   1      45.302  24.275  36.562  1.00  0.00     0.127 S 
ATOM     69  O   UNL A   1      44.376  24.787  37.569  1.00  0.00    -0.237 OA
ATOM     70  O   UNL A   1      44.750  23.225  35.702  1.00  0.00    -0.237 OA
ATOM     71  O   UNL A   1      46.660  24.016  37.023  1.00  0.00    -0.744 OA
ENDBRANCH  65  68
ENDBRANCH  38  61
ENDBRANCH  12  13
ENDBRANCH   5   7
ENDBRANCH   2   3
ENDBRANCH   1   2
BRANCH   1  72
ATOM     72  C   UNL A   1      32.143  27.165  27.082  1.00  0.00     0.117 C 
BRANCH  72  73
ATOM     73  N   UNL A   1      33.139  26.949  26.044  1.00  0.00    -0.356 N 
ATOM     74  C   UNL A   1      33.697  25.825  25.529  1.00  0.00     0.224 C 
ATOM     75  H   UNL A   1      33.471  27.781  25.635  1.00  0.00     0.163 HD
ATOM     76  O   UNL A   1      34.419  25.992  24.537  1.00  0.00    -0.275 OA
BRANCH  74  77
ATOM     77  C   UNL A   1      33.598  24.447  26.175  1.00  0.00     0.095 C 
ATOM     78  C   UNL A   1      34.462  23.384  25.449  1.00  0.00     0.041 C 
ATOM     79  C   UNL A   1      32.263  23.826  26.600  1.00  0.00     0.095 C 
ATOM     80  C   UNL A   1      34.526  22.082  26.195  1.00  0.00    -0.030 C 
ATOM     81  C   UNL A   1      32.635  22.750  27.678  1.00  0.00     0.041 C 
ATOM     82  C   UNL A   1      33.718  21.805  27.227  1.00  0.00    -0.030 C 
BRANCH  79  83
ATOM     83  C   UNL A   1      31.272  23.201  25.583  1.00  0.00     0.228 C 
ATOM     84  O   UNL A   1      31.007  21.992  25.647  1.00  0.00    -0.274 OA
ATOM     85  N   UNL A   1      30.393  23.926  24.831  1.00  0.00    -0.326 N 
ATOM     86  H   UNL A   1      29.500  23.511  24.810  1.00  0.00     0.169 HD
BRANCH  85  87
ATOM     87  C   UNL A   1      30.438  25.106  24.083  1.00  0.00     0.041 A 
ATOM     88  C   UNL A   1      29.759  26.268  24.427  1.00  0.00     0.030 A 
ATOM     89  C   UNL A   1      31.316  25.151  22.995  1.00  0.00     0.030 A 
ATOM     90  C   UNL A   1      29.810  27.404  23.611  1.00  0.00     0.048 A 
ATOM     91  C   UNL A   1      31.398  26.293  22.189  1.00  0.00     0.048 A 
ATOM     92  C   UNL A   1      30.607  27.395  22.478  1.00  0.00     0.115 A 
BRANCH  92  93
ATOM     93  O   UNL A   1      30.639  28.453  21.624  1.00  0.00    -0.508 OA
ATOM     94  H   UNL A   1      30.546  29.325  21.954  1.00  0.00     0.293 HD
ENDBRANCH  92  93
ENDBRANCH  85  87
ENDBRANCH  79  83
ENDBRANCH  74  77
ENDBRANCH  72  73
ENDBRANCH   1  72
TORSDOF 16
ENDMDL
MODEL 2
REMARK VINA RESULT:     -12.6      4.798      9.983
REMARK SMILES O=C(NCCCNC(=O)[C@@H]1CC=CC[C@@H]1C(=O)Nc1ccc(O)cc1)c1ccc(-c2c3nc(c(-c4cccc(S(=O)(=O)[O-])c4F)c4ccc([nH]4)c(-c4cccc(S(=O)(=O)[O-])c4F)c4nc(c(-c5cccc(S(=O)(=O)[O-])c5F)c5ccc2[nH]5)C=C4)C=C3)cc1
REMARK SMILES IDX 5 1 4 2 3 3 1 4 2 5 26 7 27 8 88 9 28 10 87 11 29 12 30 13
REMARK SMILES IDX 31 14 81 15 32 16 86 17 80 18 82 19 33 20 85 21 79 22 78 23
REMARK SMILES IDX 34 25 66 26 46 27 65 28 47 29 50 30 64 31 83 32 48 33 49 34
REMARK SMILES IDX 63 36 84 37 51 38 35 39 36 40 44 41 37 42 39 43 45 44 38 45
REMARK SMILES IDX 40 46 41 47 42 48 43 49 67 50 68 51 76 52 69 53 71 54 77 55
REMARK SMILES IDX 70 56 72 57 73 58 74 59 75 60 52 61 53 62 61 63 54 64 56 65
REMARK SMILES IDX 62 66 55 67 57 68 58 69 59 70 60 71 6 72 7 73 8 74 9 76
REMARK SMILES IDX 10 77 11 78 15 79 12 80 14 81 13 82 16 83 17 84 18 85 19 87
REMARK SMILES IDX 20 88 25 89 21 90 24 91 22 92 23 93
REMARK H PARENT 3 6 82 24 50 35 7 75 18 86 23 94
REMARK Flexibility Score: inf
ROOT
ATOM      1  C   UNL A   1      36.407  22.494  23.734  1.00  0.00     0.042 C 
ENDROOT
BRANCH   1   2
ATOM      2  C   UNL A   1      36.518  21.940  25.150  1.00  0.00     0.118 C 
BRANCH   2   3
ATOM      3  N   UNL A   1      37.517  20.890  25.297  1.00  0.00    -0.352 N 
ATOM      4  O   UNL A   1      39.485  19.878  25.681  1.00  0.00    -0.269 OA
ATOM      5  C   UNL A   1      38.800  20.884  25.804  1.00  0.00     0.251 C 
ATOM      6  H   UNL A   1      37.216  20.011  24.971  1.00  0.00     0.163 HD
BRANCH   5   7
ATOM      7  C   UNL A   1      39.365  22.100  26.434  1.00  0.00     0.039 A 
ATOM      8  C   UNL A   1      38.878  23.358  26.109  1.00  0.00     0.014 A 
ATOM      9  C   UNL A   1      40.406  21.989  27.362  1.00  0.00     0.014 A 
ATOM     10  C   UNL A   1      39.591  24.489  26.472  1.00  0.00     0.010 A 
ATOM     11  C   UNL A   1      41.024  23.144  27.863  1.00  0.00     0.010 A 
ATOM     12  C   UNL A   1      40.669  24.405  27.368  1.00  0.00    -0.014 A 
BRANCH  12  13
ATOM     13  C   UNL A   1      41.353  25.667  27.768  1.00  0.00     0.031 A 
ATOM     14  C   UNL A   1      42.726  26.016  27.255  1.00  0.00     0.074 A 
ATOM     15  C   UNL A   1      40.678  26.549  28.536  1.00  0.00     0.049 A 
ATOM     16  N   UNL A   1      43.410  27.119  27.432  1.00  0.00    -0.248 NA
ATOM     17  C   UNL A   1      43.436  25.002  26.459  1.00  0.00     0.031 C 
ATOM     18  C   UNL A   1      39.359  26.305  29.129  1.00  0.00     0.029 A 
ATOM     19  N   UNL A   1      40.972  27.834  28.914  1.00  0.00    -0.354 N 
ATOM     20  C   UNL A   1      44.647  26.906  26.834  1.00  0.00     0.074 A 
ATOM     21  C   UNL A   1      44.620  25.571  26.279  1.00  0.00     0.031 C 
ATOM     22  C   UNL A   1      38.914  27.431  29.699  1.00  0.00     0.029 A 
ATOM     23  C   UNL A   1      39.948  28.453  29.596  1.00  0.00     0.049 A 
ATOM     24  H   UNL A   1      41.831  28.272  28.716  1.00  0.00     0.167 HD
ATOM     25  C   UNL A   1      45.704  27.749  26.746  1.00  0.00     0.034 A 
ATOM     26  C   UNL A   1      39.847  29.701  30.090  1.00  0.00     0.034 A 
ATOM     27  C   UNL A   1      45.696  29.104  27.234  1.00  0.00     0.049 A 
ATOM     28  C   UNL A   1      41.004  30.638  29.910  1.00  0.00     0.074 A 
ATOM     29  C   UNL A   1      46.691  30.060  27.138  1.00  0.00     0.029 A 
ATOM     30  N   UNL A   1      44.635  29.698  27.902  1.00  0.00    -0.354 N 
ATOM     31  N   UNL A   1      42.125  30.443  29.260  1.00  0.00    -0.248 NA
ATOM     32  C   UNL A   1      40.880  31.967  30.523  1.00  0.00     0.031 C 
ATOM     33  C   UNL A   1      46.237  31.229  27.758  1.00  0.00     0.029 A 
ATOM     34  C   UNL A   1      44.952  31.006  28.228  1.00  0.00     0.049 A 
ATOM     35  H   UNL A   1      43.782  29.255  28.113  1.00  0.00     0.167 HD
ATOM     36  C   UNL A   1      42.842  31.626  29.379  1.00  0.00     0.074 A 
ATOM     37  C   UNL A   1      42.008  32.545  30.130  1.00  0.00     0.031 C 
ATOM     38  C   UNL A   1      44.090  31.916  28.935  1.00  0.00     0.034 A 
BRANCH  25  39
ATOM     39  C   UNL A   1      46.955  27.246  26.072  1.00  0.00     0.023 A 
ATOM     40  C   UNL A   1      47.137  27.449  24.689  1.00  0.00     0.012 A 
ATOM     41  C   UNL A   1      47.977  26.627  26.818  1.00  0.00     0.148 A 
ATOM     42  C   UNL A   1      48.303  27.018  24.056  1.00  0.00     0.002 A 
ATOM     43  C   UNL A   1      49.152  26.234  26.186  1.00  0.00     0.091 A 
ATOM     44  F   UNL A   1      47.777  26.417  28.127  1.00  0.00    -0.205 F 
ATOM     45  C   UNL A   1      49.314  26.421  24.805  1.00  0.00     0.022 A 
BRANCH  43  46
ATOM     46  S   UNL A   1      50.535  25.523  27.088  1.00  0.00     0.127 S 
ATOM     47  O   UNL A   1      49.937  24.307  27.637  1.00  0.00    -0.237 OA
ATOM     48  O   UNL A   1      51.516  25.292  26.026  1.00  0.00    -0.237 OA
ATOM     49  O   UNL A   1      50.931  26.529  28.063  1.00  0.00    -0.744 OA
ENDBRANCH  43  46
ENDBRANCH  25  39
BRANCH  26  50
ATOM     50  C   UNL A   1      38.582  30.136  30.749  1.00  0.00     0.023 A 
ATOM     51  C   UNL A   1      38.408  29.919  32.129  1.00  0.00     0.012 A 
ATOM     52  C   UNL A   1      37.585  30.830  30.035  1.00  0.00     0.148 A 
ATOM     53  C   UNL A   1      37.263  30.380  32.783  1.00  0.00     0.002 A 
ATOM     54  C   UNL A   1      36.482  31.345  30.705  1.00  0.00     0.091 A 
ATOM     55  F   UNL A   1      37.750  31.002  28.715  1.00  0.00    -0.205 F 
ATOM     56  C   UNL A   1      36.310  31.108  32.076  1.00  0.00     0.022 A 
BRANCH  54  57
ATOM     57  S   UNL A   1      35.311  32.440  29.891  1.00  0.00     0.127 S 
ATOM     58  O   UNL A   1      36.172  33.540  29.470  1.00  0.00    -0.237 OA
ATOM     59  O   UNL A   1      34.807  31.599  28.804  1.00  0.00    -0.237 OA
ATOM     60  O   UNL A   1      34.316  32.755  30.907  1.00  0.00    -0.744 OA
ENDBRANCH  54  57
ENDBRANCH  26  50
BRANCH  38  61
ATOM     61  C   UNL A   1      44.621  33.287  29.244  1.00  0.00     0.023 A 
ATOM     62  C   UNL A   1      45.355  33.495  30.429  1.00  0.00     0.012 A 
ATOM     63  C   UNL A   1      44.440  34.354  28.344  1.00  0.00     0.148 A 
ATOM     64  C   UNL A   1      45.874  34.753  30.728  1.00  0.00     0.002 A 
ATOM     65  C   UNL A   1      44.997  35.595  28.629  1.00  0.00     0.091 A 
ATOM     66  F   UNL A   1      43.716  34.141  27.235  1.00  0.00    -0.205 F 
ATOM     67  C   UNL A   1      45.704  35.800  29.823  1.00  0.00     0.022 A 
BRANCH  65  68
ATOM     68  S   UNL A   1      44.894  36.966  27.474  1.00  0.00     0.127 S 
ATOM     69  O   UNL A   1      43.534  36.821  26.958  1.00  0.00    -0.237 OA
ATOM     70  O   UNL A   1      45.096  38.128  28.343  1.00  0.00    -0.237 OA
ATOM     71  O   UNL A   1      45.964  36.748  26.509  1.00  0.00    -0.744 OA
ENDBRANCH  65  68
ENDBRANCH  38  61
ENDBRANCH  12  13
ENDBRANCH   5   7
ENDBRANCH   2   3
ENDBRANCH   1   2
BRANCH   1  72
ATOM     72  C   UNL A   1      35.530  23.736  23.615  1.00  0.00     0.117 C 
BRANCH  72  73
ATOM     73  N   UNL A   1      34.980  24.183  24.885  1.00  0.00    -0.356 N 
ATOM     74  C   UNL A   1      34.166  25.215  25.219  1.00  0.00     0.224 C 
ATOM     75  H   UNL A   1      35.253  23.628  25.652  1.00  0.00     0.163 HD
ATOM     76  O   UNL A   1      33.767  25.225  26.392  1.00  0.00    -0.275 OA
BRANCH  74  77
ATOM     77  C   UNL A   1      33.850  26.388  24.298  1.00  0.00     0.095 C 
ATOM     78  C   UNL A   1      32.945  27.451  24.973  1.00  0.00     0.041 C 
ATOM     79  C   UNL A   1      33.429  26.204  22.837  1.00  0.00     0.095 C 
ATOM     80  C   UNL A   1      32.799  28.697  24.147  1.00  0.00    -0.030 C 
ATOM     81  C   UNL A   1      33.756  27.570  22.139  1.00  0.00     0.041 C 
ATOM     82  C   UNL A   1      33.195  28.761  22.869  1.00  0.00    -0.030 C 
BRANCH  79  83
ATOM     83  C   UNL A   1      31.999  25.759  22.430  1.00  0.00     0.228 C 
ATOM     84  O   UNL A   1      31.254  26.552  21.835  1.00  0.00    -0.274 OA
ATOM     85  N   UNL A   1      31.597  24.457  22.359  1.00  0.00    -0.326 N 
ATOM     86  H   UNL A   1      31.067  24.280  21.548  1.00  0.00     0.169 HD
BRANCH  85  87
ATOM     87  C   UNL A   1      31.746  23.310  23.145  1.00  0.00     0.041 A 
ATOM     88  C   UNL A   1      32.390  22.156  22.719  1.00  0.00     0.030 A 
ATOM     89  C   UNL A   1      31.328  23.380  24.479  1.00  0.00     0.030 A 
ATOM     90  C   UNL A   1      32.467  21.025  23.539  1.00  0.00     0.048 A 
ATOM     91  C   UNL A   1      31.427  22.263  25.318  1.00  0.00     0.048 A 
ATOM     92  C   UNL A   1      31.954  21.079  24.825  1.00  0.00     0.115 A 
BRANCH  92  93
ATOM     93  O   UNL A   1      31.951  19.986  25.635  1.00  0.00    -0.508 OA
ATOM     94  H   UNL A   1      32.761  19.629  25.943  1.00  0.00     0.293 HD
ENDBRANCH  92  93
ENDBRANCH  85  87
ENDBRANCH  79  83
ENDBRANCH  74  77
ENDBRANCH  72  73
ENDBRANCH   1  72
TORSDOF 16
ENDMDL
MODEL 3
REMARK VINA RESULT:     -12.6      1.267      2.861
REMARK SMILES O=C(NCCCNC(=O)[C@@H]1CC=CC[C@@H]1C(=O)Nc1ccc(O)cc1)c1ccc(-c2c3nc(c(-c4cccc(S(=O)(=O)[O-])c4F)c4ccc([nH]4)c(-c4cccc(S(=O)(=O)[O-])c4F)c4nc(c(-c5cccc(S(=O)(=O)[O-])c5F)c5ccc2[nH]5)C=C4)C=C3)cc1
REMARK SMILES IDX 5 1 4 2 3 3 1 4 2 5 26 7 27 8 88 9 28 10 87 11 29 12 30 13
REMARK SMILES IDX 31 14 81 15 32 16 86 17 80 18 82 19 33 20 85 21 79 22 78 23
REMARK SMILES IDX 34 25 66 26 46 27 65 28 47 29 50 30 64 31 83 32 48 33 49 34
REMARK SMILES IDX 63 36 84 37 51 38 35 39 36 40 44 41 37 42 39 43 45 44 38 45
REMARK SMILES IDX 40 46 41 47 42 48 43 49 67 50 68 51 76 52 69 53 71 54 77 55
REMARK SMILES IDX 70 56 72 57 73 58 74 59 75 60 52 61 53 62 61 63 54 64 56 65
REMARK SMILES IDX 62 66 55 67 57 68 58 69 59 70 60 71 6 72 7 73 8 74 9 76
REMARK SMILES IDX 10 77 11 78 15 79 12 80 14 81 13 82 16 83 17 84 18 85 19 87
REMARK SMILES IDX 20 88 25 89 21 90 24 91 22 92 23 93
REMARK H PARENT 3 6 82 24 50 35 7 75 18 86 23 94
REMARK Flexibility Score: inf
ROOT
ATOM      1  C   UNL A   1      31.518  29.472  27.215  1.00  0.00     0.042 C 
ENDROOT
BRANCH   1   2
ATOM      2  C   UNL A   1      32.335  30.415  26.339  1.00  0.00     0.118 C 
BRANCH   2   3
ATOM      3  N   UNL A   1      32.233  31.817  26.725  1.00  0.00    -0.352 N 
ATOM      4  O   UNL A   1      32.663  33.767  27.752  1.00  0.00    -0.269 OA
ATOM      5  C   UNL A   1      33.059  32.649  27.452  1.00  0.00     0.251 C 
ATOM      6  H   UNL A   1      31.413  32.256  26.402  1.00  0.00     0.163 HD
BRANCH   5   7
ATOM      7  C   UNL A   1      34.382  32.175  27.918  1.00  0.00     0.039 A 
ATOM      8  C   UNL A   1      34.558  30.862  28.335  1.00  0.00     0.014 A 
ATOM      9  C   UNL A   1      35.470  33.053  27.949  1.00  0.00     0.014 A 
ATOM     10  C   UNL A   1      35.701  30.508  29.033  1.00  0.00     0.010 A 
ATOM     11  C   UNL A   1      36.689  32.641  28.507  1.00  0.00     0.010 A 
ATOM     12  C   UNL A   1      36.795  31.385  29.119  1.00  0.00    -0.014 A 
BRANCH  12  13
ATOM     13  C   UNL A   1      38.019  30.917  29.829  1.00  0.00     0.031 A 
ATOM     14  C   UNL A   1      38.275  31.265  31.273  1.00  0.00     0.074 A 
ATOM     15  C   UNL A   1      38.865  30.091  29.177  1.00  0.00     0.049 A 
ATOM     16  N   UNL A   1      39.240  30.853  32.055  1.00  0.00    -0.248 NA
ATOM     17  C   UNL A   1      37.348  32.205  31.923  1.00  0.00     0.031 C 
ATOM     18  C   UNL A   1      38.745  29.717  27.764  1.00  0.00     0.029 A 
ATOM     19  N   UNL A   1      39.954  29.380  29.611  1.00  0.00    -0.354 N 
ATOM     20  C   UNL A   1      39.078  31.532  33.258  1.00  0.00     0.074 A 
ATOM     21  C   UNL A   1      37.915  32.377  33.109  1.00  0.00     0.031 C 
ATOM     22  C   UNL A   1      39.649  28.771  27.478  1.00  0.00     0.029 A 
ATOM     23  C   UNL A   1      40.473  28.534  28.656  1.00  0.00     0.049 A 
ATOM     24  H   UNL A   1      40.327  29.465  30.518  1.00  0.00     0.167 HD
ATOM     25  C   UNL A   1      39.824  31.449  34.386  1.00  0.00     0.034 A 
ATOM     26  C   UNL A   1      41.499  27.665  28.714  1.00  0.00     0.034 A 
ATOM     27  C   UNL A   1      40.935  30.549  34.553  1.00  0.00     0.049 A 
ATOM     28  C   UNL A   1      42.258  27.538  30.001  1.00  0.00     0.074 A 
ATOM     29  C   UNL A   1      41.715  30.342  35.676  1.00  0.00     0.029 A 
ATOM     30  N   UNL A   1      41.418  29.697  33.570  1.00  0.00    -0.354 N 
ATOM     31  N   UNL A   1      42.028  28.122  31.152  1.00  0.00    -0.248 NA
ATOM     32  C   UNL A   1      43.412  26.630  30.002  1.00  0.00     0.031 C 
ATOM     33  C   UNL A   1      42.677  29.373  35.370  1.00  0.00     0.029 A 
ATOM     34  C   UNL A   1      42.487  28.966  34.059  1.00  0.00     0.049 A 
ATOM     35  H   UNL A   1      41.053  29.622  32.659  1.00  0.00     0.167 HD
ATOM     36  C   UNL A   1      43.004  27.650  32.018  1.00  0.00     0.074 A 
ATOM     37  C   UNL A   1      43.803  26.700  31.268  1.00  0.00     0.031 C 
ATOM     38  C   UNL A   1      43.238  27.993  33.309  1.00  0.00     0.034 A 
BRANCH  25  39
ATOM     39  C   UNL A   1      39.451  32.337  35.546  1.00  0.00     0.023 A 
ATOM     40  C   UNL A   1      38.638  31.832  36.582  1.00  0.00     0.012 A 
ATOM     41  C   UNL A   1      39.952  33.649  35.642  1.00  0.00     0.148 A 
ATOM     42  C   UNL A   1      38.309  32.629  37.679  1.00  0.00     0.002 A 
ATOM     43  C   UNL A   1      39.651  34.425  36.757  1.00  0.00     0.091 A 
ATOM     44  F   UNL A   1      40.702  34.123  34.636  1.00  0.00    -0.205 F 
ATOM     45  C   UNL A   1      38.823  33.920  37.771  1.00  0.00     0.022 A 
BRANCH  43  46
ATOM     46  S   UNL A   1      40.331  36.072  36.992  1.00  0.00     0.127 S 
ATOM     47  O   UNL A   1      39.799  36.780  35.828  1.00  0.00    -0.237 OA
ATOM     48  O   UNL A   1      39.741  36.474  38.270  1.00  0.00    -0.237 OA
ATOM     49  O   UNL A   1      41.776  35.903  37.023  1.00  0.00    -0.744 OA
ENDBRANCH  43  46
ENDBRANCH  25  39
BRANCH  26  50
ATOM     50  C   UNL A   1      41.819  26.818  27.530  1.00  0.00     0.023 A 
ATOM     51  C   UNL A   1      42.556  27.367  26.463  1.00  0.00     0.012 A 
ATOM     52  C   UNL A   1      41.466  25.455  27.487  1.00  0.00     0.148 A 
ATOM     53  C   UNL A   1      42.929  26.576  25.374  1.00  0.00     0.002 A 
ATOM     54  C   UNL A   1      41.900  24.658  26.434  1.00  0.00     0.091 A 
ATOM     55  F   UNL A   1      40.738  24.953  28.495  1.00  0.00    -0.205 F 
ATOM     56  C   UNL A   1      42.618  25.219  25.368  1.00  0.00     0.022 A 
BRANCH  54  57
ATOM     57  S   UNL A   1      41.686  22.873  26.452  1.00  0.00     0.127 S 
ATOM     58  O   UNL A   1      42.319  22.508  27.716  1.00  0.00    -0.237 OA
ATOM     59  O   UNL A   1      40.229  22.736  26.429  1.00  0.00    -0.237 OA
ATOM     60  O   UNL A   1      42.346  22.398  25.243  1.00  0.00    -0.744 OA
ENDBRANCH  54  57
ENDBRANCH  26  50
BRANCH  38  61
ATOM     61  C   UNL A   1      44.401  27.329  33.990  1.00  0.00     0.023 A 
ATOM     62  C   UNL A   1      45.689  27.886  33.863  1.00  0.00     0.012 A 
ATOM     63  C   UNL A   1      44.214  26.189  34.794  1.00  0.00     0.148 A 
ATOM     64  C   UNL A   1      46.779  27.298  34.501  1.00  0.00     0.002 A 
ATOM     65  C   UNL A   1      45.299  25.633  35.462  1.00  0.00     0.091 A 
ATOM     66  F   UNL A   1      42.984  25.659  34.881  1.00  0.00    -0.205 F 
ATOM     67  C   UNL A   1      46.583  26.179  35.308  1.00  0.00     0.022 A 
BRANCH  65  68
ATOM     68  S   UNL A   1      45.110  24.246  36.586  1.00  0.00     0.127 S 
ATOM     69  O   UNL A   1      46.470  24.086  37.095  1.00  0.00    -0.237 OA
ATOM     70  O   UNL A   1      44.149  24.760  37.564  1.00  0.00    -0.237 OA
ATOM     71  O   UNL A   1      44.605  23.148  35.772  1.00  0.00    -0.744 OA
ENDBRANCH  65  68
ENDBRANCH  38  61
ENDBRANCH  12  13
ENDBRANCH   5   7
ENDBRANCH   2   3
ENDBRANCH   1   2
BRANCH   1  72
ATOM     72  C   UNL A   1      32.071  28.054  27.291  1.00  0.00     0.117 C 
BRANCH  72  73
ATOM     73  N   UNL A   1      31.064  27.024  27.083  1.00  0.00    -0.356 N 
ATOM     74  C   UNL A   1      30.859  26.131  26.083  1.00  0.00     0.224 C 
ATOM     75  H   UNL A   1      30.403  26.965  27.810  1.00  0.00     0.163 HD
ATOM     76  O   UNL A   1      29.979  25.286  26.292  1.00  0.00    -0.275 OA
BRANCH  74  77
ATOM     77  C   UNL A   1      31.533  26.207  24.717  1.00  0.00     0.095 C 
ATOM     78  C   UNL A   1      30.526  26.473  23.568  1.00  0.00     0.041 C 
ATOM     79  C   UNL A   1      32.587  25.196  24.256  1.00  0.00     0.095 C 
ATOM     80  C   UNL A   1      31.202  26.750  22.256  1.00  0.00    -0.030 C 
ATOM     81  C   UNL A   1      33.391  25.927  23.124  1.00  0.00     0.041 C 
ATOM     82  C   UNL A   1      32.510  26.530  22.062  1.00  0.00    -0.030 C 
BRANCH  79  83
ATOM     83  C   UNL A   1      32.219  23.769  23.772  1.00  0.00     0.228 C 
ATOM     84  O   UNL A   1      31.057  23.519  23.420  1.00  0.00    -0.274 OA
ATOM     85  N   UNL A   1      33.135  22.840  23.370  1.00  0.00    -0.326 N 
ATOM     86  H   UNL A   1      32.849  22.374  22.551  1.00  0.00     0.169 HD
BRANCH  85  87
ATOM     87  C   UNL A   1      34.375  22.381  23.825  1.00  0.00     0.041 A 
ATOM     88  C   UNL A   1      34.538  21.275  24.649  1.00  0.00     0.030 A 
ATOM     89  C   UNL A   1      35.521  23.003  23.317  1.00  0.00     0.030 A 
ATOM     90  C   UNL A   1      35.805  20.894  25.105  1.00  0.00     0.048 A 
ATOM     91  C   UNL A   1      36.795  22.609  23.744  1.00  0.00     0.048 A 
ATOM     92  C   UNL A   1      36.923  21.587  24.673  1.00  0.00     0.115 A 
BRANCH  92  93
ATOM     93  O   UNL A   1      38.167  21.290  25.137  1.00  0.00    -0.508 OA
ATOM     94  H   UNL A   1      38.846  21.048  24.538  1.00  0.00     0.293 HD
ENDBRANCH  92  93
ENDBRANCH  85  87
ENDBRANCH  79  83
ENDBRANCH  74  77
ENDBRANCH  72  73
ENDBRANCH   1  72
TORSDOF 16
ENDMDL
