MODEL 1
REMARK VINA RESULT:     -11.3      0.000      0.000
REMARK SMILES C[C@H](CCC[C@@H](C)[NH3+])C(=O)N[C@H]1C=C[C@@H](C(=O)NCCCNC(=O)c2ccc(-c3c4nc(c(-c5cccc(S(=O)(=O)[O-])c5F)c5ccc([nH]5)c(-c5cccc(S(=O)(=O)[O-])c5F)c5nc(c(-c6cccc(S(=O)(=O)[O-])c6F)c6ccc3[nH]6)C=C5)C=C4)cc2)C1
REMARK SMILES IDX 16 1 17 2 18 3 15 5 12 6 13 7 88 8 14 9 11 10 9 11 10 12
REMARK SMILES IDX 2 14 1 15 3 16 4 17 5 18 6 19 7 20 8 21 19 25 20 26 21 27
REMARK SMILES IDX 22 28 23 29 24 31 25 32 26 33 87 34 27 35 86 36 28 37 29 38
REMARK SMILES IDX 30 39 80 40 31 41 85 42 79 43 81 44 32 45 84 46 78 47 77 48
REMARK SMILES IDX 33 50 65 51 45 52 64 53 46 54 49 55 63 56 82 57 47 58 48 59
REMARK SMILES IDX 62 61 83 62 50 63 34 64 35 65 43 66 36 67 38 68 44 69 37 70
REMARK SMILES IDX 39 71 40 72 41 73 42 74 66 75 67 76 75 77 68 78 70 79 76 80
REMARK SMILES IDX 69 81 71 82 72 83 73 84 74 85 51 86 52 87 60 88 53 89 55 90
REMARK SMILES IDX 61 91 54 92 56 93 57 94 58 95 59 96
REMARK H PARENT 18 4 11 13 8 22 8 23 8 24 22 30 81 49 49 60
REMARK Flexibility Score: inf
ROOT
ATOM      1  C   UNL A   1      31.272  29.087  24.481  1.00  0.00     0.227 C 
ATOM      2  O   UNL A   1      30.497  28.939  23.532  1.00  0.00    -0.274 OA
ATOM      3  N   UNL A   1      31.221  30.266  25.162  1.00  0.00    -0.356 N 
ATOM      4  H   UNL A   1      30.608  30.934  24.778  1.00  0.00     0.163 HD
ENDROOT
BRANCH   1   5
ATOM      5  C   UNL A   1      32.233  27.970  24.871  1.00  0.00     0.103 C 
ATOM      6  C   UNL A   1      32.997  25.921  23.818  1.00  0.00     0.106 C 
ATOM      7  C   UNL A   1      33.971  27.030  23.608  1.00  0.00    -0.006 C 
ATOM      8  C   UNL A   1      31.767  26.577  24.430  1.00  0.00     0.047 C 
ATOM      9  C   UNL A   1      33.583  28.143  24.240  1.00  0.00    -0.016 C 
BRANCH   6  10
ATOM     10  N   UNL A   1      32.834  25.165  22.618  1.00  0.00    -0.350 N 
ATOM     11  C   UNL A   1      33.378  23.944  22.335  1.00  0.00     0.223 C 
ATOM     12  O   UNL A   1      33.412  23.616  21.147  1.00  0.00    -0.275 OA
ATOM     13  H   UNL A   1      32.268  25.567  21.920  1.00  0.00     0.164 HD
BRANCH  11  14
ATOM     14  C   UNL A   1      33.940  23.003  23.422  1.00  0.00     0.075 C 
ATOM     15  C   UNL A   1      35.462  23.048  23.568  1.00  0.00     0.018 C 
BRANCH  14  16
ATOM     16  C   UNL A   1      33.294  21.597  23.549  1.00  0.00     0.013 C 
BRANCH  16  17
ATOM     17  C   UNL A   1      32.236  21.251  24.608  1.00  0.00     0.007 C 
BRANCH  17  18
ATOM     18  C   UNL A   1      31.271  22.362  25.054  1.00  0.00     0.064 C 
BRANCH  18  19
ATOM     19  C   UNL A   1      31.196  22.635  26.553  1.00  0.00     0.177 C 
ATOM     20  C   UNL A   1      31.772  24.001  26.909  1.00  0.00     0.075 C 
BRANCH  19  21
ATOM     21  N   UNL A   1      29.778  22.599  26.933  1.00  0.00    -0.355 N 
ATOM     22  H   UNL A   1      29.398  23.545  26.914  1.00  0.00     0.344 HD
ATOM     23  H   UNL A   1      29.688  22.215  27.874  1.00  0.00     0.344 HD
ATOM     24  H   UNL A   1      29.265  22.012  26.276  1.00  0.00     0.344 HD
ENDBRANCH  19  21
ENDBRANCH  18  19
ENDBRANCH  17  18
ENDBRANCH  16  17
ENDBRANCH  14  16
ENDBRANCH  11  14
ENDBRANCH   6  10
ENDBRANCH   1   5
BRANCH   3  25
ATOM     25  C   UNL A   1      31.919  30.704  26.360  1.00  0.00     0.117 C 
BRANCH  25  26
ATOM     26  C   UNL A   1      31.681  32.169  26.683  1.00  0.00     0.042 C 
BRANCH  26  27
ATOM     27  C   UNL A   1      32.827  32.782  27.460  1.00  0.00     0.118 C 
BRANCH  27  28
ATOM     28  N   UNL A   1      32.609  34.202  27.703  1.00  0.00    -0.352 N 
ATOM     29  C   UNL A   1      33.135  35.002  28.688  1.00  0.00     0.251 C 
ATOM     30  H   UNL A   1      31.999  34.650  27.074  1.00  0.00     0.163 HD
ATOM     31  O   UNL A   1      32.646  36.100  28.913  1.00  0.00    -0.269 OA
BRANCH  29  32
ATOM     32  C   UNL A   1      34.288  34.511  29.468  1.00  0.00     0.039 A 
ATOM     33  C   UNL A   1      34.073  33.928  30.717  1.00  0.00     0.014 A 
ATOM     34  C   UNL A   1      35.579  34.608  28.944  1.00  0.00     0.014 A 
ATOM     35  C   UNL A   1      35.153  33.386  31.414  1.00  0.00     0.010 A 
ATOM     36  C   UNL A   1      36.630  33.971  29.584  1.00  0.00     0.010 A 
ATOM     37  C   UNL A   1      36.433  33.370  30.835  1.00  0.00    -0.014 A 
BRANCH  37  38
ATOM     38  C   UNL A   1      37.590  32.740  31.515  1.00  0.00     0.031 A 
ATOM     39  C   UNL A   1      38.305  31.587  30.864  1.00  0.00     0.074 A 
ATOM     40  C   UNL A   1      37.924  33.133  32.760  1.00  0.00     0.049 A 
ATOM     41  N   UNL A   1      39.270  30.844  31.337  1.00  0.00    -0.248 NA
ATOM     42  C   UNL A   1      37.849  31.191  29.521  1.00  0.00     0.031 C 
ATOM     43  C   UNL A   1      37.246  34.179  33.531  1.00  0.00     0.029 A 
ATOM     44  N   UNL A   1      38.895  32.672  33.612  1.00  0.00    -0.354 N 
ATOM     45  C   UNL A   1      39.503  29.868  30.375  1.00  0.00     0.074 A 
ATOM     46  C   UNL A   1      38.553  30.090  29.308  1.00  0.00     0.031 C 
ATOM     47  C   UNL A   1      37.822  34.281  34.738  1.00  0.00     0.029 A 
ATOM     48  C   UNL A   1      38.883  33.285  34.844  1.00  0.00     0.049 A 
ATOM     49  H   UNL A   1      39.540  31.970  33.366  1.00  0.00     0.167 HD
ATOM     50  C   UNL A   1      40.440  28.892  30.368  1.00  0.00     0.034 A 
ATOM     51  C   UNL A   1      39.632  33.059  35.941  1.00  0.00     0.034 A 
ATOM     52  C   UNL A   1      41.411  28.709  31.411  1.00  0.00     0.049 A 
ATOM     53  C   UNL A   1      40.701  32.003  35.887  1.00  0.00     0.074 A 
ATOM     54  C   UNL A   1      42.470  27.821  31.452  1.00  0.00     0.029 A 
ATOM     55  N   UNL A   1      41.434  29.417  32.602  1.00  0.00    -0.354 N 
ATOM     56  N   UNL A   1      41.016  31.198  34.902  1.00  0.00    -0.248 NA
ATOM     57  C   UNL A   1      41.544  31.849  37.080  1.00  0.00     0.031 C 
ATOM     58  C   UNL A   1      43.112  27.966  32.686  1.00  0.00     0.029 A 
ATOM     59  C   UNL A   1      42.478  28.975  33.395  1.00  0.00     0.049 A 
ATOM     60  H   UNL A   1      40.800  30.129  32.849  1.00  0.00     0.167 HD
ATOM     61  C   UNL A   1      42.114  30.468  35.341  1.00  0.00     0.074 A 
ATOM     62  C   UNL A   1      42.421  30.941  36.676  1.00  0.00     0.031 C 
ATOM     63  C   UNL A   1      42.801  29.489  34.701  1.00  0.00     0.034 A 
BRANCH  50  64
ATOM     64  C   UNL A   1      40.486  27.972  29.176  1.00  0.00     0.023 A 
ATOM     65  C   UNL A   1      39.571  26.902  29.078  1.00  0.00     0.012 A 
ATOM     66  C   UNL A   1      41.401  28.195  28.129  1.00  0.00     0.148 A 
ATOM     67  C   UNL A   1      39.593  26.046  27.978  1.00  0.00     0.002 A 
ATOM     68  C   UNL A   1      41.381  27.369  27.010  1.00  0.00     0.091 A 
ATOM     69  F   UNL A   1      42.278  29.202  28.248  1.00  0.00    -0.205 F 
ATOM     70  C   UNL A   1      40.490  26.287  26.941  1.00  0.00     0.022 A 
BRANCH  68  71
ATOM     71  S   UNL A   1      42.437  27.646  25.585  1.00  0.00     0.127 S 
ATOM     72  O   UNL A   1      42.109  26.493  24.746  1.00  0.00    -0.237 OA
ATOM     73  O   UNL A   1      41.939  28.927  25.080  1.00  0.00    -0.237 OA
ATOM     74  O   UNL A   1      43.800  27.681  26.093  1.00  0.00    -0.744 OA
ENDBRANCH  68  71
ENDBRANCH  50  64
BRANCH  51  75
ATOM     75  C   UNL A   1      39.426  33.885  37.163  1.00  0.00     0.023 A 
ATOM     76  C   UNL A   1      39.834  35.234  37.166  1.00  0.00     0.012 A 
ATOM     77  C   UNL A   1      38.800  33.353  38.307  1.00  0.00     0.148 A 
ATOM     78  C   UNL A   1      39.652  36.028  38.298  1.00  0.00     0.002 A 
ATOM     79  C   UNL A   1      38.573  34.165  39.412  1.00  0.00     0.091 A 
ATOM     80  F   UNL A   1      38.425  32.066  38.283  1.00  0.00    -0.205 F 
ATOM     81  C   UNL A   1      39.013  35.498  39.416  1.00  0.00     0.022 A 
BRANCH  79  82
ATOM     82  S   UNL A   1      37.651  33.603  40.847  1.00  0.00     0.127 S 
ATOM     83  O   UNL A   1      38.466  32.479  41.303  1.00  0.00    -0.237 OA
ATOM     84  O   UNL A   1      37.693  34.783  41.711  1.00  0.00    -0.237 OA
ATOM     85  O   UNL A   1      36.324  33.262  40.355  1.00  0.00    -0.744 OA
ENDBRANCH  79  82
ENDBRANCH  51  75
BRANCH  63  86
ATOM     86  C   UNL A   1      43.987  28.888  35.409  1.00  0.00     0.023 A 
ATOM     87  C   UNL A   1      45.270  29.441  35.233  1.00  0.00     0.012 A 
ATOM     88  C   UNL A   1      43.809  27.823  36.316  1.00  0.00     0.148 A 
ATOM     89  C   UNL A   1      46.365  28.922  35.924  1.00  0.00     0.002 A 
ATOM     90  C   UNL A   1      44.894  27.348  37.041  1.00  0.00     0.091 A 
ATOM     91  F   UNL A   1      42.582  27.301  36.455  1.00  0.00    -0.205 F 
ATOM     92  C   UNL A   1      46.174  27.886  36.836  1.00  0.00     0.022 A 
BRANCH  90  93
ATOM     93  S   UNL A   1      44.726  26.089  38.310  1.00  0.00     0.127 S 
ATOM     94  O   UNL A   1      44.233  24.950  37.536  1.00  0.00    -0.237 OA
ATOM     95  O   UNL A   1      46.101  25.950  38.792  1.00  0.00    -0.237 OA
ATOM     96  O   UNL A   1      43.792  26.626  39.291  1.00  0.00    -0.744 OA
ENDBRANCH  90  93
ENDBRANCH  63  86
ENDBRANCH  37  38
ENDBRANCH  29  32
ENDBRANCH  27  28
ENDBRANCH  26  27
ENDBRANCH  25  26
ENDBRANCH   3  25
TORSDOF 20
ENDMDL
MODEL 2
REMARK VINA RESULT:     -11.2      3.696      8.922
REMARK SMILES C[C@H](CCC[C@@H](C)[NH3+])C(=O)N[C@H]1C=C[C@@H](C(=O)NCCCNC(=O)c2ccc(-c3c4nc(c(-c5cccc(S(=O)(=O)[O-])c5F)c5ccc([nH]5)c(-c5cccc(S(=O)(=O)[O-])c5F)c5nc(c(-c6cccc(S(=O)(=O)[O-])c6F)c6ccc3[nH]6)C=C5)C=C4)cc2)C1
REMARK SMILES IDX 16 1 17 2 18 3 15 5 12 6 13 7 88 8 14 9 11 10 9 11 10 12
REMARK SMILES IDX 2 14 1 15 3 16 4 17 5 18 6 19 7 20 8 21 19 25 20 26 21 27
REMARK SMILES IDX 22 28 23 29 24 31 25 32 26 33 87 34 27 35 86 36 28 37 29 38
REMARK SMILES IDX 30 39 80 40 31 41 85 42 79 43 81 44 32 45 84 46 78 47 77 48
REMARK SMILES IDX 33 50 65 51 45 52 64 53 46 54 49 55 63 56 82 57 47 58 48 59
REMARK SMILES IDX 62 61 83 62 50 63 34 64 35 65 43 66 36 67 38 68 44 69 37 70
REMARK SMILES IDX 39 71 40 72 41 73 42 74 66 75 67 76 75 77 68 78 70 79 76 80
REMARK SMILES IDX 69 81 71 82 72 83 73 84 74 85 51 86 52 87 60 88 53 89 55 90
REMARK SMILES IDX 61 91 54 92 56 93 57 94 58 95 59 96
REMARK H PARENT 18 4 11 13 8 22 8 23 8 24 22 30 81 49 49 60
REMARK Flexibility Score: inf
ROOT
ATOM      1  C   UNL A   1      31.257  25.230  26.208  1.00  0.00     0.227 C 
ATOM      2  O   UNL A   1      30.873  24.217  26.798  1.00  0.00    -0.274 OA
ATOM      3  N   UNL A   1      31.141  26.423  26.856  1.00  0.00    -0.356 N 
ATOM      4  H   UNL A   1      30.682  26.373  27.726  1.00  0.00     0.163 HD
ENDROOT
BRANCH   1   5
ATOM      5  C   UNL A   1      31.853  25.126  24.809  1.00  0.00     0.103 C 
ATOM      6  C   UNL A   1      33.830  24.086  23.861  1.00  0.00     0.106 C 
ATOM      7  C   UNL A   1      32.630  23.218  23.690  1.00  0.00    -0.006 C 
ATOM      8  C   UNL A   1      33.384  25.210  24.786  1.00  0.00     0.047 C 
ATOM      9  C   UNL A   1      31.528  23.816  24.154  1.00  0.00    -0.016 C 
BRANCH   6  10
ATOM     10  N   UNL A   1      34.961  23.304  24.245  1.00  0.00    -0.350 N 
ATOM     11  C   UNL A   1      35.084  22.528  25.363  1.00  0.00     0.223 C 
ATOM     12  O   UNL A   1      36.229  22.214  25.695  1.00  0.00    -0.275 OA
ATOM     13  H   UNL A   1      35.736  23.327  23.638  1.00  0.00     0.164 HD
BRANCH  11  14
ATOM     14  C   UNL A   1      33.872  22.057  26.195  1.00  0.00     0.075 C 
ATOM     15  C   UNL A   1      33.887  22.527  27.651  1.00  0.00     0.018 C 
BRANCH  14  16
ATOM     16  C   UNL A   1      33.369  20.608  25.962  1.00  0.00     0.013 C 
BRANCH  16  17
ATOM     17  C   UNL A   1      33.693  19.798  24.697  1.00  0.00     0.007 C 
BRANCH  17  18
ATOM     18  C   UNL A   1      32.540  19.056  24.000  1.00  0.00     0.064 C 
BRANCH  18  19
ATOM     19  C   UNL A   1      32.751  17.567  23.741  1.00  0.00     0.177 C 
ATOM     20  C   UNL A   1      34.231  17.208  23.680  1.00  0.00     0.075 C 
BRANCH  19  21
ATOM     21  N   UNL A   1      32.127  16.838  24.852  1.00  0.00    -0.355 N 
ATOM     22  H   UNL A   1      31.581  16.059  24.483  1.00  0.00     0.344 HD
ATOM     23  H   UNL A   1      31.514  17.467  25.370  1.00  0.00     0.344 HD
ATOM     24  H   UNL A   1      32.851  16.481  25.474  1.00  0.00     0.344 HD
ENDBRANCH  19  21
ENDBRANCH  18  19
ENDBRANCH  17  18
ENDBRANCH  16  17
ENDBRANCH  14  16
ENDBRANCH  11  14
ENDBRANCH   6  10
ENDBRANCH   1   5
BRANCH   3  25
ATOM     25  C   UNL A   1      31.580  27.757  26.480  1.00  0.00     0.117 C 
BRANCH  25  26
ATOM     26  C   UNL A   1      32.731  28.265  27.330  1.00  0.00     0.042 C 
BRANCH  26  27
ATOM     27  C   UNL A   1      33.744  29.047  26.520  1.00  0.00     0.118 C 
BRANCH  27  28
ATOM     28  N   UNL A   1      33.779  30.448  26.920  1.00  0.00    -0.352 N 
ATOM     29  C   UNL A   1      34.634  31.078  27.792  1.00  0.00     0.251 C 
ATOM     30  H   UNL A   1      33.096  31.024  26.507  1.00  0.00     0.163 HD
ATOM     31  O   UNL A   1      34.364  32.191  28.220  1.00  0.00    -0.269 OA
BRANCH  29  32
ATOM     32  C   UNL A   1      35.871  30.387  28.205  1.00  0.00     0.039 A 
ATOM     33  C   UNL A   1      37.003  30.461  27.393  1.00  0.00     0.014 A 
ATOM     34  C   UNL A   1      35.910  29.685  29.412  1.00  0.00     0.014 A 
ATOM     35  C   UNL A   1      38.196  29.881  27.827  1.00  0.00     0.010 A 
ATOM     36  C   UNL A   1      37.120  29.209  29.891  1.00  0.00     0.010 A 
ATOM     37  C   UNL A   1      38.272  29.284  29.096  1.00  0.00    -0.014 A 
BRANCH  37  38
ATOM     38  C   UNL A   1      39.539  28.720  29.619  1.00  0.00     0.031 A 
ATOM     39  C   UNL A   1      40.263  29.415  30.740  1.00  0.00     0.074 A 
ATOM     40  C   UNL A   1      40.090  27.650  29.013  1.00  0.00     0.049 A 
ATOM     41  N   UNL A   1      41.424  29.136  31.269  1.00  0.00    -0.248 NA
ATOM     42  C   UNL A   1      39.613  30.604  31.318  1.00  0.00     0.031 C 
ATOM     43  C   UNL A   1      39.528  26.946  27.857  1.00  0.00     0.029 A 
ATOM     44  N   UNL A   1      41.268  26.991  29.261  1.00  0.00    -0.354 N 
ATOM     45  C   UNL A   1      41.666  30.138  32.202  1.00  0.00     0.074 A 
ATOM     46  C   UNL A   1      40.548  31.052  32.142  1.00  0.00     0.031 C 
ATOM     47  C   UNL A   1      40.358  25.953  27.500  1.00  0.00     0.029 A 
ATOM     48  C   UNL A   1      41.527  25.973  28.372  1.00  0.00     0.049 A 
ATOM     49  H   UNL A   1      41.869  27.223  30.005  1.00  0.00     0.167 HD
ATOM     50  C   UNL A   1      42.711  30.270  33.051  1.00  0.00     0.034 A 
ATOM     51  C   UNL A   1      42.594  25.159  28.262  1.00  0.00     0.034 A 
ATOM     52  C   UNL A   1      43.795  29.330  33.137  1.00  0.00     0.049 A 
ATOM     53  C   UNL A   1      43.718  25.294  29.252  1.00  0.00     0.074 A 
ATOM     54  C   UNL A   1      44.847  29.312  34.034  1.00  0.00     0.029 A 
ATOM     55  N   UNL A   1      43.974  28.251  32.286  1.00  0.00    -0.354 N 
ATOM     56  N   UNL A   1      43.850  26.148  30.238  1.00  0.00    -0.248 NA
ATOM     57  C   UNL A   1      44.822  24.331  29.140  1.00  0.00     0.031 C 
ATOM     58  C   UNL A   1      45.683  28.241  33.702  1.00  0.00     0.029 A 
ATOM     59  C   UNL A   1      45.128  27.567  32.625  1.00  0.00     0.049 A 
ATOM     60  H   UNL A   1      43.369  28.006  31.549  1.00  0.00     0.167 HD
ATOM     61  C   UNL A   1      45.031  25.803  30.886  1.00  0.00     0.074 A 
ATOM     62  C   UNL A   1      45.566  24.650  30.190  1.00  0.00     0.031 C 
ATOM     63  C   UNL A   1      45.623  26.393  31.954  1.00  0.00     0.034 A 
BRANCH  50  64
ATOM     64  C   UNL A   1      42.712  31.453  33.984  1.00  0.00     0.023 A 
ATOM     65  C   UNL A   1      43.276  32.677  33.566  1.00  0.00     0.012 A 
ATOM     66  C   UNL A   1      42.111  31.368  35.255  1.00  0.00     0.148 A 
ATOM     67  C   UNL A   1      43.278  33.785  34.413  1.00  0.00     0.002 A 
ATOM     68  C   UNL A   1      42.070  32.492  36.073  1.00  0.00     0.091 A 
ATOM     69  F   UNL A   1      41.601  30.191  35.644  1.00  0.00    -0.205 F 
ATOM     70  C   UNL A   1      42.666  33.695  35.660  1.00  0.00     0.022 A 
BRANCH  68  71
ATOM     71  S   UNL A   1      41.231  32.503  37.660  1.00  0.00     0.127 S 
ATOM     72  O   UNL A   1      39.928  31.938  37.309  1.00  0.00    -0.237 OA
ATOM     73  O   UNL A   1      42.081  31.622  38.461  1.00  0.00    -0.237 OA
ATOM     74  O   UNL A   1      41.212  33.892  38.096  1.00  0.00    -0.744 OA
ENDBRANCH  68  71
ENDBRANCH  50  64
BRANCH  51  75
ATOM     75  C   UNL A   1      42.622  24.112  27.203  1.00  0.00     0.023 A 
ATOM     76  C   UNL A   1      43.286  24.371  25.987  1.00  0.00     0.012 A 
ATOM     77  C   UNL A   1      42.024  22.853  27.405  1.00  0.00     0.148 A 
ATOM     78  C   UNL A   1      43.326  23.407  24.980  1.00  0.00     0.002 A 
ATOM     79  C   UNL A   1      42.114  21.878  26.419  1.00  0.00     0.091 A 
ATOM     80  F   UNL A   1      41.393  22.631  28.566  1.00  0.00    -0.205 F 
ATOM     81  C   UNL A   1      42.749  22.159  25.199  1.00  0.00     0.022 A 
BRANCH  79  82
ATOM     82  S   UNL A   1      41.508  20.204  26.660  1.00  0.00     0.127 S 
ATOM     83  O   UNL A   1      41.940  19.551  25.426  1.00  0.00    -0.237 OA
ATOM     84  O   UNL A   1      42.233  19.793  27.861  1.00  0.00    -0.237 OA
ATOM     85  O   UNL A   1      40.067  20.329  26.837  1.00  0.00    -0.744 OA
ENDBRANCH  79  82
ENDBRANCH  51  75
BRANCH  63  86
ATOM     86  C   UNL A   1      46.895  25.780  32.476  1.00  0.00     0.023 A 
ATOM     87  C   UNL A   1      48.144  26.247  32.021  1.00  0.00     0.012 A 
ATOM     88  C   UNL A   1      46.848  24.796  33.485  1.00  0.00     0.148 A 
ATOM     89  C   UNL A   1      49.327  25.719  32.537  1.00  0.00     0.002 A 
ATOM     90  C   UNL A   1      48.030  24.316  34.033  1.00  0.00     0.091 A 
ATOM     91  F   UNL A   1      45.650  24.355  33.892  1.00  0.00    -0.205 F 
ATOM     92  C   UNL A   1      49.270  24.765  33.551  1.00  0.00     0.022 A 
BRANCH  90  93
ATOM     93  S   UNL A   1      48.053  23.163  35.411  1.00  0.00     0.127 S 
ATOM     94  O   UNL A   1      49.488  23.002  35.639  1.00  0.00    -0.237 OA
ATOM     95  O   UNL A   1      47.350  23.913  36.452  1.00  0.00    -0.237 OA
ATOM     96  O   UNL A   1      47.357  21.969  34.950  1.00  0.00    -0.744 OA
ENDBRANCH  90  93
ENDBRANCH  63  86
ENDBRANCH  37  38
ENDBRANCH  29  32
ENDBRANCH  27  28
ENDBRANCH  26  27
ENDBRANCH  25  26
ENDBRANCH   3  25
TORSDOF 20
ENDMDL
MODEL 3
REMARK VINA RESULT:     -11.0      6.490     11.785
REMARK SMILES C[C@H](CCC[C@@H](C)[NH3+])C(=O)N[C@H]1C=C[C@@H](C(=O)NCCCNC(=O)c2ccc(-c3c4nc(c(-c5cccc(S(=O)(=O)[O-])c5F)c5ccc([nH]5)c(-c5cccc(S(=O)(=O)[O-])c5F)c5nc(c(-c6cccc(S(=O)(=O)[O-])c6F)c6ccc3[nH]6)C=C5)C=C4)cc2)C1
REMARK SMILES IDX 16 1 17 2 18 3 15 5 12 6 13 7 88 8 14 9 11 10 9 11 10 12
REMARK SMILES IDX 2 14 1 15 3 16 4 17 5 18 6 19 7 20 8 21 19 25 20 26 21 27
REMARK SMILES IDX 22 28 23 29 24 31 25 32 26 33 87 34 27 35 86 36 28 37 29 38
REMARK SMILES IDX 30 39 80 40 31 41 85 42 79 43 81 44 32 45 84 46 78 47 77 48
REMARK SMILES IDX 33 50 65 51 45 52 64 53 46 54 49 55 63 56 82 57 47 58 48 59
REMARK SMILES IDX 62 61 83 62 50 63 34 64 35 65 43 66 36 67 38 68 44 69 37 70
REMARK SMILES IDX 39 71 40 72 41 73 42 74 66 75 67 76 75 77 68 78 70 79 76 80
REMARK SMILES IDX 69 81 71 82 72 83 73 84 74 85 51 86 52 87 60 88 53 89 55 90
REMARK SMILES IDX 61 91 54 92 56 93 57 94 58 95 59 96
REMARK H PARENT 18 4 11 13 8 22 8 23 8 24 22 30 81 49 49 60
REMARK Flexibility Score: inf
ROOT
ATOM      1  C   UNL A   1      34.478  20.611  25.571  1.00  0.00     0.227 C 
ATOM      2  O   UNL A   1      33.420  19.978  25.518  1.00  0.00    -0.274 OA
ATOM      3  N   UNL A   1      35.560  20.095  24.924  1.00  0.00    -0.356 N 
ATOM      4  H   UNL A   1      35.413  19.205  24.527  1.00  0.00     0.163 HD
ENDROOT
BRANCH   1   5
ATOM      5  C   UNL A   1      34.545  21.933  26.326  1.00  0.00     0.103 C 
ATOM      6  C   UNL A   1      33.084  23.859  26.543  1.00  0.00     0.106 C 
ATOM      7  C   UNL A   1      32.914  22.922  27.690  1.00  0.00    -0.006 C 
ATOM      8  C   UNL A   1      33.961  23.118  25.545  1.00  0.00     0.047 C 
ATOM      9  C   UNL A   1      33.762  21.892  27.606  1.00  0.00    -0.016 C 
BRANCH   6  10
ATOM     10  N   UNL A   1      31.816  24.343  26.100  1.00  0.00    -0.350 N 
ATOM     11  C   UNL A   1      31.316  25.605  26.257  1.00  0.00     0.223 C 
ATOM     12  O   UNL A   1      30.097  25.737  26.125  1.00  0.00    -0.275 OA
ATOM     13  H   UNL A   1      31.240  23.697  25.631  1.00  0.00     0.164 HD
BRANCH  11  14
ATOM     14  C   UNL A   1      32.203  26.823  26.594  1.00  0.00     0.075 C 
ATOM     15  C   UNL A   1      31.518  27.881  27.460  1.00  0.00     0.018 C 
BRANCH  14  16
ATOM     16  C   UNL A   1      33.119  27.369  25.466  1.00  0.00     0.013 C 
BRANCH  16  17
ATOM     17  C   UNL A   1      32.591  28.179  24.272  1.00  0.00     0.007 C 
BRANCH  17  18
ATOM     18  C   UNL A   1      31.109  28.591  24.279  1.00  0.00     0.064 C 
BRANCH  18  19
ATOM     19  C   UNL A   1      30.203  27.885  23.275  1.00  0.00     0.177 C 
ATOM     20  C   UNL A   1      29.026  28.761  22.861  1.00  0.00     0.075 C 
BRANCH  19  21
ATOM     21  N   UNL A   1      31.016  27.583  22.090  1.00  0.00    -0.355 N 
ATOM     22  H   UNL A   1      30.744  26.674  21.715  1.00  0.00     0.344 HD
ATOM     23  H   UNL A   1      32.002  27.561  22.351  1.00  0.00     0.344 HD
ATOM     24  H   UNL A   1      30.866  28.302  21.383  1.00  0.00     0.344 HD
ENDBRANCH  19  21
ENDBRANCH  18  19
ENDBRANCH  17  18
ENDBRANCH  16  17
ENDBRANCH  14  16
ENDBRANCH  11  14
ENDBRANCH   6  10
ENDBRANCH   1   5
BRANCH   3  25
ATOM     25  C   UNL A   1      36.894  20.634  24.720  1.00  0.00     0.117 C 
BRANCH  25  26
ATOM     26  C   UNL A   1      37.989  19.601  24.923  1.00  0.00     0.042 C 
BRANCH  26  27
ATOM     27  C   UNL A   1      38.919  19.963  26.062  1.00  0.00     0.118 C 
BRANCH  27  28
ATOM     28  N   UNL A   1      40.133  19.156  26.037  1.00  0.00    -0.352 N 
ATOM     29  C   UNL A   1      41.444  19.564  26.074  1.00  0.00     0.251 C 
ATOM     30  H   UNL A   1      39.993  18.183  25.987  1.00  0.00     0.163 HD
ATOM     31  O   UNL A   1      42.338  18.785  25.776  1.00  0.00    -0.269 OA
BRANCH  29  32
ATOM     32  C   UNL A   1      41.749  20.954  26.469  1.00  0.00     0.039 A 
ATOM     33  C   UNL A   1      42.172  21.220  27.772  1.00  0.00     0.014 A 
ATOM     34  C   UNL A   1      41.637  21.987  25.535  1.00  0.00     0.014 A 
ATOM     35  C   UNL A   1      42.544  22.519  28.118  1.00  0.00     0.010 A 
ATOM     36  C   UNL A   1      42.112  23.250  25.849  1.00  0.00     0.010 A 
ATOM     37  C   UNL A   1      42.552  23.536  27.149  1.00  0.00    -0.014 A 
BRANCH  37  38
ATOM     38  C   UNL A   1      43.007  24.911  27.462  1.00  0.00     0.031 A 
ATOM     39  C   UNL A   1      42.051  25.893  28.085  1.00  0.00     0.074 A 
ATOM     40  C   UNL A   1      44.239  25.306  27.085  1.00  0.00     0.049 A 
ATOM     41  N   UNL A   1      42.227  27.161  28.344  1.00  0.00    -0.248 NA
ATOM     42  C   UNL A   1      40.708  25.393  28.425  1.00  0.00     0.031 C 
ATOM     43  C   UNL A   1      45.223  24.471  26.391  1.00  0.00     0.029 A 
ATOM     44  N   UNL A   1      44.862  26.523  27.200  1.00  0.00    -0.354 N 
ATOM     45  C   UNL A   1      41.008  27.620  28.830  1.00  0.00     0.074 A 
ATOM     46  C   UNL A   1      40.090  26.504  28.795  1.00  0.00     0.031 C 
ATOM     47  C   UNL A   1      46.323  25.198  26.145  1.00  0.00     0.029 A 
ATOM     48  C   UNL A   1      46.112  26.558  26.626  1.00  0.00     0.049 A 
ATOM     49  H   UNL A   1      44.453  27.297  27.651  1.00  0.00     0.167 HD
ATOM     50  C   UNL A   1      40.689  28.853  29.290  1.00  0.00     0.034 A 
ATOM     51  C   UNL A   1      46.982  27.577  26.489  1.00  0.00     0.034 A 
ATOM     52  C   UNL A   1      41.621  29.943  29.365  1.00  0.00     0.049 A 
ATOM     53  C   UNL A   1      46.623  28.923  27.056  1.00  0.00     0.074 A 
ATOM     54  C   UNL A   1      41.432  31.199  29.912  1.00  0.00     0.029 A 
ATOM     55  N   UNL A   1      42.914  29.913  28.867  1.00  0.00    -0.354 N 
ATOM     56  N   UNL A   1      45.523  29.295  27.664  1.00  0.00    -0.248 NA
ATOM     57  C   UNL A   1      47.638  29.980  26.953  1.00  0.00     0.031 C 
ATOM     58  C   UNL A   1      42.600  31.942  29.711  1.00  0.00     0.029 A 
ATOM     59  C   UNL A   1      43.531  31.134  29.078  1.00  0.00     0.049 A 
ATOM     60  H   UNL A   1      43.333  29.138  28.427  1.00  0.00     0.167 HD
ATOM     61  C   UNL A   1      45.726  30.615  28.048  1.00  0.00     0.074 A 
ATOM     62  C   UNL A   1      47.063  30.972  27.619  1.00  0.00     0.031 C 
ATOM     63  C   UNL A   1      44.879  31.459  28.689  1.00  0.00     0.034 A 
BRANCH  50  64
ATOM     64  C   UNL A   1      39.284  29.076  29.784  1.00  0.00     0.023 A 
ATOM     65  C   UNL A   1      38.926  28.676  31.089  1.00  0.00     0.012 A 
ATOM     66  C   UNL A   1      38.331  29.724  28.976  1.00  0.00     0.148 A 
ATOM     67  C   UNL A   1      37.632  28.883  31.566  1.00  0.00     0.002 A 
ATOM     68  C   UNL A   1      37.058  29.975  29.477  1.00  0.00     0.091 A 
ATOM     69  F   UNL A   1      38.681  30.076  27.730  1.00  0.00    -0.205 F 
ATOM     70  C   UNL A   1      36.703  29.541  30.765  1.00  0.00     0.022 A 
BRANCH  68  71
ATOM     71  S   UNL A   1      35.818  30.890  28.556  1.00  0.00     0.127 S 
ATOM     72  O   UNL A   1      36.625  31.943  27.940  1.00  0.00    -0.237 OA
ATOM     73  O   UNL A   1      35.322  29.878  27.623  1.00  0.00    -0.237 OA
ATOM     74  O   UNL A   1      34.842  31.344  29.537  1.00  0.00    -0.744 OA
ENDBRANCH  68  71
ENDBRANCH  50  64
BRANCH  51  75
ATOM     75  C   UNL A   1      48.298  27.345  25.831  1.00  0.00     0.023 A 
ATOM     76  C   UNL A   1      49.394  26.912  26.602  1.00  0.00     0.012 A 
ATOM     77  C   UNL A   1      48.460  27.518  24.442  1.00  0.00     0.148 A 
ATOM     78  C   UNL A   1      50.636  26.687  26.008  1.00  0.00     0.002 A 
ATOM     79  C   UNL A   1      49.684  27.241  23.848  1.00  0.00     0.091 A 
ATOM     80  F   UNL A   1      47.404  27.937  23.729  1.00  0.00    -0.205 F 
ATOM     81  C   UNL A   1      50.779  26.842  24.632  1.00  0.00     0.022 A 
BRANCH  79  82
ATOM     82  S   UNL A   1      49.928  27.295  22.069  1.00  0.00     0.127 S 
ATOM     83  O   UNL A   1      51.313  26.847  21.945  1.00  0.00    -0.237 OA
ATOM     84  O   UNL A   1      48.927  26.337  21.600  1.00  0.00    -0.237 OA
ATOM     85  O   UNL A   1      49.674  28.675  21.679  1.00  0.00    -0.744 OA
ENDBRANCH  79  82
ENDBRANCH  51  75
BRANCH  63  86
ATOM     86  C   UNL A   1      45.381  32.841  29.015  1.00  0.00     0.023 A 
ATOM     87  C   UNL A   1      45.986  33.097  30.261  1.00  0.00     0.012 A 
ATOM     88  C   UNL A   1      45.326  33.864  28.047  1.00  0.00     0.148 A 
ATOM     89  C   UNL A   1      46.498  34.361  30.551  1.00  0.00     0.002 A 
ATOM     90  C   UNL A   1      45.888  35.104  28.323  1.00  0.00     0.091 A 
ATOM     91  F   UNL A   1      44.731  33.603  26.874  1.00  0.00    -0.205 F 
ATOM     92  C   UNL A   1      46.461  35.358  29.579  1.00  0.00     0.022 A 
BRANCH  90  93
ATOM     93  S   UNL A   1      45.978  36.414  27.098  1.00  0.00     0.127 S 
ATOM     94  O   UNL A   1      44.598  36.896  27.077  1.00  0.00    -0.237 OA
ATOM     95  O   UNL A   1      46.938  37.337  27.703  1.00  0.00    -0.237 OA
ATOM     96  O   UNL A   1      46.437  35.784  25.867  1.00  0.00    -0.744 OA
ENDBRANCH  90  93
ENDBRANCH  63  86
ENDBRANCH  37  38
ENDBRANCH  29  32
ENDBRANCH  27  28
ENDBRANCH  26  27
ENDBRANCH  25  26
ENDBRANCH   3  25
TORSDOF 20
ENDMDL
