MODEL 1
REMARK VINA RESULT:     -13.1      0.000      0.000
REMARK SMILES Cc1ccc(C(=O)NCCCNC(=O)c2ccc(-c3c4nc(c(-c5cccc(S(=O)(=O)[O-])c5F)c5ccc([nH]5)c(-c5cccc(S(=O)(=O)[O-])c5F)c5nc(c(-c6cccc(S(=O)(=O)[O-])c6F)c6ccc3[nH]6)C=C5)C=C4)cc2)cc1O[C@@H](C)C(=O)N[C@@H]1CCS(=O)(=O)C1
REMARK SMILES IDX 9 1 8 2 6 3 7 4 5 6 1 7 2 8 3 9 79 10 4 11 78 12 80 13 81 14
REMARK SMILES IDX 82 15 83 16 84 17 85 18 86 20 87 21 92 22 88 23 89 24 90 25
REMARK SMILES IDX 91 26 10 27 11 28 12 29 13 30 14 32 15 33 16 34 77 35 17 36
REMARK SMILES IDX 76 37 18 38 19 39 20 40 70 41 21 42 75 43 69 44 71 45 22 46
REMARK SMILES IDX 74 47 68 48 67 49 23 51 55 52 35 53 54 54 36 55 39 56 53 57
REMARK SMILES IDX 72 58 37 59 38 60 52 62 73 63 40 64 24 65 25 66 33 67 26 68
REMARK SMILES IDX 28 69 34 70 27 71 29 72 30 73 31 74 32 75 56 76 57 77 65 78
REMARK SMILES IDX 58 79 60 80 66 81 59 82 61 83 62 84 63 85 64 86 41 87 42 88
REMARK SMILES IDX 50 89 43 90 45 91 51 92 44 93 46 94 47 95 48 96 49 97
REMARK H PARENT 8 5 85 19 12 31 71 50 39 61
REMARK Flexibility Score: inf
ROOT
ATOM      1  C   UNL A   1      31.622  30.554  26.333  1.00  0.00     0.118 C 
ENDROOT
BRANCH   1   2
ATOM      2  N   UNL A   1      32.032  30.072  25.015  1.00  0.00    -0.352 N 
ATOM      3  C   UNL A   1      32.273  28.829  24.469  1.00  0.00     0.251 C 
ATOM      4  O   UNL A   1      32.561  28.780  23.272  1.00  0.00    -0.269 OA
ATOM      5  H   UNL A   1      32.166  30.803  24.370  1.00  0.00     0.163 HD
BRANCH   3   6
ATOM      6  C   UNL A   1      32.312  27.544  25.239  1.00  0.00     0.043 A 
ATOM      7  C   UNL A   1      32.075  23.537  26.909  1.00  0.00     0.048 C 
ATOM      8  C   UNL A   1      32.187  24.901  26.298  1.00  0.00    -0.009 A 
ATOM      9  C   UNL A   1      31.038  25.710  26.219  1.00  0.00     0.008 A 
ATOM     10  C   UNL A   1      33.381  25.428  25.817  1.00  0.00     0.124 A 
ATOM     11  C   UNL A   1      31.089  26.984  25.636  1.00  0.00     0.014 A 
ATOM     12  C   UNL A   1      33.455  26.792  25.480  1.00  0.00     0.060 A 
BRANCH  10  13
ATOM     13  O   UNL A   1      34.549  24.788  25.592  1.00  0.00    -0.481 OA
BRANCH  13  14
ATOM     14  C   UNL A   1      34.945  24.105  24.418  1.00  0.00     0.258 C 
ATOM     15  C   UNL A   1      36.332  23.555  24.815  1.00  0.00     0.064 C 
BRANCH  14  16
ATOM     16  C   UNL A   1      34.342  23.156  23.269  1.00  0.00     0.261 C 
ATOM     17  O   UNL A   1      34.332  23.541  22.089  1.00  0.00    -0.271 OA
ATOM     18  N   UNL A   1      33.695  21.972  23.466  1.00  0.00    -0.349 N 
ATOM     19  H   UNL A   1      33.179  21.647  22.694  1.00  0.00     0.163 HD
BRANCH  18  20
ATOM     20  C   UNL A   1      33.649  21.119  24.633  1.00  0.00     0.098 C 
ATOM     21  C   UNL A   1      34.814  20.116  24.741  1.00  0.00     0.042 C 
ATOM     22  C   UNL A   1      32.330  20.394  24.787  1.00  0.00     0.161 C 
ATOM     23  C   UNL A   1      34.299  18.684  24.688  1.00  0.00     0.139 C 
ATOM     24  S   UNL A   1      32.597  18.752  24.228  1.00  0.00     0.152 S 
ATOM     25  O   UNL A   1      32.490  18.733  22.791  1.00  0.00    -0.229 OA
ATOM     26  O   UNL A   1      31.857  17.844  25.085  1.00  0.00    -0.229 OA
ENDBRANCH  18  20
ENDBRANCH  14  16
ENDBRANCH  13  14
ENDBRANCH  10  13
ENDBRANCH   3   6
ENDBRANCH   1   2
BRANCH   1  27
ATOM     27  C   UNL A   1      32.614  31.479  27.006  1.00  0.00     0.042 C 
BRANCH  27  28
ATOM     28  C   UNL A   1      33.778  30.797  27.696  1.00  0.00     0.118 C 
BRANCH  28  29
ATOM     29  N   UNL A   1      34.439  31.629  28.702  1.00  0.00    -0.352 N 
ATOM     30  C   UNL A   1      35.517  31.317  29.525  1.00  0.00     0.251 C 
ATOM     31  H   UNL A   1      34.070  32.535  28.812  1.00  0.00     0.163 HD
ATOM     32  O   UNL A   1      35.850  32.088  30.420  1.00  0.00    -0.269 OA
BRANCH  30  33
ATOM     33  C   UNL A   1      36.320  30.109  29.214  1.00  0.00     0.039 A 
ATOM     34  C   UNL A   1      36.755  29.354  30.302  1.00  0.00     0.014 A 
ATOM     35  C   UNL A   1      36.978  30.029  27.994  1.00  0.00     0.014 A 
ATOM     36  C   UNL A   1      38.039  28.829  30.278  1.00  0.00     0.010 A 
ATOM     37  C   UNL A   1      38.298  29.646  28.010  1.00  0.00     0.010 A 
ATOM     38  C   UNL A   1      38.846  29.129  29.185  1.00  0.00    -0.014 A 
BRANCH  38  39
ATOM     39  C   UNL A   1      40.242  28.765  29.088  1.00  0.00     0.031 A 
ATOM     40  C   UNL A   1      40.510  27.335  28.850  1.00  0.00     0.074 A 
ATOM     41  C   UNL A   1      41.205  29.716  29.066  1.00  0.00     0.049 A 
ATOM     42  N   UNL A   1      41.604  26.734  29.152  1.00  0.00    -0.248 NA
ATOM     43  C   UNL A   1      39.495  26.444  28.291  1.00  0.00     0.031 C 
ATOM     44  C   UNL A   1      42.592  29.541  28.652  1.00  0.00     0.029 A 
ATOM     45  N   UNL A   1      41.178  31.043  29.510  1.00  0.00    -0.354 N 
ATOM     46  C   UNL A   1      41.555  25.486  28.560  1.00  0.00     0.074 A 
ATOM     47  C   UNL A   1      40.179  25.305  28.179  1.00  0.00     0.031 C 
ATOM     48  C   UNL A   1      43.320  30.569  29.122  1.00  0.00     0.029 A 
ATOM     49  C   UNL A   1      42.460  31.315  30.023  1.00  0.00     0.049 A 
ATOM     50  H   UNL A   1      40.415  31.663  29.471  1.00  0.00     0.167 HD
ATOM     51  C   UNL A   1      42.730  24.851  28.296  1.00  0.00     0.034 A 
ATOM     52  C   UNL A   1      42.742  31.570  31.341  1.00  0.00     0.034 A 
ATOM     53  C   UNL A   1      43.853  25.644  28.836  1.00  0.00     0.049 A 
ATOM     54  C   UNL A   1      43.681  30.533  31.947  1.00  0.00     0.074 A 
ATOM     55  C   UNL A   1      44.691  26.578  28.249  1.00  0.00     0.029 A 
ATOM     56  N   UNL A   1      43.979  25.819  30.213  1.00  0.00    -0.354 N 
ATOM     57  N   UNL A   1      44.032  29.431  31.342  1.00  0.00    -0.248 NA
ATOM     58  C   UNL A   1      44.271  30.633  33.281  1.00  0.00     0.031 C 
ATOM     59  C   UNL A   1      45.246  27.380  29.283  1.00  0.00     0.029 A 
ATOM     60  C   UNL A   1      44.785  26.912  30.503  1.00  0.00     0.049 A 
ATOM     61  H   UNL A   1      43.552  25.243  30.889  1.00  0.00     0.167 HD
ATOM     62  C   UNL A   1      44.732  28.624  32.196  1.00  0.00     0.074 A 
ATOM     63  C   UNL A   1      44.934  29.465  33.366  1.00  0.00     0.031 C 
ATOM     64  C   UNL A   1      45.025  27.320  31.890  1.00  0.00     0.034 A 
BRANCH  51  65
ATOM     65  C   UNL A   1      42.921  23.730  27.276  1.00  0.00     0.023 A 
ATOM     66  C   UNL A   1      43.548  24.085  26.060  1.00  0.00     0.012 A 
ATOM     67  C   UNL A   1      42.488  22.383  27.365  1.00  0.00     0.148 A 
ATOM     68  C   UNL A   1      43.665  23.204  24.979  1.00  0.00     0.002 A 
ATOM     69  C   UNL A   1      42.570  21.508  26.275  1.00  0.00     0.091 A 
ATOM     70  F   UNL A   1      42.045  21.896  28.524  1.00  0.00    -0.205 F 
ATOM     71  C   UNL A   1      43.154  21.920  25.076  1.00  0.00     0.022 A 
BRANCH  69  72
ATOM     72  S   UNL A   1      41.913  19.826  26.311  1.00  0.00     0.127 S 
ATOM     73  O   UNL A   1      40.468  20.060  26.245  1.00  0.00    -0.237 OA
ATOM     74  O   UNL A   1      42.487  19.240  25.102  1.00  0.00    -0.237 OA
ATOM     75  O   UNL A   1      42.365  19.233  27.564  1.00  0.00    -0.744 OA
ENDBRANCH  69  72
ENDBRANCH  51  65
BRANCH  52  76
ATOM     76  C   UNL A   1      41.614  32.225  32.072  1.00  0.00     0.023 A 
ATOM     77  C   UNL A   1      41.108  33.409  31.487  1.00  0.00     0.012 A 
ATOM     78  C   UNL A   1      40.781  31.467  32.908  1.00  0.00     0.148 A 
ATOM     79  C   UNL A   1      39.735  33.643  31.465  1.00  0.00     0.002 A 
ATOM     80  C   UNL A   1      39.416  31.731  32.912  1.00  0.00     0.091 A 
ATOM     81  F   UNL A   1      41.309  30.468  33.627  1.00  0.00    -0.205 F 
ATOM     82  C   UNL A   1      38.882  32.759  32.118  1.00  0.00     0.022 A 
BRANCH  80  83
ATOM     83  S   UNL A   1      38.298  30.686  33.849  1.00  0.00     0.127 S 
ATOM     84  O   UNL A   1      37.024  30.950  33.191  1.00  0.00    -0.237 OA
ATOM     85  O   UNL A   1      38.836  29.348  33.614  1.00  0.00    -0.237 OA
ATOM     86  O   UNL A   1      38.430  31.157  35.221  1.00  0.00    -0.744 OA
ENDBRANCH  80  83
ENDBRANCH  52  76
BRANCH  64  87
ATOM     87  C   UNL A   1      45.593  26.309  32.874  1.00  0.00     0.023 A 
ATOM     88  C   UNL A   1      46.973  26.205  33.136  1.00  0.00     0.012 A 
ATOM     89  C   UNL A   1      44.740  25.492  33.660  1.00  0.00     0.148 A 
ATOM     90  C   UNL A   1      47.491  25.263  34.031  1.00  0.00     0.002 A 
ATOM     91  C   UNL A   1      45.252  24.657  34.647  1.00  0.00     0.091 A 
ATOM     92  F   UNL A   1      43.418  25.493  33.439  1.00  0.00    -0.205 F 
ATOM     93  C   UNL A   1      46.630  24.499  34.800  1.00  0.00     0.022 A 
BRANCH  91  94
ATOM     94  S   UNL A   1      44.183  23.869  35.859  1.00  0.00     0.127 S 
ATOM     95  O   UNL A   1      43.431  25.006  36.383  1.00  0.00    -0.237 OA
ATOM     96  O   UNL A   1      43.400  22.951  35.029  1.00  0.00    -0.237 OA
ATOM     97  O   UNL A   1      45.079  23.205  36.796  1.00  0.00    -0.744 OA
ENDBRANCH  91  94
ENDBRANCH  64  87
ENDBRANCH  38  39
ENDBRANCH  30  33
ENDBRANCH  28  29
ENDBRANCH  27  28
ENDBRANCH   1  27
TORSDOF 17
ENDMDL
MODEL 2
REMARK VINA RESULT:     -13.0      1.792      2.245
REMARK SMILES Cc1ccc(C(=O)NCCCNC(=O)c2ccc(-c3c4nc(c(-c5cccc(S(=O)(=O)[O-])c5F)c5ccc([nH]5)c(-c5cccc(S(=O)(=O)[O-])c5F)c5nc(c(-c6cccc(S(=O)(=O)[O-])c6F)c6ccc3[nH]6)C=C5)C=C4)cc2)cc1O[C@@H](C)C(=O)N[C@@H]1CCS(=O)(=O)C1
REMARK SMILES IDX 9 1 8 2 6 3 7 4 5 6 1 7 2 8 3 9 79 10 4 11 78 12 80 13 81 14
REMARK SMILES IDX 82 15 83 16 84 17 85 18 86 20 87 21 92 22 88 23 89 24 90 25
REMARK SMILES IDX 91 26 10 27 11 28 12 29 13 30 14 32 15 33 16 34 77 35 17 36
REMARK SMILES IDX 76 37 18 38 19 39 20 40 70 41 21 42 75 43 69 44 71 45 22 46
REMARK SMILES IDX 74 47 68 48 67 49 23 51 55 52 35 53 54 54 36 55 39 56 53 57
REMARK SMILES IDX 72 58 37 59 38 60 52 62 73 63 40 64 24 65 25 66 33 67 26 68
REMARK SMILES IDX 28 69 34 70 27 71 29 72 30 73 31 74 32 75 56 76 57 77 65 78
REMARK SMILES IDX 58 79 60 80 66 81 59 82 61 83 62 84 63 85 64 86 41 87 42 88
REMARK SMILES IDX 50 89 43 90 45 91 51 92 44 93 46 94 47 95 48 96 49 97
REMARK H PARENT 8 5 85 19 12 31 71 50 39 61
REMARK Flexibility Score: inf
ROOT
ATOM      1  C   UNL A   1      32.623  30.278  26.090  1.00  0.00     0.118 C 
ENDROOT
BRANCH   1   2
ATOM      2  N   UNL A   1      32.282  29.741  24.774  1.00  0.00    -0.352 N 
ATOM      3  C   UNL A   1      31.860  28.515  24.306  1.00  0.00     0.251 C 
ATOM      4  O   UNL A   1      31.605  28.421  23.104  1.00  0.00    -0.269 OA
ATOM      5  H   UNL A   1      32.373  30.410  24.057  1.00  0.00     0.163 HD
BRANCH   3   6
ATOM      6  C   UNL A   1      31.786  27.261  25.125  1.00  0.00     0.043 A 
ATOM      7  C   UNL A   1      31.385  23.305  26.881  1.00  0.00     0.048 C 
ATOM      8  C   UNL A   1      31.563  24.652  26.250  1.00  0.00    -0.009 A 
ATOM      9  C   UNL A   1      30.422  25.378  25.859  1.00  0.00     0.008 A 
ATOM     10  C   UNL A   1      32.804  25.243  26.043  1.00  0.00     0.124 A 
ATOM     11  C   UNL A   1      30.538  26.634  25.245  1.00  0.00     0.014 A 
ATOM     12  C   UNL A   1      32.879  26.596  25.668  1.00  0.00     0.060 A 
BRANCH  10  13
ATOM     13  O   UNL A   1      34.027  24.676  26.135  1.00  0.00    -0.481 OA
BRANCH  13  14
ATOM     14  C   UNL A   1      34.735  23.986  25.123  1.00  0.00     0.258 C 
ATOM     15  C   UNL A   1      35.894  23.345  25.916  1.00  0.00     0.064 C 
BRANCH  14  16
ATOM     16  C   UNL A   1      34.474  23.092  23.811  1.00  0.00     0.261 C 
ATOM     17  O   UNL A   1      34.598  23.596  22.684  1.00  0.00    -0.271 OA
ATOM     18  N   UNL A   1      33.988  21.819  23.794  1.00  0.00    -0.349 N 
ATOM     19  H   UNL A   1      33.658  21.512  22.920  1.00  0.00     0.163 HD
BRANCH  18  20
ATOM     20  C   UNL A   1      33.881  20.848  24.861  1.00  0.00     0.098 C 
ATOM     21  C   UNL A   1      34.945  19.734  24.823  1.00  0.00     0.042 C 
ATOM     22  C   UNL A   1      32.502  20.238  24.975  1.00  0.00     0.161 C 
ATOM     23  C   UNL A   1      34.293  18.372  24.628  1.00  0.00     0.139 C 
ATOM     24  S   UNL A   1      32.597  18.652  24.229  1.00  0.00     0.152 S 
ATOM     25  O   UNL A   1      32.461  18.805  22.803  1.00  0.00    -0.229 OA
ATOM     26  O   UNL A   1      31.788  17.727  25.004  1.00  0.00    -0.229 OA
ENDBRANCH  18  20
ENDBRANCH  14  16
ENDBRANCH  13  14
ENDBRANCH  10  13
ENDBRANCH   3   6
ENDBRANCH   1   2
BRANCH   1  27
ATOM     27  C   UNL A   1      34.061  30.053  26.511  1.00  0.00     0.042 C 
BRANCH  27  28
ATOM     28  C   UNL A   1      34.365  30.334  27.969  1.00  0.00     0.118 C 
BRANCH  28  29
ATOM     29  N   UNL A   1      35.431  31.315  28.174  1.00  0.00    -0.352 N 
ATOM     30  C   UNL A   1      36.777  31.100  28.454  1.00  0.00     0.251 C 
ATOM     31  H   UNL A   1      35.158  32.258  28.102  1.00  0.00     0.163 HD
ATOM     32  O   UNL A   1      37.503  32.046  28.743  1.00  0.00    -0.269 OA
BRANCH  30  33
ATOM     33  C   UNL A   1      37.330  29.735  28.272  1.00  0.00     0.039 A 
ATOM     34  C   UNL A   1      37.429  28.946  29.417  1.00  0.00     0.014 A 
ATOM     35  C   UNL A   1      38.119  29.466  27.162  1.00  0.00     0.014 A 
ATOM     36  C   UNL A   1      38.556  28.155  29.585  1.00  0.00     0.010 A 
ATOM     37  C   UNL A   1      39.306  28.807  27.373  1.00  0.00     0.010 A 
ATOM     38  C   UNL A   1      39.555  28.229  28.620  1.00  0.00    -0.014 A 
BRANCH  38  39
ATOM     39  C   UNL A   1      40.836  27.567  28.730  1.00  0.00     0.031 A 
ATOM     40  C   UNL A   1      40.817  26.108  28.517  1.00  0.00     0.074 A 
ATOM     41  C   UNL A   1      41.975  28.284  28.865  1.00  0.00     0.049 A 
ATOM     42  N   UNL A   1      41.694  25.290  28.974  1.00  0.00    -0.248 NA
ATOM     43  C   UNL A   1      39.726  25.449  27.801  1.00  0.00     0.031 C 
ATOM     44  C   UNL A   1      43.337  27.801  28.664  1.00  0.00     0.029 A 
ATOM     45  N   UNL A   1      42.174  29.594  29.317  1.00  0.00    -0.354 N 
ATOM     46  C   UNL A   1      41.462  24.071  28.367  1.00  0.00     0.074 A 
ATOM     47  C   UNL A   1      40.153  24.186  27.779  1.00  0.00     0.031 C 
ATOM     48  C   UNL A   1      44.193  28.655  29.252  1.00  0.00     0.029 A 
ATOM     49  C   UNL A   1      43.392  29.590  30.021  1.00  0.00     0.049 A 
ATOM     50  H   UNL A   1      41.579  30.365  29.171  1.00  0.00     0.167 HD
ATOM     51  C   UNL A   1      42.496  23.189  28.275  1.00  0.00     0.034 A 
ATOM     52  C   UNL A   1      43.522  29.806  31.370  1.00  0.00     0.034 A 
ATOM     53  C   UNL A   1      43.671  23.728  28.989  1.00  0.00     0.049 A 
ATOM     54  C   UNL A   1      44.109  28.601  32.098  1.00  0.00     0.074 A 
ATOM     55  C   UNL A   1      44.772  24.444  28.547  1.00  0.00     0.029 A 
ATOM     56  N   UNL A   1      43.624  23.900  30.370  1.00  0.00    -0.354 N 
ATOM     57  N   UNL A   1      44.297  27.437  31.539  1.00  0.00    -0.248 NA
ATOM     58  C   UNL A   1      44.499  28.599  33.507  1.00  0.00     0.031 C 
ATOM     59  C   UNL A   1      45.327  25.127  29.663  1.00  0.00     0.029 A 
ATOM     60  C   UNL A   1      44.597  24.797  30.793  1.00  0.00     0.049 A 
ATOM     61  H   UNL A   1      42.985  23.446  30.967  1.00  0.00     0.167 HD
ATOM     62  C   UNL A   1      44.667  26.515  32.480  1.00  0.00     0.074 A 
ATOM     63  C   UNL A   1      44.870  27.316  33.678  1.00  0.00     0.031 C 
ATOM     64  C   UNL A   1      44.709  25.171  32.206  1.00  0.00     0.034 A 
BRANCH  51  65
ATOM     65  C   UNL A   1      42.587  22.032  27.282  1.00  0.00     0.023 A 
ATOM     66  C   UNL A   1      41.642  20.992  27.436  1.00  0.00     0.012 A 
ATOM     67  C   UNL A   1      43.547  21.833  26.257  1.00  0.00     0.148 A 
ATOM     68  C   UNL A   1      41.688  19.806  26.694  1.00  0.00     0.002 A 
ATOM     69  C   UNL A   1      43.619  20.634  25.536  1.00  0.00     0.091 A 
ATOM     70  F   UNL A   1      44.371  22.820  25.909  1.00  0.00    -0.205 F 
ATOM     71  C   UNL A   1      42.692  19.615  25.759  1.00  0.00     0.022 A 
BRANCH  69  72
ATOM     72  S   UNL A   1      44.905  20.296  24.314  1.00  0.00     0.127 S 
ATOM     73  O   UNL A   1      44.570  21.242  23.247  1.00  0.00    -0.237 OA
ATOM     74  O   UNL A   1      46.126  20.620  25.048  1.00  0.00    -0.237 OA
ATOM     75  O   UNL A   1      44.760  18.896  23.938  1.00  0.00    -0.744 OA
ENDBRANCH  69  72
ENDBRANCH  51  65
BRANCH  52  76
ATOM     76  C   UNL A   1      42.468  30.706  31.930  1.00  0.00     0.023 A 
ATOM     77  C   UNL A   1      42.332  31.962  31.294  1.00  0.00     0.012 A 
ATOM     78  C   UNL A   1      41.370  30.167  32.616  1.00  0.00     0.148 A 
ATOM     79  C   UNL A   1      41.064  32.493  31.066  1.00  0.00     0.002 A 
ATOM     80  C   UNL A   1      40.113  30.725  32.415  1.00  0.00     0.091 A 
ATOM     81  F   UNL A   1      41.548  29.089  33.390  1.00  0.00    -0.205 F 
ATOM     82  C   UNL A   1      39.948  31.831  31.566  1.00  0.00     0.022 A 
BRANCH  80  83
ATOM     83  S   UNL A   1      38.662  29.970  33.152  1.00  0.00     0.127 S 
ATOM     84  O   UNL A   1      38.718  30.489  34.514  1.00  0.00    -0.237 OA
ATOM     85  O   UNL A   1      37.572  30.509  32.342  1.00  0.00    -0.237 OA
ATOM     86  O   UNL A   1      38.881  28.538  32.993  1.00  0.00    -0.744 OA
ENDBRANCH  80  83
ENDBRANCH  52  76
BRANCH  64  87
ATOM     87  C   UNL A   1      44.888  24.083  33.251  1.00  0.00     0.023 A 
ATOM     88  C   UNL A   1      43.856  23.186  33.589  1.00  0.00     0.012 A 
ATOM     89  C   UNL A   1      46.148  23.850  33.860  1.00  0.00     0.148 A 
ATOM     90  C   UNL A   1      44.020  22.195  34.563  1.00  0.00     0.002 A 
ATOM     91  C   UNL A   1      46.343  22.777  34.723  1.00  0.00     0.091 A 
ATOM     92  F   UNL A   1      47.169  24.687  33.632  1.00  0.00    -0.205 F 
ATOM     93  C   UNL A   1      45.270  21.979  35.119  1.00  0.00     0.022 A 
BRANCH  91  94
ATOM     94  S   UNL A   1      47.990  22.277  35.243  1.00  0.00     0.127 S 
ATOM     95  O   UNL A   1      48.386  23.390  36.104  1.00  0.00    -0.237 OA
ATOM     96  O   UNL A   1      47.723  21.024  35.952  1.00  0.00    -0.237 OA
ATOM     97  O   UNL A   1      48.754  22.114  34.014  1.00  0.00    -0.744 OA
ENDBRANCH  91  94
ENDBRANCH  64  87
ENDBRANCH  38  39
ENDBRANCH  30  33
ENDBRANCH  28  29
ENDBRANCH  27  28
ENDBRANCH   1  27
TORSDOF 17
ENDMDL
MODEL 3
REMARK VINA RESULT:     -12.6      4.172      9.790
REMARK SMILES Cc1ccc(C(=O)NCCCNC(=O)c2ccc(-c3c4nc(c(-c5cccc(S(=O)(=O)[O-])c5F)c5ccc([nH]5)c(-c5cccc(S(=O)(=O)[O-])c5F)c5nc(c(-c6cccc(S(=O)(=O)[O-])c6F)c6ccc3[nH]6)C=C5)C=C4)cc2)cc1O[C@@H](C)C(=O)N[C@@H]1CCS(=O)(=O)C1
REMARK SMILES IDX 9 1 8 2 6 3 7 4 5 6 1 7 2 8 3 9 79 10 4 11 78 12 80 13 81 14
REMARK SMILES IDX 82 15 83 16 84 17 85 18 86 20 87 21 92 22 88 23 89 24 90 25
REMARK SMILES IDX 91 26 10 27 11 28 12 29 13 30 14 32 15 33 16 34 77 35 17 36
REMARK SMILES IDX 76 37 18 38 19 39 20 40 70 41 21 42 75 43 69 44 71 45 22 46
REMARK SMILES IDX 74 47 68 48 67 49 23 51 55 52 35 53 54 54 36 55 39 56 53 57
REMARK SMILES IDX 72 58 37 59 38 60 52 62 73 63 40 64 24 65 25 66 33 67 26 68
REMARK SMILES IDX 28 69 34 70 27 71 29 72 30 73 31 74 32 75 56 76 57 77 65 78
REMARK SMILES IDX 58 79 60 80 66 81 59 82 61 83 62 84 63 85 64 86 41 87 42 88
REMARK SMILES IDX 50 89 43 90 45 91 51 92 44 93 46 94 47 95 48 96 49 97
REMARK H PARENT 8 5 85 19 12 31 71 50 39 61
REMARK Flexibility Score: inf
ROOT
ATOM      1  C   UNL A   1      36.723  20.695  25.218  1.00  0.00     0.118 C 
ENDROOT
BRANCH   1   2
ATOM      2  N   UNL A   1      35.925  21.363  26.245  1.00  0.00    -0.352 N 
ATOM      3  C   UNL A   1      35.009  22.394  26.242  1.00  0.00     0.251 C 
ATOM      4  O   UNL A   1      34.469  22.677  27.313  1.00  0.00    -0.269 OA
ATOM      5  H   UNL A   1      36.076  20.991  27.143  1.00  0.00     0.163 HD
BRANCH   3   6
ATOM      6  C   UNL A   1      34.695  23.262  25.062  1.00  0.00     0.043 A 
ATOM      7  C   UNL A   1      33.102  25.575  21.743  1.00  0.00     0.048 C 
ATOM      8  C   UNL A   1      33.627  24.808  22.918  1.00  0.00    -0.009 A 
ATOM      9  C   UNL A   1      33.716  23.406  22.833  1.00  0.00     0.008 A 
ATOM     10  C   UNL A   1      34.055  25.410  24.097  1.00  0.00     0.124 A 
ATOM     11  C   UNL A   1      34.180  22.643  23.915  1.00  0.00     0.014 A 
ATOM     12  C   UNL A   1      34.750  24.651  25.055  1.00  0.00     0.060 A 
BRANCH  10  13
ATOM     13  O   UNL A   1      33.878  26.688  24.495  1.00  0.00    -0.481 OA
BRANCH  13  14
ATOM     14  C   UNL A   1      32.930  27.178  25.425  1.00  0.00     0.258 C 
ATOM     15  C   UNL A   1      33.525  28.552  25.800  1.00  0.00     0.064 C 
BRANCH  14  16
ATOM     16  C   UNL A   1      31.341  27.239  25.664  1.00  0.00     0.261 C 
ATOM     17  O   UNL A   1      30.829  26.592  26.591  1.00  0.00    -0.271 OA
ATOM     18  N   UNL A   1      30.432  27.849  24.852  1.00  0.00    -0.349 N 
ATOM     19  H   UNL A   1      29.496  27.586  25.005  1.00  0.00     0.163 HD
BRANCH  18  20
ATOM     20  C   UNL A   1      30.628  28.823  23.801  1.00  0.00     0.098 C 
ATOM     21  C   UNL A   1      30.306  30.275  24.205  1.00  0.00     0.042 C 
ATOM     22  C   UNL A   1      29.901  28.472  22.522  1.00  0.00     0.161 C 
ATOM     23  C   UNL A   1      29.155  30.824  23.372  1.00  0.00     0.139 C 
ATOM     24  S   UNL A   1      28.458  29.471  22.479  1.00  0.00     0.152 S 
ATOM     25  O   UNL A   1      27.441  28.842  23.283  1.00  0.00    -0.229 OA
ATOM     26  O   UNL A   1      28.230  29.897  21.110  1.00  0.00    -0.229 OA
ENDBRANCH  18  20
ENDBRANCH  14  16
ENDBRANCH  13  14
ENDBRANCH  10  13
ENDBRANCH   3   6
ENDBRANCH   1   2
BRANCH   1  27
ATOM     27  C   UNL A   1      38.117  21.259  25.033  1.00  0.00     0.042 C 
BRANCH  27  28
ATOM     28  C   UNL A   1      38.410  22.536  25.793  1.00  0.00     0.118 C 
BRANCH  28  29
ATOM     29  N   UNL A   1      39.725  22.554  26.437  1.00  0.00    -0.352 N 
ATOM     30  C   UNL A   1      40.472  23.644  26.872  1.00  0.00     0.251 C 
ATOM     31  H   UNL A   1      40.137  21.672  26.583  1.00  0.00     0.163 HD
ATOM     32  O   UNL A   1      41.625  23.483  27.258  1.00  0.00    -0.269 OA
BRANCH  30  33
ATOM     33  C   UNL A   1      39.805  24.965  26.976  1.00  0.00     0.039 A 
ATOM     34  C   UNL A   1      40.415  26.024  26.305  1.00  0.00     0.014 A 
ATOM     35  C   UNL A   1      38.943  25.207  28.037  1.00  0.00     0.014 A 
ATOM     36  C   UNL A   1      40.462  27.265  26.924  1.00  0.00     0.010 A 
ATOM     37  C   UNL A   1      39.105  26.383  28.729  1.00  0.00     0.010 A 
ATOM     38  C   UNL A   1      39.939  27.374  28.208  1.00  0.00    -0.014 A 
BRANCH  38  39
ATOM     39  C   UNL A   1      40.038  28.565  29.023  1.00  0.00     0.031 A 
ATOM     40  C   UNL A   1      39.033  29.608  28.747  1.00  0.00     0.074 A 
ATOM     41  C   UNL A   1      40.905  28.622  30.060  1.00  0.00     0.049 A 
ATOM     42  N   UNL A   1      39.181  30.856  29.012  1.00  0.00    -0.248 NA
ATOM     43  C   UNL A   1      37.774  29.304  28.070  1.00  0.00     0.031 C 
ATOM     44  C   UNL A   1      40.896  29.592  31.149  1.00  0.00     0.029 A 
ATOM     45  N   UNL A   1      42.061  27.876  30.318  1.00  0.00    -0.354 N 
ATOM     46  C   UNL A   1      37.949  31.454  28.833  1.00  0.00     0.074 A 
ATOM     47  C   UNL A   1      37.164  30.489  28.107  1.00  0.00     0.031 C 
ATOM     48  C   UNL A   1      42.098  29.579  31.754  1.00  0.00     0.029 A 
ATOM     49  C   UNL A   1      42.969  28.754  30.937  1.00  0.00     0.049 A 
ATOM     50  H   UNL A   1      42.209  26.926  30.108  1.00  0.00     0.167 HD
ATOM     51  C   UNL A   1      37.692  32.615  29.496  1.00  0.00     0.034 A 
ATOM     52  C   UNL A   1      44.156  29.174  30.391  1.00  0.00     0.034 A 
ATOM     53  C   UNL A   1      38.906  33.053  30.214  1.00  0.00     0.049 A 
ATOM     54  C   UNL A   1      44.197  30.684  30.180  1.00  0.00     0.074 A 
ATOM     55  C   UNL A   1      39.323  32.868  31.523  1.00  0.00     0.029 A 
ATOM     56  N   UNL A   1      40.038  33.431  29.495  1.00  0.00    -0.354 N 
ATOM     57  N   UNL A   1      43.164  31.466  30.329  1.00  0.00    -0.248 NA
ATOM     58  C   UNL A   1      45.385  31.425  29.757  1.00  0.00     0.031 C 
ATOM     59  C   UNL A   1      40.733  33.044  31.562  1.00  0.00     0.029 A 
ATOM     60  C   UNL A   1      41.174  33.379  30.292  1.00  0.00     0.049 A 
ATOM     61  H   UNL A   1      40.032  33.701  28.548  1.00  0.00     0.167 HD
ATOM     62  C   UNL A   1      43.461  32.731  29.901  1.00  0.00     0.074 A 
ATOM     63  C   UNL A   1      44.892  32.673  29.643  1.00  0.00     0.031 C 
ATOM     64  C   UNL A   1      42.495  33.691  29.738  1.00  0.00     0.034 A 
BRANCH  51  65
ATOM     65  C   UNL A   1      36.303  33.175  29.797  1.00  0.00     0.023 A 
ATOM     66  C   UNL A   1      35.553  33.628  28.688  1.00  0.00     0.012 A 
ATOM     67  C   UNL A   1      35.690  33.360  31.062  1.00  0.00     0.148 A 
ATOM     68  C   UNL A   1      34.327  34.291  28.819  1.00  0.00     0.002 A 
ATOM     69  C   UNL A   1      34.482  34.054  31.202  1.00  0.00     0.091 A 
ATOM     70  F   UNL A   1      36.226  32.816  32.154  1.00  0.00    -0.205 F 
ATOM     71  C   UNL A   1      33.800  34.527  30.079  1.00  0.00     0.022 A 
BRANCH  69  72
ATOM     72  S   UNL A   1      33.737  34.421  32.805  1.00  0.00     0.127 S 
ATOM     73  O   UNL A   1      34.785  35.211  33.457  1.00  0.00    -0.237 OA
ATOM     74  O   UNL A   1      32.548  35.184  32.431  1.00  0.00    -0.237 OA
ATOM     75  O   UNL A   1      33.475  33.136  33.443  1.00  0.00    -0.744 OA
ENDBRANCH  69  72
ENDBRANCH  51  65
BRANCH  52  76
ATOM     76  C   UNL A   1      44.771  28.170  29.470  1.00  0.00     0.023 A 
ATOM     77  C   UNL A   1      44.937  26.870  30.001  1.00  0.00     0.012 A 
ATOM     78  C   UNL A   1      44.670  28.332  28.080  1.00  0.00     0.148 A 
ATOM     79  C   UNL A   1      44.672  25.755  29.208  1.00  0.00     0.002 A 
ATOM     80  C   UNL A   1      44.445  27.211  27.289  1.00  0.00     0.091 A 
ATOM     81  F   UNL A   1      44.724  29.564  27.559  1.00  0.00    -0.205 F 
ATOM     82  C   UNL A   1      44.353  25.934  27.866  1.00  0.00     0.022 A 
BRANCH  80  83
ATOM     83  S   UNL A   1      44.157  27.393  25.528  1.00  0.00     0.127 S 
ATOM     84  O   UNL A   1      43.734  26.048  25.156  1.00  0.00    -0.237 OA
ATOM     85  O   UNL A   1      43.097  28.398  25.478  1.00  0.00    -0.237 OA
ATOM     86  O   UNL A   1      45.438  27.840  24.998  1.00  0.00    -0.744 OA
ENDBRANCH  80  83
ENDBRANCH  52  76
BRANCH  64  87
ATOM     87  C   UNL A   1      42.717  35.032  29.058  1.00  0.00     0.023 A 
ATOM     88  C   UNL A   1      42.173  35.336  27.795  1.00  0.00     0.012 A 
ATOM     89  C   UNL A   1      43.399  36.086  29.720  1.00  0.00     0.148 A 
ATOM     90  C   UNL A   1      42.393  36.566  27.166  1.00  0.00     0.002 A 
ATOM     91  C   UNL A   1      43.494  37.351  29.149  1.00  0.00     0.091 A 
ATOM     92  F   UNL A   1      43.989  35.866  30.902  1.00  0.00    -0.205 F 
ATOM     93  C   UNL A   1      43.040  37.581  27.850  1.00  0.00     0.022 A 
BRANCH  91  94
ATOM     94  S   UNL A   1      44.060  38.769  30.098  1.00  0.00     0.127 S 
ATOM     95  O   UNL A   1      43.117  39.806  29.683  1.00  0.00    -0.237 OA
ATOM     96  O   UNL A   1      43.888  38.306  31.477  1.00  0.00    -0.237 OA
ATOM     97  O   UNL A   1      45.448  38.971  29.708  1.00  0.00    -0.744 OA
ENDBRANCH  91  94
ENDBRANCH  64  87
ENDBRANCH  38  39
ENDBRANCH  30  33
ENDBRANCH  28  29
ENDBRANCH  27  28
ENDBRANCH   1  27
TORSDOF 17
ENDMDL
