MODEL 1
REMARK VINA RESULT:     -10.4      0.000      0.000
REMARK SMILES CCC[C@](C)(CC(F)(F)F)C(=O)NCCCNC(=O)c1ccc(-c2c3nc(c(-c4cccc(S(=O)(=O)[O-])c4F)c4ccc([nH]4)c(-c4cccc(S(=O)(=O)[O-])c4F)c4nc(c(-c5cccc(S(=O)(=O)[O-])c5F)c5ccc2[nH]5)C=C4)C=C3)cc1
REMARK SMILES IDX 15 1 14 2 13 3 11 4 12 5 4 7 5 8 3 9 2 10 1 11 6 12 7 13
REMARK SMILES IDX 8 14 9 15 10 16 16 17 17 18 18 19 19 21 20 22 21 23 82 24
REMARK SMILES IDX 22 25 81 26 23 27 24 28 25 29 75 30 26 31 80 32 74 33 76 34
REMARK SMILES IDX 27 35 79 36 73 37 72 38 28 40 60 41 40 42 59 43 41 44 44 45
REMARK SMILES IDX 58 46 77 47 42 48 43 49 57 51 78 52 45 53 29 54 30 55 38 56
REMARK SMILES IDX 31 57 33 58 39 59 32 60 34 61 35 62 36 63 37 64 61 65 62 66
REMARK SMILES IDX 70 67 63 68 65 69 71 70 64 71 66 72 67 73 68 74 69 75 46 76
REMARK SMILES IDX 47 77 55 78 48 79 50 80 56 81 49 82 51 83 52 84 53 85 54 86
REMARK H PARENT 13 6 17 20 76 39 44 50
REMARK Flexibility Score: inf
ROOT
ATOM      1  C   UNL A   1      31.990  28.440  26.710  1.00  0.00     0.042 C 
ENDROOT
BRANCH   1   2
ATOM      2  C   UNL A   1      31.243  27.440  25.851  1.00  0.00     0.117 C 
BRANCH   2   3
ATOM      3  N   UNL A   1      31.023  26.166  26.507  1.00  0.00    -0.356 N 
ATOM      4  C   UNL A   1      31.616  24.951  26.391  1.00  0.00     0.226 C 
ATOM      5  O   UNL A   1      31.313  24.125  27.260  1.00  0.00    -0.274 OA
ATOM      6  H   UNL A   1      30.296  26.186  27.171  1.00  0.00     0.163 HD
BRANCH   4   7
ATOM      7  C   UNL A   1      32.611  24.590  25.269  1.00  0.00     0.055 C 
ATOM      8  C   UNL A   1      32.681  23.030  25.217  1.00  0.00     0.022 C 
BRANCH   7   9
ATOM      9  C   UNL A   1      34.098  25.033  25.527  1.00  0.00     0.017 C 
BRANCH   9  10
ATOM     10  C   UNL A   1      35.240  24.042  25.774  1.00  0.00    -0.002 C 
ATOM     11  C   UNL A   1      36.073  23.697  24.546  1.00  0.00     0.004 C 
ENDBRANCH   9  10
ENDBRANCH   7   9
BRANCH   7  12
ATOM     12  C   UNL A   1      32.113  25.055  23.868  1.00  0.00     0.132 C 
BRANCH  12  13
ATOM     13  C   UNL A   1      33.084  25.887  23.038  1.00  0.00     0.390 C 
ATOM     14  F   UNL A   1      34.043  25.145  22.456  1.00  0.00    -0.171 F 
ATOM     15  F   UNL A   1      32.406  26.513  22.047  1.00  0.00    -0.171 F 
ATOM     16  F   UNL A   1      33.679  26.849  23.771  1.00  0.00    -0.171 F 
ENDBRANCH  12  13
ENDBRANCH   7  12
ENDBRANCH   4   7
ENDBRANCH   2   3
ENDBRANCH   1   2
BRANCH   1  17
ATOM     17  C   UNL A   1      32.798  29.448  25.907  1.00  0.00     0.118 C 
BRANCH  17  18
ATOM     18  N   UNL A   1      32.576  30.829  26.329  1.00  0.00    -0.352 N 
ATOM     19  C   UNL A   1      33.284  31.613  27.212  1.00  0.00     0.251 C 
ATOM     20  H   UNL A   1      31.797  31.268  25.916  1.00  0.00     0.163 HD
ATOM     21  O   UNL A   1      32.833  32.696  27.563  1.00  0.00    -0.269 OA
BRANCH  19  22
ATOM     22  C   UNL A   1      34.572  31.129  27.751  1.00  0.00     0.039 A 
ATOM     23  C   UNL A   1      35.602  32.040  27.992  1.00  0.00     0.014 A 
ATOM     24  C   UNL A   1      34.748  29.776  28.045  1.00  0.00     0.014 A 
ATOM     25  C   UNL A   1      36.774  31.606  28.618  1.00  0.00     0.010 A 
ATOM     26  C   UNL A   1      35.861  29.370  28.766  1.00  0.00     0.010 A 
ATOM     27  C   UNL A   1      36.892  30.276  29.056  1.00  0.00    -0.014 A 
BRANCH  27  28
ATOM     28  C   UNL A   1      38.071  29.799  29.820  1.00  0.00     0.031 A 
ATOM     29  C   UNL A   1      38.330  30.329  31.206  1.00  0.00     0.074 A 
ATOM     30  C   UNL A   1      38.972  28.990  29.225  1.00  0.00     0.049 A 
ATOM     31  N   UNL A   1      39.364  30.137  31.983  1.00  0.00    -0.248 NA
ATOM     32  C   UNL A   1      37.314  31.231  31.778  1.00  0.00     0.031 C 
ATOM     33  C   UNL A   1      38.885  28.486  27.851  1.00  0.00     0.029 A 
ATOM     34  N   UNL A   1      40.156  28.473  29.690  1.00  0.00    -0.354 N 
ATOM     35  C   UNL A   1      39.148  30.930  33.103  1.00  0.00     0.074 A 
ATOM     36  C   UNL A   1      37.905  31.637  32.891  1.00  0.00     0.031 C 
ATOM     37  C   UNL A   1      39.963  27.728  27.590  1.00  0.00     0.029 A 
ATOM     38  C   UNL A   1      40.831  27.715  28.761  1.00  0.00     0.049 A 
ATOM     39  H   UNL A   1      40.491  28.632  30.602  1.00  0.00     0.167 HD
ATOM     40  C   UNL A   1      39.895  31.033  34.229  1.00  0.00     0.034 A 
ATOM     41  C   UNL A   1      42.017  27.081  28.846  1.00  0.00     0.034 A 
ATOM     42  C   UNL A   1      41.085  30.266  34.470  1.00  0.00     0.049 A 
ATOM     43  C   UNL A   1      42.784  27.143  30.140  1.00  0.00     0.074 A 
ATOM     44  C   UNL A   1      41.857  30.215  35.617  1.00  0.00     0.029 A 
ATOM     45  N   UNL A   1      41.671  29.408  33.553  1.00  0.00    -0.354 N 
ATOM     46  N   UNL A   1      42.478  27.771  31.250  1.00  0.00    -0.248 NA
ATOM     47  C   UNL A   1      44.039  26.379  30.208  1.00  0.00     0.031 C 
ATOM     48  C   UNL A   1      42.913  29.325  35.391  1.00  0.00     0.029 A 
ATOM     49  C   UNL A   1      42.791  28.817  34.107  1.00  0.00     0.049 A 
ATOM     50  H   UNL A   1      41.337  29.243  32.642  1.00  0.00     0.167 HD
ATOM     51  C   UNL A   1      43.481  27.450  32.158  1.00  0.00     0.074 A 
ATOM     52  C   UNL A   1      44.391  26.553  31.475  1.00  0.00     0.031 C 
ATOM     53  C   UNL A   1      43.646  27.875  33.435  1.00  0.00     0.034 A 
BRANCH  40  54
ATOM     54  C   UNL A   1      39.400  31.948  35.316  1.00  0.00     0.023 A 
ATOM     55  C   UNL A   1      38.485  31.455  36.269  1.00  0.00     0.012 A 
ATOM     56  C   UNL A   1      39.874  33.269  35.434  1.00  0.00     0.148 A 
ATOM     57  C   UNL A   1      38.023  32.270  37.301  1.00  0.00     0.002 A 
ATOM     58  C   UNL A   1      39.442  34.062  36.491  1.00  0.00     0.091 A 
ATOM     59  F   UNL A   1      40.727  33.728  34.507  1.00  0.00    -0.205 F 
ATOM     60  C   UNL A   1      38.509  33.569  37.418  1.00  0.00     0.022 A 
BRANCH  58  61
ATOM     61  S   UNL A   1      40.065  35.723  36.776  1.00  0.00     0.127 S 
ATOM     62  O   UNL A   1      41.502  35.483  36.889  1.00  0.00    -0.237 OA
ATOM     63  O   UNL A   1      39.657  36.419  35.556  1.00  0.00    -0.237 OA
ATOM     64  O   UNL A   1      39.411  36.194  37.990  1.00  0.00    -0.744 OA
ENDBRANCH  58  61
ENDBRANCH  40  54
BRANCH  41  65
ATOM     65  C   UNL A   1      42.510  26.260  27.704  1.00  0.00     0.023 A 
ATOM     66  C   UNL A   1      43.462  26.812  26.825  1.00  0.00     0.012 A 
ATOM     67  C   UNL A   1      42.070  24.938  27.494  1.00  0.00     0.148 A 
ATOM     68  C   UNL A   1      43.942  26.078  25.739  1.00  0.00     0.002 A 
ATOM     69  C   UNL A   1      42.592  24.194  26.442  1.00  0.00     0.091 A 
ATOM     70  F   UNL A   1      41.153  24.432  28.331  1.00  0.00    -0.205 F 
ATOM     71  C   UNL A   1      43.515  24.766  25.553  1.00  0.00     0.022 A 
BRANCH  69  72
ATOM     72  S   UNL A   1      42.196  22.455  26.213  1.00  0.00     0.127 S 
ATOM     73  O   UNL A   1      42.966  22.128  25.016  1.00  0.00    -0.237 OA
ATOM     74  O   UNL A   1      42.698  21.860  27.452  1.00  0.00    -0.237 OA
ATOM     75  O   UNL A   1      40.746  22.407  26.074  1.00  0.00    -0.744 OA
ENDBRANCH  69  72
ENDBRANCH  41  65
BRANCH  53  76
ATOM     76  C   UNL A   1      44.834  27.352  34.195  1.00  0.00     0.023 A 
ATOM     77  C   UNL A   1      46.043  28.074  34.181  1.00  0.00     0.012 A 
ATOM     78  C   UNL A   1      44.727  26.195  34.992  1.00  0.00     0.148 A 
ATOM     79  C   UNL A   1      47.137  27.638  34.927  1.00  0.00     0.002 A 
ATOM     80  C   UNL A   1      45.806  25.792  35.768  1.00  0.00     0.091 A 
ATOM     81  F   UNL A   1      43.573  25.511  34.976  1.00  0.00    -0.205 F 
ATOM     82  C   UNL A   1      47.014  26.506  35.729  1.00  0.00     0.022 A 
BRANCH  80  83
ATOM     83  S   UNL A   1      45.704  24.402  36.901  1.00  0.00     0.127 S 
ATOM     84  O   UNL A   1      47.034  24.412  37.506  1.00  0.00    -0.237 OA
ATOM     85  O   UNL A   1      44.622  24.808  37.798  1.00  0.00    -0.237 OA
ATOM     86  O   UNL A   1      45.397  23.239  36.077  1.00  0.00    -0.744 OA
ENDBRANCH  80  83
ENDBRANCH  53  76
ENDBRANCH  27  28
ENDBRANCH  19  22
ENDBRANCH  17  18
ENDBRANCH   1  17
TORSDOF 17
ENDMDL
MODEL 2
REMARK VINA RESULT:     -10.3      1.400      8.304
REMARK SMILES CCC[C@](C)(CC(F)(F)F)C(=O)NCCCNC(=O)c1ccc(-c2c3nc(c(-c4cccc(S(=O)(=O)[O-])c4F)c4ccc([nH]4)c(-c4cccc(S(=O)(=O)[O-])c4F)c4nc(c(-c5cccc(S(=O)(=O)[O-])c5F)c5ccc2[nH]5)C=C4)C=C3)cc1
REMARK SMILES IDX 15 1 14 2 13 3 11 4 12 5 4 7 5 8 3 9 2 10 1 11 6 12 7 13
REMARK SMILES IDX 8 14 9 15 10 16 16 17 17 18 18 19 19 21 20 22 21 23 82 24
REMARK SMILES IDX 22 25 81 26 23 27 24 28 25 29 75 30 26 31 80 32 74 33 76 34
REMARK SMILES IDX 27 35 79 36 73 37 72 38 28 40 60 41 40 42 59 43 41 44 44 45
REMARK SMILES IDX 58 46 77 47 42 48 43 49 57 51 78 52 45 53 29 54 30 55 38 56
REMARK SMILES IDX 31 57 33 58 39 59 32 60 34 61 35 62 36 63 37 64 61 65 62 66
REMARK SMILES IDX 70 67 63 68 65 69 71 70 64 71 66 72 67 73 68 74 69 75 46 76
REMARK SMILES IDX 47 77 55 78 48 79 50 80 56 81 49 82 51 83 52 84 53 85 54 86
REMARK H PARENT 13 6 17 20 76 39 44 50
REMARK Flexibility Score: inf
ROOT
ATOM      1  C   UNL A   1      33.316  29.003  23.776  1.00  0.00     0.042 C 
ENDROOT
BRANCH   1   2
ATOM      2  C   UNL A   1      32.248  28.194  23.067  1.00  0.00     0.117 C 
BRANCH   2   3
ATOM      3  N   UNL A   1      32.761  27.388  21.977  1.00  0.00    -0.356 N 
ATOM      4  C   UNL A   1      33.005  26.060  21.844  1.00  0.00     0.226 C 
ATOM      5  O   UNL A   1      33.252  25.677  20.695  1.00  0.00    -0.274 OA
ATOM      6  H   UNL A   1      32.978  27.910  21.171  1.00  0.00     0.163 HD
BRANCH   4   7
ATOM      7  C   UNL A   1      32.976  25.064  23.021  1.00  0.00     0.055 C 
ATOM      8  C   UNL A   1      33.402  23.676  22.443  1.00  0.00     0.022 C 
BRANCH   7   9
ATOM      9  C   UNL A   1      31.554  24.802  23.639  1.00  0.00     0.017 C 
BRANCH   9  10
ATOM     10  C   UNL A   1      31.106  25.371  24.989  1.00  0.00    -0.002 C 
ATOM     11  C   UNL A   1      30.655  24.334  26.010  1.00  0.00     0.004 C 
ENDBRANCH   9  10
ENDBRANCH   7   9
BRANCH   7  12
ATOM     12  C   UNL A   1      34.019  25.423  24.122  1.00  0.00     0.132 C 
BRANCH  12  13
ATOM     13  C   UNL A   1      34.536  24.271  24.976  1.00  0.00     0.390 C 
ATOM     14  F   UNL A   1      34.394  23.073  24.381  1.00  0.00    -0.171 F 
ATOM     15  F   UNL A   1      35.858  24.446  25.213  1.00  0.00    -0.171 F 
ATOM     16  F   UNL A   1      33.928  24.221  26.178  1.00  0.00    -0.171 F 
ENDBRANCH  12  13
ENDBRANCH   7  12
ENDBRANCH   4   7
ENDBRANCH   2   3
ENDBRANCH   1   2
BRANCH   1  17
ATOM     17  C   UNL A   1      33.179  28.995  25.291  1.00  0.00     0.118 C 
BRANCH  17  18
ATOM     18  N   UNL A   1      32.664  30.253  25.828  1.00  0.00    -0.352 N 
ATOM     19  C   UNL A   1      33.160  31.062  26.826  1.00  0.00     0.251 C 
ATOM     20  H   UNL A   1      31.832  30.572  25.409  1.00  0.00     0.163 HD
ATOM     21  O   UNL A   1      32.485  31.993  27.249  1.00  0.00    -0.269 OA
BRANCH  19  22
ATOM     22  C   UNL A   1      34.493  30.784  27.399  1.00  0.00     0.039 A 
ATOM     23  C   UNL A   1      35.376  31.842  27.628  1.00  0.00     0.014 A 
ATOM     24  C   UNL A   1      34.858  29.481  27.735  1.00  0.00     0.014 A 
ATOM     25  C   UNL A   1      36.586  31.600  28.285  1.00  0.00     0.010 A 
ATOM     26  C   UNL A   1      36.004  29.260  28.485  1.00  0.00     0.010 A 
ATOM     27  C   UNL A   1      36.886  30.314  28.763  1.00  0.00    -0.014 A 
BRANCH  27  28
ATOM     28  C   UNL A   1      38.107  30.034  29.560  1.00  0.00     0.031 A 
ATOM     29  C   UNL A   1      39.140  29.071  29.034  1.00  0.00     0.074 A 
ATOM     30  C   UNL A   1      38.228  30.545  30.802  1.00  0.00     0.049 A 
ATOM     31  N   UNL A   1      40.204  28.598  29.627  1.00  0.00    -0.248 NA
ATOM     32  C   UNL A   1      38.924  28.533  27.679  1.00  0.00     0.031 C 
ATOM     33  C   UNL A   1      37.248  31.411  31.464  1.00  0.00     0.029 A 
ATOM     34  N   UNL A   1      39.213  30.382  31.746  1.00  0.00    -0.354 N 
ATOM     35  C   UNL A   1      40.751  27.674  28.745  1.00  0.00     0.074 A 
ATOM     36  C   UNL A   1      39.881  27.622  27.591  1.00  0.00     0.031 C 
ATOM     37  C   UNL A   1      37.686  31.710  32.698  1.00  0.00     0.029 A 
ATOM     38  C   UNL A   1      38.958  31.035  32.929  1.00  0.00     0.049 A 
ATOM     39  H   UNL A   1      40.024  29.847  31.589  1.00  0.00     0.167 HD
ATOM     40  C   UNL A   1      41.896  26.960  28.862  1.00  0.00     0.034 A 
ATOM     41  C   UNL A   1      39.670  31.084  34.072  1.00  0.00     0.034 A 
ATOM     42  C   UNL A   1      42.799  27.077  29.973  1.00  0.00     0.049 A 
ATOM     43  C   UNL A   1      40.982  30.349  34.142  1.00  0.00     0.074 A 
ATOM     44  C   UNL A   1      44.036  26.481  30.141  1.00  0.00     0.029 A 
ATOM     45  N   UNL A   1      42.569  27.850  31.100  1.00  0.00    -0.354 N 
ATOM     46  N   UNL A   1      41.562  29.608  33.229  1.00  0.00    -0.248 NA
ATOM     47  C   UNL A   1      41.757  30.487  35.384  1.00  0.00     0.031 C 
ATOM     48  C   UNL A   1      44.553  26.893  31.375  1.00  0.00     0.029 A 
ATOM     49  C   UNL A   1      43.641  27.753  31.967  1.00  0.00     0.049 A 
ATOM     50  H   UNL A   1      41.760  28.389  31.259  1.00  0.00     0.167 HD
ATOM     51  C   UNL A   1      42.783  29.222  33.770  1.00  0.00     0.074 A 
ATOM     52  C   UNL A   1      42.869  29.830  35.082  1.00  0.00     0.031 C 
ATOM     53  C   UNL A   1      43.738  28.420  33.239  1.00  0.00     0.034 A 
BRANCH  40  54
ATOM     54  C   UNL A   1      42.275  26.052  27.723  1.00  0.00     0.023 A 
ATOM     55  C   UNL A   1      43.131  26.536  26.712  1.00  0.00     0.012 A 
ATOM     56  C   UNL A   1      41.838  24.715  27.677  1.00  0.00     0.148 A 
ATOM     57  C   UNL A   1      43.517  25.715  25.654  1.00  0.00     0.002 A 
ATOM     58  C   UNL A   1      42.264  23.888  26.642  1.00  0.00     0.091 A 
ATOM     59  F   UNL A   1      41.008  24.278  28.635  1.00  0.00    -0.205 F 
ATOM     60  C   UNL A   1      43.093  24.390  25.625  1.00  0.00     0.022 A 
BRANCH  58  61
ATOM     61  S   UNL A   1      41.836  22.146  26.553  1.00  0.00     0.127 S 
ATOM     62  O   UNL A   1      40.388  22.206  26.367  1.00  0.00    -0.237 OA
ATOM     63  O   UNL A   1      42.584  21.705  25.375  1.00  0.00    -0.237 OA
ATOM     64  O   UNL A   1      42.283  21.559  27.809  1.00  0.00    -0.744 OA
ENDBRANCH  58  61
ENDBRANCH  40  54
BRANCH  41  65
ATOM     65  C   UNL A   1      39.204  31.927  35.210  1.00  0.00     0.023 A 
ATOM     66  C   UNL A   1      38.269  31.393  36.118  1.00  0.00     0.012 A 
ATOM     67  C   UNL A   1      39.692  33.231  35.417  1.00  0.00     0.148 A 
ATOM     68  C   UNL A   1      37.802  32.153  37.191  1.00  0.00     0.002 A 
ATOM     69  C   UNL A   1      39.263  33.964  36.518  1.00  0.00     0.091 A 
ATOM     70  F   UNL A   1      40.571  33.730  34.536  1.00  0.00    -0.205 F 
ATOM     71  C   UNL A   1      38.305  33.434  37.397  1.00  0.00     0.022 A 
BRANCH  69  72
ATOM     72  S   UNL A   1      39.962  35.568  36.930  1.00  0.00     0.127 S 
ATOM     73  O   UNL A   1      39.271  35.885  38.177  1.00  0.00    -0.237 OA
ATOM     74  O   UNL A   1      41.384  35.254  37.075  1.00  0.00    -0.237 OA
ATOM     75  O   UNL A   1      39.655  36.425  35.792  1.00  0.00    -0.744 OA
ENDBRANCH  69  72
ENDBRANCH  41  65
BRANCH  53  76
ATOM     76  C   UNL A   1      44.978  28.176  34.055  1.00  0.00     0.023 A 
ATOM     77  C   UNL A   1      46.067  29.061  33.947  1.00  0.00     0.012 A 
ATOM     78  C   UNL A   1      45.030  27.123  34.990  1.00  0.00     0.148 A 
ATOM     79  C   UNL A   1      47.202  28.887  34.738  1.00  0.00     0.002 A 
ATOM     80  C   UNL A   1      46.144  26.983  35.807  1.00  0.00     0.091 A 
ATOM     81  F   UNL A   1      43.989  26.279  35.063  1.00  0.00    -0.205 F 
ATOM     82  C   UNL A   1      47.235  27.858  35.676  1.00  0.00     0.022 A 
BRANCH  80  83
ATOM     83  S   UNL A   1      46.230  25.743  37.104  1.00  0.00     0.127 S 
ATOM     84  O   UNL A   1      45.117  26.136  37.966  1.00  0.00    -0.237 OA
ATOM     85  O   UNL A   1      46.018  24.499  36.362  1.00  0.00    -0.237 OA
ATOM     86  O   UNL A   1      47.557  25.874  37.692  1.00  0.00    -0.744 OA
ENDBRANCH  80  83
ENDBRANCH  53  76
ENDBRANCH  27  28
ENDBRANCH  19  22
ENDBRANCH  17  18
ENDBRANCH   1  17
TORSDOF 17
ENDMDL
MODEL 3
REMARK VINA RESULT:     -10.2      5.930      8.894
REMARK SMILES CCC[C@](C)(CC(F)(F)F)C(=O)NCCCNC(=O)c1ccc(-c2c3nc(c(-c4cccc(S(=O)(=O)[O-])c4F)c4ccc([nH]4)c(-c4cccc(S(=O)(=O)[O-])c4F)c4nc(c(-c5cccc(S(=O)(=O)[O-])c5F)c5ccc2[nH]5)C=C4)C=C3)cc1
REMARK SMILES IDX 15 1 14 2 13 3 11 4 12 5 4 7 5 8 3 9 2 10 1 11 6 12 7 13
REMARK SMILES IDX 8 14 9 15 10 16 16 17 17 18 18 19 19 21 20 22 21 23 82 24
REMARK SMILES IDX 22 25 81 26 23 27 24 28 25 29 75 30 26 31 80 32 74 33 76 34
REMARK SMILES IDX 27 35 79 36 73 37 72 38 28 40 60 41 40 42 59 43 41 44 44 45
REMARK SMILES IDX 58 46 77 47 42 48 43 49 57 51 78 52 45 53 29 54 30 55 38 56
REMARK SMILES IDX 31 57 33 58 39 59 32 60 34 61 35 62 36 63 37 64 61 65 62 66
REMARK SMILES IDX 70 67 63 68 65 69 71 70 64 71 66 72 67 73 68 74 69 75 46 76
REMARK SMILES IDX 47 77 55 78 48 79 50 80 56 81 49 82 51 83 52 84 53 85 54 86
REMARK H PARENT 13 6 17 20 76 39 44 50
REMARK Flexibility Score: inf
ROOT
ATOM      1  C   UNL A   1      37.739  20.138  24.988  1.00  0.00     0.042 C 
ENDROOT
BRANCH   1   2
ATOM      2  C   UNL A   1      36.675  21.217  24.969  1.00  0.00     0.117 C 
BRANCH   2   3
ATOM      3  N   UNL A   1      35.872  21.259  26.176  1.00  0.00    -0.356 N 
ATOM      4  C   UNL A   1      34.648  21.773  26.456  1.00  0.00     0.226 C 
ATOM      5  O   UNL A   1      34.170  21.447  27.548  1.00  0.00    -0.274 OA
ATOM      6  H   UNL A   1      36.301  20.826  26.949  1.00  0.00     0.163 HD
BRANCH   4   7
ATOM      7  C   UNL A   1      33.871  22.699  25.497  1.00  0.00     0.055 C 
ATOM      8  C   UNL A   1      34.872  23.806  25.035  1.00  0.00     0.022 C 
BRANCH   7   9
ATOM      9  C   UNL A   1      32.688  23.500  26.154  1.00  0.00     0.017 C 
BRANCH   9  10
ATOM     10  C   UNL A   1      31.239  23.412  25.665  1.00  0.00    -0.002 C 
ATOM     11  C   UNL A   1      30.227  22.980  26.718  1.00  0.00     0.004 C 
ENDBRANCH   9  10
ENDBRANCH   7   9
BRANCH   7  12
ATOM     12  C   UNL A   1      33.409  21.956  24.207  1.00  0.00     0.132 C 
BRANCH  12  13
ATOM     13  C   UNL A   1      32.850  20.550  24.390  1.00  0.00     0.390 C 
ATOM     14  F   UNL A   1      32.118  20.137  23.340  1.00  0.00    -0.171 F 
ATOM     15  F   UNL A   1      33.873  19.674  24.534  1.00  0.00    -0.171 F 
ATOM     16  F   UNL A   1      32.092  20.449  25.500  1.00  0.00    -0.171 F 
ENDBRANCH  12  13
ENDBRANCH   7  12
ENDBRANCH   4   7
ENDBRANCH   2   3
ENDBRANCH   1   2
BRANCH   1  17
ATOM     17  C   UNL A   1      39.012  20.552  25.709  1.00  0.00     0.118 C 
BRANCH  17  18
ATOM     18  N   UNL A   1      39.959  19.452  25.879  1.00  0.00    -0.352 N 
ATOM     19  C   UNL A   1      41.317  19.477  26.107  1.00  0.00     0.251 C 
ATOM     20  H   UNL A   1      39.564  18.552  25.820  1.00  0.00     0.163 HD
ATOM     21  O   UNL A   1      41.965  18.439  26.049  1.00  0.00    -0.269 OA
BRANCH  19  22
ATOM     22  C   UNL A   1      41.988  20.761  26.396  1.00  0.00     0.039 A 
ATOM     23  C   UNL A   1      42.340  21.605  25.341  1.00  0.00     0.014 A 
ATOM     24  C   UNL A   1      42.241  21.143  27.714  1.00  0.00     0.014 A 
ATOM     25  C   UNL A   1      42.859  22.874  25.616  1.00  0.00     0.010 A 
ATOM     26  C   UNL A   1      42.648  22.441  27.987  1.00  0.00     0.010 A 
ATOM     27  C   UNL A   1      42.969  23.321  26.943  1.00  0.00    -0.014 A 
BRANCH  27  28
ATOM     28  C   UNL A   1      43.412  24.697  27.278  1.00  0.00     0.031 A 
ATOM     29  C   UNL A   1      42.436  25.671  27.886  1.00  0.00     0.074 A 
ATOM     30  C   UNL A   1      44.647  25.108  26.923  1.00  0.00     0.049 A 
ATOM     31  N   UNL A   1      42.587  26.945  28.132  1.00  0.00    -0.248 NA
ATOM     32  C   UNL A   1      41.097  25.154  28.220  1.00  0.00     0.031 C 
ATOM     33  C   UNL A   1      45.651  24.290  26.239  1.00  0.00     0.029 A 
ATOM     34  N   UNL A   1      45.257  26.331  27.060  1.00  0.00    -0.354 N 
ATOM     35  C   UNL A   1      41.355  27.391  28.596  1.00  0.00     0.074 A 
ATOM     36  C   UNL A   1      40.455  26.260  28.562  1.00  0.00     0.031 C 
ATOM     37  C   UNL A   1      46.752  25.029  26.026  1.00  0.00     0.029 A 
ATOM     38  C   UNL A   1      46.525  26.379  26.528  1.00  0.00     0.049 A 
ATOM     39  H   UNL A   1      44.827  27.101  27.497  1.00  0.00     0.167 HD
ATOM     40  C   UNL A   1      41.012  28.619  29.051  1.00  0.00     0.034 A 
ATOM     41  C   UNL A   1      47.403  27.398  26.453  1.00  0.00     0.034 A 
ATOM     42  C   UNL A   1      41.932  29.717  29.161  1.00  0.00     0.049 A 
ATOM     43  C   UNL A   1      47.024  28.729  27.043  1.00  0.00     0.074 A 
ATOM     44  C   UNL A   1      41.715  30.970  29.705  1.00  0.00     0.029 A 
ATOM     45  N   UNL A   1      43.249  29.688  28.728  1.00  0.00    -0.354 N 
ATOM     46  N   UNL A   1      45.906  29.083  27.628  1.00  0.00    -0.248 NA
ATOM     47  C   UNL A   1      48.041  29.791  27.000  1.00  0.00     0.031 C 
ATOM     48  C   UNL A   1      42.903  31.701  29.599  1.00  0.00     0.029 A 
ATOM     49  C   UNL A   1      43.860  30.899  28.998  1.00  0.00     0.049 A 
ATOM     50  H   UNL A   1      43.684  28.920  28.294  1.00  0.00     0.167 HD
ATOM     51  C   UNL A   1      46.096  30.393  28.053  1.00  0.00     0.074 A 
ATOM     52  C   UNL A   1      47.446  30.762  27.679  1.00  0.00     0.031 C 
ATOM     53  C   UNL A   1      45.225  31.224  28.678  1.00  0.00     0.034 A 
BRANCH  40  54
ATOM     54  C   UNL A   1      39.601  28.816  29.538  1.00  0.00     0.023 A 
ATOM     55  C   UNL A   1      39.256  28.392  30.838  1.00  0.00     0.012 A 
ATOM     56  C   UNL A   1      38.636  29.465  28.744  1.00  0.00     0.148 A 
ATOM     57  C   UNL A   1      37.964  28.578  31.327  1.00  0.00     0.002 A 
ATOM     58  C   UNL A   1      37.362  29.686  29.256  1.00  0.00     0.091 A 
ATOM     59  F   UNL A   1      38.975  29.841  27.503  1.00  0.00    -0.205 F 
ATOM     60  C   UNL A   1      37.021  29.234  30.541  1.00  0.00     0.022 A 
BRANCH  58  61
ATOM     61  S   UNL A   1      36.097  30.588  28.354  1.00  0.00     0.127 S 
ATOM     62  O   UNL A   1      36.812  31.809  27.985  1.00  0.00    -0.237 OA
ATOM     63  O   UNL A   1      35.812  29.687  27.237  1.00  0.00    -0.237 OA
ATOM     64  O   UNL A   1      34.991  30.768  29.285  1.00  0.00    -0.744 OA
ENDBRANCH  58  61
ENDBRANCH  40  54
BRANCH  41  65
ATOM     65  C   UNL A   1      48.759  27.176  25.874  1.00  0.00     0.023 A 
ATOM     66  C   UNL A   1      49.776  26.653  26.696  1.00  0.00     0.012 A 
ATOM     67  C   UNL A   1      49.044  27.449  24.523  1.00  0.00     0.148 A 
ATOM     68  C   UNL A   1      51.061  26.439  26.194  1.00  0.00     0.002 A 
ATOM     69  C   UNL A   1      50.311  27.183  24.015  1.00  0.00     0.091 A 
ATOM     70  F   UNL A   1      48.069  27.959  23.756  1.00  0.00    -0.205 F 
ATOM     71  C   UNL A   1      51.326  26.694  24.852  1.00  0.00     0.022 A 
BRANCH  69  72
ATOM     72  S   UNL A   1      50.697  27.357  22.268  1.00  0.00     0.127 S 
ATOM     73  O   UNL A   1      50.561  28.798  22.073  1.00  0.00    -0.237 OA
ATOM     74  O   UNL A   1      52.069  26.853  22.204  1.00  0.00    -0.237 OA
ATOM     75  O   UNL A   1      49.724  26.523  21.575  1.00  0.00    -0.744 OA
ENDBRANCH  69  72
ENDBRANCH  41  65
BRANCH  53  76
ATOM     76  C   UNL A   1      45.709  32.603  29.032  1.00  0.00     0.023 A 
ATOM     77  C   UNL A   1      46.365  32.818  30.260  1.00  0.00     0.012 A 
ATOM     78  C   UNL A   1      45.592  33.665  28.114  1.00  0.00     0.148 A 
ATOM     79  C   UNL A   1      46.873  34.075  30.581  1.00  0.00     0.002 A 
ATOM     80  C   UNL A   1      46.141  34.904  28.421  1.00  0.00     0.091 A 
ATOM     81  F   UNL A   1      44.946  33.445  26.959  1.00  0.00    -0.205 F 
ATOM     82  C   UNL A   1      46.773  35.113  29.657  1.00  0.00     0.022 A 
BRANCH  80  83
ATOM     83  S   UNL A   1      46.140  36.268  27.252  1.00  0.00     0.127 S 
ATOM     84  O   UNL A   1      46.976  37.250  27.939  1.00  0.00    -0.237 OA
ATOM     85  O   UNL A   1      46.753  35.665  26.068  1.00  0.00    -0.237 OA
ATOM     86  O   UNL A   1      44.742  36.643  27.079  1.00  0.00    -0.744 OA
ENDBRANCH  80  83
ENDBRANCH  53  76
ENDBRANCH  27  28
ENDBRANCH  19  22
ENDBRANCH  17  18
ENDBRANCH   1  17
TORSDOF 17
ENDMDL
