MODEL 1
REMARK VINA RESULT:     -16.8      0.000      0.000
REMARK SMILES O=C(NCCCNC(=O)[C@]1(NC(=O)C2CCN(C(=O)C3CC3)CC2)CCCc2ccccc21)c1ccc(-c2c3nc(c(-c4cccc(S(=O)(=O)[O-])c4F)c4ccc([nH]4)c(-c4cccc(S(=O)(=O)[O-])c4F)c4nc(c(-c5cccc(S(=O)(=O)[O-])c5F)c5ccc2[nH]5)C=C4)C=C3)cc1
REMARK SMILES IDX 5 1 4 2 3 3 1 4 2 5 34 7 35 8 96 9 36 10 95 11 37 12 38 13
REMARK SMILES IDX 39 14 89 15 40 16 94 17 88 18 90 19 41 20 93 21 87 22 86 23
REMARK SMILES IDX 42 25 74 26 54 27 73 28 55 29 58 30 72 31 91 32 56 33 57 34
REMARK SMILES IDX 71 36 92 37 59 38 43 39 44 40 52 41 45 42 47 43 53 44 46 45
REMARK SMILES IDX 48 46 49 47 50 48 51 49 75 50 76 51 84 52 77 53 79 54 85 55
REMARK SMILES IDX 78 56 80 57 81 58 82 59 83 60 60 61 61 62 69 63 62 64 64 65
REMARK SMILES IDX 70 66 63 67 65 68 66 69 67 70 68 71 6 72 7 73 8 74 9 76
REMARK SMILES IDX 10 77 25 78 33 79 26 80 28 81 32 82 27 83 29 84 31 85 30 86
REMARK SMILES IDX 11 87 12 88 13 90 14 91 15 92 24 93 16 94 23 95 17 96 18 97
REMARK SMILES IDX 19 98 20 99 21 100 22 101
REMARK H PARENT 3 6 90 24 58 35 7 75 11 89
REMARK Flexibility Score: inf
ROOT
ATOM      1  C   UNL A   1      32.640  31.761  26.807  1.00  0.00     0.042 C 
ENDROOT
BRANCH   1   2
ATOM      2  C   UNL A   1      34.071  32.649  28.117  1.00  0.00     0.118 C 
BRANCH   2   3
ATOM      3  N   UNL A   1      34.176  32.703  29.757  1.00  0.00    -0.352 N 
ATOM      4  O   UNL A   1      34.491  32.316  31.932  1.00  0.00    -0.269 OA
ATOM      5  C   UNL A   1      34.931  32.192  30.788  1.00  0.00     0.251 C 
ATOM      6  H   UNL A   1      33.473  33.289  30.116  1.00  0.00     0.163 HD
BRANCH   5   7
ATOM      7  C   UNL A   1      36.203  31.491  30.585  1.00  0.00     0.039 A 
ATOM      8  C   UNL A   1      36.977  31.809  29.482  1.00  0.00     0.014 A 
ATOM      9  C   UNL A   1      36.680  30.577  31.544  1.00  0.00     0.014 A 
ATOM     10  C   UNL A   1      38.145  31.102  29.249  1.00  0.00     0.010 A 
ATOM     11  C   UNL A   1      37.902  29.918  31.347  1.00  0.00     0.010 A 
ATOM     12  C   UNL A   1      38.621  30.144  30.169  1.00  0.00    -0.014 A 
BRANCH  12  13
ATOM     13  C   UNL A   1      39.917  29.506  29.837  1.00  0.00     0.031 A 
ATOM     14  C   UNL A   1      40.015  28.132  29.251  1.00  0.00     0.074 A 
ATOM     15  C   UNL A   1      40.993  30.311  29.839  1.00  0.00     0.049 A 
ATOM     16  N   UNL A   1      40.875  27.683  28.374  1.00  0.00    -0.248 NA
ATOM     17  C   UNL A   1      39.019  27.139  29.669  1.00  0.00     0.031 C 
ATOM     18  C   UNL A   1      41.022  31.659  30.406  1.00  0.00     0.029 A 
ATOM     19  N   UNL A   1      42.235  30.139  29.293  1.00  0.00    -0.354 N 
ATOM     20  C   UNL A   1      40.452  26.400  28.050  1.00  0.00     0.074 A 
ATOM     21  C   UNL A   1      39.282  26.124  28.853  1.00  0.00     0.031 C 
ATOM     22  C   UNL A   1      42.206  32.217  30.131  1.00  0.00     0.029 A 
ATOM     23  C   UNL A   1      43.030  31.249  29.414  1.00  0.00     0.049 A 
ATOM     24  H   UNL A   1      42.527  29.305  28.859  1.00  0.00     0.167 HD
ATOM     25  C   UNL A   1      41.006  25.529  27.175  1.00  0.00     0.034 A 
ATOM     26  C   UNL A   1      44.291  31.461  28.999  1.00  0.00     0.034 A 
ATOM     27  C   UNL A   1      42.293  25.728  26.563  1.00  0.00     0.049 A 
ATOM     28  C   UNL A   1      44.965  30.402  28.183  1.00  0.00     0.074 A 
ATOM     29  C   UNL A   1      42.986  24.880  25.718  1.00  0.00     0.029 A 
ATOM     30  N   UNL A   1      43.125  26.808  26.816  1.00  0.00    -0.354 N 
ATOM     31  N   UNL A   1      44.460  29.291  27.702  1.00  0.00    -0.248 NA
ATOM     32  C   UNL A   1      46.370  30.631  27.837  1.00  0.00     0.031 C 
ATOM     33  C   UNL A   1      44.272  25.403  25.538  1.00  0.00     0.029 A 
ATOM     34  C   UNL A   1      44.357  26.609  26.217  1.00  0.00     0.049 A 
ATOM     35  H   UNL A   1      42.877  27.600  27.346  1.00  0.00     0.167 HD
ATOM     36  C   UNL A   1      45.484  28.687  26.986  1.00  0.00     0.074 A 
ATOM     37  C   UNL A   1      46.628  29.575  27.076  1.00  0.00     0.031 C 
ATOM     38  C   UNL A   1      45.483  27.503  26.324  1.00  0.00     0.034 A 
BRANCH  25  39
ATOM     39  C   UNL A   1      40.260  24.262  26.857  1.00  0.00     0.023 A 
ATOM     40  C   UNL A   1      38.965  24.348  26.304  1.00  0.00     0.012 A 
ATOM     41  C   UNL A   1      40.868  23.001  26.999  1.00  0.00     0.148 A 
ATOM     42  C   UNL A   1      38.294  23.198  25.887  1.00  0.00     0.002 A 
ATOM     43  C   UNL A   1      40.201  21.861  26.564  1.00  0.00     0.091 A 
ATOM     44  F   UNL A   1      42.087  22.942  27.554  1.00  0.00    -0.205 F 
ATOM     45  C   UNL A   1      38.915  21.957  26.006  1.00  0.00     0.022 A 
BRANCH  43  46
ATOM     46  S   UNL A   1      40.933  20.223  26.641  1.00  0.00     0.127 S 
ATOM     47  O   UNL A   1      42.257  20.465  26.067  1.00  0.00    -0.237 OA
ATOM     48  O   UNL A   1      40.933  19.950  28.079  1.00  0.00    -0.237 OA
ATOM     49  O   UNL A   1      40.063  19.356  25.857  1.00  0.00    -0.744 OA
ENDBRANCH  43  46
ENDBRANCH  25  39
BRANCH  26  50
ATOM     50  C   UNL A   1      44.957  32.733  29.381  1.00  0.00     0.023 A 
ATOM     51  C   UNL A   1      45.743  32.816  30.541  1.00  0.00     0.012 A 
ATOM     52  C   UNL A   1      44.905  33.834  28.500  1.00  0.00     0.148 A 
ATOM     53  C   UNL A   1      46.477  33.973  30.811  1.00  0.00     0.002 A 
ATOM     54  C   UNL A   1      45.703  34.944  28.730  1.00  0.00     0.091 A 
ATOM     55  F   UNL A   1      44.113  33.751  27.421  1.00  0.00    -0.205 F 
ATOM     56  C   UNL A   1      46.478  35.025  29.894  1.00  0.00     0.022 A 
BRANCH  54  57
ATOM     57  S   UNL A   1      45.904  36.218  27.481  1.00  0.00     0.127 S 
ATOM     58  O   UNL A   1      46.938  37.062  28.074  1.00  0.00    -0.237 OA
ATOM     59  O   UNL A   1      46.332  35.445  26.314  1.00  0.00    -0.237 OA
ATOM     60  O   UNL A   1      44.586  36.825  27.336  1.00  0.00    -0.744 OA
ENDBRANCH  54  57
ENDBRANCH  26  50
BRANCH  38  61
ATOM     61  C   UNL A   1      46.769  27.099  25.656  1.00  0.00     0.023 A 
ATOM     62  C   UNL A   1      47.657  26.227  26.316  1.00  0.00     0.012 A 
ATOM     63  C   UNL A   1      47.084  27.563  24.365  1.00  0.00     0.148 A 
ATOM     64  C   UNL A   1      48.865  25.865  25.722  1.00  0.00     0.002 A 
ATOM     65  C   UNL A   1      48.265  27.156  23.758  1.00  0.00     0.091 A 
ATOM     66  F   UNL A   1      46.236  28.407  23.760  1.00  0.00    -0.205 F 
ATOM     67  C   UNL A   1      49.164  26.321  24.441  1.00  0.00     0.022 A 
BRANCH  65  68
ATOM     68  S   UNL A   1      48.678  27.622  22.075  1.00  0.00     0.127 S 
ATOM     69  O   UNL A   1      50.022  28.171  22.238  1.00  0.00    -0.237 OA
ATOM     70  O   UNL A   1      48.625  26.339  21.372  1.00  0.00    -0.237 OA
ATOM     71  O   UNL A   1      47.652  28.573  21.664  1.00  0.00    -0.744 OA
ENDBRANCH  65  68
ENDBRANCH  38  61
ENDBRANCH  12  13
ENDBRANCH   5   7
ENDBRANCH   2   3
ENDBRANCH   1   2
BRANCH   1  72
ATOM     72  C   UNL A   1      32.443  30.041  26.170  1.00  0.00     0.117 C 
BRANCH  72  73
ATOM     73  N   UNL A   1      31.853  28.861  26.974  1.00  0.00    -0.354 N 
ATOM     74  C   UNL A   1      31.373  27.586  26.664  1.00  0.00     0.250 C 
ATOM     75  H   UNL A   1      31.806  29.054  27.937  1.00  0.00     0.163 HD
ATOM     76  O   UNL A   1      30.539  27.060  27.402  1.00  0.00    -0.272 OA
BRANCH  74  77
ATOM     77  C   UNL A   1      32.172  26.805  25.597  1.00  0.00     0.145 C 
ATOM     78  C   UNL A   1      33.685  27.091  25.394  1.00  0.00     0.044 C 
ATOM     79  C   UNL A   1      31.375  27.101  24.288  1.00  0.00    -0.010 A 
ATOM     80  C   UNL A   1      34.054  28.318  24.594  1.00  0.00     0.008 C 
ATOM     81  C   UNL A   1      31.886  28.056  23.372  1.00  0.00    -0.042 A 
ATOM     82  C   UNL A   1      29.995  26.819  24.211  1.00  0.00     0.007 A 
ATOM     83  C   UNL A   1      33.361  28.322  23.250  1.00  0.00     0.036 C 
ATOM     84  C   UNL A   1      31.017  28.793  22.548  1.00  0.00     0.004 A 
ATOM     85  C   UNL A   1      29.135  27.595  23.424  1.00  0.00     0.000 A 
ATOM     86  C   UNL A   1      29.642  28.604  22.617  1.00  0.00     0.000 A 
BRANCH  77  87
ATOM     87  N   UNL A   1      32.123  25.483  26.197  1.00  0.00    -0.338 N 
ATOM     88  C   UNL A   1      32.136  24.416  25.322  1.00  0.00     0.224 C 
ATOM     89  H   UNL A   1      32.082  25.354  27.172  1.00  0.00     0.164 HD
ATOM     90  O   UNL A   1      31.029  23.868  25.226  1.00  0.00    -0.275 OA
BRANCH  88  91
ATOM     91  C   UNL A   1      33.463  23.808  24.444  1.00  0.00     0.082 C 
ATOM     92  C   UNL A   1      32.296  22.875  23.234  1.00  0.00     0.035 C 
ATOM     93  C   UNL A   1      35.073  22.743  24.982  1.00  0.00     0.035 C 
ATOM     94  C   UNL A   1      32.140  21.026  23.357  1.00  0.00     0.120 C 
ATOM     95  C   UNL A   1      34.934  20.741  24.970  1.00  0.00     0.120 C 
ATOM     96  N   UNL A   1      33.496  20.033  24.005  1.00  0.00    -0.342 N 
ATOM     97  C   UNL A   1      33.099  18.703  23.888  1.00  0.00     0.225 C 
ATOM     98  O   UNL A   1      32.017  18.419  23.370  1.00  0.00    -0.275 OA
BRANCH  97  99
ATOM     99  C   UNL A   1      33.921  17.574  24.314  1.00  0.00     0.079 C 
ATOM    100  C   UNL A   1      33.618  16.130  24.493  1.00  0.00     0.014 C 
ATOM    101  C   UNL A   1      34.313  16.581  23.243  1.00  0.00     0.014 C 
ENDBRANCH  97  99
ENDBRANCH  88  91
ENDBRANCH  77  87
ENDBRANCH  74  77
ENDBRANCH  72  73
ENDBRANCH   1  72
TORSDOF 16
ENDMDL
MODEL 2
REMARK VINA RESULT:     -16.2      4.730      9.467
REMARK SMILES O=C(NCCCNC(=O)[C@]1(NC(=O)C2CCN(C(=O)C3CC3)CC2)CCCc2ccccc21)c1ccc(-c2c3nc(c(-c4cccc(S(=O)(=O)[O-])c4F)c4ccc([nH]4)c(-c4cccc(S(=O)(=O)[O-])c4F)c4nc(c(-c5cccc(S(=O)(=O)[O-])c5F)c5ccc2[nH]5)C=C4)C=C3)cc1
REMARK SMILES IDX 5 1 4 2 3 3 1 4 2 5 34 7 35 8 96 9 36 10 95 11 37 12 38 13
REMARK SMILES IDX 39 14 89 15 40 16 94 17 88 18 90 19 41 20 93 21 87 22 86 23
REMARK SMILES IDX 42 25 74 26 54 27 73 28 55 29 58 30 72 31 91 32 56 33 57 34
REMARK SMILES IDX 71 36 92 37 59 38 43 39 44 40 52 41 45 42 47 43 53 44 46 45
REMARK SMILES IDX 48 46 49 47 50 48 51 49 75 50 76 51 84 52 77 53 79 54 85 55
REMARK SMILES IDX 78 56 80 57 81 58 82 59 83 60 60 61 61 62 69 63 62 64 64 65
REMARK SMILES IDX 70 66 63 67 65 68 66 69 67 70 68 71 6 72 7 73 8 74 9 76
REMARK SMILES IDX 10 77 25 78 33 79 26 80 28 81 32 82 27 83 29 84 31 85 30 86
REMARK SMILES IDX 11 87 12 88 13 90 14 91 15 92 24 93 16 94 23 95 17 96 18 97
REMARK SMILES IDX 19 98 20 99 21 100 22 101
REMARK H PARENT 3 6 90 24 58 35 7 75 11 89
REMARK Flexibility Score: inf
ROOT
ATOM      1  C   UNL A   1      31.201  27.823  27.370  1.00  0.00     0.042 C 
ENDROOT
BRANCH   1   2
ATOM      2  C   UNL A   1      32.889  29.126  27.301  1.00  0.00     0.118 C 
BRANCH   2   3
ATOM      3  N   UNL A   1      33.013  30.764  27.286  1.00  0.00    -0.352 N 
ATOM      4  O   UNL A   1      33.412  32.922  27.696  1.00  0.00    -0.269 OA
ATOM      5  C   UNL A   1      33.847  31.769  27.723  1.00  0.00     0.251 C 
ATOM      6  H   UNL A   1      32.244  31.152  26.811  1.00  0.00     0.163 HD
BRANCH   5   7
ATOM      7  C   UNL A   1      35.198  31.527  28.240  1.00  0.00     0.039 A 
ATOM      8  C   UNL A   1      35.549  30.245  28.629  1.00  0.00     0.014 A 
ATOM      9  C   UNL A   1      36.156  32.558  28.252  1.00  0.00     0.014 A 
ATOM     10  C   UNL A   1      36.800  30.026  29.182  1.00  0.00     0.010 A 
ATOM     11  C   UNL A   1      37.449  32.316  28.739  1.00  0.00     0.010 A 
ATOM     12  C   UNL A   1      37.764  31.054  29.252  1.00  0.00    -0.014 A 
BRANCH  12  13
ATOM     13  C   UNL A   1      39.086  30.673  29.803  1.00  0.00     0.031 A 
ATOM     14  C   UNL A   1      39.538  31.076  31.172  1.00  0.00     0.074 A 
ATOM     15  C   UNL A   1      39.762  29.731  29.125  1.00  0.00     0.049 A 
ATOM     16  N   UNL A   1      40.271  30.397  32.016  1.00  0.00    -0.248 NA
ATOM     17  C   UNL A   1      39.101  32.381  31.679  1.00  0.00     0.031 C 
ATOM     18  C   UNL A   1      39.429  29.277  27.775  1.00  0.00     0.029 A 
ATOM     19  N   UNL A   1      40.816  28.945  29.503  1.00  0.00    -0.354 N 
ATOM     20  C   UNL A   1      40.282  31.141  33.191  1.00  0.00     0.074 A 
ATOM     21  C   UNL A   1      39.517  32.341  32.940  1.00  0.00     0.031 C 
ATOM     22  C   UNL A   1      40.229  28.254  27.454  1.00  0.00     0.029 A 
ATOM     23  C   UNL A   1      41.156  28.015  28.555  1.00  0.00     0.049 A 
ATOM     24  H   UNL A   1      41.281  29.039  30.366  1.00  0.00     0.167 HD
ATOM     25  C   UNL A   1      40.894  30.850  34.362  1.00  0.00     0.034 A 
ATOM     26  C   UNL A   1      42.118  27.075  28.570  1.00  0.00     0.034 A 
ATOM     27  C   UNL A   1      41.837  29.775  34.521  1.00  0.00     0.049 A 
ATOM     28  C   UNL A   1      42.919  26.889  29.819  1.00  0.00     0.074 A 
ATOM     29  C   UNL A   1      42.572  29.432  35.642  1.00  0.00     0.029 A 
ATOM     30  N   UNL A   1      42.252  28.936  33.498  1.00  0.00    -0.354 N 
ATOM     31  N   UNL A   1      42.757  27.455  30.991  1.00  0.00    -0.248 NA
ATOM     32  C   UNL A   1      44.021  25.925  29.758  1.00  0.00     0.031 C 
ATOM     33  C   UNL A   1      43.498  28.450  35.268  1.00  0.00     0.029 A 
ATOM     34  C   UNL A   1      43.295  28.136  33.934  1.00  0.00     0.049 A 
ATOM     35  H   UNL A   1      41.863  28.914  32.593  1.00  0.00     0.167 HD
ATOM     36  C   UNL A   1      43.732  26.910  31.815  1.00  0.00     0.074 A 
ATOM     37  C   UNL A   1      44.459  25.948  31.010  1.00  0.00     0.031 C 
ATOM     38  C   UNL A   1      44.007  27.188  33.114  1.00  0.00     0.034 A 
BRANCH  25  39
ATOM     39  C   UNL A   1      40.609  31.723  35.554  1.00  0.00     0.023 A 
ATOM     40  C   UNL A   1      41.531  32.731  35.905  1.00  0.00     0.012 A 
ATOM     41  C   UNL A   1      39.392  31.627  36.254  1.00  0.00     0.148 A 
ATOM     42  C   UNL A   1      41.241  33.633  36.929  1.00  0.00     0.002 A 
ATOM     43  C   UNL A   1      39.102  32.541  37.261  1.00  0.00     0.091 A 
ATOM     44  F   UNL A   1      38.544  30.643  35.923  1.00  0.00    -0.205 F 
ATOM     45  C   UNL A   1      40.023  33.546  37.598  1.00  0.00     0.022 A 
BRANCH  43  46
ATOM     46  S   UNL A   1      37.544  32.533  38.156  1.00  0.00     0.127 S 
ATOM     47  O   UNL A   1      36.647  33.167  37.189  1.00  0.00    -0.237 OA
ATOM     48  O   UNL A   1      37.309  31.103  38.358  1.00  0.00    -0.237 OA
ATOM     49  O   UNL A   1      37.778  33.290  39.378  1.00  0.00    -0.744 OA
ENDBRANCH  43  46
ENDBRANCH  25  39
BRANCH  26  50
ATOM     50  C   UNL A   1      42.343  26.275  27.337  1.00  0.00     0.023 A 
ATOM     51  C   UNL A   1      43.118  26.780  26.282  1.00  0.00     0.012 A 
ATOM     52  C   UNL A   1      41.880  24.944  27.281  1.00  0.00     0.148 A 
ATOM     53  C   UNL A   1      43.440  25.965  25.194  1.00  0.00     0.002 A 
ATOM     54  C   UNL A   1      42.275  24.116  26.242  1.00  0.00     0.091 A 
ATOM     55  F   UNL A   1      41.104  24.495  28.279  1.00  0.00    -0.205 F 
ATOM     56  C   UNL A   1      43.042  24.627  25.187  1.00  0.00     0.022 A 
BRANCH  54  57
ATOM     57  S   UNL A   1      41.974  22.346  26.298  1.00  0.00     0.127 S 
ATOM     58  O   UNL A   1      40.518  22.285  26.202  1.00  0.00    -0.237 OA
ATOM     59  O   UNL A   1      42.692  21.872  25.114  1.00  0.00    -0.237 OA
ATOM     60  O   UNL A   1      42.554  21.898  27.558  1.00  0.00    -0.744 OA
ENDBRANCH  54  57
ENDBRANCH  26  50
BRANCH  38  61
ATOM     61  C   UNL A   1      45.157  26.443  33.737  1.00  0.00     0.023 A 
ATOM     62  C   UNL A   1      46.455  26.989  33.684  1.00  0.00     0.012 A 
ATOM     63  C   UNL A   1      44.946  25.218  34.395  1.00  0.00     0.148 A 
ATOM     64  C   UNL A   1      47.535  26.298  34.233  1.00  0.00     0.002 A 
ATOM     65  C   UNL A   1      46.018  24.561  34.986  1.00  0.00     0.091 A 
ATOM     66  F   UNL A   1      43.707  24.706  34.419  1.00  0.00    -0.205 F 
ATOM     67  C   UNL A   1      47.315  25.091  34.891  1.00  0.00     0.022 A 
BRANCH  65  68
ATOM     68  S   UNL A   1      45.803  23.051  35.932  1.00  0.00     0.127 S 
ATOM     69  O   UNL A   1      47.186  22.694  36.241  1.00  0.00    -0.237 OA
ATOM     70  O   UNL A   1      45.021  23.510  37.080  1.00  0.00    -0.237 OA
ATOM     71  O   UNL A   1      45.094  22.130  35.053  1.00  0.00    -0.744 OA
ENDBRANCH  65  68
ENDBRANCH  38  61
ENDBRANCH  12  13
ENDBRANCH   5   7
ENDBRANCH   2   3
ENDBRANCH   1   2
BRANCH   1  72
ATOM     72  C   UNL A   1      30.819  26.241  26.501  1.00  0.00     0.117 C 
BRANCH  72  73
ATOM     73  N   UNL A   1      31.257  24.839  26.980  1.00  0.00    -0.354 N 
ATOM     74  C   UNL A   1      31.567  23.625  26.360  1.00  0.00     0.250 C 
ATOM     75  H   UNL A   1      31.337  24.789  27.960  1.00  0.00     0.163 HD
ATOM     76  O   UNL A   1      31.413  22.574  26.982  1.00  0.00    -0.272 OA
BRANCH  74  77
ATOM     77  C   UNL A   1      32.388  23.726  25.056  1.00  0.00     0.145 C 
ATOM     78  C   UNL A   1      31.699  24.157  23.733  1.00  0.00     0.044 C 
ATOM     79  C   UNL A   1      32.994  22.293  24.921  1.00  0.00    -0.010 A 
ATOM     80  C   UNL A   1      30.896  23.108  23.000  1.00  0.00     0.008 C 
ATOM     81  C   UNL A   1      32.415  21.387  23.995  1.00  0.00    -0.042 A 
ATOM     82  C   UNL A   1      33.753  21.735  25.970  1.00  0.00     0.007 A 
ATOM     83  C   UNL A   1      31.720  21.865  22.751  1.00  0.00     0.036 C 
ATOM     84  C   UNL A   1      32.471  20.000  24.223  1.00  0.00     0.004 A 
ATOM     85  C   UNL A   1      33.757  20.356  26.214  1.00  0.00     0.000 A 
ATOM     86  C   UNL A   1      33.089  19.491  25.359  1.00  0.00     0.000 A 
BRANCH  77  87
ATOM     87  N   UNL A   1      33.243  24.847  25.410  1.00  0.00    -0.338 N 
ATOM     88  C   UNL A   1      34.224  25.176  24.499  1.00  0.00     0.224 C 
ATOM     89  H   UNL A   1      33.128  25.344  26.252  1.00  0.00     0.164 HD
ATOM     90  O   UNL A   1      35.356  24.839  24.877  1.00  0.00    -0.275 OA
BRANCH  88  91
ATOM     91  C   UNL A   1      34.034  25.981  23.010  1.00  0.00     0.082 C 
ATOM     92  C   UNL A   1      34.010  27.694  23.884  1.00  0.00     0.035 C 
ATOM     93  C   UNL A   1      32.682  25.816  21.540  1.00  0.00     0.035 C 
ATOM     94  C   UNL A   1      32.404  28.617  24.045  1.00  0.00     0.120 C 
ATOM     95  C   UNL A   1      31.016  26.929  21.654  1.00  0.00     0.120 C 
ATOM     96  N   UNL A   1      31.081  28.369  22.847  1.00  0.00    -0.342 N 
ATOM     97  C   UNL A   1      30.064  29.254  23.197  1.00  0.00     0.225 C 
ATOM     98  O   UNL A   1      30.213  30.031  24.142  1.00  0.00    -0.275 OA
BRANCH  97  99
ATOM     99  C   UNL A   1      28.801  29.359  22.473  1.00  0.00     0.079 C 
ATOM    100  C   UNL A   1      27.705  30.363  22.519  1.00  0.00     0.014 C 
ATOM    101  C   UNL A   1      28.717  30.436  21.415  1.00  0.00     0.014 C 
ENDBRANCH  97  99
ENDBRANCH  88  91
ENDBRANCH  77  87
ENDBRANCH  74  77
ENDBRANCH  72  73
ENDBRANCH   1  72
TORSDOF 16
ENDMDL
MODEL 3
REMARK VINA RESULT:     -15.7      5.205     10.818
REMARK SMILES O=C(NCCCNC(=O)[C@]1(NC(=O)C2CCN(C(=O)C3CC3)CC2)CCCc2ccccc21)c1ccc(-c2c3nc(c(-c4cccc(S(=O)(=O)[O-])c4F)c4ccc([nH]4)c(-c4cccc(S(=O)(=O)[O-])c4F)c4nc(c(-c5cccc(S(=O)(=O)[O-])c5F)c5ccc2[nH]5)C=C4)C=C3)cc1
REMARK SMILES IDX 5 1 4 2 3 3 1 4 2 5 34 7 35 8 96 9 36 10 95 11 37 12 38 13
REMARK SMILES IDX 39 14 89 15 40 16 94 17 88 18 90 19 41 20 93 21 87 22 86 23
REMARK SMILES IDX 42 25 74 26 54 27 73 28 55 29 58 30 72 31 91 32 56 33 57 34
REMARK SMILES IDX 71 36 92 37 59 38 43 39 44 40 52 41 45 42 47 43 53 44 46 45
REMARK SMILES IDX 48 46 49 47 50 48 51 49 75 50 76 51 84 52 77 53 79 54 85 55
REMARK SMILES IDX 78 56 80 57 81 58 82 59 83 60 60 61 61 62 69 63 62 64 64 65
REMARK SMILES IDX 70 66 63 67 65 68 66 69 67 70 68 71 6 72 7 73 8 74 9 76
REMARK SMILES IDX 10 77 25 78 33 79 26 80 28 81 32 82 27 83 29 84 31 85 30 86
REMARK SMILES IDX 11 87 12 88 13 90 14 91 15 92 24 93 16 94 23 95 17 96 18 97
REMARK SMILES IDX 19 98 20 99 21 100 22 101
REMARK H PARENT 3 6 90 24 58 35 7 75 11 89
REMARK Flexibility Score: inf
ROOT
ATOM      1  C   UNL A   1      37.035  20.416  25.230  1.00  0.00     0.042 C 
ENDROOT
BRANCH   1   2
ATOM      2  C   UNL A   1      38.552  21.815  25.771  1.00  0.00     0.118 C 
BRANCH   2   3
ATOM      3  N   UNL A   1      40.188  21.774  25.625  1.00  0.00    -0.352 N 
ATOM      4  O   UNL A   1      42.362  22.204  25.356  1.00  0.00    -0.269 OA
ATOM      5  C   UNL A   1      41.294  22.561  25.857  1.00  0.00     0.251 C 
ATOM      6  H   UNL A   1      40.467  20.908  25.251  1.00  0.00     0.163 HD
BRANCH   5   7
ATOM      7  C   UNL A   1      41.251  23.801  26.637  1.00  0.00     0.039 A 
ATOM      8  C   UNL A   1      40.416  23.873  27.740  1.00  0.00     0.014 A 
ATOM      9  C   UNL A   1      42.113  24.871  26.332  1.00  0.00     0.014 A 
ATOM     10  C   UNL A   1      40.320  25.065  28.439  1.00  0.00     0.010 A 
ATOM     11  C   UNL A   1      42.071  26.051  27.089  1.00  0.00     0.010 A 
ATOM     12  C   UNL A   1      41.136  26.171  28.123  1.00  0.00    -0.014 A 
BRANCH  12  13
ATOM     13  C   UNL A   1      40.985  27.364  28.989  1.00  0.00     0.031 A 
ATOM     14  C   UNL A   1      39.820  28.297  28.884  1.00  0.00     0.074 A 
ATOM     15  C   UNL A   1      41.805  27.434  30.052  1.00  0.00     0.049 A 
ATOM     16  N   UNL A   1      39.207  28.941  29.843  1.00  0.00    -0.248 NA
ATOM     17  C   UNL A   1      39.244  28.523  27.553  1.00  0.00     0.031 C 
ATOM     18  C   UNL A   1      42.986  26.593  30.248  1.00  0.00     0.029 A 
ATOM     19  N   UNL A   1      41.729  28.193  31.186  1.00  0.00    -0.354 N 
ATOM     20  C   UNL A   1      38.108  29.551  29.249  1.00  0.00     0.074 A 
ATOM     21  C   UNL A   1      38.159  29.234  27.840  1.00  0.00     0.031 C 
ATOM     22  C   UNL A   1      43.498  26.843  31.458  1.00  0.00     0.029 A 
ATOM     23  C   UNL A   1      42.708  27.892  32.097  1.00  0.00     0.049 A 
ATOM     24  H   UNL A   1      41.043  28.883  31.333  1.00  0.00     0.167 HD
ATOM     25  C   UNL A   1      37.159  30.320  29.830  1.00  0.00     0.034 A 
ATOM     26  C   UNL A   1      42.949  28.411  33.314  1.00  0.00     0.034 A 
ATOM     27  C   UNL A   1      37.252  30.815  31.179  1.00  0.00     0.049 A 
ATOM     28  C   UNL A   1      41.983  29.409  33.871  1.00  0.00     0.074 A 
ATOM     29  C   UNL A   1      36.386  31.660  31.848  1.00  0.00     0.029 A 
ATOM     30  N   UNL A   1      38.329  30.592  32.024  1.00  0.00    -0.354 N 
ATOM     31  N   UNL A   1      40.831  29.799  33.381  1.00  0.00    -0.248 NA
ATOM     32  C   UNL A   1      42.336  30.022  35.155  1.00  0.00     0.031 C 
ATOM     33  C   UNL A   1      36.986  32.023  33.060  1.00  0.00     0.029 A 
ATOM     34  C   UNL A   1      38.194  31.353  33.174  1.00  0.00     0.049 A 
ATOM     35  H   UNL A   1      39.079  29.983  31.835  1.00  0.00     0.167 HD
ATOM     36  C   UNL A   1      40.313  30.701  34.299  1.00  0.00     0.074 A 
ATOM     37  C   UNL A   1      41.268  30.773  35.389  1.00  0.00     0.031 C 
ATOM     38  C   UNL A   1      39.159  31.412  34.243  1.00  0.00     0.034 A 
BRANCH  25  39
ATOM     39  C   UNL A   1      35.961  30.717  29.012  1.00  0.00     0.023 A 
ATOM     40  C   UNL A   1      35.217  29.717  28.352  1.00  0.00     0.012 A 
ATOM     41  C   UNL A   1      35.507  32.049  28.982  1.00  0.00     0.148 A 
ATOM     42  C   UNL A   1      34.034  30.037  27.684  1.00  0.00     0.002 A 
ATOM     43  C   UNL A   1      34.318  32.357  28.331  1.00  0.00     0.091 A 
ATOM     44  F   UNL A   1      36.246  32.987  29.592  1.00  0.00    -0.205 F 
ATOM     45  C   UNL A   1      33.579  31.353  27.683  1.00  0.00     0.022 A 
BRANCH  43  46
ATOM     46  S   UNL A   1      33.630  34.017  28.306  1.00  0.00     0.127 S 
ATOM     47  O   UNL A   1      34.642  34.742  27.538  1.00  0.00    -0.237 OA
ATOM     48  O   UNL A   1      32.361  33.817  27.606  1.00  0.00    -0.237 OA
ATOM     49  O   UNL A   1      33.500  34.419  29.700  1.00  0.00    -0.744 OA
ENDBRANCH  43  46
ENDBRANCH  25  39
BRANCH  26  50
ATOM     50  C   UNL A   1      44.171  27.975  34.040  1.00  0.00     0.023 A 
ATOM     51  C   UNL A   1      45.382  28.670  33.896  1.00  0.00     0.012 A 
ATOM     52  C   UNL A   1      44.081  26.929  34.982  1.00  0.00     0.148 A 
ATOM     53  C   UNL A   1      46.481  28.338  34.691  1.00  0.00     0.002 A 
ATOM     54  C   UNL A   1      45.147  26.663  35.827  1.00  0.00     0.091 A 
ATOM     55  F   UNL A   1      42.929  26.249  35.072  1.00  0.00    -0.205 F 
ATOM     56  C   UNL A   1      46.356  27.355  35.673  1.00  0.00     0.022 A 
BRANCH  54  57
ATOM     57  S   UNL A   1      44.965  25.567  37.237  1.00  0.00     0.127 S 
ATOM     58  O   UNL A   1      44.719  24.282  36.591  1.00  0.00    -0.237 OA
ATOM     59  O   UNL A   1      46.267  25.690  37.895  1.00  0.00    -0.237 OA
ATOM     60  O   UNL A   1      43.859  26.119  38.011  1.00  0.00    -0.744 OA
ENDBRANCH  54  57
ENDBRANCH  26  50
BRANCH  38  61
ATOM     61  C   UNL A   1      38.879  32.341  35.393  1.00  0.00     0.023 A 
ATOM     62  C   UNL A   1      39.243  33.699  35.302  1.00  0.00     0.012 A 
ATOM     63  C   UNL A   1      38.231  31.873  36.552  1.00  0.00     0.148 A 
ATOM     64  C   UNL A   1      39.014  34.566  36.370  1.00  0.00     0.002 A 
ATOM     65  C   UNL A   1      37.959  32.755  37.590  1.00  0.00     0.091 A 
ATOM     66  F   UNL A   1      37.908  30.574  36.628  1.00  0.00    -0.205 F 
ATOM     67  C   UNL A   1      38.365  34.096  37.508  1.00  0.00     0.022 A 
BRANCH  65  68
ATOM     68  S   UNL A   1      37.043  32.250  39.049  1.00  0.00     0.127 S 
ATOM     69  O   UNL A   1      37.735  32.985  40.105  1.00  0.00    -0.237 OA
ATOM     70  O   UNL A   1      35.693  32.733  38.754  1.00  0.00    -0.237 OA
ATOM     71  O   UNL A   1      37.160  30.799  39.108  1.00  0.00    -0.744 OA
ENDBRANCH  65  68
ENDBRANCH  38  61
ENDBRANCH  12  13
ENDBRANCH   5   7
ENDBRANCH   2   3
ENDBRANCH   1   2
BRANCH   1  72
ATOM     72  C   UNL A   1      35.193  20.526  25.220  1.00  0.00     0.117 C 
BRANCH  72  73
ATOM     73  N   UNL A   1      34.325  20.964  26.420  1.00  0.00    -0.354 N 
ATOM     74  C   UNL A   1      33.612  22.115  26.766  1.00  0.00     0.250 C 
ATOM     75  H   UNL A   1      34.257  20.263  27.106  1.00  0.00     0.163 HD
ATOM     76  O   UNL A   1      33.422  22.372  27.955  1.00  0.00    -0.272 OA
BRANCH  74  77
ATOM     77  C   UNL A   1      32.839  22.800  25.617  1.00  0.00     0.145 C 
ATOM     78  C   UNL A   1      31.884  21.970  24.718  1.00  0.00     0.044 C 
ATOM     79  C   UNL A   1      33.984  23.436  24.766  1.00  0.00    -0.010 A 
ATOM     80  C   UNL A   1      32.514  21.134  23.629  1.00  0.00     0.008 C 
ATOM     81  C   UNL A   1      34.380  22.800  23.562  1.00  0.00    -0.042 A 
ATOM     82  C   UNL A   1      34.915  24.314  25.360  1.00  0.00     0.007 A 
ATOM     83  C   UNL A   1      33.421  21.970  22.755  1.00  0.00     0.036 C 
ATOM     84  C   UNL A   1      35.699  22.923  23.089  1.00  0.00     0.004 A 
ATOM     85  C   UNL A   1      36.238  24.387  24.908  1.00  0.00     0.000 A 
ATOM     86  C   UNL A   1      36.639  23.667  23.792  1.00  0.00     0.000 A 
BRANCH  77  87
ATOM     87  N   UNL A   1      31.962  23.648  26.406  1.00  0.00    -0.338 N 
ATOM     88  C   UNL A   1      31.473  24.773  25.776  1.00  0.00     0.224 C 
ATOM     89  H   UNL A   1      31.728  23.432  27.338  1.00  0.00     0.164 HD
ATOM     90  O   UNL A   1      32.014  25.814  26.176  1.00  0.00    -0.275 OA
BRANCH  88  91
ATOM     91  C   UNL A   1      30.248  24.855  24.595  1.00  0.00     0.082 C 
ATOM     92  C   UNL A   1      31.499  25.467  23.270  1.00  0.00     0.035 C 
ATOM     93  C   UNL A   1      28.486  25.806  24.531  1.00  0.00     0.035 C 
ATOM     94  C   UNL A   1      31.469  27.249  22.738  1.00  0.00     0.120 C 
ATOM     95  C   UNL A   1      28.446  27.681  23.817  1.00  0.00     0.120 C 
ATOM     96  N   UNL A   1      29.946  28.207  22.830  1.00  0.00    -0.342 N 
ATOM     97  C   UNL A   1      30.236  29.457  22.289  1.00  0.00     0.225 C 
ATOM     98  O   UNL A   1      31.355  29.692  21.829  1.00  0.00    -0.275 OA
BRANCH  97  99
ATOM     99  C   UNL A   1      29.261  30.539  22.187  1.00  0.00     0.079 C 
ATOM    100  C   UNL A   1      27.871  30.682  22.696  1.00  0.00     0.014 C 
ATOM    101  C   UNL A   1      28.996  31.331  23.447  1.00  0.00     0.014 C 
ENDBRANCH  97  99
ENDBRANCH  88  91
ENDBRANCH  77  87
ENDBRANCH  74  77
ENDBRANCH  72  73
ENDBRANCH   1  72
TORSDOF 16
ENDMDL
