MODEL 1
REMARK VINA RESULT:     -10.8      0.000      0.000
REMARK SMILES Cc1ccc(O)c(C[C@H](NC=O)C(=O)NCCCNC(=O)c2ccc(-c3c4nc(c(-c5cccc(S(=O)(=O)[O-])c5F)c5ccc([nH]5)c(-c5cccc(S(=O)(=O)[O-])c5F)c5nc(c(-c6cccc(S(=O)(=O)[O-])c6F)c6ccc3[nH]6)C=C5)C=C4)cc2)n1
REMARK SMILES IDX 17 1 16 2 15 3 13 4 14 5 9 7 8 8 7 9 1 10 2 11 3 12 85 13
REMARK SMILES IDX 4 14 5 15 6 16 10 18 11 19 12 21 18 22 19 23 20 24 21 26
REMARK SMILES IDX 22 27 23 28 84 29 24 30 83 31 25 32 26 33 27 34 77 35 28 36
REMARK SMILES IDX 82 37 76 38 78 39 29 40 81 41 75 42 74 43 30 45 62 46 42 47
REMARK SMILES IDX 61 48 43 49 46 50 60 51 79 52 44 53 45 54 59 56 80 57 47 58
REMARK SMILES IDX 31 59 32 60 40 61 33 62 35 63 41 64 34 65 36 66 37 67 38 68
REMARK SMILES IDX 39 69 63 70 64 71 72 72 65 73 67 74 73 75 66 76 68 77 69 78
REMARK SMILES IDX 70 79 71 80 48 81 49 82 57 83 50 84 52 85 58 86 51 87 53 88
REMARK SMILES IDX 54 89 55 90 56 91
REMARK H PARENT 15 6 6 17 10 20 19 25 78 44 46 55
REMARK Flexibility Score: inf
ROOT
ATOM      1  C   UNL A   1      34.380  33.504  29.287  1.00  0.00     0.042 C 
ENDROOT
BRANCH   1   2
ATOM      2  C   UNL A   1      35.177  32.972  30.459  1.00  0.00     0.117 C 
BRANCH   2   3
ATOM      3  N   UNL A   1      34.332  32.611  31.587  1.00  0.00    -0.354 N 
ATOM      4  C   UNL A   1      34.023  33.355  32.691  1.00  0.00     0.242 C 
ATOM      5  O   UNL A   1      33.077  32.992  33.397  1.00  0.00    -0.273 OA
ATOM      6  H   UNL A   1      33.931  31.713  31.550  1.00  0.00     0.163 HD
BRANCH   4   7
ATOM      7  C   UNL A   1      34.844  34.608  33.049  1.00  0.00     0.177 C 
BRANCH   7   8
ATOM      8  C   UNL A   1      35.914  34.419  34.144  1.00  0.00     0.095 C 
BRANCH   8   9
ATOM      9  C   UNL A   1      37.342  34.411  33.657  1.00  0.00     0.085 A 
ATOM     10  C   UNL A   1      38.827  34.699  30.301  1.00  0.00     0.067 C 
ATOM     11  C   UNL A   1      38.745  34.511  31.785  1.00  0.00     0.038 A 
ATOM     12  C   UNL A   1      39.875  34.406  32.577  1.00  0.00     0.027 A 
ATOM     13  N   UNL A   1      37.502  34.480  32.313  1.00  0.00    -0.254 NA
ATOM     14  C   UNL A   1      39.714  34.281  33.957  1.00  0.00     0.050 A 
ATOM     15  C   UNL A   1      38.434  34.292  34.505  1.00  0.00     0.137 A 
BRANCH  15  16
ATOM     16  O   UNL A   1      38.255  34.177  35.852  1.00  0.00    -0.506 OA
ATOM     17  H   UNL A   1      38.577  33.421  36.304  1.00  0.00     0.293 HD
ENDBRANCH  15  16
ENDBRANCH   8   9
ENDBRANCH   7   8
BRANCH   7  18
ATOM     18  N   UNL A   1      33.883  35.673  33.370  1.00  0.00    -0.347 N 
ATOM     19  C   UNL A   1      33.112  36.339  32.474  1.00  0.00     0.337 C 
ATOM     20  H   UNL A   1      33.790  35.926  34.316  1.00  0.00     0.164 HD
ATOM     21  O   UNL A   1      32.318  37.210  32.801  1.00  0.00    -0.279 OA
ENDBRANCH   7  18
ENDBRANCH   4   7
ENDBRANCH   2   3
ENDBRANCH   1   2
BRANCH   1  22
ATOM     22  C   UNL A   1      34.797  32.902  27.956  1.00  0.00     0.118 C 
BRANCH  22  23
ATOM     23  N   UNL A   1      34.080  31.672  27.632  1.00  0.00    -0.352 N 
ATOM     24  C   UNL A   1      34.522  30.371  27.670  1.00  0.00     0.251 C 
ATOM     25  H   UNL A   1      33.146  31.791  27.346  1.00  0.00     0.163 HD
ATOM     26  O   UNL A   1      33.820  29.468  27.223  1.00  0.00    -0.269 OA
BRANCH  24  27
ATOM     27  C   UNL A   1      35.859  30.076  28.226  1.00  0.00     0.039 A 
ATOM     28  C   UNL A   1      35.962  29.589  29.531  1.00  0.00     0.014 A 
ATOM     29  C   UNL A   1      37.002  30.230  27.439  1.00  0.00     0.014 A 
ATOM     30  C   UNL A   1      37.207  29.184  30.016  1.00  0.00     0.010 A 
ATOM     31  C   UNL A   1      38.216  29.724  27.884  1.00  0.00     0.010 A 
ATOM     32  C   UNL A   1      38.337  29.206  29.181  1.00  0.00    -0.014 A 
BRANCH  32  33
ATOM     33  C   UNL A   1      39.652  28.691  29.641  1.00  0.00     0.031 A 
ATOM     34  C   UNL A   1      40.395  29.397  30.743  1.00  0.00     0.074 A 
ATOM     35  C   UNL A   1      40.220  27.646  29.005  1.00  0.00     0.049 A 
ATOM     36  N   UNL A   1      41.576  29.135  31.240  1.00  0.00    -0.248 NA
ATOM     37  C   UNL A   1      39.743  30.573  31.346  1.00  0.00     0.031 C 
ATOM     38  C   UNL A   1      39.645  26.935  27.861  1.00  0.00     0.029 A 
ATOM     39  N   UNL A   1      41.423  27.018  29.213  1.00  0.00    -0.354 N 
ATOM     40  C   UNL A   1      41.824  30.132  32.176  1.00  0.00     0.074 A 
ATOM     41  C   UNL A   1      40.689  31.027  32.153  1.00  0.00     0.031 C 
ATOM     42  C   UNL A   1      40.490  25.966  27.474  1.00  0.00     0.029 A 
ATOM     43  C   UNL A   1      41.681  26.007  28.315  1.00  0.00     0.049 A 
ATOM     44  H   UNL A   1      42.044  27.268  29.935  1.00  0.00     0.167 HD
ATOM     45  C   UNL A   1      42.887  30.277  33.001  1.00  0.00     0.034 A 
ATOM     46  C   UNL A   1      42.760  25.212  28.177  1.00  0.00     0.034 A 
ATOM     47  C   UNL A   1      43.991  29.359  33.055  1.00  0.00     0.049 A 
ATOM     48  C   UNL A   1      43.905  25.362  29.141  1.00  0.00     0.074 A 
ATOM     49  C   UNL A   1      45.064  29.356  33.927  1.00  0.00     0.029 A 
ATOM     50  N   UNL A   1      44.174  28.290  32.191  1.00  0.00    -0.354 N 
ATOM     51  N   UNL A   1      44.042  26.205  30.135  1.00  0.00    -0.248 NA
ATOM     52  C   UNL A   1      45.030  24.427  28.988  1.00  0.00     0.031 C 
ATOM     53  C   UNL A   1      45.915  28.305  33.569  1.00  0.00     0.029 A 
ATOM     54  C   UNL A   1      45.350  27.629  32.500  1.00  0.00     0.049 A 
ATOM     55  H   UNL A   1      43.558  28.037  31.466  1.00  0.00     0.167 HD
ATOM     56  C   UNL A   1      45.246  25.880  30.749  1.00  0.00     0.074 A 
ATOM     57  C   UNL A   1      45.789  24.747  30.028  1.00  0.00     0.031 C 
ATOM     58  C   UNL A   1      45.854  26.473  31.806  1.00  0.00     0.034 A 
BRANCH  45  59
ATOM     59  C   UNL A   1      42.889  31.448  33.950  1.00  0.00     0.023 A 
ATOM     60  C   UNL A   1      43.488  32.664  33.560  1.00  0.00     0.012 A 
ATOM     61  C   UNL A   1      42.244  31.365  35.199  1.00  0.00     0.148 A 
ATOM     62  C   UNL A   1      43.476  33.767  34.412  1.00  0.00     0.002 A 
ATOM     63  C   UNL A   1      42.192  32.484  36.022  1.00  0.00     0.091 A 
ATOM     64  F   UNL A   1      41.699  30.194  35.561  1.00  0.00    -0.205 F 
ATOM     65  C   UNL A   1      42.819  33.680  35.637  1.00  0.00     0.022 A 
BRANCH  63  66
ATOM     66  S   UNL A   1      41.297  32.501  37.579  1.00  0.00     0.127 S 
ATOM     67  O   UNL A   1      42.101  31.587  38.390  1.00  0.00    -0.237 OA
ATOM     68  O   UNL A   1      41.393  33.909  37.970  1.00  0.00    -0.237 OA
ATOM     69  O   UNL A   1      39.949  32.044  37.274  1.00  0.00    -0.744 OA
ENDBRANCH  63  66
ENDBRANCH  45  59
BRANCH  46  70
ATOM     70  C   UNL A   1      42.789  24.168  27.113  1.00  0.00     0.023 A 
ATOM     71  C   UNL A   1      43.474  24.420  25.908  1.00  0.00     0.012 A 
ATOM     72  C   UNL A   1      42.157  22.923  27.295  1.00  0.00     0.148 A 
ATOM     73  C   UNL A   1      43.495  23.468  24.888  1.00  0.00     0.002 A 
ATOM     74  C   UNL A   1      42.231  21.957  26.298  1.00  0.00     0.091 A 
ATOM     75  F   UNL A   1      41.503  22.706  28.444  1.00  0.00    -0.205 F 
ATOM     76  C   UNL A   1      42.882  22.234  25.087  1.00  0.00     0.022 A 
BRANCH  74  77
ATOM     77  S   UNL A   1      41.585  20.296  26.517  1.00  0.00     0.127 S 
ATOM     78  O   UNL A   1      40.149  20.511  26.360  1.00  0.00    -0.237 OA
ATOM     79  O   UNL A   1      42.226  19.577  25.415  1.00  0.00    -0.237 OA
ATOM     80  O   UNL A   1      42.022  19.877  27.842  1.00  0.00    -0.744 OA
ENDBRANCH  74  77
ENDBRANCH  46  70
BRANCH  58  81
ATOM     81  C   UNL A   1      47.156  25.885  32.284  1.00  0.00     0.023 A 
ATOM     82  C   UNL A   1      48.376  26.343  31.751  1.00  0.00     0.012 A 
ATOM     83  C   UNL A   1      47.169  24.929  33.319  1.00  0.00     0.148 A 
ATOM     84  C   UNL A   1      49.588  25.831  32.214  1.00  0.00     0.002 A 
ATOM     85  C   UNL A   1      48.381  24.464  33.813  1.00  0.00     0.091 A 
ATOM     86  F   UNL A   1      45.997  24.494  33.802  1.00  0.00    -0.205 F 
ATOM     87  C   UNL A   1      49.590  24.903  33.252  1.00  0.00     0.022 A 
BRANCH  85  88
ATOM     88  S   UNL A   1      48.484  23.345  35.215  1.00  0.00     0.127 S 
ATOM     89  O   UNL A   1      49.929  23.155  35.338  1.00  0.00    -0.237 OA
ATOM     90  O   UNL A   1      47.878  24.137  36.287  1.00  0.00    -0.237 OA
ATOM     91  O   UNL A   1      47.728  22.158  34.840  1.00  0.00    -0.744 OA
ENDBRANCH  85  88
ENDBRANCH  58  81
ENDBRANCH  32  33
ENDBRANCH  24  27
ENDBRANCH  22  23
ENDBRANCH   1  22
TORSDOF 17
ENDMDL
MODEL 2
REMARK VINA RESULT:     -10.2      4.127     10.587
REMARK SMILES Cc1ccc(O)c(C[C@H](NC=O)C(=O)NCCCNC(=O)c2ccc(-c3c4nc(c(-c5cccc(S(=O)(=O)[O-])c5F)c5ccc([nH]5)c(-c5cccc(S(=O)(=O)[O-])c5F)c5nc(c(-c6cccc(S(=O)(=O)[O-])c6F)c6ccc3[nH]6)C=C5)C=C4)cc2)n1
REMARK SMILES IDX 17 1 16 2 15 3 13 4 14 5 9 7 8 8 7 9 1 10 2 11 3 12 85 13
REMARK SMILES IDX 4 14 5 15 6 16 10 18 11 19 12 21 18 22 19 23 20 24 21 26
REMARK SMILES IDX 22 27 23 28 84 29 24 30 83 31 25 32 26 33 27 34 77 35 28 36
REMARK SMILES IDX 82 37 76 38 78 39 29 40 81 41 75 42 74 43 30 45 62 46 42 47
REMARK SMILES IDX 61 48 43 49 46 50 60 51 79 52 44 53 45 54 59 56 80 57 47 58
REMARK SMILES IDX 31 59 32 60 40 61 33 62 35 63 41 64 34 65 36 66 37 67 38 68
REMARK SMILES IDX 39 69 63 70 64 71 72 72 65 73 67 74 73 75 66 76 68 77 69 78
REMARK SMILES IDX 70 79 71 80 48 81 49 82 57 83 50 84 52 85 58 86 51 87 53 88
REMARK SMILES IDX 54 89 55 90 56 91
REMARK H PARENT 15 6 6 17 10 20 19 25 78 44 46 55
REMARK Flexibility Score: inf
ROOT
ATOM      1  C   UNL A   1      31.806  31.371  26.950  1.00  0.00     0.042 C 
ENDROOT
BRANCH   1   2
ATOM      2  C   UNL A   1      32.171  30.116  26.187  1.00  0.00     0.117 C 
BRANCH   2   3
ATOM      3  N   UNL A   1      31.606  30.098  24.845  1.00  0.00    -0.354 N 
ATOM      4  C   UNL A   1      31.498  29.044  23.982  1.00  0.00     0.242 C 
ATOM      5  O   UNL A   1      30.745  29.157  23.010  1.00  0.00    -0.273 OA
ATOM      6  H   UNL A   1      31.256  30.958  24.518  1.00  0.00     0.163 HD
BRANCH   4   7
ATOM      7  C   UNL A   1      32.306  27.754  24.212  1.00  0.00     0.177 C 
BRANCH   7   8
ATOM      8  C   UNL A   1      33.070  27.212  22.987  1.00  0.00     0.095 C 
BRANCH   8   9
ATOM      9  C   UNL A   1      33.394  25.739  23.028  1.00  0.00     0.085 A 
ATOM     10  C   UNL A   1      35.340  23.684  25.384  1.00  0.00     0.067 C 
ATOM     11  C   UNL A   1      34.528  24.042  24.176  1.00  0.00     0.038 A 
ATOM     12  C   UNL A   1      34.102  23.088  23.267  1.00  0.00     0.027 A 
ATOM     13  N   UNL A   1      34.208  25.347  24.039  1.00  0.00    -0.254 NA
ATOM     14  C   UNL A   1      33.308  23.495  22.195  1.00  0.00     0.050 A 
ATOM     15  C   UNL A   1      32.943  24.834  22.077  1.00  0.00     0.137 A 
BRANCH  15  16
ATOM     16  O   UNL A   1      32.164  25.251  21.039  1.00  0.00    -0.506 OA
ATOM     17  H   UNL A   1      31.270  25.489  21.191  1.00  0.00     0.293 HD
ENDBRANCH  15  16
ENDBRANCH   8   9
ENDBRANCH   7   8
BRANCH   7  18
ATOM     18  N   UNL A   1      31.382  26.767  24.790  1.00  0.00    -0.347 N 
ATOM     19  C   UNL A   1      31.316  26.416  26.098  1.00  0.00     0.337 C 
ATOM     20  H   UNL A   1      30.756  26.322  24.174  1.00  0.00     0.164 HD
ATOM     21  O   UNL A   1      30.516  25.595  26.524  1.00  0.00    -0.279 OA
ENDBRANCH   7  18
ENDBRANCH   4   7
ENDBRANCH   2   3
ENDBRANCH   1   2
BRANCH   1  22
ATOM     22  C   UNL A   1      33.002  32.258  27.252  1.00  0.00     0.118 C 
BRANCH  22  23
ATOM     23  N   UNL A   1      32.634  33.646  27.518  1.00  0.00    -0.352 N 
ATOM     24  C   UNL A   1      33.116  34.506  28.476  1.00  0.00     0.251 C 
ATOM     25  H   UNL A   1      31.943  34.020  26.926  1.00  0.00     0.163 HD
ATOM     26  O   UNL A   1      32.585  35.600  28.647  1.00  0.00    -0.269 OA
BRANCH  24  27
ATOM     27  C   UNL A   1      34.258  34.088  29.317  1.00  0.00     0.039 A 
ATOM     28  C   UNL A   1      34.019  33.316  30.455  1.00  0.00     0.014 A 
ATOM     29  C   UNL A   1      35.564  34.417  28.948  1.00  0.00     0.014 A 
ATOM     30  C   UNL A   1      35.101  32.808  31.178  1.00  0.00     0.010 A 
ATOM     31  C   UNL A   1      36.633  33.821  29.603  1.00  0.00     0.010 A 
ATOM     32  C   UNL A   1      36.416  33.019  30.733  1.00  0.00    -0.014 A 
BRANCH  32  33
ATOM     33  C   UNL A   1      37.579  32.411  31.429  1.00  0.00     0.031 A 
ATOM     34  C   UNL A   1      38.335  31.278  30.788  1.00  0.00     0.074 A 
ATOM     35  C   UNL A   1      37.897  32.814  32.676  1.00  0.00     0.049 A 
ATOM     36  N   UNL A   1      39.336  30.583  31.262  1.00  0.00    -0.248 NA
ATOM     37  C   UNL A   1      37.889  30.846  29.451  1.00  0.00     0.031 C 
ATOM     38  C   UNL A   1      37.183  33.837  33.444  1.00  0.00     0.029 A 
ATOM     39  N   UNL A   1      38.885  32.391  33.530  1.00  0.00    -0.354 N 
ATOM     40  C   UNL A   1      39.608  29.610  30.308  1.00  0.00     0.074 A 
ATOM     41  C   UNL A   1      38.645  29.778  29.244  1.00  0.00     0.031 C 
ATOM     42  C   UNL A   1      37.761  33.967  34.649  1.00  0.00     0.029 A 
ATOM     43  C   UNL A   1      38.861  33.016  34.756  1.00  0.00     0.049 A 
ATOM     44  H   UNL A   1      39.549  31.705  33.288  1.00  0.00     0.167 HD
ATOM     45  C   UNL A   1      40.588  28.677  30.302  1.00  0.00     0.034 A 
ATOM     46  C   UNL A   1      39.630  32.833  35.848  1.00  0.00     0.034 A 
ATOM     47  C   UNL A   1      41.574  28.543  31.339  1.00  0.00     0.049 A 
ATOM     48  C   UNL A   1      40.745  31.823  35.794  1.00  0.00     0.074 A 
ATOM     49  C   UNL A   1      42.671  27.703  31.378  1.00  0.00     0.029 A 
ATOM     50  N   UNL A   1      41.574  29.257  32.527  1.00  0.00    -0.354 N 
ATOM     51  N   UNL A   1      41.094  31.031  34.810  1.00  0.00    -0.248 NA
ATOM     52  C   UNL A   1      41.595  31.709  36.988  1.00  0.00     0.031 C 
ATOM     53  C   UNL A   1      43.316  27.882  32.606  1.00  0.00     0.029 A 
ATOM     54  C   UNL A   1      42.643  28.866  33.313  1.00  0.00     0.049 A 
ATOM     55  H   UNL A   1      40.912  29.942  32.775  1.00  0.00     0.167 HD
ATOM     56  C   UNL A   1      42.224  30.352  35.250  1.00  0.00     0.074 A 
ATOM     57  C   UNL A   1      42.514  30.843  36.582  1.00  0.00     0.031 C 
ATOM     58  C   UNL A   1      42.950  29.398  34.616  1.00  0.00     0.034 A 
BRANCH  45  59
ATOM     59  C   UNL A   1      40.675  27.752  29.115  1.00  0.00     0.023 A 
ATOM     60  C   UNL A   1      39.808  26.643  29.026  1.00  0.00     0.012 A 
ATOM     61  C   UNL A   1      41.569  28.016  28.059  1.00  0.00     0.148 A 
ATOM     62  C   UNL A   1      39.854  25.793  27.923  1.00  0.00     0.002 A 
ATOM     63  C   UNL A   1      41.575  27.192  26.940  1.00  0.00     0.091 A 
ATOM     64  F   UNL A   1      42.401  29.062  28.172  1.00  0.00    -0.205 F 
ATOM     65  C   UNL A   1      40.728  26.073  26.876  1.00  0.00     0.022 A 
BRANCH  63  66
ATOM     66  S   UNL A   1      42.601  27.517  25.502  1.00  0.00     0.127 S 
ATOM     67  O   UNL A   1      43.938  27.532  26.093  1.00  0.00    -0.237 OA
ATOM     68  O   UNL A   1      42.320  26.354  24.659  1.00  0.00    -0.237 OA
ATOM     69  O   UNL A   1      42.143  28.788  24.959  1.00  0.00    -0.744 OA
ENDBRANCH  63  66
ENDBRANCH  45  59
BRANCH  46  70
ATOM     70  C   UNL A   1      39.404  33.658  37.069  1.00  0.00     0.023 A 
ATOM     71  C   UNL A   1      39.862  34.990  37.103  1.00  0.00     0.012 A 
ATOM     72  C   UNL A   1      38.726  33.136  38.186  1.00  0.00     0.148 A 
ATOM     73  C   UNL A   1      39.684  35.774  38.244  1.00  0.00     0.002 A 
ATOM     74  C   UNL A   1      38.500  33.941  39.297  1.00  0.00     0.091 A 
ATOM     75  F   UNL A   1      38.306  31.864  38.137  1.00  0.00    -0.205 F 
ATOM     76  C   UNL A   1      38.995  35.254  39.335  1.00  0.00     0.022 A 
BRANCH  74  77
ATOM     77  S   UNL A   1      37.510  33.400  40.694  1.00  0.00     0.127 S 
ATOM     78  O   UNL A   1      38.336  32.328  41.246  1.00  0.00    -0.237 OA
ATOM     79  O   UNL A   1      37.451  34.615  41.508  1.00  0.00    -0.237 OA
ATOM     80  O   UNL A   1      36.231  32.989  40.133  1.00  0.00    -0.744 OA
ENDBRANCH  74  77
ENDBRANCH  46  70
BRANCH  58  81
ATOM     81  C   UNL A   1      44.159  28.850  35.327  1.00  0.00     0.023 A 
ATOM     82  C   UNL A   1      45.425  29.430  35.118  1.00  0.00     0.012 A 
ATOM     83  C   UNL A   1      44.022  27.803  36.260  1.00  0.00     0.148 A 
ATOM     84  C   UNL A   1      46.544  28.952  35.801  1.00  0.00     0.002 A 
ATOM     85  C   UNL A   1      45.131  27.369  36.977  1.00  0.00     0.091 A 
ATOM     86  F   UNL A   1      42.812  27.253  36.433  1.00  0.00    -0.205 F 
ATOM     87  C   UNL A   1      46.394  27.933  36.738  1.00  0.00     0.022 A 
BRANCH  85  88
ATOM     88  S   UNL A   1      45.015  26.133  38.275  1.00  0.00     0.127 S 
ATOM     89  O   UNL A   1      44.579  24.955  37.525  1.00  0.00    -0.237 OA
ATOM     90  O   UNL A   1      46.393  26.069  38.764  1.00  0.00    -0.237 OA
ATOM     91  O   UNL A   1      44.054  26.649  39.240  1.00  0.00    -0.744 OA
ENDBRANCH  85  88
ENDBRANCH  58  81
ENDBRANCH  32  33
ENDBRANCH  24  27
ENDBRANCH  22  23
ENDBRANCH   1  22
TORSDOF 17
ENDMDL
MODEL 3
REMARK VINA RESULT:     -10.1      6.251     10.624
REMARK SMILES Cc1ccc(O)c(C[C@H](NC=O)C(=O)NCCCNC(=O)c2ccc(-c3c4nc(c(-c5cccc(S(=O)(=O)[O-])c5F)c5ccc([nH]5)c(-c5cccc(S(=O)(=O)[O-])c5F)c5nc(c(-c6cccc(S(=O)(=O)[O-])c6F)c6ccc3[nH]6)C=C5)C=C4)cc2)n1
REMARK SMILES IDX 17 1 16 2 15 3 13 4 14 5 9 7 8 8 7 9 1 10 2 11 3 12 85 13
REMARK SMILES IDX 4 14 5 15 6 16 10 18 11 19 12 21 18 22 19 23 20 24 21 26
REMARK SMILES IDX 22 27 23 28 84 29 24 30 83 31 25 32 26 33 27 34 77 35 28 36
REMARK SMILES IDX 82 37 76 38 78 39 29 40 81 41 75 42 74 43 30 45 62 46 42 47
REMARK SMILES IDX 61 48 43 49 46 50 60 51 79 52 44 53 45 54 59 56 80 57 47 58
REMARK SMILES IDX 31 59 32 60 40 61 33 62 35 63 41 64 34 65 36 66 37 67 38 68
REMARK SMILES IDX 39 69 63 70 64 71 72 72 65 73 67 74 73 75 66 76 68 77 69 78
REMARK SMILES IDX 70 79 71 80 48 81 49 82 57 83 50 84 52 85 58 86 51 87 53 88
REMARK SMILES IDX 54 89 55 90 56 91
REMARK H PARENT 15 6 6 17 10 20 19 25 78 44 46 55
REMARK Flexibility Score: inf
ROOT
ATOM      1  C   UNL A   1      37.778  19.960  25.005  1.00  0.00     0.042 C 
ENDROOT
BRANCH   1   2
ATOM      2  C   UNL A   1      36.742  21.059  24.914  1.00  0.00     0.117 C 
BRANCH   2   3
ATOM      3  N   UNL A   1      35.484  20.690  25.546  1.00  0.00    -0.354 N 
ATOM      4  C   UNL A   1      34.330  21.418  25.633  1.00  0.00     0.242 C 
ATOM      5  O   UNL A   1      33.292  20.834  25.959  1.00  0.00    -0.273 OA
ATOM      6  H   UNL A   1      35.462  19.800  25.965  1.00  0.00     0.163 HD
BRANCH   4   7
ATOM      7  C   UNL A   1      34.332  22.930  25.345  1.00  0.00     0.177 C 
BRANCH   7   8
ATOM      8  C   UNL A   1      33.789  23.830  26.474  1.00  0.00     0.095 C 
BRANCH   8   9
ATOM      9  C   UNL A   1      32.395  24.365  26.260  1.00  0.00     0.085 A 
ATOM     10  C   UNL A   1      31.111  27.327  24.489  1.00  0.00     0.067 C 
ATOM     11  C   UNL A   1      31.107  26.084  25.325  1.00  0.00     0.038 A 
ATOM     12  C   UNL A   1      29.933  25.502  25.774  1.00  0.00     0.027 A 
ATOM     13  N   UNL A   1      32.315  25.543  25.593  1.00  0.00    -0.254 NA
ATOM     14  C   UNL A   1      30.013  24.318  26.506  1.00  0.00     0.050 A 
ATOM     15  C   UNL A   1      31.256  23.737  26.746  1.00  0.00     0.137 A 
BRANCH  15  16
ATOM     16  O   UNL A   1      31.355  22.578  27.455  1.00  0.00    -0.506 OA
ATOM     17  H   UNL A   1      30.621  21.996  27.506  1.00  0.00     0.293 HD
ENDBRANCH  15  16
ENDBRANCH   8   9
ENDBRANCH   7   8
BRANCH   7  18
ATOM     18  N   UNL A   1      33.624  23.125  24.072  1.00  0.00    -0.347 N 
ATOM     19  C   UNL A   1      34.206  23.385  22.875  1.00  0.00     0.337 C 
ATOM     20  H   UNL A   1      32.642  23.060  24.088  1.00  0.00     0.164 HD
ATOM     21  O   UNL A   1      33.564  23.526  21.843  1.00  0.00    -0.279 OA
ENDBRANCH   7  18
ENDBRANCH   4   7
ENDBRANCH   2   3
ENDBRANCH   1   2
BRANCH   1  22
ATOM     22  C   UNL A   1      39.031  20.377  25.756  1.00  0.00     0.118 C 
BRANCH  22  23
ATOM     23  N   UNL A   1      39.991  19.290  25.920  1.00  0.00    -0.352 N 
ATOM     24  C   UNL A   1      41.346  19.352  26.145  1.00  0.00     0.251 C 
ATOM     25  H   UNL A   1      39.615  18.383  25.862  1.00  0.00     0.163 HD
ATOM     26  O   UNL A   1      42.024  18.328  26.113  1.00  0.00    -0.269 OA
BRANCH  24  27
ATOM     27  C   UNL A   1      41.981  20.663  26.394  1.00  0.00     0.039 A 
ATOM     28  C   UNL A   1      42.252  21.506  25.314  1.00  0.00     0.014 A 
ATOM     29  C   UNL A   1      42.257  21.078  27.698  1.00  0.00     0.014 A 
ATOM     30  C   UNL A   1      42.728  22.796  25.553  1.00  0.00     0.010 A 
ATOM     31  C   UNL A   1      42.624  22.395  27.938  1.00  0.00     0.010 A 
ATOM     32  C   UNL A   1      42.875  23.267  26.869  1.00  0.00    -0.014 A 
BRANCH  32  33
ATOM     33  C   UNL A   1      43.289  24.666  27.151  1.00  0.00     0.031 A 
ATOM     34  C   UNL A   1      42.329  25.618  27.813  1.00  0.00     0.074 A 
ATOM     35  C   UNL A   1      44.492  25.105  26.729  1.00  0.00     0.049 A 
ATOM     36  N   UNL A   1      42.485  26.886  28.088  1.00  0.00    -0.248 NA
ATOM     37  C   UNL A   1      41.006  25.085  28.187  1.00  0.00     0.031 C 
ATOM     38  C   UNL A   1      45.475  24.308  25.992  1.00  0.00     0.029 A 
ATOM     39  N   UNL A   1      45.081  26.341  26.832  1.00  0.00    -0.354 N 
ATOM     40  C   UNL A   1      41.274  27.311  28.622  1.00  0.00     0.074 A 
ATOM     41  C   UNL A   1      40.380  26.176  28.599  1.00  0.00     0.031 C 
ATOM     42  C   UNL A   1      46.546  25.070  25.718  1.00  0.00     0.029 A 
ATOM     43  C   UNL A   1      46.314  26.418  26.226  1.00  0.00     0.049 A 
ATOM     44  H   UNL A   1      44.662  27.101  27.297  1.00  0.00     0.167 HD
ATOM     45  C   UNL A   1      40.943  28.527  29.114  1.00  0.00     0.034 A 
ATOM     46  C   UNL A   1      47.157  27.460  26.082  1.00  0.00     0.034 A 
ATOM     47  C   UNL A   1      41.850  29.640  29.179  1.00  0.00     0.049 A 
ATOM     48  C   UNL A   1      46.784  28.788  26.683  1.00  0.00     0.074 A 
ATOM     49  C   UNL A   1      41.647  30.881  29.755  1.00  0.00     0.029 A 
ATOM     50  N   UNL A   1      43.125  29.654  28.637  1.00  0.00    -0.354 N 
ATOM     51  N   UNL A   1      45.700  29.121  27.341  1.00  0.00    -0.248 NA
ATOM     52  C   UNL A   1      47.766  29.874  26.556  1.00  0.00     0.031 C 
ATOM     53  C   UNL A   1      42.787  31.658  29.529  1.00  0.00     0.029 A 
ATOM     54  C   UNL A   1      43.716  30.886  28.850  1.00  0.00     0.049 A 
ATOM     55  H   UNL A   1      43.549  28.898  28.169  1.00  0.00     0.167 HD
ATOM     56  C   UNL A   1      45.884  30.440  27.737  1.00  0.00     0.074 A 
ATOM     57  C   UNL A   1      47.194  30.839  27.265  1.00  0.00     0.031 C 
ATOM     58  C   UNL A   1      45.040  31.254  28.419  1.00  0.00     0.034 A 
BRANCH  45  59
ATOM     59  C   UNL A   1      39.552  28.710  29.665  1.00  0.00     0.023 A 
ATOM     60  C   UNL A   1      39.249  28.261  30.967  1.00  0.00     0.012 A 
ATOM     61  C   UNL A   1      38.565  29.383  28.919  1.00  0.00     0.148 A 
ATOM     62  C   UNL A   1      37.977  28.446  31.505  1.00  0.00     0.002 A 
ATOM     63  C   UNL A   1      37.313  29.608  29.481  1.00  0.00     0.091 A 
ATOM     64  F   UNL A   1      38.864  29.783  27.675  1.00  0.00    -0.205 F 
ATOM     65  C   UNL A   1      37.013  29.129  30.767  1.00  0.00     0.022 A 
BRANCH  63  66
ATOM     66  S   UNL A   1      36.032  30.551  28.648  1.00  0.00     0.127 S 
ATOM     67  O   UNL A   1      35.411  29.527  27.809  1.00  0.00    -0.237 OA
ATOM     68  O   UNL A   1      35.208  31.004  29.769  1.00  0.00    -0.237 OA
ATOM     69  O   UNL A   1      36.718  31.615  27.928  1.00  0.00    -0.744 OA
ENDBRANCH  63  66
ENDBRANCH  45  59
BRANCH  46  70
ATOM     70  C   UNL A   1      48.459  27.278  25.380  1.00  0.00     0.023 A 
ATOM     71  C   UNL A   1      49.600  26.903  26.117  1.00  0.00     0.012 A 
ATOM     72  C   UNL A   1      48.569  27.457  23.989  1.00  0.00     0.148 A 
ATOM     73  C   UNL A   1      50.836  26.751  25.486  1.00  0.00     0.002 A 
ATOM     74  C   UNL A   1      49.790  27.247  23.357  1.00  0.00     0.091 A 
ATOM     75  F   UNL A   1      47.474  27.822  23.307  1.00  0.00    -0.205 F 
ATOM     76  C   UNL A   1      50.929  26.913  24.107  1.00  0.00     0.022 A 
BRANCH  74  77
ATOM     77  S   UNL A   1      49.975  27.304  21.572  1.00  0.00     0.127 S 
ATOM     78  O   UNL A   1      51.375  26.923  21.405  1.00  0.00    -0.237 OA
ATOM     79  O   UNL A   1      49.005  26.297  21.138  1.00  0.00    -0.237 OA
ATOM     80  O   UNL A   1      49.638  28.668  21.187  1.00  0.00    -0.744 OA
ENDBRANCH  74  77
ENDBRANCH  46  70
BRANCH  58  81
ATOM     81  C   UNL A   1      45.518  32.645  28.742  1.00  0.00     0.023 A 
ATOM     82  C   UNL A   1      46.292  32.876  29.896  1.00  0.00     0.012 A 
ATOM     83  C   UNL A   1      45.260  33.710  27.858  1.00  0.00     0.148 A 
ATOM     84  C   UNL A   1      46.770  34.154  30.184  1.00  0.00     0.002 A 
ATOM     85  C   UNL A   1      45.785  34.969  28.121  1.00  0.00     0.091 A 
ATOM     86  F   UNL A   1      44.508  33.474  26.773  1.00  0.00    -0.205 F 
ATOM     87  C   UNL A   1      46.528  35.196  29.291  1.00  0.00     0.022 A 
BRANCH  85  88
ATOM     88  S   UNL A   1      45.611  36.345  26.980  1.00  0.00     0.127 S 
ATOM     89  O   UNL A   1      46.349  37.401  27.672  1.00  0.00    -0.237 OA
ATOM     90  O   UNL A   1      46.265  35.832  25.775  1.00  0.00    -0.237 OA
ATOM     91  O   UNL A   1      44.179  36.574  26.839  1.00  0.00    -0.744 OA
ENDBRANCH  85  88
ENDBRANCH  58  81
ENDBRANCH  32  33
ENDBRANCH  24  27
ENDBRANCH  22  23
ENDBRANCH   1  22
TORSDOF 17
ENDMDL
