MODEL 1
REMARK VINA RESULT:     -12.3      0.000      0.000
REMARK SMILES O=C(NCCCNC(=O)[C@@H]1C=C[C@@H](NC(=O)[C@@H]2CCS(=O)(=O)C2)C1)c1ccc(-c2c3nc(c(-c4cccc(S(=O)(=O)[O-])c4F)c4ccc([nH]4)c(-c4cccc(S(=O)(=O)[O-])c4F)c4nc(c(-c5cccc(S(=O)(=O)[O-])c5F)c5ccc2[nH]5)C=C4)C=C3)cc1
REMARK SMILES IDX 4 1 3 2 1 3 2 4 25 6 26 7 87 8 27 9 86 10 28 11 29 12 30 13
REMARK SMILES IDX 80 14 31 15 85 16 79 17 81 18 32 19 84 20 78 21 77 22 33 24
REMARK SMILES IDX 65 25 45 26 64 27 46 28 49 29 63 30 82 31 47 32 48 33 62 35
REMARK SMILES IDX 83 36 50 37 34 38 35 39 43 40 36 41 38 42 44 43 37 44 39 45
REMARK SMILES IDX 40 46 41 47 42 48 66 49 67 50 75 51 68 52 70 53 76 54 69 55
REMARK SMILES IDX 71 56 72 57 73 58 74 59 51 60 52 61 60 62 53 63 55 64 61 65
REMARK SMILES IDX 54 66 56 67 57 68 58 69 59 70 5 71 6 72 7 73 8 74 9 76 10 77
REMARK SMILES IDX 11 78 24 79 12 80 13 81 14 82 15 83 16 85 17 86 18 87 23 88
REMARK SMILES IDX 19 89 20 90 21 91 22 92
REMARK H PARENT 3 5 81 23 49 34 7 75 14 84
REMARK Flexibility Score: inf
ROOT
ATOM      1  C   UNL A   1      32.616  32.066  27.310  1.00  0.00     0.118 C 
ENDROOT
BRANCH   1   2
ATOM      2  N   UNL A   1      32.561  33.499  27.557  1.00  0.00    -0.352 N 
ATOM      3  O   UNL A   1      32.845  35.393  28.727  1.00  0.00    -0.269 OA
ATOM      4  C   UNL A   1      33.241  34.259  28.475  1.00  0.00     0.251 C 
ATOM      5  H   UNL A   1      31.942  33.999  26.978  1.00  0.00     0.163 HD
BRANCH   4   6
ATOM      6  C   UNL A   1      34.433  33.711  29.157  1.00  0.00     0.039 A 
ATOM      7  C   UNL A   1      34.307  32.673  30.083  1.00  0.00     0.014 A 
ATOM      8  C   UNL A   1      35.696  34.208  28.828  1.00  0.00     0.014 A 
ATOM      9  C   UNL A   1      35.422  32.224  30.781  1.00  0.00     0.010 A 
ATOM     10  C   UNL A   1      36.827  33.692  29.464  1.00  0.00     0.010 A 
ATOM     11  C   UNL A   1      36.696  32.714  30.464  1.00  0.00    -0.014 A 
BRANCH  11  12
ATOM     12  C   UNL A   1      37.895  32.138  31.122  1.00  0.00     0.031 A 
ATOM     13  C   UNL A   1      38.647  30.999  30.497  1.00  0.00     0.074 A 
ATOM     14  C   UNL A   1      38.269  32.619  32.323  1.00  0.00     0.049 A 
ATOM     15  N   UNL A   1      39.668  30.332  30.968  1.00  0.00    -0.248 NA
ATOM     16  C   UNL A   1      38.185  30.540  29.178  1.00  0.00     0.031 C 
ATOM     17  C   UNL A   1      37.588  33.698  33.043  1.00  0.00     0.029 A 
ATOM     18  N   UNL A   1      39.287  32.247  33.163  1.00  0.00    -0.354 N 
ATOM     19  C   UNL A   1      39.942  29.343  30.032  1.00  0.00     0.074 A 
ATOM     20  C   UNL A   1      38.976  29.498  28.965  1.00  0.00     0.031 C 
ATOM     21  C   UNL A   1      38.195  33.892  34.221  1.00  0.00     0.029 A 
ATOM     22  C   UNL A   1      39.266  32.912  34.366  1.00  0.00     0.049 A 
ATOM     23  H   UNL A   1      39.964  31.573  32.928  1.00  0.00     0.167 HD
ATOM     24  C   UNL A   1      40.913  28.398  30.058  1.00  0.00     0.034 A 
ATOM     25  C   UNL A   1      39.991  32.726  35.486  1.00  0.00     0.034 A 
ATOM     26  C   UNL A   1      41.872  28.264  31.123  1.00  0.00     0.049 A 
ATOM     27  C   UNL A   1      41.058  31.672  35.496  1.00  0.00     0.074 A 
ATOM     28  C   UNL A   1      42.945  27.392  31.207  1.00  0.00     0.029 A 
ATOM     29  N   UNL A   1      41.860  28.996  32.301  1.00  0.00    -0.354 N 
ATOM     30  N   UNL A   1      41.393  30.835  34.545  1.00  0.00    -0.248 NA
ATOM     31  C   UNL A   1      41.867  31.554  36.717  1.00  0.00     0.031 C 
ATOM     32  C   UNL A   1      43.548  27.564  32.457  1.00  0.00     0.029 A 
ATOM     33  C   UNL A   1      42.888  28.580  33.130  1.00  0.00     0.049 A 
ATOM     34  H   UNL A   1      41.214  29.708  32.516  1.00  0.00     0.167 HD
ATOM     35  C   UNL A   1      42.472  30.111  35.037  1.00  0.00     0.074 A 
ATOM     36  C   UNL A   1      42.739  30.616  36.369  1.00  0.00     0.031 C 
ATOM     37  C   UNL A   1      43.172  29.118  34.437  1.00  0.00     0.034 A 
BRANCH  24  38
ATOM     38  C   UNL A   1      40.982  27.434  28.902  1.00  0.00     0.023 A 
ATOM     39  C   UNL A   1      40.123  26.316  28.861  1.00  0.00     0.012 A 
ATOM     40  C   UNL A   1      41.877  27.654  27.836  1.00  0.00     0.148 A 
ATOM     41  C   UNL A   1      40.191  25.405  27.806  1.00  0.00     0.002 A 
ATOM     42  C   UNL A   1      41.905  26.769  26.765  1.00  0.00     0.091 A 
ATOM     43  F   UNL A   1      42.699  28.711  27.897  1.00  0.00    -0.205 F 
ATOM     44  C   UNL A   1      41.075  25.636  26.755  1.00  0.00     0.022 A 
BRANCH  42  45
ATOM     45  S   UNL A   1      42.950  27.027  25.327  1.00  0.00     0.127 S 
ATOM     46  O   UNL A   1      44.252  27.266  25.949  1.00  0.00    -0.237 OA
ATOM     47  O   UNL A   1      42.835  25.747  24.627  1.00  0.00    -0.237 OA
ATOM     48  O   UNL A   1      42.375  28.160  24.614  1.00  0.00    -0.744 OA
ENDBRANCH  42  45
ENDBRANCH  24  38
BRANCH  25  49
ATOM     49  C   UNL A   1      39.713  33.575  36.676  1.00  0.00     0.023 A 
ATOM     50  C   UNL A   1      40.052  34.940  36.657  1.00  0.00     0.012 A 
ATOM     51  C   UNL A   1      39.030  33.047  37.790  1.00  0.00     0.148 A 
ATOM     52  C   UNL A   1      39.729  35.763  37.736  1.00  0.00     0.002 A 
ATOM     53  C   UNL A   1      38.657  33.884  38.833  1.00  0.00     0.091 A 
ATOM     54  F   UNL A   1      38.719  31.743  37.782  1.00  0.00    -0.205 F 
ATOM     55  C   UNL A   1      39.021  35.240  38.815  1.00  0.00     0.022 A 
BRANCH  53  56
ATOM     56  S   UNL A   1      37.622  33.333  40.192  1.00  0.00     0.127 S 
ATOM     57  O   UNL A   1      37.562  34.530  41.026  1.00  0.00    -0.237 OA
ATOM     58  O   UNL A   1      36.377  33.000  39.499  1.00  0.00    -0.237 OA
ATOM     59  O   UNL A   1      38.310  32.191  40.779  1.00  0.00    -0.744 OA
ENDBRANCH  53  56
ENDBRANCH  25  49
BRANCH  37  60
ATOM     60  C   UNL A   1      44.340  28.529  35.183  1.00  0.00     0.023 A 
ATOM     61  C   UNL A   1      45.635  29.051  34.999  1.00  0.00     0.012 A 
ATOM     62  C   UNL A   1      44.126  27.528  36.151  1.00  0.00     0.148 A 
ATOM     63  C   UNL A   1      46.703  28.572  35.760  1.00  0.00     0.002 A 
ATOM     64  C   UNL A   1      45.183  27.094  36.940  1.00  0.00     0.091 A 
ATOM     65  F   UNL A   1      42.888  27.033  36.293  1.00  0.00    -0.205 F 
ATOM     66  C   UNL A   1      46.475  27.607  36.738  1.00  0.00     0.022 A 
BRANCH  64  67
ATOM     67  S   UNL A   1      44.963  25.933  38.293  1.00  0.00     0.127 S 
ATOM     68  O   UNL A   1      46.318  25.854  38.839  1.00  0.00    -0.237 OA
ATOM     69  O   UNL A   1      44.001  26.634  39.145  1.00  0.00    -0.237 OA
ATOM     70  O   UNL A   1      44.465  24.703  37.696  1.00  0.00    -0.744 OA
ENDBRANCH  64  67
ENDBRANCH  37  60
ENDBRANCH  11  12
ENDBRANCH   4   6
ENDBRANCH   1   2
BRANCH   1  71
ATOM     71  C   UNL A   1      31.470  31.598  26.417  1.00  0.00     0.042 C 
BRANCH  71  72
ATOM     72  C   UNL A   1      31.792  30.318  25.654  1.00  0.00     0.117 C 
BRANCH  72  73
ATOM     73  N   UNL A   1      30.818  30.092  24.604  1.00  0.00    -0.356 N 
ATOM     74  C   UNL A   1      30.713  29.026  23.765  1.00  0.00     0.227 C 
ATOM     75  H   UNL A   1      30.148  30.802  24.484  1.00  0.00     0.163 HD
ATOM     76  O   UNL A   1      30.020  29.162  22.758  1.00  0.00    -0.274 OA
BRANCH  74  77
ATOM     77  C   UNL A   1      31.471  27.737  24.096  1.00  0.00     0.103 C 
ATOM     78  C   UNL A   1      30.999  26.605  23.221  1.00  0.00    -0.016 C 
ATOM     79  C   UNL A   1      31.102  27.205  25.490  1.00  0.00     0.047 C 
ATOM     80  C   UNL A   1      30.127  25.818  23.866  1.00  0.00    -0.006 C 
ATOM     81  C   UNL A   1      29.860  26.353  25.233  1.00  0.00     0.106 C 
BRANCH  81  82
ATOM     82  N   UNL A   1      29.660  25.291  26.172  1.00  0.00    -0.350 N 
ATOM     83  C   UNL A   1      30.369  24.163  26.405  1.00  0.00     0.224 C 
ATOM     84  H   UNL A   1      28.869  25.401  26.749  1.00  0.00     0.164 HD
ATOM     85  O   UNL A   1      29.894  23.383  27.241  1.00  0.00    -0.275 OA
BRANCH  83  86
ATOM     86  C   UNL A   1      31.661  23.758  25.689  1.00  0.00     0.094 C 
ATOM     87  C   UNL A   1      31.793  22.377  25.044  1.00  0.00     0.030 C 
ATOM     88  C   UNL A   1      32.915  24.058  26.494  1.00  0.00     0.150 C 
ATOM     89  C   UNL A   1      32.714  21.471  25.866  1.00  0.00     0.138 C 
ATOM     90  S   UNL A   1      33.544  22.507  27.065  1.00  0.00     0.151 S 
ATOM     91  O   UNL A   1      32.995  22.299  28.390  1.00  0.00    -0.229 OA
ATOM     92  O   UNL A   1      34.967  22.469  26.813  1.00  0.00    -0.229 OA
ENDBRANCH  83  86
ENDBRANCH  81  82
ENDBRANCH  74  77
ENDBRANCH  72  73
ENDBRANCH  71  72
ENDBRANCH   1  71
TORSDOF 15
ENDMDL
MODEL 2
REMARK VINA RESULT:     -12.3      6.266     11.445
REMARK SMILES O=C(NCCCNC(=O)[C@@H]1C=C[C@@H](NC(=O)[C@@H]2CCS(=O)(=O)C2)C1)c1ccc(-c2c3nc(c(-c4cccc(S(=O)(=O)[O-])c4F)c4ccc([nH]4)c(-c4cccc(S(=O)(=O)[O-])c4F)c4nc(c(-c5cccc(S(=O)(=O)[O-])c5F)c5ccc2[nH]5)C=C4)C=C3)cc1
REMARK SMILES IDX 4 1 3 2 1 3 2 4 25 6 26 7 87 8 27 9 86 10 28 11 29 12 30 13
REMARK SMILES IDX 80 14 31 15 85 16 79 17 81 18 32 19 84 20 78 21 77 22 33 24
REMARK SMILES IDX 65 25 45 26 64 27 46 28 49 29 63 30 82 31 47 32 48 33 62 35
REMARK SMILES IDX 83 36 50 37 34 38 35 39 43 40 36 41 38 42 44 43 37 44 39 45
REMARK SMILES IDX 40 46 41 47 42 48 66 49 67 50 75 51 68 52 70 53 76 54 69 55
REMARK SMILES IDX 71 56 72 57 73 58 74 59 51 60 52 61 60 62 53 63 55 64 61 65
REMARK SMILES IDX 54 66 56 67 57 68 58 69 59 70 5 71 6 72 7 73 8 74 9 76 10 77
REMARK SMILES IDX 11 78 24 79 12 80 13 81 14 82 15 83 16 85 17 86 18 87 23 88
REMARK SMILES IDX 19 89 20 90 21 91 22 92
REMARK H PARENT 3 5 81 23 49 34 7 75 14 84
REMARK Flexibility Score: inf
ROOT
ATOM      1  C   UNL A   1      38.693  20.394  25.743  1.00  0.00     0.118 C 
ENDROOT
BRANCH   1   2
ATOM      2  N   UNL A   1      39.789  19.457  25.946  1.00  0.00    -0.352 N 
ATOM      3  O   UNL A   1      41.927  18.777  25.986  1.00  0.00    -0.269 OA
ATOM      4  C   UNL A   1      41.128  19.697  26.128  1.00  0.00     0.251 C 
ATOM      5  H   UNL A   1      39.531  18.509  25.953  1.00  0.00     0.163 HD
BRANCH   4   6
ATOM      6  C   UNL A   1      41.599  21.053  26.482  1.00  0.00     0.039 A 
ATOM      7  C   UNL A   1      41.733  22.038  25.500  1.00  0.00     0.014 A 
ATOM      8  C   UNL A   1      41.861  21.358  27.820  1.00  0.00     0.014 A 
ATOM      9  C   UNL A   1      42.257  23.283  25.829  1.00  0.00     0.010 A 
ATOM     10  C   UNL A   1      42.301  22.637  28.163  1.00  0.00     0.010 A 
ATOM     11  C   UNL A   1      42.526  23.602  27.167  1.00  0.00    -0.014 A 
BRANCH  11  12
ATOM     12  C   UNL A   1      42.964  24.974  27.526  1.00  0.00     0.031 A 
ATOM     13  C   UNL A   1      42.015  25.944  28.166  1.00  0.00     0.074 A 
ATOM     14  C   UNL A   1      44.218  25.356  27.217  1.00  0.00     0.049 A 
ATOM     15  N   UNL A   1      42.209  27.199  28.479  1.00  0.00    -0.248 NA
ATOM     16  C   UNL A   1      40.668  25.447  28.485  1.00  0.00     0.031 C 
ATOM     17  C   UNL A   1      45.214  24.508  26.557  1.00  0.00     0.029 A 
ATOM     18  N   UNL A   1      44.859  26.557  27.384  1.00  0.00    -0.354 N 
ATOM     19  C   UNL A   1      41.000  27.658  28.985  1.00  0.00     0.074 A 
ATOM     20  C   UNL A   1      40.075  26.544  28.934  1.00  0.00     0.031 C 
ATOM     21  C   UNL A   1      46.334  25.217  26.362  1.00  0.00     0.029 A 
ATOM     22  C   UNL A   1      46.114  26.583  26.824  1.00  0.00     0.049 A 
ATOM     23  H   UNL A   1      44.461  27.322  27.858  1.00  0.00     0.167 HD
ATOM     24  C   UNL A   1      40.691  28.891  29.452  1.00  0.00     0.034 A 
ATOM     25  C   UNL A   1      46.979  27.601  26.653  1.00  0.00     0.034 A 
ATOM     26  C   UNL A   1      41.625  29.986  29.503  1.00  0.00     0.049 A 
ATOM     27  C   UNL A   1      46.616  28.961  27.173  1.00  0.00     0.074 A 
ATOM     28  C   UNL A   1      41.435  31.252  30.032  1.00  0.00     0.029 A 
ATOM     29  N   UNL A   1      42.910  29.960  28.983  1.00  0.00    -0.354 N 
ATOM     30  N   UNL A   1      45.516  29.342  27.774  1.00  0.00    -0.248 NA
ATOM     31  C   UNL A   1      47.621  30.021  27.023  1.00  0.00     0.031 C 
ATOM     32  C   UNL A   1      42.588  32.004  29.786  1.00  0.00     0.029 A 
ATOM     33  C   UNL A   1      43.517  31.192  29.153  1.00  0.00     0.049 A 
ATOM     34  H   UNL A   1      43.329  29.178  28.555  1.00  0.00     0.167 HD
ATOM     35  C   UNL A   1      45.705  30.678  28.103  1.00  0.00     0.074 A 
ATOM     36  C   UNL A   1      47.031  31.037  27.641  1.00  0.00     0.031 C 
ATOM     37  C   UNL A   1      44.853  31.526  28.728  1.00  0.00     0.034 A 
BRANCH  24  38
ATOM     38  C   UNL A   1      39.284  29.122  29.940  1.00  0.00     0.023 A 
ATOM     39  C   UNL A   1      38.924  28.763  31.255  1.00  0.00     0.012 A 
ATOM     40  C   UNL A   1      38.324  29.728  29.105  1.00  0.00     0.148 A 
ATOM     41  C   UNL A   1      37.619  28.953  31.713  1.00  0.00     0.002 A 
ATOM     42  C   UNL A   1      37.041  29.960  29.584  1.00  0.00     0.091 A 
ATOM     43  F   UNL A   1      38.677  30.049  27.851  1.00  0.00    -0.205 F 
ATOM     44  C   UNL A   1      36.681  29.558  30.881  1.00  0.00     0.022 A 
BRANCH  42  45
ATOM     45  S   UNL A   1      35.788  30.808  28.616  1.00  0.00     0.127 S 
ATOM     46  O   UNL A   1      35.123  29.689  27.950  1.00  0.00    -0.237 OA
ATOM     47  O   UNL A   1      34.987  31.464  29.651  1.00  0.00    -0.237 OA
ATOM     48  O   UNL A   1      36.510  31.722  27.742  1.00  0.00    -0.744 OA
ENDBRANCH  42  45
ENDBRANCH  24  38
BRANCH  25  49
ATOM     49  C   UNL A   1      48.268  27.345  25.956  1.00  0.00     0.023 A 
ATOM     50  C   UNL A   1      49.356  26.811  26.670  1.00  0.00     0.012 A 
ATOM     51  C   UNL A   1      48.384  27.544  24.565  1.00  0.00     0.148 A 
ATOM     52  C   UNL A   1      50.546  26.495  26.013  1.00  0.00     0.002 A 
ATOM     53  C   UNL A   1      49.548  27.170  23.908  1.00  0.00     0.091 A 
ATOM     54  F   UNL A   1      47.331  28.053  23.909  1.00  0.00    -0.205 F 
ATOM     55  C   UNL A   1      50.636  26.662  24.632  1.00  0.00     0.022 A 
BRANCH  53  56
ATOM     56  S   UNL A   1      49.703  27.212  22.119  1.00  0.00     0.127 S 
ATOM     57  O   UNL A   1      51.086  26.778  21.930  1.00  0.00    -0.237 OA
ATOM     58  O   UNL A   1      48.690  26.240  21.711  1.00  0.00    -0.237 OA
ATOM     59  O   UNL A   1      49.416  28.585  21.727  1.00  0.00    -0.744 OA
ENDBRANCH  53  56
ENDBRANCH  25  49
BRANCH  37  60
ATOM     60  C   UNL A   1      45.333  32.927  29.008  1.00  0.00     0.023 A 
ATOM     61  C   UNL A   1      46.092  33.199  30.162  1.00  0.00     0.012 A 
ATOM     62  C   UNL A   1      45.119  33.948  28.061  1.00  0.00     0.148 A 
ATOM     63  C   UNL A   1      46.619  34.474  30.376  1.00  0.00     0.002 A 
ATOM     64  C   UNL A   1      45.690  35.198  28.254  1.00  0.00     0.091 A 
ATOM     65  F   UNL A   1      44.375  33.669  26.980  1.00  0.00    -0.205 F 
ATOM     66  C   UNL A   1      46.431  35.467  29.416  1.00  0.00     0.022 A 
BRANCH  64  67
ATOM     67  S   UNL A   1      45.591  36.504  27.024  1.00  0.00     0.127 S 
ATOM     68  O   UNL A   1      46.244  35.881  25.874  1.00  0.00    -0.237 OA
ATOM     69  O   UNL A   1      44.145  36.683  26.883  1.00  0.00    -0.237 OA
ATOM     70  O   UNL A   1      46.292  37.648  27.589  1.00  0.00    -0.744 OA
ENDBRANCH  64  67
ENDBRANCH  37  60
ENDBRANCH  11  12
ENDBRANCH   4   6
ENDBRANCH   1   2
BRANCH   1  71
ATOM     71  C   UNL A   1      37.594  19.802  24.866  1.00  0.00     0.042 C 
BRANCH  71  72
ATOM     72  C   UNL A   1      36.258  20.523  25.015  1.00  0.00     0.117 C 
BRANCH  72  73
ATOM     73  N   UNL A   1      36.321  21.840  24.414  1.00  0.00    -0.356 N 
ATOM     74  C   UNL A   1      35.332  22.526  23.779  1.00  0.00     0.227 C 
ATOM     75  H   UNL A   1      37.190  22.296  24.474  1.00  0.00     0.163 HD
ATOM     76  O   UNL A   1      35.663  23.483  23.080  1.00  0.00    -0.274 OA
BRANCH  74  77
ATOM     77  C   UNL A   1      33.880  22.065  23.939  1.00  0.00     0.103 C 
ATOM     78  C   UNL A   1      33.055  22.484  22.750  1.00  0.00    -0.016 C 
ATOM     79  C   UNL A   1      33.169  22.822  25.073  1.00  0.00     0.047 C 
ATOM     80  C   UNL A   1      32.344  23.589  23.012  1.00  0.00    -0.006 C 
ATOM     81  C   UNL A   1      32.643  24.082  24.388  1.00  0.00     0.106 C 
BRANCH  81  82
ATOM     82  N   UNL A   1      31.478  24.650  24.997  1.00  0.00    -0.350 N 
ATOM     83  C   UNL A   1      30.936  25.886  24.903  1.00  0.00     0.224 C 
ATOM     84  H   UNL A   1      30.984  24.034  25.586  1.00  0.00     0.164 HD
ATOM     85  O   UNL A   1      29.955  26.108  25.624  1.00  0.00    -0.275 OA
BRANCH  83  86
ATOM     86  C   UNL A   1      31.467  27.027  24.030  1.00  0.00     0.094 C 
ATOM     87  C   UNL A   1      31.663  28.428  24.615  1.00  0.00     0.030 C 
ATOM     88  C   UNL A   1      30.760  27.138  22.689  1.00  0.00     0.150 C 
ATOM     89  C   UNL A   1      30.586  29.391  24.110  1.00  0.00     0.138 C 
ATOM     90  S   UNL A   1      29.735  28.576  22.764  1.00  0.00     0.151 S 
ATOM     91  O   UNL A   1      28.422  28.129  23.183  1.00  0.00    -0.229 OA
ATOM     92  O   UNL A   1      29.930  29.342  21.553  1.00  0.00    -0.229 OA
ENDBRANCH  83  86
ENDBRANCH  81  82
ENDBRANCH  74  77
ENDBRANCH  72  73
ENDBRANCH  71  72
ENDBRANCH   1  71
TORSDOF 15
ENDMDL
MODEL 3
REMARK VINA RESULT:     -12.2      6.385     11.397
REMARK SMILES O=C(NCCCNC(=O)[C@@H]1C=C[C@@H](NC(=O)[C@@H]2CCS(=O)(=O)C2)C1)c1ccc(-c2c3nc(c(-c4cccc(S(=O)(=O)[O-])c4F)c4ccc([nH]4)c(-c4cccc(S(=O)(=O)[O-])c4F)c4nc(c(-c5cccc(S(=O)(=O)[O-])c5F)c5ccc2[nH]5)C=C4)C=C3)cc1
REMARK SMILES IDX 4 1 3 2 1 3 2 4 25 6 26 7 87 8 27 9 86 10 28 11 29 12 30 13
REMARK SMILES IDX 80 14 31 15 85 16 79 17 81 18 32 19 84 20 78 21 77 22 33 24
REMARK SMILES IDX 65 25 45 26 64 27 46 28 49 29 63 30 82 31 47 32 48 33 62 35
REMARK SMILES IDX 83 36 50 37 34 38 35 39 43 40 36 41 38 42 44 43 37 44 39 45
REMARK SMILES IDX 40 46 41 47 42 48 66 49 67 50 75 51 68 52 70 53 76 54 69 55
REMARK SMILES IDX 71 56 72 57 73 58 74 59 51 60 52 61 60 62 53 63 55 64 61 65
REMARK SMILES IDX 54 66 56 67 57 68 58 69 59 70 5 71 6 72 7 73 8 74 9 76 10 77
REMARK SMILES IDX 11 78 24 79 12 80 13 81 14 82 15 83 16 85 17 86 18 87 23 88
REMARK SMILES IDX 19 89 20 90 21 91 22 92
REMARK H PARENT 3 5 81 23 49 34 7 75 14 84
REMARK Flexibility Score: inf
ROOT
ATOM      1  C   UNL A   1      38.591  20.458  25.334  1.00  0.00     0.118 C 
ENDROOT
BRANCH   1   2
ATOM      2  N   UNL A   1      39.602  19.514  25.790  1.00  0.00    -0.352 N 
ATOM      3  O   UNL A   1      41.675  18.796  26.265  1.00  0.00    -0.269 OA
ATOM      4  C   UNL A   1      40.891  19.739  26.203  1.00  0.00     0.251 C 
ATOM      5  H   UNL A   1      39.318  18.573  25.804  1.00  0.00     0.163 HD
BRANCH   4   6
ATOM      6  C   UNL A   1      41.330  21.105  26.559  1.00  0.00     0.039 A 
ATOM      7  C   UNL A   1      41.409  21.501  27.896  1.00  0.00     0.014 A 
ATOM      8  C   UNL A   1      41.717  21.984  25.544  1.00  0.00     0.014 A 
ATOM      9  C   UNL A   1      41.740  22.813  28.216  1.00  0.00     0.010 A 
ATOM     10  C   UNL A   1      42.138  23.274  25.871  1.00  0.00     0.010 A 
ATOM     11  C   UNL A   1      42.129  23.706  27.208  1.00  0.00    -0.014 A 
BRANCH  11  12
ATOM     12  C   UNL A   1      42.604  25.065  27.568  1.00  0.00     0.031 A 
ATOM     13  C   UNL A   1      41.679  26.066  28.196  1.00  0.00     0.074 A 
ATOM     14  C   UNL A   1      43.873  25.407  27.272  1.00  0.00     0.049 A 
ATOM     15  N   UNL A   1      41.909  27.315  28.508  1.00  0.00    -0.248 NA
ATOM     16  C   UNL A   1      40.315  25.611  28.502  1.00  0.00     0.031 C 
ATOM     17  C   UNL A   1      44.850  24.527  26.624  1.00  0.00     0.029 A 
ATOM     18  N   UNL A   1      44.549  26.588  27.443  1.00  0.00    -0.354 N 
ATOM     19  C   UNL A   1      40.709  27.812  29.000  1.00  0.00     0.074 A 
ATOM     20  C   UNL A   1      39.752  26.728  28.943  1.00  0.00     0.031 C 
ATOM     21  C   UNL A   1      45.993  25.201  26.439  1.00  0.00     0.029 A 
ATOM     22  C   UNL A   1      45.810  26.574  26.896  1.00  0.00     0.049 A 
ATOM     23  H   UNL A   1      44.170  27.366  27.911  1.00  0.00     0.167 HD
ATOM     24  C   UNL A   1      40.434  29.056  29.461  1.00  0.00     0.034 A 
ATOM     25  C   UNL A   1      46.708  27.564  26.731  1.00  0.00     0.034 A 
ATOM     26  C   UNL A   1      41.401  30.122  29.520  1.00  0.00     0.049 A 
ATOM     27  C   UNL A   1      46.383  28.936  27.245  1.00  0.00     0.074 A 
ATOM     28  C   UNL A   1      41.245  31.394  30.044  1.00  0.00     0.029 A 
ATOM     29  N   UNL A   1      42.690  30.054  29.013  1.00  0.00    -0.354 N 
ATOM     30  N   UNL A   1      45.288  29.352  27.833  1.00  0.00    -0.248 NA
ATOM     31  C   UNL A   1      47.421  29.965  27.103  1.00  0.00     0.031 C 
ATOM     32  C   UNL A   1      42.423  32.109  29.808  1.00  0.00     0.029 A 
ATOM     33  C   UNL A   1      43.333  31.268  29.187  1.00  0.00     0.049 A 
ATOM     34  H   UNL A   1      43.089  29.258  28.591  1.00  0.00     0.167 HD
ATOM     35  C   UNL A   1      45.515  30.683  28.161  1.00  0.00     0.074 A 
ATOM     36  C   UNL A   1      46.857  30.999  27.712  1.00  0.00     0.031 C 
ATOM     37  C   UNL A   1      44.684  31.559  28.775  1.00  0.00     0.034 A 
BRANCH  24  38
ATOM     38  C   UNL A   1      39.030  29.332  29.934  1.00  0.00     0.023 A 
ATOM     39  C   UNL A   1      38.663  29.045  31.265  1.00  0.00     0.012 A 
ATOM     40  C   UNL A   1      38.080  29.908  29.067  1.00  0.00     0.148 A 
ATOM     41  C   UNL A   1      37.361  29.277  31.709  1.00  0.00     0.002 A 
ATOM     42  C   UNL A   1      36.799  30.182  29.531  1.00  0.00     0.091 A 
ATOM     43  F   UNL A   1      38.439  30.160  27.799  1.00  0.00    -0.205 F 
ATOM     44  C   UNL A   1      36.432  29.853  30.845  1.00  0.00     0.022 A 
BRANCH  42  45
ATOM     45  S   UNL A   1      35.561  30.999  28.518  1.00  0.00     0.127 S 
ATOM     46  O   UNL A   1      34.702  31.605  29.535  1.00  0.00    -0.237 OA
ATOM     47  O   UNL A   1      36.366  31.952  27.753  1.00  0.00    -0.237 OA
ATOM     48  O   UNL A   1      34.944  29.950  27.718  1.00  0.00    -0.744 OA
ENDBRANCH  42  45
ENDBRANCH  24  38
BRANCH  25  49
ATOM     49  C   UNL A   1      47.996  27.266  26.049  1.00  0.00     0.023 A 
ATOM     50  C   UNL A   1      49.047  26.667  26.766  1.00  0.00     0.012 A 
ATOM     51  C   UNL A   1      48.144  27.494  24.665  1.00  0.00     0.148 A 
ATOM     52  C   UNL A   1      50.232  26.313  26.120  1.00  0.00     0.002 A 
ATOM     53  C   UNL A   1      49.301  27.083  24.017  1.00  0.00     0.091 A 
ATOM     54  F   UNL A   1      47.127  28.066  24.005  1.00  0.00    -0.205 F 
ATOM     55  C   UNL A   1      50.353  26.508  24.746  1.00  0.00     0.022 A 
BRANCH  53  56
ATOM     56  S   UNL A   1      49.488  27.161  22.233  1.00  0.00     0.127 S 
ATOM     57  O   UNL A   1      49.091  28.539  21.952  1.00  0.00    -0.237 OA
ATOM     58  O   UNL A   1      50.916  26.886  22.073  1.00  0.00    -0.237 OA
ATOM     59  O   UNL A   1      48.610  26.131  21.695  1.00  0.00    -0.744 OA
ENDBRANCH  53  56
ENDBRANCH  25  49
BRANCH  37  60
ATOM     60  C   UNL A   1      45.203  32.945  29.057  1.00  0.00     0.023 A 
ATOM     61  C   UNL A   1      45.959  33.197  30.218  1.00  0.00     0.012 A 
ATOM     62  C   UNL A   1      45.030  33.970  28.105  1.00  0.00     0.148 A 
ATOM     63  C   UNL A   1      46.522  34.455  30.434  1.00  0.00     0.002 A 
ATOM     64  C   UNL A   1      45.638  35.202  28.301  1.00  0.00     0.091 A 
ATOM     65  F   UNL A   1      44.290  33.711  27.017  1.00  0.00    -0.205 F 
ATOM     66  C   UNL A   1      46.376  35.451  29.470  1.00  0.00     0.022 A 
BRANCH  64  67
ATOM     67  S   UNL A   1      45.592  36.508  27.068  1.00  0.00     0.127 S 
ATOM     68  O   UNL A   1      46.190  35.845  25.910  1.00  0.00    -0.237 OA
ATOM     69  O   UNL A   1      44.156  36.766  26.950  1.00  0.00    -0.237 OA
ATOM     70  O   UNL A   1      46.365  37.612  27.616  1.00  0.00    -0.744 OA
ENDBRANCH  64  67
ENDBRANCH  37  60
ENDBRANCH  11  12
ENDBRANCH   4   6
ENDBRANCH   1   2
BRANCH   1  71
ATOM     71  C   UNL A   1      37.268  19.766  25.019  1.00  0.00     0.042 C 
BRANCH  71  72
ATOM     72  C   UNL A   1      36.070  20.705  25.098  1.00  0.00     0.117 C 
BRANCH  72  73
ATOM     73  N   UNL A   1      34.834  19.971  24.910  1.00  0.00    -0.356 N 
ATOM     74  C   UNL A   1      33.558  20.439  24.963  1.00  0.00     0.227 C 
ATOM     75  H   UNL A   1      34.932  19.011  24.719  1.00  0.00     0.163 HD
ATOM     76  O   UNL A   1      32.654  19.613  25.080  1.00  0.00    -0.274 OA
BRANCH  74  77
ATOM     77  C   UNL A   1      33.312  21.950  24.904  1.00  0.00     0.103 C 
ATOM     78  C   UNL A   1      31.871  22.241  24.573  1.00  0.00    -0.016 C 
ATOM     79  C   UNL A   1      34.026  22.592  23.703  1.00  0.00     0.047 C 
ATOM     80  C   UNL A   1      31.717  22.540  23.276  1.00  0.00    -0.006 C 
ATOM     81  C   UNL A   1      33.023  22.433  22.562  1.00  0.00     0.106 C 
BRANCH  81  82
ATOM     82  N   UNL A   1      33.130  23.421  21.531  1.00  0.00    -0.350 N 
ATOM     83  C   UNL A   1      32.918  24.756  21.553  1.00  0.00     0.224 C 
ATOM     84  H   UNL A   1      33.405  23.067  20.654  1.00  0.00     0.164 HD
ATOM     85  O   UNL A   1      33.012  25.342  20.466  1.00  0.00    -0.275 OA
BRANCH  83  86
ATOM     86  C   UNL A   1      32.524  25.577  22.785  1.00  0.00     0.094 C 
ATOM     87  C   UNL A   1      31.299  26.493  22.751  1.00  0.00     0.030 C 
ATOM     88  C   UNL A   1      33.692  26.323  23.410  1.00  0.00     0.150 C 
ATOM     89  C   UNL A   1      31.714  27.965  22.690  1.00  0.00     0.138 C 
ATOM     90  S   UNL A   1      33.468  28.036  23.035  1.00  0.00     0.151 S 
ATOM     91  O   UNL A   1      34.219  28.298  21.824  1.00  0.00    -0.229 OA
ATOM     92  O   UNL A   1      33.678  28.801  24.245  1.00  0.00    -0.229 OA
ENDBRANCH  83  86
ENDBRANCH  81  82
ENDBRANCH  74  77
ENDBRANCH  72  73
ENDBRANCH  71  72
ENDBRANCH   1  71
TORSDOF 15
ENDMDL
