MODEL 1
REMARK VINA RESULT:     -12.2      0.000      0.000
REMARK SMILES C[C@@H]1CCC[C@@]1(C(=O)NCCCNC(=O)c1ccc(-c2c3nc(c(-c4cccc(S(=O)(=O)[O-])c4F)c4ccc([nH]4)c(-c4cccc(S(=O)(=O)[O-])c4F)c4nc(c(-c5cccc(S(=O)(=O)[O-])c5F)c5ccc2[nH]5)C=C4)C=C3)cc1)c1ccc(Cl)cc1Cl
REMARK SMILES IDX 12 1 11 2 10 3 9 4 7 5 8 6 6 8 1 9 2 10 3 11 4 12 5 13 79 14
REMARK SMILES IDX 80 15 85 16 81 17 84 18 86 19 82 20 83 21 13 22 14 23 15 25
REMARK SMILES IDX 16 26 17 27 78 28 18 29 77 30 19 31 20 32 21 33 71 34 22 35
REMARK SMILES IDX 76 36 70 37 72 38 23 39 75 40 69 41 68 42 24 44 56 45 36 46
REMARK SMILES IDX 55 47 37 48 40 49 54 50 73 51 38 52 39 53 53 55 74 56 41 57
REMARK SMILES IDX 25 58 26 59 34 60 27 61 29 62 35 63 28 64 30 65 31 66 32 67
REMARK SMILES IDX 33 68 57 69 58 70 66 71 59 72 61 73 67 74 60 75 62 76 63 77
REMARK SMILES IDX 64 78 65 79 42 80 43 81 51 82 44 83 46 84 52 85 45 86 47 87
REMARK SMILES IDX 48 88 49 89 50 90
REMARK H PARENT 9 7 13 24 72 43 40 54
REMARK Flexibility Score: inf
ROOT
ATOM      1  C   UNL A   1      32.802  29.554  25.846  1.00  0.00     0.118 C 
ENDROOT
BRANCH   1   2
ATOM      2  C   UNL A   1      31.600  28.681  26.152  1.00  0.00     0.042 C 
BRANCH   2   3
ATOM      3  C   UNL A   1      31.982  27.333  26.729  1.00  0.00     0.117 C 
BRANCH   3   4
ATOM      4  N   UNL A   1      33.213  26.799  26.164  1.00  0.00    -0.355 N 
ATOM      5  C   UNL A   1      33.403  25.819  25.225  1.00  0.00     0.230 C 
ATOM      6  O   UNL A   1      34.565  25.579  24.885  1.00  0.00    -0.274 OA
ATOM      7  H   UNL A   1      34.039  27.208  26.510  1.00  0.00     0.163 HD
BRANCH   5   8
ATOM      8  C   UNL A   1      32.189  25.016  24.683  1.00  0.00     0.078 C 
ATOM      9  C   UNL A   1      32.772  23.662  26.876  1.00  0.00     0.009 C 
ATOM     10  C   UNL A   1      31.668  24.153  25.906  1.00  0.00     0.006 C 
ATOM     11  C   UNL A   1      31.028  22.897  25.303  1.00  0.00     0.005 C 
ATOM     12  C   UNL A   1      31.650  22.723  23.926  1.00  0.00     0.002 C 
ATOM     13  C   UNL A   1      32.610  23.896  23.702  1.00  0.00     0.022 C 
BRANCH   8  14
ATOM     14  C   UNL A   1      31.166  25.952  23.957  1.00  0.00    -0.013 A 
ATOM     15  C   UNL A   1      29.811  25.964  24.344  1.00  0.00     0.008 A 
ATOM     16  C   UNL A   1      31.534  26.897  22.961  1.00  0.00     0.046 A 
ATOM     17  C   UNL A   1      28.910  26.929  23.876  1.00  0.00     0.021 A 
ATOM     18  C   UNL A   1      30.649  27.905  22.546  1.00  0.00     0.041 A 
ATOM     19  Cl  UNL A   1      33.064  26.915  22.151  1.00  0.00    -0.084 Cl
ATOM     20  C   UNL A   1      29.346  27.924  23.017  1.00  0.00     0.042 A 
ATOM     21  Cl  UNL A   1      28.271  29.172  22.526  1.00  0.00    -0.084 Cl
ENDBRANCH   8  14
ENDBRANCH   5   8
ENDBRANCH   3   4
ENDBRANCH   2   3
ENDBRANCH   1   2
BRANCH   1  22
ATOM     22  N   UNL A   1      32.578  30.946  26.220  1.00  0.00    -0.352 N 
ATOM     23  C   UNL A   1      33.219  31.729  27.146  1.00  0.00     0.251 C 
ATOM     24  H   UNL A   1      31.853  31.396  25.729  1.00  0.00     0.163 HD
ATOM     25  O   UNL A   1      32.710  32.800  27.488  1.00  0.00    -0.269 OA
BRANCH  23  26
ATOM     26  C   UNL A   1      34.497  31.292  27.741  1.00  0.00     0.039 A 
ATOM     27  C   UNL A   1      35.492  32.236  28.001  1.00  0.00     0.014 A 
ATOM     28  C   UNL A   1      34.720  29.946  28.041  1.00  0.00     0.014 A 
ATOM     29  C   UNL A   1      36.678  31.835  28.618  1.00  0.00     0.010 A 
ATOM     30  C   UNL A   1      35.836  29.574  28.776  1.00  0.00     0.010 A 
ATOM     31  C   UNL A   1      36.843  30.507  29.050  1.00  0.00    -0.014 A 
BRANCH  31  32
ATOM     32  C   UNL A   1      38.060  30.084  29.785  1.00  0.00     0.031 A 
ATOM     33  C   UNL A   1      38.317  30.565  31.189  1.00  0.00     0.074 A 
ATOM     34  C   UNL A   1      38.972  29.314  29.159  1.00  0.00     0.049 A 
ATOM     35  N   UNL A   1      39.304  30.265  31.994  1.00  0.00    -0.248 NA
ATOM     36  C   UNL A   1      37.366  31.537  31.753  1.00  0.00     0.031 C 
ATOM     37  C   UNL A   1      38.892  28.874  27.763  1.00  0.00     0.029 A 
ATOM     38  N   UNL A   1      40.145  28.767  29.611  1.00  0.00    -0.354 N 
ATOM     39  C   UNL A   1      39.111  31.033  33.135  1.00  0.00     0.074 A 
ATOM     40  C   UNL A   1      37.947  31.857  32.898  1.00  0.00     0.031 C 
ATOM     41  C   UNL A   1      39.944  28.090  27.488  1.00  0.00     0.029 A 
ATOM     42  C   UNL A   1      40.788  27.993  28.674  1.00  0.00     0.049 A 
ATOM     43  H   UNL A   1      40.493  28.914  30.520  1.00  0.00     0.167 HD
ATOM     44  C   UNL A   1      39.813  31.029  34.295  1.00  0.00     0.034 A 
ATOM     45  C   UNL A   1      41.922  27.274  28.765  1.00  0.00     0.034 A 
ATOM     46  C   UNL A   1      40.947  30.180  34.537  1.00  0.00     0.049 A 
ATOM     47  C   UNL A   1      42.652  27.234  30.079  1.00  0.00     0.074 A 
ATOM     48  C   UNL A   1      41.671  30.018  35.704  1.00  0.00     0.029 A 
ATOM     49  N   UNL A   1      41.535  29.359  33.585  1.00  0.00    -0.354 N 
ATOM     50  N   UNL A   1      42.351  27.827  31.209  1.00  0.00    -0.248 NA
ATOM     51  C   UNL A   1      43.856  26.396  30.139  1.00  0.00     0.031 C 
ATOM     52  C   UNL A   1      42.718  29.124  35.448  1.00  0.00     0.029 A 
ATOM     53  C   UNL A   1      42.624  28.701  34.131  1.00  0.00     0.049 A 
ATOM     54  H   UNL A   1      41.224  29.258  32.656  1.00  0.00     0.167 HD
ATOM     55  C   UNL A   1      43.312  27.414  32.124  1.00  0.00     0.074 A 
ATOM     56  C   UNL A   1      44.184  26.495  31.420  1.00  0.00     0.031 C 
ATOM     57  C   UNL A   1      43.470  27.772  33.424  1.00  0.00     0.034 A 
BRANCH  44  58
ATOM     58  C   UNL A   1      39.338  31.944  35.396  1.00  0.00     0.023 A 
ATOM     59  C   UNL A   1      38.357  31.495  36.307  1.00  0.00     0.012 A 
ATOM     60  C   UNL A   1      39.866  33.241  35.542  1.00  0.00     0.148 A 
ATOM     61  C   UNL A   1      37.872  32.337  37.306  1.00  0.00     0.002 A 
ATOM     62  C   UNL A   1      39.414  34.058  36.573  1.00  0.00     0.091 A 
ATOM     63  F   UNL A   1      40.778  33.665  34.656  1.00  0.00    -0.205 F 
ATOM     64  C   UNL A   1      38.406  33.614  37.445  1.00  0.00     0.022 A 
BRANCH  62  65
ATOM     65  S   UNL A   1      40.101  35.687  36.887  1.00  0.00     0.127 S 
ATOM     66  O   UNL A   1      39.653  36.428  35.708  1.00  0.00    -0.237 OA
ATOM     67  O   UNL A   1      39.437  36.068  38.134  1.00  0.00    -0.237 OA
ATOM     68  O   UNL A   1      41.540  35.498  37.001  1.00  0.00    -0.744 OA
ENDBRANCH  62  65
ENDBRANCH  44  58
BRANCH  45  69
ATOM     69  C   UNL A   1      42.371  26.454  27.605  1.00  0.00     0.023 A 
ATOM     70  C   UNL A   1      43.270  27.011  26.674  1.00  0.00     0.012 A 
ATOM     71  C   UNL A   1      41.963  25.115  27.450  1.00  0.00     0.148 A 
ATOM     72  C   UNL A   1      43.736  26.259  25.596  1.00  0.00     0.002 A 
ATOM     73  C   UNL A   1      42.474  24.353  26.406  1.00  0.00     0.091 A 
ATOM     74  F   UNL A   1      41.105  24.608  28.346  1.00  0.00    -0.205 F 
ATOM     75  C   UNL A   1      43.346  24.928  25.468  1.00  0.00     0.022 A 
BRANCH  73  76
ATOM     76  S   UNL A   1      42.139  22.597  26.237  1.00  0.00     0.127 S 
ATOM     77  O   UNL A   1      40.683  22.578  26.127  1.00  0.00    -0.237 OA
ATOM     78  O   UNL A   1      42.855  22.274  25.003  1.00  0.00    -0.237 OA
ATOM     79  O   UNL A   1      42.688  21.972  27.433  1.00  0.00    -0.744 OA
ENDBRANCH  73  76
ENDBRANCH  45  69
BRANCH  57  80
ATOM     80  C   UNL A   1      44.626  27.157  34.170  1.00  0.00     0.023 A 
ATOM     81  C   UNL A   1      45.885  27.789  34.156  1.00  0.00     0.012 A 
ATOM     82  C   UNL A   1      44.456  25.974  34.915  1.00  0.00     0.148 A 
ATOM     83  C   UNL A   1      46.970  27.226  34.826  1.00  0.00     0.002 A 
ATOM     84  C   UNL A   1      45.528  25.448  35.626  1.00  0.00     0.091 A 
ATOM     85  F   UNL A   1      43.256  25.376  34.904  1.00  0.00    -0.205 F 
ATOM     86  C   UNL A   1      46.790  26.062  35.570  1.00  0.00     0.022 A 
BRANCH  84  87
ATOM     87  S   UNL A   1      45.360  24.010  36.689  1.00  0.00     0.127 S 
ATOM     88  O   UNL A   1      46.749  23.759  37.072  1.00  0.00    -0.237 OA
ATOM     89  O   UNL A   1      44.512  24.517  37.768  1.00  0.00    -0.237 OA
ATOM     90  O   UNL A   1      44.738  22.979  35.869  1.00  0.00    -0.744 OA
ENDBRANCH  84  87
ENDBRANCH  57  80
ENDBRANCH  31  32
ENDBRANCH  23  26
ENDBRANCH   1  22
TORSDOF 14
ENDMDL
MODEL 2
REMARK VINA RESULT:     -12.1      4.961     10.095
REMARK SMILES C[C@@H]1CCC[C@@]1(C(=O)NCCCNC(=O)c1ccc(-c2c3nc(c(-c4cccc(S(=O)(=O)[O-])c4F)c4ccc([nH]4)c(-c4cccc(S(=O)(=O)[O-])c4F)c4nc(c(-c5cccc(S(=O)(=O)[O-])c5F)c5ccc2[nH]5)C=C4)C=C3)cc1)c1ccc(Cl)cc1Cl
REMARK SMILES IDX 12 1 11 2 10 3 9 4 7 5 8 6 6 8 1 9 2 10 3 11 4 12 5 13 79 14
REMARK SMILES IDX 80 15 85 16 81 17 84 18 86 19 82 20 83 21 13 22 14 23 15 25
REMARK SMILES IDX 16 26 17 27 78 28 18 29 77 30 19 31 20 32 21 33 71 34 22 35
REMARK SMILES IDX 76 36 70 37 72 38 23 39 75 40 69 41 68 42 24 44 56 45 36 46
REMARK SMILES IDX 55 47 37 48 40 49 54 50 73 51 38 52 39 53 53 55 74 56 41 57
REMARK SMILES IDX 25 58 26 59 34 60 27 61 29 62 35 63 28 64 30 65 31 66 32 67
REMARK SMILES IDX 33 68 57 69 58 70 66 71 59 72 61 73 67 74 60 75 62 76 63 77
REMARK SMILES IDX 64 78 65 79 42 80 43 81 51 82 44 83 46 84 52 85 45 86 47 87
REMARK SMILES IDX 48 88 49 89 50 90
REMARK H PARENT 9 7 13 24 72 43 40 54
REMARK Flexibility Score: inf
ROOT
ATOM      1  C   UNL A   1      36.375  22.124  25.579  1.00  0.00     0.118 C 
ENDROOT
BRANCH   1   2
ATOM      2  C   UNL A   1      35.748  22.161  24.198  1.00  0.00     0.042 C 
BRANCH   2   3
ATOM      3  C   UNL A   1      35.447  23.569  23.724  1.00  0.00     0.117 C 
BRANCH   3   4
ATOM      4  N   UNL A   1      35.038  24.457  24.802  1.00  0.00    -0.355 N 
ATOM      5  C   UNL A   1      33.795  24.923  25.140  1.00  0.00     0.230 C 
ATOM      6  O   UNL A   1      33.712  25.644  26.138  1.00  0.00    -0.274 OA
ATOM      7  H   UNL A   1      35.771  24.773  25.379  1.00  0.00     0.163 HD
BRANCH   5   8
ATOM      8  C   UNL A   1      32.570  24.593  24.243  1.00  0.00     0.078 C 
ATOM      9  C   UNL A   1      33.515  26.758  23.058  1.00  0.00     0.009 C 
ATOM     10  C   UNL A   1      32.801  25.392  22.894  1.00  0.00     0.006 C 
ATOM     11  C   UNL A   1      31.409  25.693  22.329  1.00  0.00     0.005 C 
ATOM     12  C   UNL A   1      30.451  25.639  23.510  1.00  0.00     0.002 C 
ATOM     13  C   UNL A   1      31.268  25.258  24.749  1.00  0.00     0.022 C 
BRANCH   8  14
ATOM     14  C   UNL A   1      32.333  23.048  24.150  1.00  0.00    -0.013 A 
ATOM     15  C   UNL A   1      32.240  22.415  22.893  1.00  0.00     0.008 A 
ATOM     16  C   UNL A   1      32.299  22.188  25.280  1.00  0.00     0.046 A 
ATOM     17  C   UNL A   1      32.244  21.022  22.758  1.00  0.00     0.021 A 
ATOM     18  C   UNL A   1      32.374  20.793  25.140  1.00  0.00     0.041 A 
ATOM     19  Cl  UNL A   1      32.153  22.733  26.917  1.00  0.00    -0.084 Cl
ATOM     20  C   UNL A   1      32.360  20.218  23.880  1.00  0.00     0.042 A 
ATOM     21  Cl  UNL A   1      32.474  18.511  23.710  1.00  0.00    -0.084 Cl
ENDBRANCH   8  14
ENDBRANCH   5   8
ENDBRANCH   3   4
ENDBRANCH   2   3
ENDBRANCH   1   2
BRANCH   1  22
ATOM     22  N   UNL A   1      37.385  21.079  25.695  1.00  0.00    -0.352 N 
ATOM     23  C   UNL A   1      38.728  21.170  25.959  1.00  0.00     0.251 C 
ATOM     24  H   UNL A   1      37.051  20.162  25.564  1.00  0.00     0.163 HD
ATOM     25  O   UNL A   1      39.451  20.189  25.761  1.00  0.00    -0.269 OA
BRANCH  23  26
ATOM     26  C   UNL A   1      39.310  22.431  26.460  1.00  0.00     0.039 A 
ATOM     27  C   UNL A   1      40.437  22.388  27.282  1.00  0.00     0.014 A 
ATOM     28  C   UNL A   1      38.741  23.661  26.123  1.00  0.00     0.014 A 
ATOM     29  C   UNL A   1      41.024  23.581  27.708  1.00  0.00     0.010 A 
ATOM     30  C   UNL A   1      39.404  24.840  26.432  1.00  0.00     0.010 A 
ATOM     31  C   UNL A   1      40.537  24.818  27.252  1.00  0.00    -0.014 A 
BRANCH  31  32
ATOM     32  C   UNL A   1      41.203  26.090  27.626  1.00  0.00     0.031 A 
ATOM     33  C   UNL A   1      42.609  26.384  27.174  1.00  0.00     0.074 A 
ATOM     34  C   UNL A   1      40.559  26.958  28.432  1.00  0.00     0.049 A 
ATOM     35  N   UNL A   1      43.329  27.458  27.371  1.00  0.00    -0.248 NA
ATOM     36  C   UNL A   1      43.316  25.324  26.437  1.00  0.00     0.031 C 
ATOM     37  C   UNL A   1      39.237  26.737  29.026  1.00  0.00     0.029 A 
ATOM     38  N   UNL A   1      40.927  28.194  28.894  1.00  0.00    -0.354 N 
ATOM     39  C   UNL A   1      44.574  27.190  26.818  1.00  0.00     0.074 A 
ATOM     40  C   UNL A   1      44.533  25.830  26.327  1.00  0.00     0.031 C 
ATOM     41  C   UNL A   1      38.888  27.821  29.735  1.00  0.00     0.029 A 
ATOM     42  C   UNL A   1      39.967  28.799  29.671  1.00  0.00     0.049 A 
ATOM     43  H   UNL A   1      41.795  28.610  28.688  1.00  0.00     0.167 HD
ATOM     44  C   UNL A   1      45.646  28.009  26.690  1.00  0.00     0.034 A 
ATOM     45  C   UNL A   1      39.954  30.013  30.255  1.00  0.00     0.034 A 
ATOM     46  C   UNL A   1      45.667  29.371  27.147  1.00  0.00     0.049 A 
ATOM     47  C   UNL A   1      41.127  30.929  30.049  1.00  0.00     0.074 A 
ATOM     48  C   UNL A   1      46.657  30.323  26.981  1.00  0.00     0.029 A 
ATOM     49  N   UNL A   1      44.652  29.974  27.876  1.00  0.00    -0.354 N 
ATOM     50  N   UNL A   1      42.226  30.722  29.364  1.00  0.00    -0.248 NA
ATOM     51  C   UNL A   1      41.041  32.258  30.666  1.00  0.00     0.031 C 
ATOM     52  C   UNL A   1      46.255  31.491  27.641  1.00  0.00     0.029 A 
ATOM     53  C   UNL A   1      44.997  31.279  28.186  1.00  0.00     0.049 A 
ATOM     54  H   UNL A   1      43.807  29.539  28.135  1.00  0.00     0.167 HD
ATOM     55  C   UNL A   1      42.952  31.905  29.445  1.00  0.00     0.074 A 
ATOM     56  C   UNL A   1      42.149  32.832  30.218  1.00  0.00     0.031 C 
ATOM     57  C   UNL A   1      44.178  32.196  28.938  1.00  0.00     0.034 A 
BRANCH  44  58
ATOM     58  C   UNL A   1      46.863  27.455  25.991  1.00  0.00     0.023 A 
ATOM     59  C   UNL A   1      46.985  27.581  24.590  1.00  0.00     0.012 A 
ATOM     60  C   UNL A   1      47.892  26.822  26.714  1.00  0.00     0.148 A 
ATOM     61  C   UNL A   1      48.080  27.040  23.917  1.00  0.00     0.002 A 
ATOM     62  C   UNL A   1      49.006  26.330  26.042  1.00  0.00     0.091 A 
ATOM     63  F   UNL A   1      47.753  26.687  28.041  1.00  0.00    -0.205 F 
ATOM     64  C   UNL A   1      49.093  26.422  24.644  1.00  0.00     0.022 A 
BRANCH  62  65
ATOM     65  S   UNL A   1      50.404  25.595  26.897  1.00  0.00     0.127 S 
ATOM     66  O   UNL A   1      51.295  25.273  25.784  1.00  0.00    -0.237 OA
ATOM     67  O   UNL A   1      50.861  26.696  27.745  1.00  0.00    -0.237 OA
ATOM     68  O   UNL A   1      49.869  24.453  27.625  1.00  0.00    -0.744 OA
ENDBRANCH  62  65
ENDBRANCH  44  58
BRANCH  45  69
ATOM     69  C   UNL A   1      38.742  30.460  30.997  1.00  0.00     0.023 A 
ATOM     70  C   UNL A   1      38.676  30.261  32.390  1.00  0.00     0.012 A 
ATOM     71  C   UNL A   1      37.688  31.130  30.347  1.00  0.00     0.148 A 
ATOM     72  C   UNL A   1      37.570  30.699  33.119  1.00  0.00     0.002 A 
ATOM     73  C   UNL A   1      36.615  31.613  31.087  1.00  0.00     0.091 A 
ATOM     74  F   UNL A   1      37.771  31.304  29.021  1.00  0.00    -0.205 F 
ATOM     75  C   UNL A   1      36.546  31.383  32.470  1.00  0.00     0.022 A 
BRANCH  73  76
ATOM     76  S   UNL A   1      35.319  32.623  30.363  1.00  0.00     0.127 S 
ATOM     77  O   UNL A   1      34.406  32.792  31.491  1.00  0.00    -0.237 OA
ATOM     78  O   UNL A   1      36.056  33.827  29.980  1.00  0.00    -0.237 OA
ATOM     79  O   UNL A   1      34.796  31.854  29.242  1.00  0.00    -0.744 OA
ENDBRANCH  73  76
ENDBRANCH  45  69
BRANCH  57  80
ATOM     80  C   UNL A   1      44.718  33.578  29.198  1.00  0.00     0.023 A 
ATOM     81  C   UNL A   1      45.378  33.857  30.412  1.00  0.00     0.012 A 
ATOM     82  C   UNL A   1      44.606  34.592  28.226  1.00  0.00     0.148 A 
ATOM     83  C   UNL A   1      45.869  35.134  30.676  1.00  0.00     0.002 A 
ATOM     84  C   UNL A   1      45.146  35.847  28.474  1.00  0.00     0.091 A 
ATOM     85  F   UNL A   1      43.960  34.315  27.083  1.00  0.00    -0.205 F 
ATOM     86  C   UNL A   1      45.763  36.126  29.705  1.00  0.00     0.022 A 
BRANCH  84  87
ATOM     87  S   UNL A   1      45.144  37.154  27.241  1.00  0.00     0.127 S 
ATOM     88  O   UNL A   1      46.002  36.585  26.203  1.00  0.00    -0.237 OA
ATOM     89  O   UNL A   1      43.728  37.240  26.882  1.00  0.00    -0.237 OA
ATOM     90  O   UNL A   1      45.667  38.336  27.913  1.00  0.00    -0.744 OA
ENDBRANCH  84  87
ENDBRANCH  57  80
ENDBRANCH  31  32
ENDBRANCH  23  26
ENDBRANCH   1  22
TORSDOF 14
ENDMDL
MODEL 3
REMARK VINA RESULT:     -12.1      1.273      1.605
REMARK SMILES C[C@@H]1CCC[C@@]1(C(=O)NCCCNC(=O)c1ccc(-c2c3nc(c(-c4cccc(S(=O)(=O)[O-])c4F)c4ccc([nH]4)c(-c4cccc(S(=O)(=O)[O-])c4F)c4nc(c(-c5cccc(S(=O)(=O)[O-])c5F)c5ccc2[nH]5)C=C4)C=C3)cc1)c1ccc(Cl)cc1Cl
REMARK SMILES IDX 12 1 11 2 10 3 9 4 7 5 8 6 6 8 1 9 2 10 3 11 4 12 5 13 79 14
REMARK SMILES IDX 80 15 85 16 81 17 84 18 86 19 82 20 83 21 13 22 14 23 15 25
REMARK SMILES IDX 16 26 17 27 78 28 18 29 77 30 19 31 20 32 21 33 71 34 22 35
REMARK SMILES IDX 76 36 70 37 72 38 23 39 75 40 69 41 68 42 24 44 56 45 36 46
REMARK SMILES IDX 55 47 37 48 40 49 54 50 73 51 38 52 39 53 53 55 74 56 41 57
REMARK SMILES IDX 25 58 26 59 34 60 27 61 29 62 35 63 28 64 30 65 31 66 32 67
REMARK SMILES IDX 33 68 57 69 58 70 66 71 59 72 61 73 67 74 60 75 62 76 63 77
REMARK SMILES IDX 64 78 65 79 42 80 43 81 51 82 44 83 46 84 52 85 45 86 47 87
REMARK SMILES IDX 48 88 49 89 50 90
REMARK H PARENT 9 7 13 24 72 43 40 54
REMARK Flexibility Score: inf
ROOT
ATOM      1  C   UNL A   1      32.753  29.698  26.002  1.00  0.00     0.118 C 
ENDROOT
BRANCH   1   2
ATOM      2  C   UNL A   1      31.485  28.906  26.256  1.00  0.00     0.042 C 
BRANCH   2   3
ATOM      3  C   UNL A   1      31.757  27.489  26.717  1.00  0.00     0.117 C 
BRANCH   3   4
ATOM      4  N   UNL A   1      33.040  26.977  26.258  1.00  0.00    -0.355 N 
ATOM      5  C   UNL A   1      33.327  26.041  25.300  1.00  0.00     0.230 C 
ATOM      6  O   UNL A   1      34.518  25.812  25.071  1.00  0.00    -0.274 OA
ATOM      7  H   UNL A   1      33.825  27.365  26.708  1.00  0.00     0.163 HD
BRANCH   5   8
ATOM      8  C   UNL A   1      32.177  25.269  24.597  1.00  0.00     0.078 C 
ATOM      9  C   UNL A   1      32.562  23.784  26.749  1.00  0.00     0.009 C 
ATOM     10  C   UNL A   1      31.551  24.330  25.711  1.00  0.00     0.006 C 
ATOM     11  C   UNL A   1      30.981  23.112  24.975  1.00  0.00     0.005 C 
ATOM     12  C   UNL A   1      31.732  23.025  23.655  1.00  0.00     0.002 C 
ATOM     13  C   UNL A   1      32.698  24.213  23.594  1.00  0.00     0.022 C 
BRANCH   8  14
ATOM     14  C   UNL A   1      31.219  26.245  23.836  1.00  0.00    -0.013 A 
ATOM     15  C   UNL A   1      29.834  26.238  24.103  1.00  0.00     0.008 A 
ATOM     16  C   UNL A   1      31.669  27.242  22.929  1.00  0.00     0.046 A 
ATOM     17  C   UNL A   1      28.975  27.228  23.611  1.00  0.00     0.021 A 
ATOM     18  C   UNL A   1      30.820  28.272  22.495  1.00  0.00     0.041 A 
ATOM     19  Cl  UNL A   1      33.264  27.301  22.259  1.00  0.00    -0.084 Cl
ATOM     20  C   UNL A   1      29.481  28.268  22.849  1.00  0.00     0.042 A 
ATOM     21  Cl  UNL A   1      28.449  29.542  22.334  1.00  0.00    -0.084 Cl
ENDBRANCH   8  14
ENDBRANCH   5   8
ENDBRANCH   3   4
ENDBRANCH   2   3
ENDBRANCH   1   2
BRANCH   1  22
ATOM     22  N   UNL A   1      32.596  31.108  26.341  1.00  0.00    -0.352 N 
ATOM     23  C   UNL A   1      33.300  31.891  27.220  1.00  0.00     0.251 C 
ATOM     24  H   UNL A   1      31.872  31.572  25.863  1.00  0.00     0.163 HD
ATOM     25  O   UNL A   1      32.845  32.991  27.547  1.00  0.00    -0.269 OA
BRANCH  23  26
ATOM     26  C   UNL A   1      34.581  31.421  27.784  1.00  0.00     0.039 A 
ATOM     27  C   UNL A   1      35.637  32.321  27.934  1.00  0.00     0.014 A 
ATOM     28  C   UNL A   1      34.745  30.087  28.163  1.00  0.00     0.014 A 
ATOM     29  C   UNL A   1      36.828  31.893  28.522  1.00  0.00     0.010 A 
ATOM     30  C   UNL A   1      35.875  29.700  28.869  1.00  0.00     0.010 A 
ATOM     31  C   UNL A   1      36.943  30.589  29.034  1.00  0.00    -0.014 A 
BRANCH  31  32
ATOM     32  C   UNL A   1      38.170  30.145  29.738  1.00  0.00     0.031 A 
ATOM     33  C   UNL A   1      38.465  30.613  31.139  1.00  0.00     0.074 A 
ATOM     34  C   UNL A   1      39.058  29.367  29.088  1.00  0.00     0.049 A 
ATOM     35  N   UNL A   1      39.465  30.295  31.920  1.00  0.00    -0.248 NA
ATOM     36  C   UNL A   1      37.540  31.594  31.730  1.00  0.00     0.031 C 
ATOM     37  C   UNL A   1      38.940  28.937  27.691  1.00  0.00     0.029 A 
ATOM     38  N   UNL A   1      40.233  28.801  29.509  1.00  0.00    -0.354 N 
ATOM     39  C   UNL A   1      39.309  31.058  33.070  1.00  0.00     0.074 A 
ATOM     40  C   UNL A   1      38.150  31.899  32.864  1.00  0.00     0.031 C 
ATOM     41  C   UNL A   1      39.975  28.141  27.388  1.00  0.00     0.029 A 
ATOM     42  C   UNL A   1      40.844  28.025  28.553  1.00  0.00     0.049 A 
ATOM     43  H   UNL A   1      40.603  28.938  30.411  1.00  0.00     0.167 HD
ATOM     44  C   UNL A   1      40.035  31.037  34.213  1.00  0.00     0.034 A 
ATOM     45  C   UNL A   1      41.971  27.290  28.615  1.00  0.00     0.034 A 
ATOM     46  C   UNL A   1      41.164  30.172  34.424  1.00  0.00     0.049 A 
ATOM     47  C   UNL A   1      42.729  27.233  29.912  1.00  0.00     0.074 A 
ATOM     48  C   UNL A   1      41.911  29.992  35.575  1.00  0.00     0.029 A 
ATOM     49  N   UNL A   1      41.720  29.349  33.455  1.00  0.00    -0.354 N 
ATOM     50  N   UNL A   1      42.461  27.823  31.052  1.00  0.00    -0.248 NA
ATOM     51  C   UNL A   1      43.922  26.379  29.939  1.00  0.00     0.031 C 
ATOM     52  C   UNL A   1      42.940  29.087  35.290  1.00  0.00     0.029 A 
ATOM     53  C   UNL A   1      42.811  28.673  33.972  1.00  0.00     0.049 A 
ATOM     54  H   UNL A   1      41.386  29.258  32.533  1.00  0.00     0.167 HD
ATOM     55  C   UNL A   1      43.437  27.390  31.942  1.00  0.00     0.074 A 
ATOM     56  C   UNL A   1      44.281  26.464  31.214  1.00  0.00     0.031 C 
ATOM     57  C   UNL A   1      43.628  27.738  33.240  1.00  0.00     0.034 A 
BRANCH  44  58
ATOM     58  C   UNL A   1      39.598  31.952  35.331  1.00  0.00     0.023 A 
ATOM     59  C   UNL A   1      40.027  33.297  35.344  1.00  0.00     0.012 A 
ATOM     60  C   UNL A   1      38.754  31.492  36.359  1.00  0.00     0.148 A 
ATOM     61  C   UNL A   1      39.671  34.150  36.388  1.00  0.00     0.002 A 
ATOM     62  C   UNL A   1      38.361  32.362  37.370  1.00  0.00     0.091 A 
ATOM     63  F   UNL A   1      38.373  30.206  36.349  1.00  0.00    -0.205 F 
ATOM     64  C   UNL A   1      38.831  33.685  37.396  1.00  0.00     0.022 A 
BRANCH  62  65
ATOM     65  S   UNL A   1      37.213  31.882  38.666  1.00  0.00     0.127 S 
ATOM     66  O   UNL A   1      37.026  30.460  38.383  1.00  0.00    -0.237 OA
ATOM     67  O   UNL A   1      37.981  32.166  39.879  1.00  0.00    -0.237 OA
ATOM     68  O   UNL A   1      36.036  32.720  38.485  1.00  0.00    -0.744 OA
ENDBRANCH  62  65
ENDBRANCH  44  58
BRANCH  45  69
ATOM     69  C   UNL A   1      42.383  26.472  27.440  1.00  0.00     0.023 A 
ATOM     70  C   UNL A   1      43.212  27.047  26.457  1.00  0.00     0.012 A 
ATOM     71  C   UNL A   1      42.010  25.120  27.320  1.00  0.00     0.148 A 
ATOM     72  C   UNL A   1      43.643  26.298  25.362  1.00  0.00     0.002 A 
ATOM     73  C   UNL A   1      42.488  24.363  26.257  1.00  0.00     0.091 A 
ATOM     74  F   UNL A   1      41.218  24.595  28.265  1.00  0.00    -0.205 F 
ATOM     75  C   UNL A   1      43.289  24.954  25.267  1.00  0.00     0.022 A 
BRANCH  73  76
ATOM     76  S   UNL A   1      42.201  22.595  26.122  1.00  0.00     0.127 S 
ATOM     77  O   UNL A   1      42.871  22.278  24.864  1.00  0.00    -0.237 OA
ATOM     78  O   UNL A   1      42.870  22.091  27.322  1.00  0.00    -0.237 OA
ATOM     79  O   UNL A   1      40.754  22.427  26.124  1.00  0.00    -0.744 OA
ENDBRANCH  73  76
ENDBRANCH  45  69
BRANCH  57  80
ATOM     80  C   UNL A   1      44.793  27.103  33.957  1.00  0.00     0.023 A 
ATOM     81  C   UNL A   1      46.069  27.697  33.885  1.00  0.00     0.012 A 
ATOM     82  C   UNL A   1      44.616  25.940  34.730  1.00  0.00     0.148 A 
ATOM     83  C   UNL A   1      47.160  27.115  34.527  1.00  0.00     0.002 A 
ATOM     84  C   UNL A   1      45.697  25.395  35.413  1.00  0.00     0.091 A 
ATOM     85  F   UNL A   1      43.399  25.377  34.774  1.00  0.00    -0.205 F 
ATOM     86  C   UNL A   1      46.973  25.971  35.299  1.00  0.00     0.022 A 
BRANCH  84  87
ATOM     87  S   UNL A   1      45.527  23.982  36.509  1.00  0.00     0.127 S 
ATOM     88  O   UNL A   1      44.662  24.521  37.558  1.00  0.00    -0.237 OA
ATOM     89  O   UNL A   1      44.889  22.990  35.642  1.00  0.00    -0.237 OA
ATOM     90  O   UNL A   1      46.879  23.636  36.925  1.00  0.00    -0.744 OA
ENDBRANCH  84  87
ENDBRANCH  57  80
ENDBRANCH  31  32
ENDBRANCH  23  26
ENDBRANCH   1  22
TORSDOF 14
ENDMDL
