MODEL 1
REMARK VINA RESULT:     -12.8      0.000      0.000
REMARK SMILES O=C(NCCCNC(=O)[C@@H]1[C@@H](C(=O)Nc2nc(-c3ccc(F)cc3)cs2)[C@H]2C=C[C@@H]1O2)c1ccc(-c2c3nc(c(-c4cccc(S(=O)(=O)[O-])c4F)c4ccc([nH]4)c(-c4cccc(S(=O)(=O)[O-])c4F)c4nc(c(-c5cccc(S(=O)(=O)[O-])c5F)c5ccc2[nH]5)C=C4)C=C3)cc1
REMARK SMILES IDX 5 1 4 2 3 3 1 4 2 5 32 7 33 8 94 9 34 10 93 11 35 12 36 13
REMARK SMILES IDX 37 14 87 15 38 16 92 17 86 18 88 19 39 20 91 21 85 22 84 23
REMARK SMILES IDX 40 25 72 26 52 27 71 28 53 29 56 30 70 31 89 32 54 33 55 34
REMARK SMILES IDX 69 36 90 37 57 38 41 39 42 40 50 41 43 42 45 43 51 44 44 45
REMARK SMILES IDX 46 46 47 47 48 48 49 49 73 50 74 51 82 52 75 53 77 54 83 55
REMARK SMILES IDX 76 56 78 57 79 58 80 59 81 60 58 61 59 62 67 63 60 64 62 65
REMARK SMILES IDX 68 66 61 67 63 68 64 69 65 70 66 71 6 72 7 73 8 74 9 76
REMARK SMILES IDX 10 77 11 78 30 79 27 80 29 81 31 82 28 83 12 84 13 85 14 86
REMARK SMILES IDX 15 88 16 89 26 90 17 91 25 92 18 93 19 94 24 95 20 96 23 97
REMARK SMILES IDX 21 98 22 99
REMARK H PARENT 3 6 88 24 56 35 7 75 14 87
REMARK Flexibility Score: inf
ROOT
ATOM      1  C   UNL A   1      31.501  28.542  26.076  1.00  0.00     0.042 C 
ENDROOT
BRANCH   1   2
ATOM      2  C   UNL A   1      32.585  29.540  25.691  1.00  0.00     0.118 C 
BRANCH   2   3
ATOM      3  N   UNL A   1      32.263  30.910  26.062  1.00  0.00    -0.352 N 
ATOM      4  O   UNL A   1      32.329  32.818  27.247  1.00  0.00    -0.269 OA
ATOM      5  C   UNL A   1      32.871  31.762  26.957  1.00  0.00     0.251 C 
ATOM      6  H   UNL A   1      31.483  31.291  25.596  1.00  0.00     0.163 HD
BRANCH   5   7
ATOM      7  C   UNL A   1      34.154  31.380  27.593  1.00  0.00     0.039 A 
ATOM      8  C   UNL A   1      34.416  30.054  27.935  1.00  0.00     0.014 A 
ATOM      9  C   UNL A   1      35.114  32.365  27.846  1.00  0.00     0.014 A 
ATOM     10  C   UNL A   1      35.529  29.745  28.703  1.00  0.00     0.010 A 
ATOM     11  C   UNL A   1      36.298  32.027  28.512  1.00  0.00     0.010 A 
ATOM     12  C   UNL A   1      36.497  30.722  28.985  1.00  0.00    -0.014 A 
BRANCH  12  13
ATOM     13  C   UNL A   1      37.734  30.324  29.706  1.00  0.00     0.031 A 
ATOM     14  C   UNL A   1      38.007  30.781  31.113  1.00  0.00     0.074 A 
ATOM     15  C   UNL A   1      38.610  29.513  29.078  1.00  0.00     0.049 A 
ATOM     16  N   UNL A   1      39.027  30.494  31.882  1.00  0.00    -0.248 NA
ATOM     17  C   UNL A   1      37.022  31.678  31.740  1.00  0.00     0.031 C 
ATOM     18  C   UNL A   1      38.468  29.036  27.699  1.00  0.00     0.029 A 
ATOM     19  N   UNL A   1      39.775  28.932  29.509  1.00  0.00    -0.354 N 
ATOM     20  C   UNL A   1      38.832  31.205  33.060  1.00  0.00     0.074 A 
ATOM     21  C   UNL A   1      37.596  31.941  32.908  1.00  0.00     0.031 C 
ATOM     22  C   UNL A   1      39.473  28.197  27.416  1.00  0.00     0.029 A 
ATOM     23  C   UNL A   1      40.369  28.128  28.564  1.00  0.00     0.049 A 
ATOM     24  H   UNL A   1      40.150  29.077  30.407  1.00  0.00     0.167 HD
ATOM     25  C   UNL A   1      39.605  31.225  34.173  1.00  0.00     0.034 A 
ATOM     26  C   UNL A   1      41.515  27.422  28.604  1.00  0.00     0.034 A 
ATOM     27  C   UNL A   1      40.805  30.447  34.337  1.00  0.00     0.049 A 
ATOM     28  C   UNL A   1      42.333  27.441  29.860  1.00  0.00     0.074 A 
ATOM     29  C   UNL A   1      41.621  30.358  35.451  1.00  0.00     0.029 A 
ATOM     30  N   UNL A   1      41.360  29.627  33.367  1.00  0.00    -0.354 N 
ATOM     31  N   UNL A   1      42.076  28.040  30.998  1.00  0.00    -0.248 NA
ATOM     32  C   UNL A   1      43.590  26.680  29.848  1.00  0.00     0.031 C 
ATOM     33  C   UNL A   1      42.678  29.494  35.149  1.00  0.00     0.029 A 
ATOM     34  C   UNL A   1      42.513  29.033  33.853  1.00  0.00     0.049 A 
ATOM     35  H   UNL A   1      40.989  29.487  32.465  1.00  0.00     0.167 HD
ATOM     36  C   UNL A   1      43.132  27.720  31.842  1.00  0.00     0.074 A 
ATOM     37  C   UNL A   1      44.016  26.848  31.095  1.00  0.00     0.031 C 
ATOM     38  C   UNL A   1      43.359  28.134  33.112  1.00  0.00     0.034 A 
BRANCH  25  39
ATOM     39  C   UNL A   1      39.160  32.076  35.335  1.00  0.00     0.023 A 
ATOM     40  C   UNL A   1      38.317  31.519  36.317  1.00  0.00     0.012 A 
ATOM     41  C   UNL A   1      39.662  33.381  35.512  1.00  0.00     0.148 A 
ATOM     42  C   UNL A   1      37.968  32.253  37.451  1.00  0.00     0.002 A 
ATOM     43  C   UNL A   1      39.339  34.091  36.663  1.00  0.00     0.091 A 
ATOM     44  F   UNL A   1      40.448  33.899  34.557  1.00  0.00    -0.205 F 
ATOM     45  C   UNL A   1      38.488  33.531  37.629  1.00  0.00     0.022 A 
BRANCH  43  46
ATOM     46  S   UNL A   1      40.021  35.715  37.024  1.00  0.00     0.127 S 
ATOM     47  O   UNL A   1      39.566  36.488  35.869  1.00  0.00    -0.237 OA
ATOM     48  O   UNL A   1      39.358  36.055  38.284  1.00  0.00    -0.237 OA
ATOM     49  O   UNL A   1      41.462  35.532  37.126  1.00  0.00    -0.744 OA
ENDBRANCH  43  46
ENDBRANCH  25  39
BRANCH  26  50
ATOM     50  C   UNL A   1      41.906  26.601  27.423  1.00  0.00     0.023 A 
ATOM     51  C   UNL A   1      42.673  27.186  26.399  1.00  0.00     0.012 A 
ATOM     52  C   UNL A   1      41.610  25.224  27.360  1.00  0.00     0.148 A 
ATOM     53  C   UNL A   1      43.134  26.417  25.331  1.00  0.00     0.002 A 
ATOM     54  C   UNL A   1      42.127  24.452  26.328  1.00  0.00     0.091 A 
ATOM     55  F   UNL A   1      40.860  24.690  28.335  1.00  0.00    -0.205 F 
ATOM     56  C   UNL A   1      42.877  25.048  25.304  1.00  0.00     0.022 A 
BRANCH  54  57
ATOM     57  S   UNL A   1      41.984  22.660  26.311  1.00  0.00     0.127 S 
ATOM     58  O   UNL A   1      42.672  22.294  27.546  1.00  0.00    -0.237 OA
ATOM     59  O   UNL A   1      40.533  22.470  26.332  1.00  0.00    -0.237 OA
ATOM     60  O   UNL A   1      42.624  22.231  25.074  1.00  0.00    -0.744 OA
ENDBRANCH  54  57
ENDBRANCH  26  50
BRANCH  38  61
ATOM     61  C   UNL A   1      44.615  27.655  33.787  1.00  0.00     0.023 A 
ATOM     62  C   UNL A   1      45.776  28.449  33.727  1.00  0.00     0.012 A 
ATOM     63  C   UNL A   1      44.617  26.479  34.564  1.00  0.00     0.148 A 
ATOM     64  C   UNL A   1      46.929  28.072  34.415  1.00  0.00     0.002 A 
ATOM     65  C   UNL A   1      45.755  26.133  35.282  1.00  0.00     0.091 A 
ATOM     66  F   UNL A   1      43.506  25.729  34.591  1.00  0.00    -0.205 F 
ATOM     67  C   UNL A   1      46.913  26.923  35.202  1.00  0.00     0.022 A 
BRANCH  65  68
ATOM     68  S   UNL A   1      45.797  24.723  36.395  1.00  0.00     0.127 S 
ATOM     69  O   UNL A   1      45.577  23.609  35.474  1.00  0.00    -0.237 OA
ATOM     70  O   UNL A   1      47.151  24.802  36.947  1.00  0.00    -0.237 OA
ATOM     71  O   UNL A   1      44.736  24.949  37.367  1.00  0.00    -0.744 OA
ENDBRANCH  65  68
ENDBRANCH  38  61
ENDBRANCH  12  13
ENDBRANCH   5   7
ENDBRANCH   2   3
ENDBRANCH   1   2
BRANCH   1  72
ATOM     72  C   UNL A   1      32.024  27.217  26.604  1.00  0.00     0.117 C 
BRANCH  72  73
ATOM     73  N   UNL A   1      31.022  26.171  26.564  1.00  0.00    -0.356 N 
ATOM     74  C   UNL A   1      31.139  24.821  26.618  1.00  0.00     0.227 C 
ATOM     75  H   UNL A   1      30.095  26.497  26.483  1.00  0.00     0.163 HD
ATOM     76  O   UNL A   1      30.092  24.184  26.495  1.00  0.00    -0.275 OA
BRANCH  74  77
ATOM     77  C   UNL A   1      32.501  24.164  26.716  1.00  0.00     0.127 C 
ATOM     78  C   UNL A   1      33.084  23.866  25.302  1.00  0.00     0.127 C 
ATOM     79  C   UNL A   1      32.422  22.737  27.298  1.00  0.00     0.155 C 
ATOM     80  C   UNL A   1      33.447  22.377  25.424  1.00  0.00     0.155 C 
ATOM     81  C   UNL A   1      33.808  22.303  27.670  1.00  0.00     0.004 C 
ATOM     82  O   UNL A   1      32.247  21.925  26.104  1.00  0.00    -0.365 OA
ATOM     83  C   UNL A   1      34.444  22.089  26.511  1.00  0.00     0.004 C 
BRANCH  78  84
ATOM     84  C   UNL A   1      34.305  24.667  24.878  1.00  0.00     0.233 C 
ATOM     85  O   UNL A   1      35.337  24.687  25.555  1.00  0.00    -0.274 OA
ATOM     86  N   UNL A   1      34.337  25.218  23.624  1.00  0.00    -0.302 N 
ATOM     87  H   UNL A   1      35.208  25.280  23.168  1.00  0.00     0.172 HD
BRANCH  86  88
ATOM     88  C   UNL A   1      33.236  25.686  22.967  1.00  0.00     0.189 A 
ATOM     89  N   UNL A   1      32.402  26.595  23.384  1.00  0.00    -0.220 NA
ATOM     90  S   UNL A   1      32.957  25.069  21.405  1.00  0.00    -0.105 S 
ATOM     91  C   UNL A   1      31.420  26.805  22.446  1.00  0.00     0.084 A 
ATOM     92  C   UNL A   1      31.520  26.025  21.312  1.00  0.00     0.097 A 
BRANCH  91  93
ATOM     93  C   UNL A   1      30.408  27.817  22.668  1.00  0.00     0.001 A 
ATOM     94  C   UNL A   1      29.167  27.436  23.199  1.00  0.00     0.013 A 
ATOM     95  C   UNL A   1      30.625  29.150  22.299  1.00  0.00     0.013 A 
ATOM     96  C   UNL A   1      28.158  28.382  23.381  1.00  0.00     0.040 A 
ATOM     97  C   UNL A   1      29.608  30.094  22.472  1.00  0.00     0.040 A 
ATOM     98  C   UNL A   1      28.388  29.702  23.016  1.00  0.00     0.123 A 
ATOM     99  F   UNL A   1      27.419  30.612  23.181  1.00  0.00    -0.207 F 
ENDBRANCH  91  93
ENDBRANCH  86  88
ENDBRANCH  78  84
ENDBRANCH  74  77
ENDBRANCH  72  73
ENDBRANCH   1  72
TORSDOF 16
ENDMDL
MODEL 2
REMARK VINA RESULT:     -12.7      2.883      4.796
REMARK SMILES O=C(NCCCNC(=O)[C@@H]1[C@@H](C(=O)Nc2nc(-c3ccc(F)cc3)cs2)[C@H]2C=C[C@@H]1O2)c1ccc(-c2c3nc(c(-c4cccc(S(=O)(=O)[O-])c4F)c4ccc([nH]4)c(-c4cccc(S(=O)(=O)[O-])c4F)c4nc(c(-c5cccc(S(=O)(=O)[O-])c5F)c5ccc2[nH]5)C=C4)C=C3)cc1
REMARK SMILES IDX 5 1 4 2 3 3 1 4 2 5 32 7 33 8 94 9 34 10 93 11 35 12 36 13
REMARK SMILES IDX 37 14 87 15 38 16 92 17 86 18 88 19 39 20 91 21 85 22 84 23
REMARK SMILES IDX 40 25 72 26 52 27 71 28 53 29 56 30 70 31 89 32 54 33 55 34
REMARK SMILES IDX 69 36 90 37 57 38 41 39 42 40 50 41 43 42 45 43 51 44 44 45
REMARK SMILES IDX 46 46 47 47 48 48 49 49 73 50 74 51 82 52 75 53 77 54 83 55
REMARK SMILES IDX 76 56 78 57 79 58 80 59 81 60 58 61 59 62 67 63 60 64 62 65
REMARK SMILES IDX 68 66 61 67 63 68 64 69 65 70 66 71 6 72 7 73 8 74 9 76
REMARK SMILES IDX 10 77 11 78 30 79 27 80 29 81 31 82 28 83 12 84 13 85 14 86
REMARK SMILES IDX 15 88 16 89 26 90 17 91 25 92 18 93 19 94 24 95 20 96 23 97
REMARK SMILES IDX 21 98 22 99
REMARK H PARENT 3 6 88 24 56 35 7 75 14 87
REMARK Flexibility Score: inf
ROOT
ATOM      1  C   UNL A   1      31.740  31.980  26.760  1.00  0.00     0.042 C 
ENDROOT
BRANCH   1   2
ATOM      2  C   UNL A   1      32.970  32.758  27.207  1.00  0.00     0.118 C 
BRANCH   2   3
ATOM      3  N   UNL A   1      32.657  34.082  27.724  1.00  0.00    -0.352 N 
ATOM      4  O   UNL A   1      32.631  35.801  29.171  1.00  0.00    -0.269 OA
ATOM      5  C   UNL A   1      33.164  34.763  28.809  1.00  0.00     0.251 C 
ATOM      6  H   UNL A   1      31.970  34.572  27.215  1.00  0.00     0.163 HD
BRANCH   5   7
ATOM      7  C   UNL A   1      34.322  34.217  29.554  1.00  0.00     0.039 A 
ATOM      8  C   UNL A   1      35.627  34.491  29.148  1.00  0.00     0.014 A 
ATOM      9  C   UNL A   1      34.099  33.424  30.684  1.00  0.00     0.014 A 
ATOM     10  C   UNL A   1      36.690  33.816  29.733  1.00  0.00     0.010 A 
ATOM     11  C   UNL A   1      35.183  32.844  31.352  1.00  0.00     0.010 A 
ATOM     12  C   UNL A   1      36.486  33.000  30.857  1.00  0.00    -0.014 A 
BRANCH  12  13
ATOM     13  C   UNL A   1      37.664  32.391  31.529  1.00  0.00     0.031 A 
ATOM     14  C   UNL A   1      38.120  32.850  32.886  1.00  0.00     0.074 A 
ATOM     15  C   UNL A   1      38.311  31.387  30.903  1.00  0.00     0.049 A 
ATOM     16  N   UNL A   1      39.111  32.397  33.612  1.00  0.00    -0.248 NA
ATOM     17  C   UNL A   1      37.383  33.961  33.512  1.00  0.00     0.031 C 
ATOM     18  C   UNL A   1      37.981  30.882  29.566  1.00  0.00     0.029 A 
ATOM     19  N   UNL A   1      39.361  30.600  31.301  1.00  0.00    -0.354 N 
ATOM     20  C   UNL A   1      39.146  33.190  34.752  1.00  0.00     0.074 A 
ATOM     21  C   UNL A   1      38.078  34.157  34.626  1.00  0.00     0.031 C 
ATOM     22  C   UNL A   1      38.773  29.841  29.279  1.00  0.00     0.029 A 
ATOM     23  C   UNL A   1      39.713  29.645  30.376  1.00  0.00     0.049 A 
ATOM     24  H   UNL A   1      39.820  30.709  32.166  1.00  0.00     0.167 HD
ATOM     25  C   UNL A   1      39.982  33.105  35.815  1.00  0.00     0.034 A 
ATOM     26  C   UNL A   1      40.692  28.721  30.394  1.00  0.00     0.034 A 
ATOM     27  C   UNL A   1      41.008  32.106  35.958  1.00  0.00     0.049 A 
ATOM     28  C   UNL A   1      41.583  28.632  31.597  1.00  0.00     0.074 A 
ATOM     29  C   UNL A   1      41.864  31.905  37.027  1.00  0.00     0.029 A 
ATOM     30  N   UNL A   1      41.317  31.143  35.011  1.00  0.00    -0.354 N 
ATOM     31  N   UNL A   1      41.531  29.327  32.708  1.00  0.00    -0.248 NA
ATOM     32  C   UNL A   1      42.655  27.629  31.560  1.00  0.00     0.031 C 
ATOM     33  C   UNL A   1      42.701  30.828  36.719  1.00  0.00     0.029 A 
ATOM     34  C   UNL A   1      42.356  30.348  35.466  1.00  0.00     0.049 A 
ATOM     35  H   UNL A   1      40.864  31.037  34.143  1.00  0.00     0.167 HD
ATOM     36  C   UNL A   1      42.556  28.839  33.508  1.00  0.00     0.074 A 
ATOM     37  C   UNL A   1      43.191  27.767  32.767  1.00  0.00     0.031 C 
ATOM     38  C   UNL A   1      42.950  29.258  34.735  1.00  0.00     0.034 A 
BRANCH  25  39
ATOM     39  C   UNL A   1      39.800  34.086  36.946  1.00  0.00     0.023 A 
ATOM     40  C   UNL A   1      40.101  35.446  36.737  1.00  0.00     0.012 A 
ATOM     41  C   UNL A   1      39.229  33.683  38.170  1.00  0.00     0.148 A 
ATOM     42  C   UNL A   1      39.851  36.389  37.733  1.00  0.00     0.002 A 
ATOM     43  C   UNL A   1      38.948  34.635  39.144  1.00  0.00     0.091 A 
ATOM     44  F   UNL A   1      38.965  32.382  38.356  1.00  0.00    -0.205 F 
ATOM     45  C   UNL A   1      39.264  35.986  38.930  1.00  0.00     0.022 A 
BRANCH  43  46
ATOM     46  S   UNL A   1      38.121  34.230  40.688  1.00  0.00     0.127 S 
ATOM     47  O   UNL A   1      36.979  33.449  40.214  1.00  0.00    -0.237 OA
ATOM     48  O   UNL A   1      39.142  33.452  41.390  1.00  0.00    -0.237 OA
ATOM     49  O   UNL A   1      37.792  35.504  41.312  1.00  0.00    -0.744 OA
ENDBRANCH  43  46
ENDBRANCH  25  39
BRANCH  26  50
ATOM     50  C   UNL A   1      40.827  27.780  29.246  1.00  0.00     0.023 A 
ATOM     51  C   UNL A   1      39.980  26.658  29.170  1.00  0.00     0.012 A 
ATOM     52  C   UNL A   1      41.714  28.045  28.184  1.00  0.00     0.148 A 
ATOM     53  C   UNL A   1      40.019  25.815  28.059  1.00  0.00     0.002 A 
ATOM     54  C   UNL A   1      41.701  27.239  27.053  1.00  0.00     0.091 A 
ATOM     55  F   UNL A   1      42.527  29.107  28.285  1.00  0.00    -0.205 F 
ATOM     56  C   UNL A   1      40.864  26.114  26.994  1.00  0.00     0.022 A 
BRANCH  54  57
ATOM     57  S   UNL A   1      42.634  27.652  25.574  1.00  0.00     0.127 S 
ATOM     58  O   UNL A   1      42.359  26.503  24.716  1.00  0.00    -0.237 OA
ATOM     59  O   UNL A   1      42.002  28.903  25.153  1.00  0.00    -0.237 OA
ATOM     60  O   UNL A   1      44.016  27.801  26.015  1.00  0.00    -0.744 OA
ENDBRANCH  54  57
ENDBRANCH  26  50
BRANCH  38  61
ATOM     61  C   UNL A   1      44.126  28.564  35.366  1.00  0.00     0.023 A 
ATOM     62  C   UNL A   1      45.429  29.009  35.069  1.00  0.00     0.012 A 
ATOM     63  C   UNL A   1      43.939  27.549  36.324  1.00  0.00     0.148 A 
ATOM     64  C   UNL A   1      46.532  28.441  35.704  1.00  0.00     0.002 A 
ATOM     65  C   UNL A   1      45.040  27.018  36.985  1.00  0.00     0.091 A 
ATOM     66  F   UNL A   1      42.692  27.128  36.576  1.00  0.00    -0.205 F 
ATOM     67  C   UNL A   1      46.337  27.458  36.671  1.00  0.00     0.022 A 
BRANCH  65  68
ATOM     68  S   UNL A   1      44.879  25.816  38.310  1.00  0.00     0.127 S 
ATOM     69  O   UNL A   1      44.091  26.558  39.292  1.00  0.00    -0.237 OA
ATOM     70  O   UNL A   1      44.163  24.721  37.652  1.00  0.00    -0.237 OA
ATOM     71  O   UNL A   1      46.238  25.487  38.719  1.00  0.00    -0.744 OA
ENDBRANCH  65  68
ENDBRANCH  38  61
ENDBRANCH  12  13
ENDBRANCH   5   7
ENDBRANCH   2   3
ENDBRANCH   1   2
BRANCH   1  72
ATOM     72  C   UNL A   1      31.952  30.480  26.643  1.00  0.00     0.117 C 
BRANCH  72  73
ATOM     73  N   UNL A   1      32.651  30.113  25.428  1.00  0.00    -0.356 N 
ATOM     74  C   UNL A   1      32.368  29.184  24.481  1.00  0.00     0.227 C 
ATOM     75  H   UNL A   1      33.475  30.627  25.261  1.00  0.00     0.163 HD
ATOM     76  O   UNL A   1      33.200  29.060  23.582  1.00  0.00    -0.275 OA
BRANCH  74  77
ATOM     77  C   UNL A   1      31.147  28.295  24.609  1.00  0.00     0.127 C 
ATOM     78  C   UNL A   1      31.555  26.821  24.908  1.00  0.00     0.127 C 
ATOM     79  C   UNL A   1      30.408  28.120  23.266  1.00  0.00     0.155 C 
ATOM     80  C   UNL A   1      30.781  26.059  23.821  1.00  0.00     0.155 C 
ATOM     81  C   UNL A   1      29.060  27.524  23.544  1.00  0.00     0.004 C 
ATOM     82  O   UNL A   1      31.059  26.945  22.706  1.00  0.00    -0.365 OA
ATOM     83  C   UNL A   1      29.292  26.252  23.895  1.00  0.00     0.004 C 
BRANCH  78  84
ATOM     84  C   UNL A   1      31.199  26.274  26.281  1.00  0.00     0.233 C 
ATOM     85  O   UNL A   1      30.668  26.977  27.145  1.00  0.00    -0.274 OA
ATOM     86  N   UNL A   1      31.286  24.924  26.502  1.00  0.00    -0.302 N 
ATOM     87  H   UNL A   1      30.640  24.515  27.123  1.00  0.00     0.172 HD
BRANCH  86  88
ATOM     88  C   UNL A   1      32.212  24.112  25.915  1.00  0.00     0.189 A 
ATOM     89  N   UNL A   1      33.488  24.064  26.172  1.00  0.00    -0.220 NA
ATOM     90  S   UNL A   1      31.632  22.991  24.773  1.00  0.00    -0.105 S 
ATOM     91  C   UNL A   1      34.096  23.118  25.382  1.00  0.00     0.084 A 
ATOM     92  C   UNL A   1      33.255  22.458  24.510  1.00  0.00     0.097 A 
BRANCH  91  93
ATOM     93  C   UNL A   1      35.511  22.847  25.533  1.00  0.00     0.001 A 
ATOM     94  C   UNL A   1      36.383  23.910  25.813  1.00  0.00     0.013 A 
ATOM     95  C   UNL A   1      36.027  21.560  25.336  1.00  0.00     0.013 A 
ATOM     96  C   UNL A   1      37.755  23.685  25.920  1.00  0.00     0.040 A 
ATOM     97  C   UNL A   1      37.403  21.341  25.432  1.00  0.00     0.040 A 
ATOM     98  C   UNL A   1      38.253  22.403  25.728  1.00  0.00     0.123 A 
ATOM     99  F   UNL A   1      39.571  22.185  25.821  1.00  0.00    -0.207 F 
ENDBRANCH  91  93
ENDBRANCH  86  88
ENDBRANCH  78  84
ENDBRANCH  74  77
ENDBRANCH  72  73
ENDBRANCH   1  72
TORSDOF 16
ENDMDL
MODEL 3
REMARK VINA RESULT:     -12.6      4.803      9.866
REMARK SMILES O=C(NCCCNC(=O)[C@@H]1[C@@H](C(=O)Nc2nc(-c3ccc(F)cc3)cs2)[C@H]2C=C[C@@H]1O2)c1ccc(-c2c3nc(c(-c4cccc(S(=O)(=O)[O-])c4F)c4ccc([nH]4)c(-c4cccc(S(=O)(=O)[O-])c4F)c4nc(c(-c5cccc(S(=O)(=O)[O-])c5F)c5ccc2[nH]5)C=C4)C=C3)cc1
REMARK SMILES IDX 5 1 4 2 3 3 1 4 2 5 32 7 33 8 94 9 34 10 93 11 35 12 36 13
REMARK SMILES IDX 37 14 87 15 38 16 92 17 86 18 88 19 39 20 91 21 85 22 84 23
REMARK SMILES IDX 40 25 72 26 52 27 71 28 53 29 56 30 70 31 89 32 54 33 55 34
REMARK SMILES IDX 69 36 90 37 57 38 41 39 42 40 50 41 43 42 45 43 51 44 44 45
REMARK SMILES IDX 46 46 47 47 48 48 49 49 73 50 74 51 82 52 75 53 77 54 83 55
REMARK SMILES IDX 76 56 78 57 79 58 80 59 81 60 58 61 59 62 67 63 60 64 62 65
REMARK SMILES IDX 68 66 61 67 63 68 64 69 65 70 66 71 6 72 7 73 8 74 9 76
REMARK SMILES IDX 10 77 11 78 30 79 27 80 29 81 31 82 28 83 12 84 13 85 14 86
REMARK SMILES IDX 15 88 16 89 26 90 17 91 25 92 18 93 19 94 24 95 20 96 23 97
REMARK SMILES IDX 21 98 22 99
REMARK H PARENT 3 6 88 24 56 35 7 75 14 87
REMARK Flexibility Score: inf
ROOT
ATOM      1  C   UNL A   1      35.507  23.187  25.036  1.00  0.00     0.042 C 
ENDROOT
BRANCH   1   2
ATOM      2  C   UNL A   1      35.914  22.336  26.231  1.00  0.00     0.118 C 
BRANCH   2   3
ATOM      3  N   UNL A   1      36.902  21.319  25.902  1.00  0.00    -0.352 N 
ATOM      4  O   UNL A   1      38.911  20.458  25.377  1.00  0.00    -0.269 OA
ATOM      5  C   UNL A   1      38.277  21.390  25.849  1.00  0.00     0.251 C 
ATOM      6  H   UNL A   1      36.527  20.435  25.683  1.00  0.00     0.163 HD
BRANCH   5   7
ATOM      7  C   UNL A   1      38.978  22.605  26.325  1.00  0.00     0.039 A 
ATOM      8  C   UNL A   1      38.600  23.870  25.877  1.00  0.00     0.014 A 
ATOM      9  C   UNL A   1      40.026  22.479  27.242  1.00  0.00     0.014 A 
ATOM     10  C   UNL A   1      39.387  24.974  26.176  1.00  0.00     0.010 A 
ATOM     11  C   UNL A   1      40.741  23.613  27.642  1.00  0.00     0.010 A 
ATOM     12  C   UNL A   1      40.456  24.865  27.079  1.00  0.00    -0.014 A 
BRANCH  12  13
ATOM     13  C   UNL A   1      41.199  26.092  27.468  1.00  0.00     0.031 A 
ATOM     14  C   UNL A   1      42.617  26.328  27.026  1.00  0.00     0.074 A 
ATOM     15  C   UNL A   1      40.561  27.019  28.214  1.00  0.00     0.049 A 
ATOM     16  N   UNL A   1      43.385  27.362  27.261  1.00  0.00    -0.248 NA
ATOM     17  C   UNL A   1      43.264  25.274  26.228  1.00  0.00     0.031 C 
ATOM     18  C   UNL A   1      39.197  26.881  28.732  1.00  0.00     0.029 A 
ATOM     19  N   UNL A   1      40.957  28.256  28.652  1.00  0.00    -0.354 N 
ATOM     20  C   UNL A   1      44.613  27.067  26.682  1.00  0.00     0.074 A 
ATOM     21  C   UNL A   1      44.493  25.755  26.084  1.00  0.00     0.031 C 
ATOM     22  C   UNL A   1      38.850  28.008  29.369  1.00  0.00     0.029 A 
ATOM     23  C   UNL A   1      39.988  28.920  29.367  1.00  0.00     0.049 A 
ATOM     24  H   UNL A   1      41.848  28.633  28.472  1.00  0.00     0.167 HD
ATOM     25  C   UNL A   1      45.732  27.831  26.638  1.00  0.00     0.034 A 
ATOM     26  C   UNL A   1      40.009  30.123  29.972  1.00  0.00     0.034 A 
ATOM     27  C   UNL A   1      45.826  29.157  27.189  1.00  0.00     0.049 A 
ATOM     28  C   UNL A   1      41.251  30.957  29.881  1.00  0.00     0.074 A 
ATOM     29  C   UNL A   1      46.900  30.030  27.141  1.00  0.00     0.029 A 
ATOM     30  N   UNL A   1      44.816  29.803  27.884  1.00  0.00    -0.354 N 
ATOM     31  N   UNL A   1      42.367  30.701  29.240  1.00  0.00    -0.248 NA
ATOM     32  C   UNL A   1      41.240  32.250  30.579  1.00  0.00     0.031 C 
ATOM     33  C   UNL A   1      46.543  31.199  27.819  1.00  0.00     0.029 A 
ATOM     34  C   UNL A   1      45.243  31.061  28.278  1.00  0.00     0.049 A 
ATOM     35  H   UNL A   1      43.927  29.425  28.071  1.00  0.00     0.167 HD
ATOM     36  C   UNL A   1      43.186  31.802  29.449  1.00  0.00     0.074 A 
ATOM     37  C   UNL A   1      42.427  32.743  30.248  1.00  0.00     0.031 C 
ATOM     38  C   UNL A   1      44.461  32.004  29.036  1.00  0.00     0.034 A 
BRANCH  25  39
ATOM     39  C   UNL A   1      46.942  27.282  25.927  1.00  0.00     0.023 A 
ATOM     40  C   UNL A   1      47.085  27.493  24.541  1.00  0.00     0.012 A 
ATOM     41  C   UNL A   1      47.984  26.660  26.643  1.00  0.00     0.148 A 
ATOM     42  C   UNL A   1      48.239  27.081  23.876  1.00  0.00     0.002 A 
ATOM     43  C   UNL A   1      49.147  26.286  25.979  1.00  0.00     0.091 A 
ATOM     44  F   UNL A   1      47.822  26.452  27.958  1.00  0.00    -0.205 F 
ATOM     45  C   UNL A   1      49.273  26.489  24.596  1.00  0.00     0.022 A 
BRANCH  43  46
ATOM     46  S   UNL A   1      50.569  25.588  26.830  1.00  0.00     0.127 S 
ATOM     47  O   UNL A   1      50.970  26.699  27.692  1.00  0.00    -0.237 OA
ATOM     48  O   UNL A   1      49.980  24.450  27.536  1.00  0.00    -0.237 OA
ATOM     49  O   UNL A   1      51.522  25.229  25.789  1.00  0.00    -0.744 OA
ENDBRANCH  43  46
ENDBRANCH  25  39
BRANCH  26  50
ATOM     50  C   UNL A   1      38.783  30.613  30.664  1.00  0.00     0.023 A 
ATOM     51  C   UNL A   1      38.673  30.468  32.059  1.00  0.00     0.012 A 
ATOM     52  C   UNL A   1      37.777  31.308  29.963  1.00  0.00     0.148 A 
ATOM     53  C   UNL A   1      37.581  31.003  32.743  1.00  0.00     0.002 A 
ATOM     54  C   UNL A   1      36.727  31.894  30.659  1.00  0.00     0.091 A 
ATOM     55  F   UNL A   1      37.890  31.418  28.631  1.00  0.00    -0.205 F 
ATOM     56  C   UNL A   1      36.619  31.730  32.048  1.00  0.00     0.022 A 
BRANCH  54  57
ATOM     57  S   UNL A   1      35.543  32.985  29.861  1.00  0.00     0.127 S 
ATOM     58  O   UNL A   1      34.769  32.046  29.053  1.00  0.00    -0.237 OA
ATOM     59  O   UNL A   1      34.828  33.549  31.007  1.00  0.00    -0.237 OA
ATOM     60  O   UNL A   1      36.342  33.953  29.121  1.00  0.00    -0.744 OA
ENDBRANCH  54  57
ENDBRANCH  26  50
BRANCH  38  61
ATOM     61  C   UNL A   1      45.130  33.289  29.437  1.00  0.00     0.023 A 
ATOM     62  C   UNL A   1      45.901  33.327  30.616  1.00  0.00     0.012 A 
ATOM     63  C   UNL A   1      45.082  34.423  28.602  1.00  0.00     0.148 A 
ATOM     64  C   UNL A   1      46.601  34.480  30.967  1.00  0.00     0.002 A 
ATOM     65  C   UNL A   1      45.818  35.553  28.935  1.00  0.00     0.091 A 
ATOM     66  F   UNL A   1      44.327  34.370  27.495  1.00  0.00    -0.205 F 
ATOM     67  C   UNL A   1      46.571  35.586  30.121  1.00  0.00     0.022 A 
BRANCH  65  68
ATOM     68  S   UNL A   1      45.915  36.989  27.861  1.00  0.00     0.127 S 
ATOM     69  O   UNL A   1      46.747  37.896  28.648  1.00  0.00    -0.237 OA
ATOM     70  O   UNL A   1      46.565  36.443  26.668  1.00  0.00    -0.237 OA
ATOM     71  O   UNL A   1      44.540  37.425  27.651  1.00  0.00    -0.744 OA
ENDBRANCH  65  68
ENDBRANCH  38  61
ENDBRANCH  12  13
ENDBRANCH   5   7
ENDBRANCH   2   3
ENDBRANCH   1   2
BRANCH   1  72
ATOM     72  C   UNL A   1      34.775  24.469  25.397  1.00  0.00     0.117 C 
BRANCH  72  73
ATOM     73  N   UNL A   1      34.304  25.185  24.228  1.00  0.00    -0.356 N 
ATOM     74  C   UNL A   1      33.714  26.400  24.103  1.00  0.00     0.227 C 
ATOM     75  H   UNL A   1      34.433  24.706  23.377  1.00  0.00     0.163 HD
ATOM     76  O   UNL A   1      33.363  26.715  22.966  1.00  0.00    -0.275 OA
BRANCH  74  77
ATOM     77  C   UNL A   1      33.423  27.249  25.325  1.00  0.00     0.127 C 
ATOM     78  C   UNL A   1      31.907  27.593  25.421  1.00  0.00     0.127 C 
ATOM     79  C   UNL A   1      34.030  28.663  25.213  1.00  0.00     0.155 C 
ATOM     80  C   UNL A   1      31.945  29.121  25.583  1.00  0.00     0.155 C 
ATOM     81  C   UNL A   1      33.989  29.302  26.568  1.00  0.00     0.004 C 
ATOM     82  O   UNL A   1      32.954  29.412  24.581  1.00  0.00    -0.365 OA
ATOM     83  C   UNL A   1      32.698  29.577  26.801  1.00  0.00     0.004 C 
BRANCH  78  84
ATOM     84  C   UNL A   1      31.130  26.966  26.568  1.00  0.00     0.233 C 
ATOM     85  O   UNL A   1      31.028  27.522  27.665  1.00  0.00    -0.274 OA
ATOM     86  N   UNL A   1      30.360  25.859  26.324  1.00  0.00    -0.302 N 
ATOM     87  H   UNL A   1      29.528  25.751  26.841  1.00  0.00     0.172 HD
BRANCH  86  88
ATOM     88  C   UNL A   1      30.675  24.896  25.410  1.00  0.00     0.189 A 
ATOM     89  N   UNL A   1      31.269  23.761  25.640  1.00  0.00    -0.220 NA
ATOM     90  S   UNL A   1      30.179  25.174  23.805  1.00  0.00    -0.105 S 
ATOM     91  C   UNL A   1      31.411  23.053  24.470  1.00  0.00     0.084 A 
ATOM     92  C   UNL A   1      30.923  23.683  23.344  1.00  0.00     0.097 A 
BRANCH  91  93
ATOM     93  C   UNL A   1      31.996  21.728  24.490  1.00  0.00     0.001 A 
ATOM     94  C   UNL A   1      32.474  21.211  25.704  1.00  0.00     0.013 A 
ATOM     95  C   UNL A   1      32.154  20.989  23.311  1.00  0.00     0.013 A 
ATOM     96  C   UNL A   1      33.082  19.957  25.745  1.00  0.00     0.040 A 
ATOM     97  C   UNL A   1      32.774  19.737  23.354  1.00  0.00     0.040 A 
ATOM     98  C   UNL A   1      33.227  19.231  24.569  1.00  0.00     0.123 A 
ATOM     99  F   UNL A   1      33.819  18.030  24.603  1.00  0.00    -0.207 F 
ENDBRANCH  91  93
ENDBRANCH  86  88
ENDBRANCH  78  84
ENDBRANCH  74  77
ENDBRANCH  72  73
ENDBRANCH   1  72
TORSDOF 16
ENDMDL
