MODEL 1
REMARK VINA RESULT:     -13.0      0.000      0.000
REMARK SMILES O=C(NCCCNC(=O)c1cccc2c1cc(Br)c1ccccc12)c1ccc(-c2c3nc(c(-c4cccc(S(=O)(=O)[O-])c4F)c4ccc([nH]4)c(-c4cccc(S(=O)(=O)[O-])c4F)c4nc(c(-c5cccc(S(=O)(=O)[O-])c5F)c5ccc2[nH]5)C=C4)C=C3)cc1
REMARK SMILES IDX 1 1 2 2 3 3 25 5 26 6 87 7 27 8 86 9 28 10 29 11 30 12 80 13
REMARK SMILES IDX 31 14 85 15 79 16 81 17 32 18 84 19 78 20 77 21 33 23 65 24
REMARK SMILES IDX 45 25 64 26 46 27 49 28 63 29 82 30 47 31 48 32 62 34 83 35
REMARK SMILES IDX 50 36 34 37 35 38 43 39 36 40 38 41 44 42 37 43 39 44 40 45
REMARK SMILES IDX 41 46 42 47 66 48 67 49 75 50 68 51 70 52 76 53 69 54 71 55
REMARK SMILES IDX 72 56 73 57 74 58 51 59 52 60 60 61 53 62 55 63 61 64 54 65
REMARK SMILES IDX 56 66 57 67 58 68 59 69 4 70 5 71 6 72 7 73 8 74 9 76 10 77
REMARK SMILES IDX 11 78 15 79 12 80 14 81 16 82 13 83 24 84 17 85 19 86 23 87
REMARK SMILES IDX 18 88 20 89 22 90 21 91
REMARK H PARENT 3 4 81 22 49 33 7 75
REMARK Flexibility Score: inf
ROOT
ATOM      1  O   UNL A   1      32.202  31.800  26.809  1.00  0.00    -0.269 OA
ATOM      2  C   UNL A   1      32.923  30.824  26.604  1.00  0.00     0.251 C 
ATOM      3  N   UNL A   1      32.592  29.964  25.587  1.00  0.00    -0.352 N 
ATOM      4  H   UNL A   1      31.883  30.294  24.989  1.00  0.00     0.163 HD
ENDROOT
BRANCH   2   5
ATOM      5  C   UNL A   1      34.119  30.604  27.450  1.00  0.00     0.039 A 
ATOM      6  C   UNL A   1      35.019  31.663  27.627  1.00  0.00     0.014 A 
ATOM      7  C   UNL A   1      34.412  29.354  27.999  1.00  0.00     0.014 A 
ATOM      8  C   UNL A   1      36.186  31.475  28.373  1.00  0.00     0.010 A 
ATOM      9  C   UNL A   1      35.531  29.191  28.814  1.00  0.00     0.010 A 
ATOM     10  C   UNL A   1      36.447  30.239  28.983  1.00  0.00    -0.014 A 
BRANCH  10  11
ATOM     11  C   UNL A   1      37.704  29.991  29.733  1.00  0.00     0.031 A 
ATOM     12  C   UNL A   1      38.776  29.120  29.128  1.00  0.00     0.074 A 
ATOM     13  C   UNL A   1      37.868  30.496  30.972  1.00  0.00     0.049 A 
ATOM     14  N   UNL A   1      39.899  28.709  29.655  1.00  0.00    -0.248 NA
ATOM     15  C   UNL A   1      38.543  28.624  27.760  1.00  0.00     0.031 C 
ATOM     16  C   UNL A   1      36.889  31.313  31.692  1.00  0.00     0.029 A 
ATOM     17  N   UNL A   1      38.916  30.381  31.851  1.00  0.00    -0.354 N 
ATOM     18  C   UNL A   1      40.478  27.873  28.710  1.00  0.00     0.074 A 
ATOM     19  C   UNL A   1      39.576  27.814  27.583  1.00  0.00     0.031 C 
ATOM     20  C   UNL A   1      37.390  31.639  32.895  1.00  0.00     0.029 A 
ATOM     21  C   UNL A   1      38.710  31.034  33.044  1.00  0.00     0.049 A 
ATOM     22  H   UNL A   1      39.737  29.878  31.647  1.00  0.00     0.167 HD
ATOM     23  C   UNL A   1      41.673  27.240  28.756  1.00  0.00     0.034 A 
ATOM     24  C   UNL A   1      39.496  31.134  34.134  1.00  0.00     0.034 A 
ATOM     25  C   UNL A   1      42.613  27.368  29.833  1.00  0.00     0.049 A 
ATOM     26  C   UNL A   1      40.843  30.465  34.140  1.00  0.00     0.074 A 
ATOM     27  C   UNL A   1      43.886  26.835  29.927  1.00  0.00     0.029 A 
ATOM     28  N   UNL A   1      42.392  28.094  30.991  1.00  0.00    -0.354 N 
ATOM     29  N   UNL A   1      41.414  29.763  33.193  1.00  0.00    -0.248 NA
ATOM     30  C   UNL A   1      41.662  30.619  35.351  1.00  0.00     0.031 C 
ATOM     31  C   UNL A   1      44.439  27.243  31.144  1.00  0.00     0.029 A 
ATOM     32  C   UNL A   1      43.508  28.028  31.805  1.00  0.00     0.049 A 
ATOM     33  H   UNL A   1      41.565  28.584  31.203  1.00  0.00     0.167 HD
ATOM     34  C   UNL A   1      42.665  29.407  33.684  1.00  0.00     0.074 A 
ATOM     35  C   UNL A   1      42.777  29.985  35.006  1.00  0.00     0.031 C 
ATOM     36  C   UNL A   1      43.625  28.654  33.096  1.00  0.00     0.034 A 
BRANCH  23  37
ATOM     37  C   UNL A   1      42.078  26.411  27.570  1.00  0.00     0.023 A 
ATOM     38  C   UNL A   1      42.853  27.004  26.555  1.00  0.00     0.012 A 
ATOM     39  C   UNL A   1      41.773  25.038  27.502  1.00  0.00     0.148 A 
ATOM     40  C   UNL A   1      43.311  26.247  25.479  1.00  0.00     0.002 A 
ATOM     41  C   UNL A   1      42.259  24.282  26.442  1.00  0.00     0.091 A 
ATOM     42  F   UNL A   1      41.022  24.502  28.474  1.00  0.00    -0.205 F 
ATOM     43  C   UNL A   1      43.023  24.884  25.429  1.00  0.00     0.022 A 
BRANCH  41  44
ATOM     44  S   UNL A   1      41.993  22.511  26.305  1.00  0.00     0.127 S 
ATOM     45  O   UNL A   1      42.651  22.211  25.034  1.00  0.00    -0.237 OA
ATOM     46  O   UNL A   1      42.690  22.005  27.488  1.00  0.00    -0.237 OA
ATOM     47  O   UNL A   1      40.550  22.316  26.314  1.00  0.00    -0.744 OA
ENDBRANCH  41  44
ENDBRANCH  23  37
BRANCH  24  48
ATOM     48  C   UNL A   1      39.053  31.974  35.281  1.00  0.00     0.023 A 
ATOM     49  C   UNL A   1      39.205  33.372  35.198  1.00  0.00     0.012 A 
ATOM     50  C   UNL A   1      38.432  31.411  36.412  1.00  0.00     0.148 A 
ATOM     51  C   UNL A   1      38.754  34.197  36.229  1.00  0.00     0.002 A 
ATOM     52  C   UNL A   1      37.951  32.241  37.417  1.00  0.00     0.091 A 
ATOM     53  F   UNL A   1      38.306  30.078  36.466  1.00  0.00    -0.205 F 
ATOM     54  C   UNL A   1      38.119  33.633  37.332  1.00  0.00     0.022 A 
BRANCH  52  55
ATOM     55  S   UNL A   1      37.029  31.622  38.829  1.00  0.00     0.127 S 
ATOM     56  O   UNL A   1      37.998  31.781  39.911  1.00  0.00    -0.237 OA
ATOM     57  O   UNL A   1      35.896  32.547  38.875  1.00  0.00    -0.237 OA
ATOM     58  O   UNL A   1      36.675  30.248  38.501  1.00  0.00    -0.744 OA
ENDBRANCH  52  55
ENDBRANCH  24  48
BRANCH  36  59
ATOM     59  C   UNL A   1      44.895  28.401  33.858  1.00  0.00     0.023 A 
ATOM     60  C   UNL A   1      45.948  29.330  33.762  1.00  0.00     0.012 A 
ATOM     61  C   UNL A   1      44.988  27.330  34.768  1.00  0.00     0.148 A 
ATOM     62  C   UNL A   1      47.081  29.196  34.562  1.00  0.00     0.002 A 
ATOM     63  C   UNL A   1      46.107  27.221  35.585  1.00  0.00     0.091 A 
ATOM     64  F   UNL A   1      43.973  26.457  34.832  1.00  0.00    -0.205 F 
ATOM     65  C   UNL A   1      47.155  28.152  35.482  1.00  0.00     0.022 A 
BRANCH  63  66
ATOM     66  S   UNL A   1      46.261  25.957  36.853  1.00  0.00     0.127 S 
ATOM     67  O   UNL A   1      46.388  24.743  36.049  1.00  0.00    -0.237 OA
ATOM     68  O   UNL A   1      47.486  26.362  37.545  1.00  0.00    -0.237 OA
ATOM     69  O   UNL A   1      45.052  26.044  37.659  1.00  0.00    -0.744 OA
ENDBRANCH  63  66
ENDBRANCH  36  59
ENDBRANCH  10  11
ENDBRANCH   2   5
BRANCH   3  70
ATOM     70  C   UNL A   1      33.110  28.649  25.240  1.00  0.00     0.118 C 
BRANCH  70  71
ATOM     71  C   UNL A   1      33.921  28.658  23.951  1.00  0.00     0.042 C 
BRANCH  71  72
ATOM     72  C   UNL A   1      33.102  28.880  22.688  1.00  0.00     0.118 C 
BRANCH  72  73
ATOM     73  N   UNL A   1      33.312  27.853  21.677  1.00  0.00    -0.352 N 
ATOM     74  C   UNL A   1      33.001  26.513  21.709  1.00  0.00     0.251 C 
ATOM     75  H   UNL A   1      33.741  28.163  20.847  1.00  0.00     0.163 HD
ATOM     76  O   UNL A   1      33.277  25.794  20.755  1.00  0.00    -0.269 OA
BRANCH  74  77
ATOM     77  C   UNL A   1      32.312  25.952  22.895  1.00  0.00     0.047 A 
ATOM     78  C   UNL A   1      30.988  26.357  23.098  1.00  0.00     0.014 A 
ATOM     79  C   UNL A   1      32.953  25.035  23.774  1.00  0.00    -0.004 A 
ATOM     80  C   UNL A   1      30.318  25.952  24.235  1.00  0.00     0.002 A 
ATOM     81  C   UNL A   1      32.270  24.602  24.942  1.00  0.00    -0.010 A 
ATOM     82  C   UNL A   1      34.244  24.531  23.535  1.00  0.00     0.026 A 
ATOM     83  C   UNL A   1      30.957  25.107  25.142  1.00  0.00     0.009 A 
ATOM     84  C   UNL A   1      32.909  23.682  25.856  1.00  0.00    -0.009 A 
ATOM     85  C   UNL A   1      34.847  23.608  24.391  1.00  0.00     0.026 A 
ATOM     86  C   UNL A   1      34.201  23.165  25.564  1.00  0.00    -0.004 A 
ATOM     87  C   UNL A   1      32.299  23.244  27.063  1.00  0.00     0.009 A 
ATOM     88  Br  UNL A   1      36.575  22.986  23.865  1.00  0.00    -0.050 Br
ATOM     89  C   UNL A   1      34.785  22.232  26.460  1.00  0.00     0.010 A 
ATOM     90  C   UNL A   1      32.903  22.335  27.933  1.00  0.00     0.001 A 
ATOM     91  C   UNL A   1      34.146  21.820  27.626  1.00  0.00     0.001 A 
ENDBRANCH  74  77
ENDBRANCH  72  73
ENDBRANCH  71  72
ENDBRANCH  70  71
ENDBRANCH   3  70
TORSDOF 13
ENDMDL
MODEL 2
REMARK VINA RESULT:     -12.8      1.328      1.720
REMARK SMILES O=C(NCCCNC(=O)c1cccc2c1cc(Br)c1ccccc12)c1ccc(-c2c3nc(c(-c4cccc(S(=O)(=O)[O-])c4F)c4ccc([nH]4)c(-c4cccc(S(=O)(=O)[O-])c4F)c4nc(c(-c5cccc(S(=O)(=O)[O-])c5F)c5ccc2[nH]5)C=C4)C=C3)cc1
REMARK SMILES IDX 1 1 2 2 3 3 25 5 26 6 87 7 27 8 86 9 28 10 29 11 30 12 80 13
REMARK SMILES IDX 31 14 85 15 79 16 81 17 32 18 84 19 78 20 77 21 33 23 65 24
REMARK SMILES IDX 45 25 64 26 46 27 49 28 63 29 82 30 47 31 48 32 62 34 83 35
REMARK SMILES IDX 50 36 34 37 35 38 43 39 36 40 38 41 44 42 37 43 39 44 40 45
REMARK SMILES IDX 41 46 42 47 66 48 67 49 75 50 68 51 70 52 76 53 69 54 71 55
REMARK SMILES IDX 72 56 73 57 74 58 51 59 52 60 60 61 53 62 55 63 61 64 54 65
REMARK SMILES IDX 56 66 57 67 58 68 59 69 4 70 5 71 6 72 7 73 8 74 9 76 10 77
REMARK SMILES IDX 11 78 15 79 12 80 14 81 16 82 13 83 24 84 17 85 19 86 23 87
REMARK SMILES IDX 18 88 20 89 22 90 21 91
REMARK H PARENT 3 4 81 22 49 33 7 75
REMARK Flexibility Score: inf
ROOT
ATOM      1  O   UNL A   1      32.193  32.184  27.211  1.00  0.00    -0.269 OA
ATOM      2  C   UNL A   1      32.874  31.238  26.817  1.00  0.00     0.251 C 
ATOM      3  N   UNL A   1      32.415  30.493  25.760  1.00  0.00    -0.352 N 
ATOM      4  H   UNL A   1      31.644  30.884  25.290  1.00  0.00     0.163 HD
ENDROOT
BRANCH   2   5
ATOM      5  C   UNL A   1      34.160  30.931  27.485  1.00  0.00     0.039 A 
ATOM      6  C   UNL A   1      34.365  29.638  27.983  1.00  0.00     0.014 A 
ATOM      7  C   UNL A   1      35.128  31.913  27.704  1.00  0.00     0.014 A 
ATOM      8  C   UNL A   1      35.543  29.328  28.669  1.00  0.00     0.010 A 
ATOM      9  C   UNL A   1      36.339  31.582  28.310  1.00  0.00     0.010 A 
ATOM     10  C   UNL A   1      36.546  30.296  28.829  1.00  0.00    -0.014 A 
BRANCH  10  11
ATOM     11  C   UNL A   1      37.783  30.014  29.601  1.00  0.00     0.031 A 
ATOM     12  C   UNL A   1      38.840  29.112  29.014  1.00  0.00     0.074 A 
ATOM     13  C   UNL A   1      37.941  30.515  30.842  1.00  0.00     0.049 A 
ATOM     14  N   UNL A   1      39.942  28.671  29.560  1.00  0.00    -0.248 NA
ATOM     15  C   UNL A   1      38.616  28.622  27.642  1.00  0.00     0.031 C 
ATOM     16  C   UNL A   1      36.973  31.359  31.545  1.00  0.00     0.029 A 
ATOM     17  N   UNL A   1      38.970  30.370  31.738  1.00  0.00    -0.354 N 
ATOM     18  C   UNL A   1      40.513  27.817  28.625  1.00  0.00     0.074 A 
ATOM     19  C   UNL A   1      39.629  27.782  27.482  1.00  0.00     0.031 C 
ATOM     20  C   UNL A   1      37.463  31.672  32.756  1.00  0.00     0.029 A 
ATOM     21  C   UNL A   1      38.763  31.030  32.927  1.00  0.00     0.049 A 
ATOM     22  H   UNL A   1      39.780  29.845  31.548  1.00  0.00     0.167 HD
ATOM     23  C   UNL A   1      41.688  27.151  28.690  1.00  0.00     0.034 A 
ATOM     24  C   UNL A   1      39.533  31.109  34.030  1.00  0.00     0.034 A 
ATOM     25  C   UNL A   1      42.614  27.254  29.782  1.00  0.00     0.049 A 
ATOM     26  C   UNL A   1      40.861  30.403  34.058  1.00  0.00     0.074 A 
ATOM     27  C   UNL A   1      43.870  26.686  29.898  1.00  0.00     0.029 A 
ATOM     28  N   UNL A   1      42.395  27.987  30.936  1.00  0.00    -0.354 N 
ATOM     29  N   UNL A   1      41.428  29.684  33.121  1.00  0.00    -0.248 NA
ATOM     30  C   UNL A   1      41.664  30.535  35.283  1.00  0.00     0.031 C 
ATOM     31  C   UNL A   1      44.414  27.079  31.123  1.00  0.00     0.029 A 
ATOM     32  C   UNL A   1      43.494  27.890  31.769  1.00  0.00     0.049 A 
ATOM     33  H   UNL A   1      41.578  28.500  31.135  1.00  0.00     0.167 HD
ATOM     34  C   UNL A   1      42.659  29.294  33.633  1.00  0.00     0.074 A 
ATOM     35  C   UNL A   1      42.766  29.870  34.956  1.00  0.00     0.031 C 
ATOM     36  C   UNL A   1      43.608  28.514  33.061  1.00  0.00     0.034 A 
BRANCH  23  37
ATOM     37  C   UNL A   1      42.090  26.310  27.511  1.00  0.00     0.023 A 
ATOM     38  C   UNL A   1      42.849  26.897  26.480  1.00  0.00     0.012 A 
ATOM     39  C   UNL A   1      41.798  24.934  27.465  1.00  0.00     0.148 A 
ATOM     40  C   UNL A   1      43.303  26.130  25.410  1.00  0.00     0.002 A 
ATOM     41  C   UNL A   1      42.280  24.168  26.410  1.00  0.00     0.091 A 
ATOM     42  F   UNL A   1      41.062  24.404  28.452  1.00  0.00    -0.205 F 
ATOM     43  C   UNL A   1      43.028  24.764  25.381  1.00  0.00     0.022 A 
BRANCH  41  44
ATOM     44  S   UNL A   1      42.030  22.393  26.299  1.00  0.00     0.127 S 
ATOM     45  O   UNL A   1      40.576  22.307  26.179  1.00  0.00    -0.237 OA
ATOM     46  O   UNL A   1      42.765  22.056  25.080  1.00  0.00    -0.237 OA
ATOM     47  O   UNL A   1      42.583  21.829  27.523  1.00  0.00    -0.744 OA
ENDBRANCH  41  44
ENDBRANCH  23  37
BRANCH  24  48
ATOM     48  C   UNL A   1      39.095  31.962  35.169  1.00  0.00     0.023 A 
ATOM     49  C   UNL A   1      38.188  31.432  36.106  1.00  0.00     0.012 A 
ATOM     50  C   UNL A   1      39.615  33.256  35.364  1.00  0.00     0.148 A 
ATOM     51  C   UNL A   1      37.795  32.181  37.216  1.00  0.00     0.002 A 
ATOM     52  C   UNL A   1      39.250  33.982  36.492  1.00  0.00     0.091 A 
ATOM     53  F   UNL A   1      40.473  33.737  34.454  1.00  0.00    -0.205 F 
ATOM     54  C   UNL A   1      38.333  33.450  37.413  1.00  0.00     0.022 A 
BRANCH  52  55
ATOM     55  S   UNL A   1      39.962  35.581  36.890  1.00  0.00     0.127 S 
ATOM     56  O   UNL A   1      39.278  35.911  38.139  1.00  0.00    -0.237 OA
ATOM     57  O   UNL A   1      41.380  35.251  37.033  1.00  0.00    -0.237 OA
ATOM     58  O   UNL A   1      39.653  36.446  35.760  1.00  0.00    -0.744 OA
ENDBRANCH  52  55
ENDBRANCH  24  48
BRANCH  36  59
ATOM     59  C   UNL A   1      44.858  28.226  33.844  1.00  0.00     0.023 A 
ATOM     60  C   UNL A   1      45.919  29.149  33.804  1.00  0.00     0.012 A 
ATOM     61  C   UNL A   1      44.922  27.125  34.720  1.00  0.00     0.148 A 
ATOM     62  C   UNL A   1      47.031  28.980  34.626  1.00  0.00     0.002 A 
ATOM     63  C   UNL A   1      46.020  26.980  35.560  1.00  0.00     0.091 A 
ATOM     64  F   UNL A   1      43.899  26.258  34.731  1.00  0.00    -0.205 F 
ATOM     65  C   UNL A   1      47.076  27.905  35.512  1.00  0.00     0.022 A 
BRANCH  63  66
ATOM     66  S   UNL A   1      46.135  25.674  36.788  1.00  0.00     0.127 S 
ATOM     67  O   UNL A   1      47.460  25.915  37.355  1.00  0.00    -0.237 OA
ATOM     68  O   UNL A   1      45.021  25.993  37.682  1.00  0.00    -0.237 OA
ATOM     69  O   UNL A   1      45.990  24.421  36.060  1.00  0.00    -0.744 OA
ENDBRANCH  63  66
ENDBRANCH  36  59
ENDBRANCH  10  11
ENDBRANCH   2   5
BRANCH   3  70
ATOM     70  C   UNL A   1      32.875  29.224  25.214  1.00  0.00     0.118 C 
BRANCH  70  71
ATOM     71  C   UNL A   1      32.837  29.191  23.691  1.00  0.00     0.042 C 
BRANCH  71  72
ATOM     72  C   UNL A   1      33.802  28.203  23.053  1.00  0.00     0.118 C 
BRANCH  72  73
ATOM     73  N   UNL A   1      33.239  27.510  21.902  1.00  0.00    -0.352 N 
ATOM     74  C   UNL A   1      32.381  26.436  21.858  1.00  0.00     0.251 C 
ATOM     75  H   UNL A   1      33.513  27.862  21.025  1.00  0.00     0.163 HD
ATOM     76  O   UNL A   1      32.028  25.974  20.778  1.00  0.00    -0.269 OA
BRANCH  74  77
ATOM     77  C   UNL A   1      31.871  25.856  23.124  1.00  0.00     0.047 A 
ATOM     78  C   UNL A   1      30.581  26.239  23.510  1.00  0.00     0.014 A 
ATOM     79  C   UNL A   1      32.641  24.944  23.898  1.00  0.00    -0.004 A 
ATOM     80  C   UNL A   1      30.081  25.817  24.726  1.00  0.00     0.002 A 
ATOM     81  C   UNL A   1      32.132  24.493  25.145  1.00  0.00    -0.010 A 
ATOM     82  C   UNL A   1      33.894  24.463  23.479  1.00  0.00     0.026 A 
ATOM     83  C   UNL A   1      30.852  24.976  25.529  1.00  0.00     0.009 A 
ATOM     84  C   UNL A   1      32.905  23.577  25.955  1.00  0.00    -0.009 A 
ATOM     85  C   UNL A   1      34.623  23.543  24.236  1.00  0.00     0.026 A 
ATOM     86  C   UNL A   1      34.152  23.083  25.483  1.00  0.00    -0.004 A 
ATOM     87  C   UNL A   1      32.475  23.123  27.230  1.00  0.00     0.009 A 
ATOM     88  Br  UNL A   1      36.271  22.953  23.471  1.00  0.00    -0.050 Br
ATOM     89  C   UNL A   1      34.868  22.154  26.281  1.00  0.00     0.010 A 
ATOM     90  C   UNL A   1      33.207  22.218  28.001  1.00  0.00     0.001 A 
ATOM     91  C   UNL A   1      34.403  21.725  27.521  1.00  0.00     0.001 A 
ENDBRANCH  74  77
ENDBRANCH  72  73
ENDBRANCH  71  72
ENDBRANCH  70  71
ENDBRANCH   3  70
TORSDOF 13
ENDMDL
MODEL 3
REMARK VINA RESULT:     -12.8      5.262     10.000
REMARK SMILES O=C(NCCCNC(=O)c1cccc2c1cc(Br)c1ccccc12)c1ccc(-c2c3nc(c(-c4cccc(S(=O)(=O)[O-])c4F)c4ccc([nH]4)c(-c4cccc(S(=O)(=O)[O-])c4F)c4nc(c(-c5cccc(S(=O)(=O)[O-])c5F)c5ccc2[nH]5)C=C4)C=C3)cc1
REMARK SMILES IDX 1 1 2 2 3 3 25 5 26 6 87 7 27 8 86 9 28 10 29 11 30 12 80 13
REMARK SMILES IDX 31 14 85 15 79 16 81 17 32 18 84 19 78 20 77 21 33 23 65 24
REMARK SMILES IDX 45 25 64 26 46 27 49 28 63 29 82 30 47 31 48 32 62 34 83 35
REMARK SMILES IDX 50 36 34 37 35 38 43 39 36 40 38 41 44 42 37 43 39 44 40 45
REMARK SMILES IDX 41 46 42 47 66 48 67 49 75 50 68 51 70 52 76 53 69 54 71 55
REMARK SMILES IDX 72 56 73 57 74 58 51 59 52 60 60 61 53 62 55 63 61 64 54 65
REMARK SMILES IDX 56 66 57 67 58 68 59 69 4 70 5 71 6 72 7 73 8 74 9 76 10 77
REMARK SMILES IDX 11 78 15 79 12 80 14 81 16 82 13 83 24 84 17 85 19 86 23 87
REMARK SMILES IDX 18 88 20 89 22 90 21 91
REMARK H PARENT 3 4 81 22 49 33 7 75
REMARK Flexibility Score: inf
ROOT
ATOM      1  O   UNL A   1      38.487  19.983  25.359  1.00  0.00    -0.269 OA
ATOM      2  C   UNL A   1      37.928  21.001  25.766  1.00  0.00     0.251 C 
ATOM      3  N   UNL A   1      36.563  20.988  25.913  1.00  0.00    -0.352 N 
ATOM      4  H   UNL A   1      36.154  20.096  25.836  1.00  0.00     0.163 HD
ENDROOT
BRANCH   2   5
ATOM      5  C   UNL A   1      38.733  22.204  26.084  1.00  0.00     0.039 A 
ATOM      6  C   UNL A   1      39.919  22.043  26.811  1.00  0.00     0.014 A 
ATOM      7  C   UNL A   1      38.298  23.489  25.753  1.00  0.00     0.014 A 
ATOM      8  C   UNL A   1      40.675  23.161  27.176  1.00  0.00     0.010 A 
ATOM      9  C   UNL A   1      39.095  24.595  26.042  1.00  0.00     0.010 A 
ATOM     10  C   UNL A   1      40.274  24.447  26.785  1.00  0.00    -0.014 A 
BRANCH  10  11
ATOM     11  C   UNL A   1      41.025  25.657  27.206  1.00  0.00     0.031 A 
ATOM     12  C   UNL A   1      40.342  26.703  28.050  1.00  0.00     0.074 A 
ATOM     13  C   UNL A   1      42.293  25.850  26.793  1.00  0.00     0.049 A 
ATOM     14  N   UNL A   1      40.790  27.867  28.443  1.00  0.00    -0.248 NA
ATOM     15  C   UNL A   1      38.965  26.415  28.490  1.00  0.00     0.031 C 
ATOM     16  C   UNL A   1      43.052  24.940  25.933  1.00  0.00     0.029 A 
ATOM     17  N   UNL A   1      43.161  26.887  27.030  1.00  0.00    -0.354 N 
ATOM     18  C   UNL A   1      39.741  28.466  29.127  1.00  0.00     0.074 A 
ATOM     19  C   UNL A   1      38.623  27.551  29.081  1.00  0.00     0.031 C 
ATOM     20  C   UNL A   1      44.279  25.450  25.730  1.00  0.00     0.029 A 
ATOM     21  C   UNL A   1      44.383  26.733  26.418  1.00  0.00     0.049 A 
ATOM     22  H   UNL A   1      42.931  27.666  27.584  1.00  0.00     0.167 HD
ATOM     23  C   UNL A   1      39.718  29.655  29.772  1.00  0.00     0.034 A 
ATOM     24  C   UNL A   1      45.466  27.535  26.414  1.00  0.00     0.034 A 
ATOM     25  C   UNL A   1      40.852  30.526  29.900  1.00  0.00     0.049 A 
ATOM     26  C   UNL A   1      45.434  28.827  27.182  1.00  0.00     0.074 A 
ATOM     27  C   UNL A   1      40.948  31.709  30.610  1.00  0.00     0.029 A 
ATOM     28  N   UNL A   1      42.089  30.299  29.322  1.00  0.00    -0.354 N 
ATOM     29  N   UNL A   1      44.464  29.326  27.908  1.00  0.00    -0.248 NA
ATOM     30  C   UNL A   1      46.650  29.655  27.152  1.00  0.00     0.031 C 
ATOM     31  C   UNL A   1      42.248  32.198  30.465  1.00  0.00     0.029 A 
ATOM     32  C   UNL A   1      42.959  31.318  29.664  1.00  0.00     0.049 A 
ATOM     33  H   UNL A   1      42.317  29.528  28.754  1.00  0.00     0.167 HD
ATOM     34  C   UNL A   1      44.956  30.514  28.435  1.00  0.00     0.074 A 
ATOM     35  C   UNL A   1      46.316  30.654  27.961  1.00  0.00     0.031 C 
ATOM     36  C   UNL A   1      44.327  31.416  29.228  1.00  0.00     0.034 A 
BRANCH  23  37
ATOM     37  C   UNL A   1      38.447  30.056  30.467  1.00  0.00     0.023 A 
ATOM     38  C   UNL A   1      38.233  29.635  31.795  1.00  0.00     0.012 A 
ATOM     39  C   UNL A   1      37.517  30.912  29.849  1.00  0.00     0.148 A 
ATOM     40  C   UNL A   1      37.103  30.051  32.496  1.00  0.00     0.002 A 
ATOM     41  C   UNL A   1      36.408  31.348  30.564  1.00  0.00     0.091 A 
ATOM     42  F   UNL A   1      37.738  31.285  28.581  1.00  0.00    -0.205 F 
ATOM     43  C   UNL A   1      36.197  30.916  31.884  1.00  0.00     0.022 A 
BRANCH  41  44
ATOM     44  S   UNL A   1      35.206  32.502  29.893  1.00  0.00     0.127 S 
ATOM     45  O   UNL A   1      34.651  31.735  28.779  1.00  0.00    -0.237 OA
ATOM     46  O   UNL A   1      34.294  32.685  31.023  1.00  0.00    -0.237 OA
ATOM     47  O   UNL A   1      35.956  33.691  29.512  1.00  0.00    -0.744 OA
ENDBRANCH  41  44
ENDBRANCH  23  37
BRANCH  24  48
ATOM     48  C   UNL A   1      46.705  27.089  25.717  1.00  0.00     0.023 A 
ATOM     49  C   UNL A   1      47.534  26.141  26.345  1.00  0.00     0.012 A 
ATOM     50  C   UNL A   1      47.029  27.544  24.425  1.00  0.00     0.148 A 
ATOM     51  C   UNL A   1      48.674  25.658  25.702  1.00  0.00     0.002 A 
ATOM     52  C   UNL A   1      48.144  27.031  23.774  1.00  0.00     0.091 A 
ATOM     53  F   UNL A   1      46.224  28.451  23.853  1.00  0.00    -0.205 F 
ATOM     54  C   UNL A   1      48.974  26.096  24.414  1.00  0.00     0.022 A 
BRANCH  52  55
ATOM     55  S   UNL A   1      48.559  27.453  22.078  1.00  0.00     0.127 S 
ATOM     56  O   UNL A   1      49.807  28.193  22.251  1.00  0.00    -0.237 OA
ATOM     57  O   UNL A   1      48.706  26.131  21.469  1.00  0.00    -0.237 OA
ATOM     58  O   UNL A   1      47.434  28.228  21.575  1.00  0.00    -0.744 OA
ENDBRANCH  52  55
ENDBRANCH  24  48
BRANCH  36  59
ATOM     59  C   UNL A   1      45.086  32.642  29.650  1.00  0.00     0.023 A 
ATOM     60  C   UNL A   1      45.901  32.583  30.795  1.00  0.00     0.012 A 
ATOM     61  C   UNL A   1      45.102  33.794  28.840  1.00  0.00     0.148 A 
ATOM     62  C   UNL A   1      46.723  33.656  31.132  1.00  0.00     0.002 A 
ATOM     63  C   UNL A   1      45.948  34.848  29.164  1.00  0.00     0.091 A 
ATOM     64  F   UNL A   1      44.310  33.825  27.758  1.00  0.00    -0.205 F 
ATOM     65  C   UNL A   1      46.757  34.782  30.311  1.00  0.00     0.022 A 
BRANCH  63  66
ATOM     66  S   UNL A   1      46.120  36.306  28.128  1.00  0.00     0.127 S 
ATOM     67  O   UNL A   1      44.883  37.027  28.423  1.00  0.00    -0.237 OA
ATOM     68  O   UNL A   1      47.332  36.926  28.667  1.00  0.00    -0.237 OA
ATOM     69  O   UNL A   1      46.244  35.819  26.762  1.00  0.00    -0.744 OA
ENDBRANCH  63  66
ENDBRANCH  36  59
ENDBRANCH  10  11
ENDBRANCH   2   5
BRANCH   3  70
ATOM     70  C   UNL A   1      35.618  22.067  26.165  1.00  0.00     0.118 C 
BRANCH  70  71
ATOM     71  C   UNL A   1      34.337  21.581  26.831  1.00  0.00     0.042 C 
BRANCH  71  72
ATOM     72  C   UNL A   1      33.616  22.634  27.661  1.00  0.00     0.118 C 
BRANCH  72  73
ATOM     73  N   UNL A   1      32.166  22.496  27.631  1.00  0.00    -0.352 N 
ATOM     74  C   UNL A   1      31.279  22.782  26.620  1.00  0.00     0.251 C 
ATOM     75  H   UNL A   1      31.761  22.147  28.457  1.00  0.00     0.163 HD
ATOM     76  O   UNL A   1      30.076  22.616  26.791  1.00  0.00    -0.269 OA
BRANCH  74  77
ATOM     77  C   UNL A   1      31.789  23.271  25.317  1.00  0.00     0.047 A 
ATOM     78  C   UNL A   1      31.915  22.319  24.299  1.00  0.00     0.014 A 
ATOM     79  C   UNL A   1      32.118  24.639  25.102  1.00  0.00    -0.004 A 
ATOM     80  C   UNL A   1      32.476  22.683  23.091  1.00  0.00     0.002 A 
ATOM     81  C   UNL A   1      32.685  25.028  23.860  1.00  0.00    -0.010 A 
ATOM     82  C   UNL A   1      31.902  25.632  26.074  1.00  0.00     0.026 A 
ATOM     83  C   UNL A   1      32.867  24.007  22.889  1.00  0.00     0.009 A 
ATOM     84  C   UNL A   1      33.041  26.410  23.627  1.00  0.00    -0.009 A 
ATOM     85  C   UNL A   1      32.201  26.975  25.836  1.00  0.00     0.026 A 
ATOM     86  C   UNL A   1      32.775  27.394  24.618  1.00  0.00    -0.004 A 
ATOM     87  C   UNL A   1      33.652  26.858  22.425  1.00  0.00     0.009 A 
ATOM     88  Br  UNL A   1      31.774  28.187  27.249  1.00  0.00    -0.050 Br
ATOM     89  C   UNL A   1      33.097  28.749  24.345  1.00  0.00     0.010 A 
ATOM     90  C   UNL A   1      33.971  28.196  22.187  1.00  0.00     0.001 A 
ATOM     91  C   UNL A   1      33.684  29.146  23.147  1.00  0.00     0.001 A 
ENDBRANCH  74  77
ENDBRANCH  72  73
ENDBRANCH  71  72
ENDBRANCH  70  71
ENDBRANCH   3  70
TORSDOF 13
ENDMDL
