MODEL 1
REMARK VINA RESULT:     -13.4      0.000      0.000
REMARK SMILES C[C@H]1CCc2sc3ncn4nc(/C=C\C(=O)NCCCNC(=O)c5ccc(-c6c7nc(c(-c8cccc(S(=O)(=O)[O-])c8F)c8ccc([nH]8)c(-c8cccc(S(=O)(=O)[O-])c8F)c8nc(c(-c9cccc(S(=O)(=O)[O-])c9F)c9ccc6[nH]9)C=C8)C=C7)cc5)nc4c3c2C1
REMARK SMILES IDX 20 1 19 2 18 3 17 4 15 5 16 6 14 8 13 9 12 10 1 11 2 12 3 13
REMARK SMILES IDX 91 14 4 15 90 16 5 17 89 18 6 19 7 20 88 21 8 22 10 23 87 24
REMARK SMILES IDX 9 25 11 26 21 27 22 28 23 30 24 31 25 32 86 33 26 34 85 35
REMARK SMILES IDX 27 36 28 37 29 38 79 39 30 40 84 41 78 42 80 43 31 44 83 45
REMARK SMILES IDX 77 46 76 47 32 49 64 50 44 51 63 52 45 53 48 54 62 55 81 56
REMARK SMILES IDX 46 57 47 58 61 60 82 61 49 62 33 63 34 64 42 65 35 66 37 67
REMARK SMILES IDX 43 68 36 69 38 70 39 71 40 72 41 73 65 74 66 75 74 76 67 77
REMARK SMILES IDX 69 78 75 79 68 80 70 81 71 82 72 83 73 84 50 85 51 86 59 87
REMARK SMILES IDX 52 88 54 89 60 90 53 91 55 92 56 93 57 94 58 95
REMARK H PARENT 17 7 21 29 80 48 48 59
REMARK Flexibility Score: inf
ROOT
ATOM      1  C   UNL A   1      38.445  21.720  25.656  1.00  0.00     0.118 C 
ENDROOT
BRANCH   1   2
ATOM      2  C   UNL A   1      37.191  21.666  24.780  1.00  0.00     0.042 C 
BRANCH   2   3
ATOM      3  C   UNL A   1      35.983  21.099  25.503  1.00  0.00     0.118 C 
BRANCH   3   4
ATOM      4  N   UNL A   1      35.457  19.836  25.030  1.00  0.00    -0.352 N 
ATOM      5  C   UNL A   1      34.172  19.462  24.775  1.00  0.00     0.244 C 
ATOM      6  O   UNL A   1      33.950  18.435  24.134  1.00  0.00    -0.270 OA
ATOM      7  H   UNL A   1      36.132  19.139  24.868  1.00  0.00     0.163 HD
BRANCH   5   8
ATOM      8  C   UNL A   1      33.018  20.138  25.411  1.00  0.00     0.075 C 
ATOM      9  C   UNL A   1      32.518  21.377  25.289  1.00  0.00     0.057 C 
BRANCH   9  10
ATOM     10  C   UNL A   1      33.004  22.480  24.534  1.00  0.00     0.175 A 
ATOM     11  C   UNL A   1      34.045  28.669  27.438  1.00  0.00     0.008 C 
ATOM     12  C   UNL A   1      32.632  28.306  26.992  1.00  0.00    -0.009 C 
ATOM     13  C   UNL A   1      32.026  29.443  26.146  1.00  0.00     0.009 C 
ATOM     14  C   UNL A   1      32.604  26.937  26.272  1.00  0.00     0.041 C 
ATOM     15  C   UNL A   1      32.603  29.575  24.732  1.00  0.00     0.047 C 
ATOM     16  C   UNL A   1      32.931  27.032  24.810  1.00  0.00    -0.020 A 
ATOM     17  C   UNL A   1      32.909  28.239  24.134  1.00  0.00     0.011 A 
ATOM     18  C   UNL A   1      33.182  25.977  23.892  1.00  0.00     0.060 A 
ATOM     19  S   UNL A   1      33.279  28.087  22.471  1.00  0.00    -0.120 S 
ATOM     20  C   UNL A   1      33.284  26.382  22.566  1.00  0.00     0.129 A 
ATOM     21  C   UNL A   1      33.232  24.512  24.059  1.00  0.00     0.168 A 
ATOM     22  N   UNL A   1      33.352  25.593  21.438  1.00  0.00    -0.225 NA
ATOM     23  N   UNL A   1      33.262  23.760  22.921  1.00  0.00    -0.201 N 
ATOM     24  N   UNL A   1      33.129  23.731  25.106  1.00  0.00    -0.207 NA
ATOM     25  C   UNL A   1      33.292  24.302  21.640  1.00  0.00     0.227 A 
ATOM     26  N   UNL A   1      33.151  22.447  23.196  1.00  0.00    -0.145 NA
ENDBRANCH   9  10
ENDBRANCH   5   8
ENDBRANCH   3   4
ENDBRANCH   2   3
ENDBRANCH   1   2
BRANCH   1  27
ATOM     27  N   UNL A   1      39.123  20.430  25.814  1.00  0.00    -0.352 N 
ATOM     28  C   UNL A   1      40.469  20.168  25.968  1.00  0.00     0.251 C 
ATOM     29  H   UNL A   1      38.535  19.640  25.810  1.00  0.00     0.163 HD
ATOM     30  O   UNL A   1      40.908  19.087  25.590  1.00  0.00    -0.269 OA
BRANCH  28  31
ATOM     31  C   UNL A   1      41.382  21.188  26.531  1.00  0.00     0.039 A 
ATOM     32  C   UNL A   1      41.708  22.312  25.768  1.00  0.00     0.014 A 
ATOM     33  C   UNL A   1      41.869  21.067  27.833  1.00  0.00     0.014 A 
ATOM     34  C   UNL A   1      42.359  23.375  26.382  1.00  0.00     0.010 A 
ATOM     35  C   UNL A   1      42.419  22.156  28.479  1.00  0.00     0.010 A 
ATOM     36  C   UNL A   1      42.618  23.329  27.765  1.00  0.00    -0.014 A 
BRANCH  36  37
ATOM     37  C   UNL A   1      42.696  24.598  28.487  1.00  0.00     0.031 A 
ATOM     38  C   UNL A   1      41.452  25.406  28.325  1.00  0.00     0.074 A 
ATOM     39  C   UNL A   1      43.598  24.960  29.418  1.00  0.00     0.049 A 
ATOM     40  N   UNL A   1      41.308  26.465  27.600  1.00  0.00    -0.248 NA
ATOM     41  C   UNL A   1      40.186  24.853  28.833  1.00  0.00     0.031 C 
ATOM     42  C   UNL A   1      44.664  24.162  30.019  1.00  0.00     0.029 A 
ATOM     43  N   UNL A   1      43.642  26.121  30.131  1.00  0.00    -0.354 N 
ATOM     44  C   UNL A   1      39.978  26.848  27.750  1.00  0.00     0.074 A 
ATOM     45  C   UNL A   1      39.304  25.706  28.307  1.00  0.00     0.031 C 
ATOM     46  C   UNL A   1      45.081  24.765  31.156  1.00  0.00     0.029 A 
ATOM     47  C   UNL A   1      44.429  26.056  31.274  1.00  0.00     0.049 A 
ATOM     48  H   UNL A   1      43.159  26.935  29.860  1.00  0.00     0.167 HD
ATOM     49  C   UNL A   1      39.614  28.156  27.634  1.00  0.00     0.034 A 
ATOM     50  C   UNL A   1      44.476  26.980  32.265  1.00  0.00     0.034 A 
ATOM     51  C   UNL A   1      40.683  28.928  27.038  1.00  0.00     0.049 A 
ATOM     52  C   UNL A   1      43.993  28.261  31.691  1.00  0.00     0.074 A 
ATOM     53  C   UNL A   1      41.408  28.850  25.863  1.00  0.00     0.029 A 
ATOM     54  N   UNL A   1      41.430  29.712  27.887  1.00  0.00    -0.354 N 
ATOM     55  N   UNL A   1      44.621  28.917  30.755  1.00  0.00    -0.248 NA
ATOM     56  C   UNL A   1      42.591  28.606  31.863  1.00  0.00     0.031 C 
ATOM     57  C   UNL A   1      42.746  29.168  26.240  1.00  0.00     0.029 A 
ATOM     58  C   UNL A   1      42.749  29.501  27.597  1.00  0.00     0.049 A 
ATOM     59  H   UNL A   1      41.077  30.317  28.579  1.00  0.00     0.167 HD
ATOM     60  C   UNL A   1      43.610  29.389  29.929  1.00  0.00     0.074 A 
ATOM     61  C   UNL A   1      42.389  29.275  30.724  1.00  0.00     0.031 C 
ATOM     62  C   UNL A   1      43.807  29.546  28.586  1.00  0.00     0.034 A 
BRANCH  49  63
ATOM     63  C   UNL A   1      38.500  28.839  28.413  1.00  0.00     0.023 A 
ATOM     64  C   UNL A   1      37.660  29.710  27.676  1.00  0.00     0.012 A 
ATOM     65  C   UNL A   1      38.400  28.912  29.820  1.00  0.00     0.148 A 
ATOM     66  C   UNL A   1      36.874  30.684  28.298  1.00  0.00     0.002 A 
ATOM     67  C   UNL A   1      37.563  29.835  30.438  1.00  0.00     0.091 A 
ATOM     68  F   UNL A   1      39.184  28.167  30.597  1.00  0.00    -0.205 F 
ATOM     69  C   UNL A   1      36.832  30.753  29.683  1.00  0.00     0.022 A 
BRANCH  67  70
ATOM     70  S   UNL A   1      37.422  29.935  32.229  1.00  0.00     0.127 S 
ATOM     71  O   UNL A   1      38.724  30.482  32.593  1.00  0.00    -0.237 OA
ATOM     72  O   UNL A   1      36.294  30.853  32.385  1.00  0.00    -0.237 OA
ATOM     73  O   UNL A   1      37.153  28.575  32.684  1.00  0.00    -0.744 OA
ENDBRANCH  67  70
ENDBRANCH  49  63
BRANCH  50  74
ATOM     74  C   UNL A   1      44.671  26.793  33.724  1.00  0.00     0.023 A 
ATOM     75  C   UNL A   1      45.866  27.235  34.327  1.00  0.00     0.012 A 
ATOM     76  C   UNL A   1      43.591  26.450  34.567  1.00  0.00     0.148 A 
ATOM     77  C   UNL A   1      45.967  27.372  35.718  1.00  0.00     0.002 A 
ATOM     78  C   UNL A   1      43.698  26.580  35.949  1.00  0.00     0.091 A 
ATOM     79  F   UNL A   1      42.426  26.088  34.013  1.00  0.00    -0.205 F 
ATOM     80  C   UNL A   1      44.880  27.054  36.528  1.00  0.00     0.022 A 
BRANCH  78  81
ATOM     81  S   UNL A   1      42.323  26.215  37.051  1.00  0.00     0.127 S 
ATOM     82  O   UNL A   1      42.031  24.820  36.720  1.00  0.00    -0.237 OA
ATOM     83  O   UNL A   1      42.929  26.419  38.365  1.00  0.00    -0.237 OA
ATOM     84  O   UNL A   1      41.266  27.151  36.691  1.00  0.00    -0.744 OA
ENDBRANCH  78  81
ENDBRANCH  50  74
BRANCH  62  85
ATOM     85  C   UNL A   1      45.212  29.482  28.037  1.00  0.00     0.023 A 
ATOM     86  C   UNL A   1      46.086  30.590  28.060  1.00  0.00     0.012 A 
ATOM     87  C   UNL A   1      45.731  28.218  27.701  1.00  0.00     0.148 A 
ATOM     88  C   UNL A   1      47.440  30.440  27.747  1.00  0.00     0.002 A 
ATOM     89  C   UNL A   1      47.088  28.063  27.450  1.00  0.00     0.091 A 
ATOM     90  F   UNL A   1      44.888  27.174  27.675  1.00  0.00    -0.205 F 
ATOM     91  C   UNL A   1      47.946  29.173  27.463  1.00  0.00     0.022 A 
BRANCH  89  92
ATOM     92  S   UNL A   1      47.822  26.439  27.237  1.00  0.00     0.127 S 
ATOM     93  O   UNL A   1      47.175  25.971  26.013  1.00  0.00    -0.237 OA
ATOM     94  O   UNL A   1      49.245  26.753  27.096  1.00  0.00    -0.237 OA
ATOM     95  O   UNL A   1      47.497  25.689  28.444  1.00  0.00    -0.744 OA
ENDBRANCH  89  92
ENDBRANCH  62  85
ENDBRANCH  36  37
ENDBRANCH  28  31
ENDBRANCH   1  27
TORSDOF 14
ENDMDL
MODEL 2
REMARK VINA RESULT:     -13.2      4.016      9.120
REMARK SMILES C[C@H]1CCc2sc3ncn4nc(/C=C\C(=O)NCCCNC(=O)c5ccc(-c6c7nc(c(-c8cccc(S(=O)(=O)[O-])c8F)c8ccc([nH]8)c(-c8cccc(S(=O)(=O)[O-])c8F)c8nc(c(-c9cccc(S(=O)(=O)[O-])c9F)c9ccc6[nH]9)C=C8)C=C7)cc5)nc4c3c2C1
REMARK SMILES IDX 20 1 19 2 18 3 17 4 15 5 16 6 14 8 13 9 12 10 1 11 2 12 3 13
REMARK SMILES IDX 91 14 4 15 90 16 5 17 89 18 6 19 7 20 88 21 8 22 10 23 87 24
REMARK SMILES IDX 9 25 11 26 21 27 22 28 23 30 24 31 25 32 86 33 26 34 85 35
REMARK SMILES IDX 27 36 28 37 29 38 79 39 30 40 84 41 78 42 80 43 31 44 83 45
REMARK SMILES IDX 77 46 76 47 32 49 64 50 44 51 63 52 45 53 48 54 62 55 81 56
REMARK SMILES IDX 46 57 47 58 61 60 82 61 49 62 33 63 34 64 42 65 35 66 37 67
REMARK SMILES IDX 43 68 36 69 38 70 39 71 40 72 41 73 65 74 66 75 74 76 67 77
REMARK SMILES IDX 69 78 75 79 68 80 70 81 71 82 72 83 73 84 50 85 51 86 59 87
REMARK SMILES IDX 52 88 54 89 60 90 53 91 55 92 56 93 57 94 58 95
REMARK H PARENT 17 7 21 29 80 48 48 59
REMARK Flexibility Score: inf
ROOT
ATOM      1  C   UNL A   1      33.053  30.639  27.332  1.00  0.00     0.118 C 
ENDROOT
BRANCH   1   2
ATOM      2  C   UNL A   1      32.204  29.621  26.565  1.00  0.00     0.042 C 
BRANCH   2   3
ATOM      3  C   UNL A   1      32.145  29.896  25.074  1.00  0.00     0.118 C 
BRANCH   3   4
ATOM      4  N   UNL A   1      30.875  30.321  24.524  1.00  0.00    -0.352 N 
ATOM      5  C   UNL A   1      30.068  29.713  23.612  1.00  0.00     0.244 C 
ATOM      6  O   UNL A   1      28.908  30.102  23.466  1.00  0.00    -0.270 OA
ATOM      7  H   UNL A   1      30.544  31.184  24.862  1.00  0.00     0.163 HD
BRANCH   5   8
ATOM      8  C   UNL A   1      30.587  28.725  22.639  1.00  0.00     0.075 C 
ATOM      9  C   UNL A   1      31.063  27.479  22.785  1.00  0.00     0.057 C 
BRANCH   9  10
ATOM     10  C   UNL A   1      31.285  26.726  23.972  1.00  0.00     0.175 A 
ATOM     11  C   UNL A   1      37.415  23.827  25.325  1.00  0.00     0.008 C 
ATOM     12  C   UNL A   1      36.451  23.087  24.402  1.00  0.00    -0.009 C 
ATOM     13  C   UNL A   1      36.303  21.618  24.846  1.00  0.00     0.009 C 
ATOM     14  C   UNL A   1      35.096  23.826  24.297  1.00  0.00     0.041 C 
ATOM     15  C   UNL A   1      35.482  21.408  26.123  1.00  0.00     0.047 C 
ATOM     16  C   UNL A   1      34.145  23.475  25.403  1.00  0.00    -0.020 A 
ATOM     17  C   UNL A   1      34.337  22.365  26.207  1.00  0.00     0.011 A 
ATOM     18  C   UNL A   1      32.906  24.089  25.730  1.00  0.00     0.060 A 
ATOM     19  S   UNL A   1      33.102  22.152  27.371  1.00  0.00    -0.120 S 
ATOM     20  C   UNL A   1      32.173  23.423  26.706  1.00  0.00     0.129 A 
ATOM     21  C   UNL A   1      32.186  25.236  25.144  1.00  0.00     0.168 A 
ATOM     22  N   UNL A   1      30.879  23.665  27.112  1.00  0.00    -0.225 NA
ATOM     23  N   UNL A   1      30.895  25.426  25.541  1.00  0.00    -0.201 N 
ATOM     24  N   UNL A   1      32.487  26.084  24.190  1.00  0.00    -0.207 NA
ATOM     25  C   UNL A   1      30.255  24.630  26.487  1.00  0.00     0.227 A 
ATOM     26  N   UNL A   1      30.299  26.400  24.829  1.00  0.00    -0.145 NA
ENDBRANCH   9  10
ENDBRANCH   5   8
ENDBRANCH   3   4
ENDBRANCH   2   3
ENDBRANCH   1   2
BRANCH   1  27
ATOM     27  N   UNL A   1      32.639  32.032  27.138  1.00  0.00    -0.352 N 
ATOM     28  C   UNL A   1      32.995  33.153  27.861  1.00  0.00     0.251 C 
ATOM     29  H   UNL A   1      32.020  32.189  26.389  1.00  0.00     0.163 HD
ATOM     30  O   UNL A   1      32.217  34.100  27.905  1.00  0.00    -0.269 OA
BRANCH  28  31
ATOM     31  C   UNL A   1      34.268  33.198  28.613  1.00  0.00     0.039 A 
ATOM     32  C   UNL A   1      34.456  32.337  29.697  1.00  0.00     0.014 A 
ATOM     33  C   UNL A   1      35.301  34.048  28.213  1.00  0.00     0.014 A 
ATOM     34  C   UNL A   1      35.728  32.210  30.242  1.00  0.00     0.010 A 
ATOM     35  C   UNL A   1      36.587  33.851  28.675  1.00  0.00     0.010 A 
ATOM     36  C   UNL A   1      36.809  32.895  29.655  1.00  0.00    -0.014 A 
BRANCH  36  37
ATOM     37  C   UNL A   1      38.142  32.308  29.791  1.00  0.00     0.031 A 
ATOM     38  C   UNL A   1      38.209  30.942  29.195  1.00  0.00     0.074 A 
ATOM     39  C   UNL A   1      39.284  32.932  30.134  1.00  0.00     0.049 A 
ATOM     40  N   UNL A   1      38.259  29.822  29.836  1.00  0.00    -0.248 NA
ATOM     41  C   UNL A   1      37.965  30.792  27.751  1.00  0.00     0.031 C 
ATOM     42  C   UNL A   1      39.515  34.356  30.367  1.00  0.00     0.029 A 
ATOM     43  N   UNL A   1      40.536  32.400  30.210  1.00  0.00    -0.354 N 
ATOM     44  C   UNL A   1      38.289  28.828  28.861  1.00  0.00     0.074 A 
ATOM     45  C   UNL A   1      37.868  29.466  27.643  1.00  0.00     0.031 C 
ATOM     46  C   UNL A   1      40.844  34.604  30.312  1.00  0.00     0.029 A 
ATOM     47  C   UNL A   1      41.556  33.343  30.202  1.00  0.00     0.049 A 
ATOM     48  H   UNL A   1      40.704  31.431  30.264  1.00  0.00     0.167 HD
ATOM     49  C   UNL A   1      38.901  27.635  29.103  1.00  0.00     0.034 A 
ATOM     50  C   UNL A   1      42.879  33.089  30.051  1.00  0.00     0.034 A 
ATOM     51  C   UNL A   1      39.164  27.478  30.518  1.00  0.00     0.049 A 
ATOM     52  C   UNL A   1      43.097  31.671  30.429  1.00  0.00     0.074 A 
ATOM     53  C   UNL A   1      38.392  27.507  31.664  1.00  0.00     0.029 A 
ATOM     54  N   UNL A   1      40.460  27.678  30.934  1.00  0.00    -0.354 N 
ATOM     55  N   UNL A   1      42.926  31.209  31.636  1.00  0.00    -0.248 NA
ATOM     56  C   UNL A   1      43.103  30.671  29.373  1.00  0.00     0.031 C 
ATOM     57  C   UNL A   1      39.187  28.206  32.621  1.00  0.00     0.029 A 
ATOM     58  C   UNL A   1      40.424  28.489  32.034  1.00  0.00     0.049 A 
ATOM     59  H   UNL A   1      41.268  27.304  30.514  1.00  0.00     0.167 HD
ATOM     60  C   UNL A   1      42.340  29.965  31.449  1.00  0.00     0.074 A 
ATOM     61  C   UNL A   1      42.589  29.638  30.047  1.00  0.00     0.031 C 
ATOM     62  C   UNL A   1      41.456  29.453  32.357  1.00  0.00     0.034 A 
BRANCH  49  63
ATOM     63  C   UNL A   1      39.642  26.795  28.075  1.00  0.00     0.023 A 
ATOM     64  C   UNL A   1      39.435  25.395  28.140  1.00  0.00     0.012 A 
ATOM     65  C   UNL A   1      40.713  27.233  27.266  1.00  0.00     0.148 A 
ATOM     66  C   UNL A   1      40.318  24.486  27.550  1.00  0.00     0.002 A 
ATOM     67  C   UNL A   1      41.550  26.328  26.621  1.00  0.00     0.091 A 
ATOM     68  F   UNL A   1      41.016  28.527  27.180  1.00  0.00    -0.205 F 
ATOM     69  C   UNL A   1      41.384  24.954  26.796  1.00  0.00     0.022 A 
BRANCH  67  70
ATOM     70  S   UNL A   1      42.914  26.873  25.583  1.00  0.00     0.127 S 
ATOM     71  O   UNL A   1      43.825  27.439  26.572  1.00  0.00    -0.237 OA
ATOM     72  O   UNL A   1      43.350  25.613  24.982  1.00  0.00    -0.237 OA
ATOM     73  O   UNL A   1      42.339  27.820  24.633  1.00  0.00    -0.744 OA
ENDBRANCH  67  70
ENDBRANCH  49  63
BRANCH  50  74
ATOM     74  C   UNL A   1      43.925  33.896  29.376  1.00  0.00     0.023 A 
ATOM     75  C   UNL A   1      44.815  34.668  30.151  1.00  0.00     0.012 A 
ATOM     76  C   UNL A   1      44.240  33.692  28.014  1.00  0.00     0.148 A 
ATOM     77  C   UNL A   1      45.996  35.183  29.600  1.00  0.00     0.002 A 
ATOM     78  C   UNL A   1      45.410  34.212  27.469  1.00  0.00     0.091 A 
ATOM     79  F   UNL A   1      43.442  32.910  27.275  1.00  0.00    -0.205 F 
ATOM     80  C   UNL A   1      46.298  34.947  28.262  1.00  0.00     0.022 A 
BRANCH  78  81
ATOM     81  S   UNL A   1      45.877  33.920  25.755  1.00  0.00     0.127 S 
ATOM     82  O   UNL A   1      46.026  32.465  25.725  1.00  0.00    -0.237 OA
ATOM     83  O   UNL A   1      44.714  34.433  25.035  1.00  0.00    -0.237 OA
ATOM     84  O   UNL A   1      47.120  34.654  25.552  1.00  0.00    -0.744 OA
ENDBRANCH  78  81
ENDBRANCH  50  74
BRANCH  62  85
ATOM     85  C   UNL A   1      41.332  30.108  33.712  1.00  0.00     0.023 A 
ATOM     86  C   UNL A   1      42.229  29.844  34.767  1.00  0.00     0.012 A 
ATOM     87  C   UNL A   1      40.429  31.179  33.844  1.00  0.00     0.148 A 
ATOM     88  C   UNL A   1      42.220  30.623  35.928  1.00  0.00     0.002 A 
ATOM     89  C   UNL A   1      40.463  31.988  34.973  1.00  0.00     0.091 A 
ATOM     90  F   UNL A   1      39.575  31.416  32.836  1.00  0.00    -0.205 F 
ATOM     91  C   UNL A   1      41.351  31.708  36.022  1.00  0.00     0.022 A 
BRANCH  89  92
ATOM     92  S   UNL A   1      39.484  33.489  35.080  1.00  0.00     0.127 S 
ATOM     93  O   UNL A   1      38.121  32.970  34.994  1.00  0.00    -0.237 OA
ATOM     94  O   UNL A   1      39.857  34.014  36.395  1.00  0.00    -0.237 OA
ATOM     95  O   UNL A   1      39.909  34.327  33.965  1.00  0.00    -0.744 OA
ENDBRANCH  89  92
ENDBRANCH  62  85
ENDBRANCH  36  37
ENDBRANCH  28  31
ENDBRANCH   1  27
TORSDOF 14
ENDMDL
MODEL 3
REMARK VINA RESULT:     -13.0      3.216      7.776
REMARK SMILES C[C@H]1CCc2sc3ncn4nc(/C=C\C(=O)NCCCNC(=O)c5ccc(-c6c7nc(c(-c8cccc(S(=O)(=O)[O-])c8F)c8ccc([nH]8)c(-c8cccc(S(=O)(=O)[O-])c8F)c8nc(c(-c9cccc(S(=O)(=O)[O-])c9F)c9ccc6[nH]9)C=C8)C=C7)cc5)nc4c3c2C1
REMARK SMILES IDX 20 1 19 2 18 3 17 4 15 5 16 6 14 8 13 9 12 10 1 11 2 12 3 13
REMARK SMILES IDX 91 14 4 15 90 16 5 17 89 18 6 19 7 20 88 21 8 22 10 23 87 24
REMARK SMILES IDX 9 25 11 26 21 27 22 28 23 30 24 31 25 32 86 33 26 34 85 35
REMARK SMILES IDX 27 36 28 37 29 38 79 39 30 40 84 41 78 42 80 43 31 44 83 45
REMARK SMILES IDX 77 46 76 47 32 49 64 50 44 51 63 52 45 53 48 54 62 55 81 56
REMARK SMILES IDX 46 57 47 58 61 60 82 61 49 62 33 63 34 64 42 65 35 66 37 67
REMARK SMILES IDX 43 68 36 69 38 70 39 71 40 72 41 73 65 74 66 75 74 76 67 77
REMARK SMILES IDX 69 78 75 79 68 80 70 81 71 82 72 83 73 84 50 85 51 86 59 87
REMARK SMILES IDX 52 88 54 89 60 90 53 91 55 92 56 93 57 94 58 95
REMARK H PARENT 17 7 21 29 80 48 48 59
REMARK Flexibility Score: inf
ROOT
ATOM      1  C   UNL A   1      33.885  29.603  27.404  1.00  0.00     0.118 C 
ENDROOT
BRANCH   1   2
ATOM      2  C   UNL A   1      32.603  29.204  26.668  1.00  0.00     0.042 C 
BRANCH   2   3
ATOM      3  C   UNL A   1      32.572  29.675  25.226  1.00  0.00     0.118 C 
BRANCH   3   4
ATOM      4  N   UNL A   1      31.345  30.277  24.748  1.00  0.00    -0.352 N 
ATOM      5  C   UNL A   1      30.421  29.802  23.868  1.00  0.00     0.244 C 
ATOM      6  O   UNL A   1      29.318  30.343  23.787  1.00  0.00    -0.270 OA
ATOM      7  H   UNL A   1      31.148  31.168  25.116  1.00  0.00     0.163 HD
BRANCH   5   8
ATOM      8  C   UNL A   1      30.758  28.776  22.854  1.00  0.00     0.075 C 
ATOM      9  C   UNL A   1      31.095  27.481  22.958  1.00  0.00     0.057 C 
BRANCH   9  10
ATOM     10  C   UNL A   1      31.306  26.690  24.121  1.00  0.00     0.175 A 
ATOM     11  C   UNL A   1      37.488  23.941  25.551  1.00  0.00     0.008 C 
ATOM     12  C   UNL A   1      36.578  23.207  24.571  1.00  0.00    -0.009 C 
ATOM     13  C   UNL A   1      36.467  21.718  24.952  1.00  0.00     0.009 C 
ATOM     14  C   UNL A   1      35.202  23.905  24.452  1.00  0.00     0.041 C 
ATOM     15  C   UNL A   1      35.616  21.430  26.194  1.00  0.00     0.047 C 
ATOM     16  C   UNL A   1      34.231  23.480  25.514  1.00  0.00    -0.020 A 
ATOM     17  C   UNL A   1      34.436  22.345  26.279  1.00  0.00     0.011 A 
ATOM     18  C   UNL A   1      32.963  24.039  25.826  1.00  0.00     0.060 A 
ATOM     19  S   UNL A   1      33.175  22.046  27.395  1.00  0.00    -0.120 S 
ATOM     20  C   UNL A   1      32.224  23.311  26.751  1.00  0.00     0.129 A 
ATOM     21  C   UNL A   1      32.222  25.185  25.262  1.00  0.00     0.168 A 
ATOM     22  N   UNL A   1      30.911  23.494  27.125  1.00  0.00    -0.225 NA
ATOM     23  N   UNL A   1      30.914  25.316  25.626  1.00  0.00    -0.201 N 
ATOM     24  N   UNL A   1      32.523  26.079  24.352  1.00  0.00    -0.207 NA
ATOM     25  C   UNL A   1      30.274  24.463  26.520  1.00  0.00     0.227 A 
ATOM     26  N   UNL A   1      30.307  26.297  24.933  1.00  0.00    -0.145 NA
ENDBRANCH   9  10
ENDBRANCH   5   8
ENDBRANCH   3   4
ENDBRANCH   2   3
ENDBRANCH   1   2
BRANCH   1  27
ATOM     27  N   UNL A   1      34.371  30.946  27.077  1.00  0.00    -0.352 N 
ATOM     28  C   UNL A   1      35.366  31.683  27.688  1.00  0.00     0.251 C 
ATOM     29  H   UNL A   1      33.927  31.383  26.315  1.00  0.00     0.163 HD
ATOM     30  O   UNL A   1      35.308  32.908  27.639  1.00  0.00    -0.269 OA
BRANCH  28  31
ATOM     31  C   UNL A   1      36.456  31.017  28.433  1.00  0.00     0.039 A 
ATOM     32  C   UNL A   1      36.503  29.622  28.479  1.00  0.00     0.014 A 
ATOM     33  C   UNL A   1      37.467  31.766  29.036  1.00  0.00     0.014 A 
ATOM     34  C   UNL A   1      37.648  29.003  28.964  1.00  0.00     0.010 A 
ATOM     35  C   UNL A   1      38.649  31.165  29.420  1.00  0.00     0.010 A 
ATOM     36  C   UNL A   1      38.759  29.785  29.337  1.00  0.00    -0.014 A 
BRANCH  36  37
ATOM     37  C   UNL A   1      40.085  29.179  29.230  1.00  0.00     0.031 A 
ATOM     38  C   UNL A   1      40.677  28.899  30.571  1.00  0.00     0.074 A 
ATOM     39  C   UNL A   1      40.663  28.652  28.134  1.00  0.00     0.049 A 
ATOM     40  N   UNL A   1      41.632  29.552  31.145  1.00  0.00    -0.248 NA
ATOM     41  C   UNL A   1      39.987  27.948  31.458  1.00  0.00     0.031 C 
ATOM     42  C   UNL A   1      40.094  28.460  26.803  1.00  0.00     0.029 A 
ATOM     43  N   UNL A   1      41.877  28.040  28.044  1.00  0.00    -0.354 N 
ATOM     44  C   UNL A   1      41.820  28.938  32.381  1.00  0.00     0.074 A 
ATOM     45  C   UNL A   1      40.645  28.140  32.603  1.00  0.00     0.031 C 
ATOM     46  C   UNL A   1      40.853  27.571  26.121  1.00  0.00     0.029 A 
ATOM     47  C   UNL A   1      42.036  27.261  26.904  1.00  0.00     0.049 A 
ATOM     48  H   UNL A   1      42.579  28.139  28.725  1.00  0.00     0.167 HD
ATOM     49  C   UNL A   1      43.043  28.952  32.984  1.00  0.00     0.034 A 
ATOM     50  C   UNL A   1      43.042  26.383  26.669  1.00  0.00     0.034 A 
ATOM     51  C   UNL A   1      43.911  29.919  32.348  1.00  0.00     0.049 A 
ATOM     52  C   UNL A   1      44.177  26.778  27.540  1.00  0.00     0.074 A 
ATOM     53  C   UNL A   1      43.837  31.275  32.086  1.00  0.00     0.029 A 
ATOM     54  N   UNL A   1      44.873  29.425  31.497  1.00  0.00    -0.354 N 
ATOM     55  N   UNL A   1      44.833  27.898  27.410  1.00  0.00    -0.248 NA
ATOM     56  C   UNL A   1      44.319  26.117  28.827  1.00  0.00     0.031 C 
ATOM     57  C   UNL A   1      44.387  31.422  30.778  1.00  0.00     0.029 A 
ATOM     58  C   UNL A   1      44.838  30.170  30.352  1.00  0.00     0.049 A 
ATOM     59  H   UNL A   1      45.477  28.670  31.681  1.00  0.00     0.167 HD
ATOM     60  C   UNL A   1      45.070  28.311  28.714  1.00  0.00     0.074 A 
ATOM     61  C   UNL A   1      44.845  27.122  29.533  1.00  0.00     0.031 C 
ATOM     62  C   UNL A   1      45.133  29.638  29.037  1.00  0.00     0.034 A 
BRANCH  49  63
ATOM     63  C   UNL A   1      43.616  27.840  33.849  1.00  0.00     0.023 A 
ATOM     64  C   UNL A   1      44.128  26.711  33.164  1.00  0.00     0.012 A 
ATOM     65  C   UNL A   1      43.432  27.698  35.242  1.00  0.00     0.148 A 
ATOM     66  C   UNL A   1      44.315  25.480  33.799  1.00  0.00     0.002 A 
ATOM     67  C   UNL A   1      43.686  26.491  35.886  1.00  0.00     0.091 A 
ATOM     68  F   UNL A   1      42.910  28.688  35.964  1.00  0.00    -0.205 F 
ATOM     69  C   UNL A   1      44.084  25.367  35.161  1.00  0.00     0.022 A 
BRANCH  67  70
ATOM     70  S   UNL A   1      43.460  26.298  37.660  1.00  0.00     0.127 S 
ATOM     71  O   UNL A   1      42.006  26.329  37.774  1.00  0.00    -0.237 OA
ATOM     72  O   UNL A   1      44.076  24.992  37.895  1.00  0.00    -0.237 OA
ATOM     73  O   UNL A   1      44.171  27.413  38.276  1.00  0.00    -0.744 OA
ENDBRANCH  67  70
ENDBRANCH  49  63
BRANCH  50  74
ATOM     74  C   UNL A   1      43.019  25.091  25.940  1.00  0.00     0.023 A 
ATOM     75  C   UNL A   1      44.024  24.812  24.991  1.00  0.00     0.012 A 
ATOM     76  C   UNL A   1      42.198  24.025  26.368  1.00  0.00     0.148 A 
ATOM     77  C   UNL A   1      44.231  23.509  24.518  1.00  0.00     0.002 A 
ATOM     78  C   UNL A   1      42.402  22.734  25.890  1.00  0.00     0.091 A 
ATOM     79  F   UNL A   1      41.279  24.255  27.315  1.00  0.00    -0.205 F 
ATOM     80  C   UNL A   1      43.426  22.469  24.974  1.00  0.00     0.022 A 
BRANCH  78  81
ATOM     81  S   UNL A   1      41.418  21.339  26.460  1.00  0.00     0.127 S 
ATOM     82  O   UNL A   1      42.004  20.228  25.709  1.00  0.00    -0.237 OA
ATOM     83  O   UNL A   1      41.707  21.331  27.892  1.00  0.00    -0.237 OA
ATOM     84  O   UNL A   1      40.042  21.648  26.095  1.00  0.00    -0.744 OA
ENDBRANCH  78  81
ENDBRANCH  50  74
BRANCH  62  85
ATOM     85  C   UNL A   1      45.234  30.660  27.930  1.00  0.00     0.023 A 
ATOM     86  C   UNL A   1      44.098  31.204  27.295  1.00  0.00     0.012 A 
ATOM     87  C   UNL A   1      46.490  31.245  27.687  1.00  0.00     0.148 A 
ATOM     88  C   UNL A   1      44.215  32.300  26.434  1.00  0.00     0.002 A 
ATOM     89  C   UNL A   1      46.594  32.370  26.879  1.00  0.00     0.091 A 
ATOM     90  F   UNL A   1      47.564  30.712  28.292  1.00  0.00    -0.205 F 
ATOM     91  C   UNL A   1      45.460  32.895  26.242  1.00  0.00     0.022 A 
BRANCH  89  92
ATOM     92  S   UNL A   1      48.138  33.272  26.723  1.00  0.00     0.127 S 
ATOM     93  O   UNL A   1      47.818  34.245  25.681  1.00  0.00    -0.237 OA
ATOM     94  O   UNL A   1      48.305  33.842  28.061  1.00  0.00    -0.237 OA
ATOM     95  O   UNL A   1      49.148  32.282  26.369  1.00  0.00    -0.744 OA
ENDBRANCH  89  92
ENDBRANCH  62  85
ENDBRANCH  36  37
ENDBRANCH  28  31
ENDBRANCH   1  27
TORSDOF 14
ENDMDL
