MODEL 1
REMARK VINA RESULT:     -12.0      0.000      0.000
REMARK SMILES C[C@@H]1[NH2+]CC[C@@H]1C(=O)Nc1ccccc1CC(=O)NCCCNC(=O)c1ccc(-c2c3nc(c(-c4cccc(S(=O)(=O)[O-])c4F)c4ccc([nH]4)c(-c4cccc(S(=O)(=O)[O-])c4F)c4nc(c(-c5cccc(S(=O)(=O)[O-])c5F)c5ccc2[nH]5)C=C4)C=C3)cc1
REMARK SMILES IDX 21 1 20 2 19 3 17 4 18 5 16 7 15 8 10 9 11 10 12 11 14 12
REMARK SMILES IDX 13 13 9 14 7 15 8 16 6 18 1 19 2 20 3 21 4 22 5 25 22 26
REMARK SMILES IDX 23 27 24 28 25 30 26 31 27 32 88 33 28 34 87 35 29 36 30 37
REMARK SMILES IDX 31 38 81 39 32 40 86 41 80 42 82 43 33 44 85 45 79 46 78 47
REMARK SMILES IDX 34 49 66 50 46 51 65 52 47 53 50 54 64 55 83 56 48 57 49 58
REMARK SMILES IDX 63 60 84 61 51 62 35 63 36 64 44 65 37 66 39 67 45 68 38 69
REMARK SMILES IDX 40 70 41 71 42 72 43 73 67 74 68 75 76 76 69 77 71 78 77 79
REMARK SMILES IDX 70 80 72 81 73 82 74 83 75 84 52 85 53 86 61 87 54 88 56 89
REMARK SMILES IDX 62 90 55 91 57 92 58 93 59 94 60 95
REMARK H PARENT 19 6 9 17 3 23 3 24 23 29 82 48 50 59
REMARK Flexibility Score: inf
ROOT
ATOM      1  C   UNL A   1      31.970  29.018  26.408  1.00  0.00     0.042 C 
ENDROOT
BRANCH   1   2
ATOM      2  C   UNL A   1      31.900  27.877  27.418  1.00  0.00     0.117 C 
BRANCH   2   3
ATOM      3  N   UNL A   1      31.075  26.798  26.922  1.00  0.00    -0.356 N 
ATOM      4  C   UNL A   1      31.430  25.829  26.033  1.00  0.00     0.224 C 
ATOM      5  O   UNL A   1      30.538  25.197  25.465  1.00  0.00    -0.275 OA
ATOM      6  H   UNL A   1      30.152  26.761  27.265  1.00  0.00     0.163 HD
BRANCH   4   7
ATOM      7  C   UNL A   1      32.892  25.469  25.860  1.00  0.00     0.137 C 
BRANCH   7   8
ATOM      8  C   UNL A   1      33.338  24.100  26.311  1.00  0.00    -0.015 A 
ATOM      9  C   UNL A   1      34.285  23.296  25.646  1.00  0.00     0.044 A 
ATOM     10  C   UNL A   1      34.523  21.985  26.109  1.00  0.00     0.026 A 
ATOM     11  C   UNL A   1      33.923  21.497  27.265  1.00  0.00     0.002 A 
ATOM     12  C   UNL A   1      32.739  23.582  27.484  1.00  0.00     0.006 A 
ATOM     13  C   UNL A   1      33.039  22.304  27.962  1.00  0.00     0.000 A 
BRANCH   9  14
ATOM     14  N   UNL A   1      34.977  23.580  24.459  1.00  0.00    -0.325 N 
ATOM     15  C   UNL A   1      34.927  23.228  23.156  1.00  0.00     0.233 C 
ATOM     16  O   UNL A   1      36.053  23.050  22.659  1.00  0.00    -0.274 OA
ATOM     17  H   UNL A   1      35.708  24.220  24.622  1.00  0.00     0.169 HD
BRANCH  15  18
ATOM     18  C   UNL A   1      33.736  23.445  22.202  1.00  0.00     0.142 C 
ATOM     19  C   UNL A   1      33.155  26.061  22.265  1.00  0.00     0.076 C 
ATOM     20  C   UNL A   1      32.756  24.615  22.050  1.00  0.00     0.192 C 
ATOM     21  N   UNL A   1      31.489  24.239  22.707  1.00  0.00    -0.343 N 
ATOM     22  C   UNL A   1      31.663  22.907  23.274  1.00  0.00     0.261 C 
ATOM     23  H   UNL A   1      30.732  24.230  22.022  1.00  0.00     0.346 HD
ATOM     24  H   UNL A   1      31.252  24.911  23.437  1.00  0.00     0.346 HD
ATOM     25  C   UNL A   1      32.739  22.282  22.412  1.00  0.00     0.081 C 
ENDBRANCH  15  18
ENDBRANCH   9  14
ENDBRANCH   7   8
ENDBRANCH   4   7
ENDBRANCH   2   3
ENDBRANCH   1   2
BRANCH   1  26
ATOM     26  C   UNL A   1      33.289  29.771  26.470  1.00  0.00     0.118 C 
BRANCH  26  27
ATOM     27  N   UNL A   1      33.096  31.184  26.748  1.00  0.00    -0.352 N 
ATOM     28  C   UNL A   1      33.813  31.995  27.591  1.00  0.00     0.251 C 
ATOM     29  H   UNL A   1      32.353  31.617  26.268  1.00  0.00     0.163 HD
ATOM     30  O   UNL A   1      33.400  33.112  27.858  1.00  0.00    -0.269 OA
BRANCH  28  31
ATOM     31  C   UNL A   1      35.073  31.493  28.177  1.00  0.00     0.039 A 
ATOM     32  C   UNL A   1      35.088  30.211  28.725  1.00  0.00     0.014 A 
ATOM     33  C   UNL A   1      36.223  32.290  28.201  1.00  0.00     0.014 A 
ATOM     34  C   UNL A   1      36.263  29.724  29.294  1.00  0.00     0.010 A 
ATOM     35  C   UNL A   1      37.416  31.767  28.684  1.00  0.00     0.010 A 
ATOM     36  C   UNL A   1      37.437  30.496  29.273  1.00  0.00    -0.014 A 
BRANCH  36  37
ATOM     37  C   UNL A   1      38.676  30.000  29.917  1.00  0.00     0.031 A 
ATOM     38  C   UNL A   1      39.068  30.502  31.281  1.00  0.00     0.074 A 
ATOM     39  C   UNL A   1      39.460  29.126  29.259  1.00  0.00     0.049 A 
ATOM     40  N   UNL A   1      40.088  30.159  32.022  1.00  0.00    -0.248 NA
ATOM     41  C   UNL A   1      38.221  31.549  31.882  1.00  0.00     0.031 C 
ATOM     42  C   UNL A   1      39.230  28.641  27.897  1.00  0.00     0.029 A 
ATOM     43  N   UNL A   1      40.614  28.496  29.647  1.00  0.00    -0.354 N 
ATOM     44  C   UNL A   1      40.025  30.964  33.153  1.00  0.00     0.074 A 
ATOM     45  C   UNL A   1      38.895  31.849  32.982  1.00  0.00     0.031 C 
ATOM     46  C   UNL A   1      40.200  27.773  27.570  1.00  0.00     0.029 A 
ATOM     47  C   UNL A   1      41.130  27.654  28.689  1.00  0.00     0.049 A 
ATOM     48  H   UNL A   1      41.034  28.633  30.527  1.00  0.00     0.167 HD
ATOM     49  C   UNL A   1      40.812  30.944  34.255  1.00  0.00     0.034 A 
ATOM     50  C   UNL A   1      42.223  26.868  28.719  1.00  0.00     0.034 A 
ATOM     51  C   UNL A   1      41.902  30.027  34.438  1.00  0.00     0.049 A 
ATOM     52  C   UNL A   1      43.038  26.812  29.982  1.00  0.00     0.074 A 
ATOM     53  C   UNL A   1      42.709  29.858  35.549  1.00  0.00     0.029 A 
ATOM     54  N   UNL A   1      42.342  29.124  33.482  1.00  0.00    -0.354 N 
ATOM     55  N   UNL A   1      42.862  27.459  31.108  1.00  0.00    -0.248 NA
ATOM     56  C   UNL A   1      44.175  25.881  29.994  1.00  0.00     0.031 C 
ATOM     57  C   UNL A   1      43.652  28.867  35.255  1.00  0.00     0.029 A 
ATOM     58  C   UNL A   1      43.413  28.398  33.973  1.00  0.00     0.049 A 
ATOM     59  H   UNL A   1      41.951  29.017  32.585  1.00  0.00     0.167 HD
ATOM     60  C   UNL A   1      43.843  26.990  31.975  1.00  0.00     0.074 A 
ATOM     61  C   UNL A   1      44.590  25.983  31.249  1.00  0.00     0.031 C 
ATOM     62  C   UNL A   1      44.113  27.367  33.250  1.00  0.00     0.034 A 
BRANCH  49  63
ATOM     63  C   UNL A   1      40.483  31.906  35.367  1.00  0.00     0.023 A 
ATOM     64  C   UNL A   1      41.255  33.076  35.528  1.00  0.00     0.012 A 
ATOM     65  C   UNL A   1      39.389  31.679  36.225  1.00  0.00     0.148 A 
ATOM     66  C   UNL A   1      40.969  33.984  36.547  1.00  0.00     0.002 A 
ATOM     67  C   UNL A   1      39.080  32.613  37.207  1.00  0.00     0.091 A 
ATOM     68  F   UNL A   1      38.680  30.552  36.073  1.00  0.00    -0.205 F 
ATOM     69  C   UNL A   1      39.877  33.758  37.379  1.00  0.00     0.022 A 
BRANCH  67  70
ATOM     70  S   UNL A   1      37.645  32.458  38.277  1.00  0.00     0.127 S 
ATOM     71  O   UNL A   1      38.002  33.348  39.381  1.00  0.00    -0.237 OA
ATOM     72  O   UNL A   1      36.569  32.952  37.420  1.00  0.00    -0.237 OA
ATOM     73  O   UNL A   1      37.551  31.045  38.620  1.00  0.00    -0.744 OA
ENDBRANCH  67  70
ENDBRANCH  49  63
BRANCH  50  74
ATOM     74  C   UNL A   1      42.555  26.011  27.546  1.00  0.00     0.023 A 
ATOM     75  C   UNL A   1      43.365  26.528  26.516  1.00  0.00     0.012 A 
ATOM     76  C   UNL A   1      42.099  24.682  27.460  1.00  0.00     0.148 A 
ATOM     77  C   UNL A   1      43.683  25.750  25.403  1.00  0.00     0.002 A 
ATOM     78  C   UNL A   1      42.467  23.893  26.376  1.00  0.00     0.091 A 
ATOM     79  F   UNL A   1      41.323  24.211  28.446  1.00  0.00    -0.205 F 
ATOM     80  C   UNL A   1      43.244  24.431  25.338  1.00  0.00     0.022 A 
BRANCH  78  81
ATOM     81  S   UNL A   1      42.059  22.147  26.275  1.00  0.00     0.127 S 
ATOM     82  O   UNL A   1      40.610  22.187  26.097  1.00  0.00    -0.237 OA
ATOM     83  O   UNL A   1      42.814  21.728  25.094  1.00  0.00    -0.237 OA
ATOM     84  O   UNL A   1      42.527  21.561  27.523  1.00  0.00    -0.744 OA
ENDBRANCH  78  81
ENDBRANCH  50  74
BRANCH  62  85
ATOM     85  C   UNL A   1      45.245  26.666  33.953  1.00  0.00     0.023 A 
ATOM     86  C   UNL A   1      46.560  27.153  33.827  1.00  0.00     0.012 A 
ATOM     87  C   UNL A   1      44.995  25.555  34.783  1.00  0.00     0.148 A 
ATOM     88  C   UNL A   1      47.617  26.518  34.478  1.00  0.00     0.002 A 
ATOM     89  C   UNL A   1      46.046  24.960  35.471  1.00  0.00     0.091 A 
ATOM     90  F   UNL A   1      43.740  25.094  34.876  1.00  0.00    -0.205 F 
ATOM     91  C   UNL A   1      47.358  25.429  35.307  1.00  0.00     0.022 A 
BRANCH  89  92
ATOM     92  S   UNL A   1      45.786  23.618  36.637  1.00  0.00     0.127 S 
ATOM     93  O   UNL A   1      45.202  22.588  35.781  1.00  0.00    -0.237 OA
ATOM     94  O   UNL A   1      47.148  23.334  37.093  1.00  0.00    -0.237 OA
ATOM     95  O   UNL A   1      44.908  24.153  37.669  1.00  0.00    -0.744 OA
ENDBRANCH  89  92
ENDBRANCH  62  85
ENDBRANCH  36  37
ENDBRANCH  28  31
ENDBRANCH  26  27
ENDBRANCH   1  26
TORSDOF 16
ENDMDL
MODEL 2
REMARK VINA RESULT:     -11.9      2.555      8.484
REMARK SMILES C[C@@H]1[NH2+]CC[C@@H]1C(=O)Nc1ccccc1CC(=O)NCCCNC(=O)c1ccc(-c2c3nc(c(-c4cccc(S(=O)(=O)[O-])c4F)c4ccc([nH]4)c(-c4cccc(S(=O)(=O)[O-])c4F)c4nc(c(-c5cccc(S(=O)(=O)[O-])c5F)c5ccc2[nH]5)C=C4)C=C3)cc1
REMARK SMILES IDX 21 1 20 2 19 3 17 4 18 5 16 7 15 8 10 9 11 10 12 11 14 12
REMARK SMILES IDX 13 13 9 14 7 15 8 16 6 18 1 19 2 20 3 21 4 22 5 25 22 26
REMARK SMILES IDX 23 27 24 28 25 30 26 31 27 32 88 33 28 34 87 35 29 36 30 37
REMARK SMILES IDX 31 38 81 39 32 40 86 41 80 42 82 43 33 44 85 45 79 46 78 47
REMARK SMILES IDX 34 49 66 50 46 51 65 52 47 53 50 54 64 55 83 56 48 57 49 58
REMARK SMILES IDX 63 60 84 61 51 62 35 63 36 64 44 65 37 66 39 67 45 68 38 69
REMARK SMILES IDX 40 70 41 71 42 72 43 73 67 74 68 75 76 76 69 77 71 78 77 79
REMARK SMILES IDX 70 80 72 81 73 82 74 83 75 84 52 85 53 86 61 87 54 88 56 89
REMARK SMILES IDX 62 90 55 91 57 92 58 93 59 94 60 95
REMARK H PARENT 19 6 9 17 3 23 3 24 23 29 82 48 50 59
REMARK Flexibility Score: inf
ROOT
ATOM      1  C   UNL A   1      31.454  32.449  26.741  1.00  0.00     0.042 C 
ENDROOT
BRANCH   1   2
ATOM      2  C   UNL A   1      31.656  31.078  26.103  1.00  0.00     0.117 C 
BRANCH   2   3
ATOM      3  N   UNL A   1      32.198  30.139  27.059  1.00  0.00    -0.356 N 
ATOM      4  C   UNL A   1      32.317  28.789  26.914  1.00  0.00     0.224 C 
ATOM      5  O   UNL A   1      32.482  28.102  27.924  1.00  0.00    -0.275 OA
ATOM      6  H   UNL A   1      32.516  30.517  27.911  1.00  0.00     0.163 HD
BRANCH   4   7
ATOM      7  C   UNL A   1      32.372  28.186  25.526  1.00  0.00     0.137 C 
BRANCH   7   8
ATOM      8  C   UNL A   1      31.099  27.604  24.960  1.00  0.00    -0.015 A 
ATOM      9  C   UNL A   1      30.508  26.393  25.373  1.00  0.00     0.044 A 
ATOM     10  C   UNL A   1      29.383  25.903  24.678  1.00  0.00     0.026 A 
ATOM     11  C   UNL A   1      28.778  26.632  23.659  1.00  0.00     0.002 A 
ATOM     12  C   UNL A   1      30.467  28.328  23.921  1.00  0.00     0.006 A 
ATOM     13  C   UNL A   1      29.314  27.854  23.290  1.00  0.00     0.000 A 
BRANCH   9  14
ATOM     14  N   UNL A   1      30.968  25.497  26.350  1.00  0.00    -0.325 N 
ATOM     15  C   UNL A   1      31.288  24.189  26.444  1.00  0.00     0.233 C 
ATOM     16  O   UNL A   1      30.894  23.669  27.503  1.00  0.00    -0.274 OA
ATOM     17  H   UNL A   1      31.095  25.953  27.214  1.00  0.00     0.169 HD
BRANCH  15  18
ATOM     18  C   UNL A   1      32.384  23.462  25.640  1.00  0.00     0.142 C 
ATOM     19  C   UNL A   1      34.417  25.186  25.358  1.00  0.00     0.076 C 
ATOM     20  C   UNL A   1      33.614  23.989  24.890  1.00  0.00     0.192 C 
ATOM     21  N   UNL A   1      33.298  24.006  23.448  1.00  0.00    -0.343 N 
ATOM     22  C   UNL A   1      31.925  23.540  23.290  1.00  0.00     0.261 C 
ATOM     23  H   UNL A   1      33.936  23.388  22.946  1.00  0.00     0.346 HD
ATOM     24  H   UNL A   1      33.401  24.948  23.071  1.00  0.00     0.346 HD
ATOM     25  C   UNL A   1      31.695  22.668  24.506  1.00  0.00     0.081 C 
ENDBRANCH  15  18
ENDBRANCH   9  14
ENDBRANCH   7   8
ENDBRANCH   4   7
ENDBRANCH   2   3
ENDBRANCH   1   2
BRANCH   1  26
ATOM     26  C   UNL A   1      32.689  32.936  27.481  1.00  0.00     0.118 C 
BRANCH  26  27
ATOM     27  N   UNL A   1      32.647  34.366  27.728  1.00  0.00    -0.352 N 
ATOM     28  C   UNL A   1      33.325  35.090  28.676  1.00  0.00     0.251 C 
ATOM     29  H   UNL A   1      32.054  34.886  27.138  1.00  0.00     0.163 HD
ATOM     30  O   UNL A   1      33.030  36.257  28.878  1.00  0.00    -0.269 OA
BRANCH  28  31
ATOM     31  C   UNL A   1      34.398  34.436  29.452  1.00  0.00     0.039 A 
ATOM     32  C   UNL A   1      35.694  34.444  28.935  1.00  0.00     0.014 A 
ATOM     33  C   UNL A   1      34.124  33.804  30.670  1.00  0.00     0.014 A 
ATOM     34  C   UNL A   1      36.718  33.821  29.645  1.00  0.00     0.010 A 
ATOM     35  C   UNL A   1      35.163  33.266  31.419  1.00  0.00     0.010 A 
ATOM     36  C   UNL A   1      36.461  33.232  30.895  1.00  0.00    -0.014 A 
BRANCH  36  37
ATOM     37  C   UNL A   1      37.538  32.530  31.632  1.00  0.00     0.031 A 
ATOM     38  C   UNL A   1      38.265  31.380  30.986  1.00  0.00     0.074 A 
ATOM     39  C   UNL A   1      37.835  32.906  32.889  1.00  0.00     0.049 A 
ATOM     40  N   UNL A   1      39.259  30.670  31.452  1.00  0.00    -0.248 NA
ATOM     41  C   UNL A   1      37.800  30.951  29.654  1.00  0.00     0.031 C 
ATOM     42  C   UNL A   1      37.136  33.944  33.649  1.00  0.00     0.029 A 
ATOM     43  N   UNL A   1      38.798  32.453  33.752  1.00  0.00    -0.354 N 
ATOM     44  C   UNL A   1      39.513  29.697  30.493  1.00  0.00     0.074 A 
ATOM     45  C   UNL A   1      38.539  29.874  29.439  1.00  0.00     0.031 C 
ATOM     46  C   UNL A   1      37.707  34.063  34.858  1.00  0.00     0.029 A 
ATOM     47  C   UNL A   1      38.798  33.099  34.966  1.00  0.00     0.049 A 
ATOM     48  H   UNL A   1      39.431  31.734  33.525  1.00  0.00     0.167 HD
ATOM     49  C   UNL A   1      40.493  28.763  30.469  1.00  0.00     0.034 A 
ATOM     50  C   UNL A   1      39.597  32.938  36.038  1.00  0.00     0.034 A 
ATOM     51  C   UNL A   1      41.487  28.626  31.497  1.00  0.00     0.049 A 
ATOM     52  C   UNL A   1      40.722  31.943  35.958  1.00  0.00     0.074 A 
ATOM     53  C   UNL A   1      42.577  27.776  31.534  1.00  0.00     0.029 A 
ATOM     54  N   UNL A   1      41.510  29.359  32.674  1.00  0.00    -0.354 N 
ATOM     55  N   UNL A   1      41.051  31.146  34.970  1.00  0.00    -0.248 NA
ATOM     56  C   UNL A   1      41.615  31.859  37.121  1.00  0.00     0.031 C 
ATOM     57  C   UNL A   1      43.247  27.980  32.745  1.00  0.00     0.029 A 
ATOM     58  C   UNL A   1      42.592  28.978  33.449  1.00  0.00     0.049 A 
ATOM     59  H   UNL A   1      40.853  30.049  32.922  1.00  0.00     0.167 HD
ATOM     60  C   UNL A   1      42.208  30.491  35.377  1.00  0.00     0.074 A 
ATOM     61  C   UNL A   1      42.535  31.007  36.691  1.00  0.00     0.031 C 
ATOM     62  C   UNL A   1      42.926  29.538  34.733  1.00  0.00     0.034 A 
BRANCH  49  63
ATOM     63  C   UNL A   1      40.567  27.856  29.268  1.00  0.00     0.023 A 
ATOM     64  C   UNL A   1      39.740  26.715  29.202  1.00  0.00     0.012 A 
ATOM     65  C   UNL A   1      41.419  28.152  28.186  1.00  0.00     0.148 A 
ATOM     66  C   UNL A   1      39.787  25.862  28.101  1.00  0.00     0.002 A 
ATOM     67  C   UNL A   1      41.425  27.324  27.069  1.00  0.00     0.091 A 
ATOM     68  F   UNL A   1      42.215  29.227  28.274  1.00  0.00    -0.205 F 
ATOM     69  C   UNL A   1      40.621  26.172  27.031  1.00  0.00     0.022 A 
BRANCH  67  70
ATOM     70  S   UNL A   1      42.402  27.679  25.603  1.00  0.00     0.127 S 
ATOM     71  O   UNL A   1      43.756  27.717  26.153  1.00  0.00    -0.237 OA
ATOM     72  O   UNL A   1      42.120  26.519  24.759  1.00  0.00    -0.237 OA
ATOM     73  O   UNL A   1      41.902  28.944  25.085  1.00  0.00    -0.744 OA
ENDBRANCH  67  70
ENDBRANCH  49  63
BRANCH  50  74
ATOM     74  C   UNL A   1      39.410  33.798  37.240  1.00  0.00     0.023 A 
ATOM     75  C   UNL A   1      39.872  35.129  37.220  1.00  0.00     0.012 A 
ATOM     76  C   UNL A   1      38.754  33.316  38.389  1.00  0.00     0.148 A 
ATOM     77  C   UNL A   1      39.718  35.952  38.336  1.00  0.00     0.002 A 
ATOM     78  C   UNL A   1      38.553  34.159  39.476  1.00  0.00     0.091 A 
ATOM     79  F   UNL A   1      38.328  32.044  38.391  1.00  0.00    -0.205 F 
ATOM     80  C   UNL A   1      39.050  35.471  39.459  1.00  0.00     0.022 A 
BRANCH  78  81
ATOM     81  S   UNL A   1      37.586  33.667  40.908  1.00  0.00     0.127 S 
ATOM     82  O   UNL A   1      38.482  32.715  41.561  1.00  0.00    -0.237 OA
ATOM     83  O   UNL A   1      37.419  34.939  41.612  1.00  0.00    -0.237 OA
ATOM     84  O   UNL A   1      36.350  33.110  40.376  1.00  0.00    -0.744 OA
ENDBRANCH  78  81
ENDBRANCH  50  74
BRANCH  62  85
ATOM     85  C   UNL A   1      44.157  29.013  35.425  1.00  0.00     0.023 A 
ATOM     86  C   UNL A   1      45.409  29.609  35.181  1.00  0.00     0.012 A 
ATOM     87  C   UNL A   1      44.061  27.962  36.358  1.00  0.00     0.148 A 
ATOM     88  C   UNL A   1      46.555  29.139  35.819  1.00  0.00     0.002 A 
ATOM     89  C   UNL A   1      45.200  27.533  37.030  1.00  0.00     0.091 A 
ATOM     90  F   UNL A   1      42.864  27.393  36.564  1.00  0.00    -0.205 F 
ATOM     91  C   UNL A   1      46.448  28.109  36.751  1.00  0.00     0.022 A 
BRANCH  89  92
ATOM     92  S   UNL A   1      45.135  26.282  38.318  1.00  0.00     0.127 S 
ATOM     93  O   UNL A   1      44.148  26.849  39.235  1.00  0.00    -0.237 OA
ATOM     94  O   UNL A   1      44.678  25.102  37.584  1.00  0.00    -0.237 OA
ATOM     95  O   UNL A   1      46.491  26.177  38.839  1.00  0.00    -0.744 OA
ENDBRANCH  89  92
ENDBRANCH  62  85
ENDBRANCH  36  37
ENDBRANCH  28  31
ENDBRANCH  26  27
ENDBRANCH   1  26
TORSDOF 16
ENDMDL
MODEL 3
REMARK VINA RESULT:     -11.9      0.959      2.281
REMARK SMILES C[C@@H]1[NH2+]CC[C@@H]1C(=O)Nc1ccccc1CC(=O)NCCCNC(=O)c1ccc(-c2c3nc(c(-c4cccc(S(=O)(=O)[O-])c4F)c4ccc([nH]4)c(-c4cccc(S(=O)(=O)[O-])c4F)c4nc(c(-c5cccc(S(=O)(=O)[O-])c5F)c5ccc2[nH]5)C=C4)C=C3)cc1
REMARK SMILES IDX 21 1 20 2 19 3 17 4 18 5 16 7 15 8 10 9 11 10 12 11 14 12
REMARK SMILES IDX 13 13 9 14 7 15 8 16 6 18 1 19 2 20 3 21 4 22 5 25 22 26
REMARK SMILES IDX 23 27 24 28 25 30 26 31 27 32 88 33 28 34 87 35 29 36 30 37
REMARK SMILES IDX 31 38 81 39 32 40 86 41 80 42 82 43 33 44 85 45 79 46 78 47
REMARK SMILES IDX 34 49 66 50 46 51 65 52 47 53 50 54 64 55 83 56 48 57 49 58
REMARK SMILES IDX 63 60 84 61 51 62 35 63 36 64 44 65 37 66 39 67 45 68 38 69
REMARK SMILES IDX 40 70 41 71 42 72 43 73 67 74 68 75 76 76 69 77 71 78 77 79
REMARK SMILES IDX 70 80 72 81 73 82 74 83 75 84 52 85 53 86 61 87 54 88 56 89
REMARK SMILES IDX 62 90 55 91 57 92 58 93 59 94 60 95
REMARK H PARENT 19 6 9 17 3 23 3 24 23 29 82 48 50 59
REMARK Flexibility Score: inf
ROOT
ATOM      1  C   UNL A   1      33.181  28.053  26.556  1.00  0.00     0.042 C 
ENDROOT
BRANCH   1   2
ATOM      2  C   UNL A   1      31.688  27.869  26.305  1.00  0.00     0.117 C 
BRANCH   2   3
ATOM      3  N   UNL A   1      31.261  26.540  26.684  1.00  0.00    -0.356 N 
ATOM      4  C   UNL A   1      30.323  25.768  26.067  1.00  0.00     0.224 C 
ATOM      5  O   UNL A   1      29.839  24.822  26.691  1.00  0.00    -0.275 OA
ATOM      6  H   UNL A   1      31.696  26.151  27.477  1.00  0.00     0.163 HD
BRANCH   4   7
ATOM      7  C   UNL A   1      29.994  26.008  24.608  1.00  0.00     0.137 C 
BRANCH   7   8
ATOM      8  C   UNL A   1      30.956  25.477  23.573  1.00  0.00    -0.015 A 
ATOM      9  C   UNL A   1      31.509  24.180  23.569  1.00  0.00     0.044 A 
ATOM     10  C   UNL A   1      32.489  23.852  22.611  1.00  0.00     0.026 A 
ATOM     11  C   UNL A   1      32.854  24.739  21.603  1.00  0.00     0.002 A 
ATOM     12  C   UNL A   1      31.344  26.364  22.540  1.00  0.00     0.006 A 
ATOM     13  C   UNL A   1      32.268  25.993  21.560  1.00  0.00     0.000 A 
BRANCH   9  14
ATOM     14  N   UNL A   1      31.302  23.152  24.501  1.00  0.00    -0.325 N 
ATOM     15  C   UNL A   1      32.043  22.352  25.297  1.00  0.00     0.233 C 
ATOM     16  O   UNL A   1      31.628  21.179  25.326  1.00  0.00    -0.274 OA
ATOM     17  H   UNL A   1      30.342  22.958  24.604  1.00  0.00     0.169 HD
BRANCH  15  18
ATOM     18  C   UNL A   1      32.994  22.815  26.417  1.00  0.00     0.142 C 
ATOM     19  C   UNL A   1      34.420  24.859  25.432  1.00  0.00     0.076 C 
ATOM     20  C   UNL A   1      34.252  23.693  26.385  1.00  0.00     0.192 C 
ATOM     21  N   UNL A   1      35.430  22.808  26.464  1.00  0.00    -0.343 N 
ATOM     22  C   UNL A   1      34.949  21.432  26.515  1.00  0.00     0.261 C 
ATOM     23  H   UNL A   1      35.968  23.020  27.306  1.00  0.00     0.346 HD
ATOM     24  H   UNL A   1      36.035  22.946  25.655  1.00  0.00     0.346 HD
ATOM     25  C   UNL A   1      33.563  21.554  27.111  1.00  0.00     0.081 C 
ENDBRANCH  15  18
ENDBRANCH   9  14
ENDBRANCH   7   8
ENDBRANCH   4   7
ENDBRANCH   2   3
ENDBRANCH   1   2
BRANCH   1  26
ATOM     26  C   UNL A   1      33.774  29.188  25.738  1.00  0.00     0.118 C 
BRANCH  26  27
ATOM     27  N   UNL A   1      33.302  30.487  26.185  1.00  0.00    -0.352 N 
ATOM     28  C   UNL A   1      33.753  31.246  27.234  1.00  0.00     0.251 C 
ATOM     29  H   UNL A   1      32.558  30.873  25.667  1.00  0.00     0.163 HD
ATOM     30  O   UNL A   1      33.120  32.225  27.595  1.00  0.00    -0.269 OA
BRANCH  28  31
ATOM     31  C   UNL A   1      35.000  30.856  27.923  1.00  0.00     0.039 A 
ATOM     32  C   UNL A   1      36.116  31.684  27.801  1.00  0.00     0.014 A 
ATOM     33  C   UNL A   1      35.072  29.673  28.667  1.00  0.00     0.014 A 
ATOM     34  C   UNL A   1      37.306  31.327  28.432  1.00  0.00     0.010 A 
ATOM     35  C   UNL A   1      36.231  29.368  29.371  1.00  0.00     0.010 A 
ATOM     36  C   UNL A   1      37.370  30.169  29.226  1.00  0.00    -0.014 A 
BRANCH  36  37
ATOM     37  C   UNL A   1      38.645  29.762  29.862  1.00  0.00     0.031 A 
ATOM     38  C   UNL A   1      39.013  30.295  31.221  1.00  0.00     0.074 A 
ATOM     39  C   UNL A   1      39.482  28.942  29.201  1.00  0.00     0.049 A 
ATOM     40  N   UNL A   1      40.060  30.026  31.955  1.00  0.00    -0.248 NA
ATOM     41  C   UNL A   1      38.100  31.283  31.826  1.00  0.00     0.031 C 
ATOM     42  C   UNL A   1      39.276  28.436  27.842  1.00  0.00     0.029 A 
ATOM     43  N   UNL A   1      40.681  28.394  29.581  1.00  0.00    -0.354 N 
ATOM     44  C   UNL A   1      39.950  30.829  33.084  1.00  0.00     0.074 A 
ATOM     45  C   UNL A   1      38.761  31.633  32.919  1.00  0.00     0.031 C 
ATOM     46  C   UNL A   1      40.300  27.636  27.510  1.00  0.00     0.029 A 
ATOM     47  C   UNL A   1      41.245  27.586  28.621  1.00  0.00     0.049 A 
ATOM     48  H   UNL A   1      41.097  28.563  30.457  1.00  0.00     0.167 HD
ATOM     49  C   UNL A   1      40.745  30.867  34.179  1.00  0.00     0.034 A 
ATOM     50  C   UNL A   1      42.390  26.877  28.645  1.00  0.00     0.034 A 
ATOM     51  C   UNL A   1      41.898  30.028  34.357  1.00  0.00     0.049 A 
ATOM     52  C   UNL A   1      43.218  26.882  29.902  1.00  0.00     0.074 A 
ATOM     53  C   UNL A   1      42.723  29.919  35.461  1.00  0.00     0.029 A 
ATOM     54  N   UNL A   1      42.391  29.154  33.399  1.00  0.00    -0.354 N 
ATOM     55  N   UNL A   1      43.006  27.520  31.027  1.00  0.00    -0.248 NA
ATOM     56  C   UNL A   1      44.415  26.032  29.908  1.00  0.00     0.031 C 
ATOM     57  C   UNL A   1      43.729  28.994  35.162  1.00  0.00     0.029 A 
ATOM     58  C   UNL A   1      43.514  28.505  33.884  1.00  0.00     0.049 A 
ATOM     59  H   UNL A   1      42.001  29.016  32.506  1.00  0.00     0.167 HD
ATOM     60  C   UNL A   1      44.024  27.123  31.887  1.00  0.00     0.074 A 
ATOM     61  C   UNL A   1      44.833  26.168  31.159  1.00  0.00     0.031 C 
ATOM     62  C   UNL A   1      44.277  27.523  33.158  1.00  0.00     0.034 A 
BRANCH  49  63
ATOM     63  C   UNL A   1      40.360  31.809  35.291  1.00  0.00     0.023 A 
ATOM     64  C   UNL A   1      41.006  33.057  35.403  1.00  0.00     0.012 A 
ATOM     65  C   UNL A   1      39.332  31.481  36.197  1.00  0.00     0.148 A 
ATOM     66  C   UNL A   1      40.666  33.948  36.421  1.00  0.00     0.002 A 
ATOM     67  C   UNL A   1      38.964  32.394  37.179  1.00  0.00     0.091 A 
ATOM     68  F   UNL A   1      38.744  30.282  36.091  1.00  0.00    -0.205 F 
ATOM     69  C   UNL A   1      39.639  33.621  37.301  1.00  0.00     0.022 A 
BRANCH  67  70
ATOM     70  S   UNL A   1      37.599  32.105  38.310  1.00  0.00     0.127 S 
ATOM     71  O   UNL A   1      38.202  32.454  39.596  1.00  0.00    -0.237 OA
ATOM     72  O   UNL A   1      36.596  33.054  37.830  1.00  0.00    -0.237 OA
ATOM     73  O   UNL A   1      37.236  30.704  38.151  1.00  0.00    -0.744 OA
ENDBRANCH  67  70
ENDBRANCH  49  63
BRANCH  50  74
ATOM     74  C   UNL A   1      42.771  26.041  27.472  1.00  0.00     0.023 A 
ATOM     75  C   UNL A   1      43.650  26.564  26.504  1.00  0.00     0.012 A 
ATOM     76  C   UNL A   1      42.293  24.725  27.327  1.00  0.00     0.148 A 
ATOM     77  C   UNL A   1      44.016  25.805  25.392  1.00  0.00     0.002 A 
ATOM     78  C   UNL A   1      42.706  23.954  26.247  1.00  0.00     0.091 A 
ATOM     79  F   UNL A   1      41.451  24.248  28.256  1.00  0.00    -0.205 F 
ATOM     80  C   UNL A   1      43.553  24.498  25.268  1.00  0.00     0.022 A 
BRANCH  78  81
ATOM     81  S   UNL A   1      42.268  22.220  26.080  1.00  0.00     0.127 S 
ATOM     82  O   UNL A   1      42.979  21.847  24.860  1.00  0.00    -0.237 OA
ATOM     83  O   UNL A   1      42.816  21.650  27.311  1.00  0.00    -0.237 OA
ATOM     84  O   UNL A   1      40.815  22.187  26.001  1.00  0.00    -0.744 OA
ENDBRANCH  78  81
ENDBRANCH  50  74
BRANCH  62  85
ATOM     85  C   UNL A   1      45.460  26.904  33.855  1.00  0.00     0.023 A 
ATOM     86  C   UNL A   1      46.719  27.532  33.795  1.00  0.00     0.012 A 
ATOM     87  C   UNL A   1      45.311  25.726  34.614  1.00  0.00     0.148 A 
ATOM     88  C   UNL A   1      47.822  26.974  34.441  1.00  0.00     0.002 A 
ATOM     89  C   UNL A   1      46.402  25.205  35.299  1.00  0.00     0.091 A 
ATOM     90  F   UNL A   1      44.109  25.131  34.644  1.00  0.00    -0.205 F 
ATOM     91  C   UNL A   1      47.660  25.818  35.200  1.00  0.00     0.022 A 
BRANCH  89  92
ATOM     92  S   UNL A   1      46.259  23.778  36.380  1.00  0.00     0.127 S 
ATOM     93  O   UNL A   1      45.250  24.228  37.337  1.00  0.00    -0.237 OA
ATOM     94  O   UNL A   1      45.803  22.734  35.460  1.00  0.00    -0.237 OA
ATOM     95  O   UNL A   1      47.591  23.557  36.925  1.00  0.00    -0.744 OA
ENDBRANCH  89  92
ENDBRANCH  62  85
ENDBRANCH  36  37
ENDBRANCH  28  31
ENDBRANCH  26  27
ENDBRANCH   1  26
TORSDOF 16
ENDMDL
