MODEL 1
REMARK VINA RESULT:     -12.0      0.000      0.000
REMARK SMILES C[C@H](NC(=O)NCCc1ccccc1F)C(=O)NCCCNC(=O)c1ccc(-c2c3nc(c(-c4cccc(S(=O)(=O)[O-])c4F)c4ccc([nH]4)c(-c4cccc(S(=O)(=O)[O-])c4F)c4nc(c(-c5cccc(S(=O)(=O)[O-])c5F)c5ccc2[nH]5)C=C4)C=C3)cc1
REMARK SMILES IDX 19 1 18 2 16 3 17 4 2 6 1 7 3 8 4 9 5 11 6 12 7 14 8 15 9 16
REMARK SMILES IDX 10 17 14 18 11 19 13 20 15 21 12 22 20 23 21 24 22 25 23 26
REMARK SMILES IDX 24 28 25 29 26 30 87 31 27 32 86 33 28 34 29 35 30 36 80 37
REMARK SMILES IDX 31 38 85 39 79 40 81 41 32 42 84 43 78 44 77 45 33 47 65 48
REMARK SMILES IDX 45 49 64 50 46 51 49 52 63 53 82 54 47 55 48 56 62 58 83 59
REMARK SMILES IDX 50 60 34 61 35 62 43 63 36 64 38 65 44 66 37 67 39 68 40 69
REMARK SMILES IDX 41 70 42 71 66 72 67 73 75 74 68 75 70 76 76 77 69 78 71 79
REMARK SMILES IDX 72 80 73 81 74 82 51 83 52 84 60 85 53 86 55 87 61 88 54 89
REMARK SMILES IDX 56 90 57 91 58 92 59 93
REMARK H PARENT 18 5 3 10 6 13 22 27 81 46 49 57
REMARK Flexibility Score: inf
ROOT
ATOM      1  C   UNL A   1      31.395  27.513  26.485  1.00  0.00     0.117 C 
ENDROOT
BRANCH   1   2
ATOM      2  N   UNL A   1      32.412  26.475  26.537  1.00  0.00    -0.354 N 
ATOM      3  C   UNL A   1      32.909  25.698  25.535  1.00  0.00     0.242 C 
ATOM      4  O   UNL A   1      33.918  25.027  25.760  1.00  0.00    -0.273 OA
ATOM      5  H   UNL A   1      32.798  26.309  27.428  1.00  0.00     0.163 HD
BRANCH   3   6
ATOM      6  C   UNL A   1      32.285  25.752  24.136  1.00  0.00     0.170 C 
ATOM      7  C   UNL A   1      31.859  24.342  23.721  1.00  0.00     0.041 C 
BRANCH   6   8
ATOM      8  N   UNL A   1      33.197  26.397  23.198  1.00  0.00    -0.327 N 
ATOM      9  C   UNL A   1      33.058  27.363  22.285  1.00  0.00     0.315 C 
ATOM     10  H   UNL A   1      34.115  26.046  23.248  1.00  0.00     0.166 HD
ATOM     11  O   UNL A   1      34.047  27.689  21.628  1.00  0.00    -0.249 OA
ATOM     12  N   UNL A   1      31.905  27.995  22.043  1.00  0.00    -0.338 N 
ATOM     13  H   UNL A   1      31.978  28.666  21.326  1.00  0.00     0.165 HD
BRANCH  12  14
ATOM     14  C   UNL A   1      30.570  27.910  22.604  1.00  0.00     0.122 C 
BRANCH  14  15
ATOM     15  C   UNL A   1      30.260  29.057  23.560  1.00  0.00     0.060 C 
BRANCH  15  16
ATOM     16  C   UNL A   1      29.464  30.129  22.875  1.00  0.00    -0.010 A 
ATOM     17  C   UNL A   1      28.889  29.911  21.619  1.00  0.00     0.007 A 
ATOM     18  C   UNL A   1      29.234  31.346  23.526  1.00  0.00     0.126 A 
ATOM     19  C   UNL A   1      28.091  30.896  21.040  1.00  0.00     0.000 A 
ATOM     20  C   UNL A   1      28.433  32.327  22.958  1.00  0.00     0.039 A 
ATOM     21  F   UNL A   1      29.770  31.565  24.736  1.00  0.00    -0.207 F 
ATOM     22  C   UNL A   1      27.858  32.100  21.710  1.00  0.00     0.003 A 
ENDBRANCH  15  16
ENDBRANCH  14  15
ENDBRANCH  12  14
ENDBRANCH   6   8
ENDBRANCH   3   6
ENDBRANCH   1   2
BRANCH   1  23
ATOM     23  C   UNL A   1      31.793  28.741  27.274  1.00  0.00     0.042 C 
BRANCH  23  24
ATOM     24  C   UNL A   1      32.870  29.564  26.591  1.00  0.00     0.118 C 
BRANCH  24  25
ATOM     25  N   UNL A   1      32.763  30.992  26.873  1.00  0.00    -0.352 N 
ATOM     26  C   UNL A   1      33.614  31.795  27.597  1.00  0.00     0.251 C 
ATOM     27  H   UNL A   1      31.975  31.443  26.492  1.00  0.00     0.163 HD
ATOM     28  O   UNL A   1      33.294  32.937  27.890  1.00  0.00    -0.269 OA
BRANCH  26  29
ATOM     29  C   UNL A   1      34.910  31.234  28.028  1.00  0.00     0.039 A 
ATOM     30  C   UNL A   1      36.048  32.039  27.998  1.00  0.00     0.014 A 
ATOM     31  C   UNL A   1      34.967  29.935  28.540  1.00  0.00     0.014 A 
ATOM     32  C   UNL A   1      37.231  31.561  28.558  1.00  0.00     0.010 A 
ATOM     33  C   UNL A   1      36.106  29.514  29.205  1.00  0.00     0.010 A 
ATOM     34  C   UNL A   1      37.257  30.314  29.206  1.00  0.00    -0.014 A 
BRANCH  34  35
ATOM     35  C   UNL A   1      38.477  29.823  29.892  1.00  0.00     0.031 A 
ATOM     36  C   UNL A   1      38.820  30.332  31.266  1.00  0.00     0.074 A 
ATOM     37  C   UNL A   1      39.313  28.986  29.246  1.00  0.00     0.049 A 
ATOM     38  N   UNL A   1      39.857  30.048  32.010  1.00  0.00    -0.248 NA
ATOM     39  C   UNL A   1      37.904  31.315  31.873  1.00  0.00     0.031 C 
ATOM     40  C   UNL A   1      39.136  28.508  27.873  1.00  0.00     0.029 A 
ATOM     41  N   UNL A   1      40.487  28.402  29.651  1.00  0.00    -0.354 N 
ATOM     42  C   UNL A   1      39.735  30.839  33.146  1.00  0.00     0.074 A 
ATOM     43  C   UNL A   1      38.556  31.654  32.975  1.00  0.00     0.031 C 
ATOM     44  C   UNL A   1      40.145  27.680  27.561  1.00  0.00     0.029 A 
ATOM     45  C   UNL A   1      41.058  27.591  28.696  1.00  0.00     0.049 A 
ATOM     46  H   UNL A   1      40.883  28.548  30.540  1.00  0.00     0.167 HD
ATOM     47  C   UNL A   1      40.512  30.853  34.251  1.00  0.00     0.034 A 
ATOM     48  C   UNL A   1      42.186  26.855  28.735  1.00  0.00     0.034 A 
ATOM     49  C   UNL A   1      41.641  29.988  34.441  1.00  0.00     0.049 A 
ATOM     50  C   UNL A   1      42.997  26.835  30.002  1.00  0.00     0.074 A 
ATOM     51  C   UNL A   1      42.433  29.847  35.566  1.00  0.00     0.029 A 
ATOM     52  N   UNL A   1      42.137  29.114  33.486  1.00  0.00    -0.354 N 
ATOM     53  N   UNL A   1      42.776  27.470  31.128  1.00  0.00    -0.248 NA
ATOM     54  C   UNL A   1      44.188  25.974  30.024  1.00  0.00     0.031 C 
ATOM     55  C   UNL A   1      43.422  28.904  35.284  1.00  0.00     0.029 A 
ATOM     56  C   UNL A   1      43.229  28.435  33.993  1.00  0.00     0.049 A 
ATOM     57  H   UNL A   1      41.767  28.995  32.581  1.00  0.00     0.167 HD
ATOM     58  C   UNL A   1      43.776  27.062  32.001  1.00  0.00     0.074 A 
ATOM     59  C   UNL A   1      44.599  26.114  31.279  1.00  0.00     0.031 C 
ATOM     60  C   UNL A   1      43.998  27.448  33.281  1.00  0.00     0.034 A 
BRANCH  47  61
ATOM     61  C   UNL A   1      40.125  31.771  35.380  1.00  0.00     0.023 A 
ATOM     62  C   UNL A   1      40.678  33.067  35.438  1.00  0.00     0.012 A 
ATOM     63  C   UNL A   1      39.150  31.391  36.322  1.00  0.00     0.148 A 
ATOM     64  C   UNL A   1      40.284  33.963  36.431  1.00  0.00     0.002 A 
ATOM     65  C   UNL A   1      38.726  32.305  37.277  1.00  0.00     0.091 A 
ATOM     66  F   UNL A   1      38.654  30.147  36.262  1.00  0.00    -0.205 F 
ATOM     67  C   UNL A   1      39.299  33.587  37.340  1.00  0.00     0.022 A 
BRANCH  65  68
ATOM     68  S   UNL A   1      37.401  31.955  38.438  1.00  0.00     0.127 S 
ATOM     69  O   UNL A   1      37.113  30.552  38.143  1.00  0.00    -0.237 OA
ATOM     70  O   UNL A   1      38.053  32.185  39.727  1.00  0.00    -0.237 OA
ATOM     71  O   UNL A   1      36.330  32.889  38.121  1.00  0.00    -0.744 OA
ENDBRANCH  65  68
ENDBRANCH  47  61
BRANCH  48  72
ATOM     72  C   UNL A   1      42.548  26.004  27.566  1.00  0.00     0.023 A 
ATOM     73  C   UNL A   1      43.415  26.518  26.582  1.00  0.00     0.012 A 
ATOM     74  C   UNL A   1      42.105  24.671  27.460  1.00  0.00     0.148 A 
ATOM     75  C   UNL A   1      43.822  25.727  25.506  1.00  0.00     0.002 A 
ATOM     76  C   UNL A   1      42.559  23.871  26.418  1.00  0.00     0.091 A 
ATOM     77  F   UNL A   1      41.274  24.203  28.402  1.00  0.00    -0.205 F 
ATOM     78  C   UNL A   1      43.405  24.401  25.432  1.00  0.00     0.022 A 
BRANCH  76  79
ATOM     79  S   UNL A   1      42.193  22.114  26.318  1.00  0.00     0.127 S 
ATOM     80  O   UNL A   1      42.654  21.638  27.618  1.00  0.00    -0.237 OA
ATOM     81  O   UNL A   1      40.740  22.121  26.142  1.00  0.00    -0.237 OA
ATOM     82  O   UNL A   1      42.935  21.624  25.165  1.00  0.00    -0.744 OA
ENDBRANCH  76  79
ENDBRANCH  48  72
BRANCH  60  83
ATOM     83  C   UNL A   1      45.155  26.835  34.022  1.00  0.00     0.023 A 
ATOM     84  C   UNL A   1      46.414  27.465  33.992  1.00  0.00     0.012 A 
ATOM     85  C   UNL A   1      44.947  25.734  34.878  1.00  0.00     0.148 A 
ATOM     86  C   UNL A   1      47.452  27.004  34.799  1.00  0.00     0.002 A 
ATOM     87  C   UNL A   1      45.971  25.312  35.715  1.00  0.00     0.091 A 
ATOM     88  F   UNL A   1      43.741  25.147  34.880  1.00  0.00    -0.205 F 
ATOM     89  C   UNL A   1      47.226  25.940  35.671  1.00  0.00     0.022 A 
BRANCH  87  90
ATOM     90  S   UNL A   1      45.742  24.029  36.950  1.00  0.00     0.127 S 
ATOM     91  O   UNL A   1      45.421  22.870  36.119  1.00  0.00    -0.237 OA
ATOM     92  O   UNL A   1      47.058  23.976  37.588  1.00  0.00    -0.237 OA
ATOM     93  O   UNL A   1      44.665  24.486  37.817  1.00  0.00    -0.744 OA
ENDBRANCH  87  90
ENDBRANCH  60  83
ENDBRANCH  34  35
ENDBRANCH  26  29
ENDBRANCH  24  25
ENDBRANCH  23  24
ENDBRANCH   1  23
TORSDOF 17
ENDMDL
MODEL 2
REMARK VINA RESULT:     -12.0      2.566      4.361
REMARK SMILES C[C@H](NC(=O)NCCc1ccccc1F)C(=O)NCCCNC(=O)c1ccc(-c2c3nc(c(-c4cccc(S(=O)(=O)[O-])c4F)c4ccc([nH]4)c(-c4cccc(S(=O)(=O)[O-])c4F)c4nc(c(-c5cccc(S(=O)(=O)[O-])c5F)c5ccc2[nH]5)C=C4)C=C3)cc1
REMARK SMILES IDX 19 1 18 2 16 3 17 4 2 6 1 7 3 8 4 9 5 11 6 12 7 14 8 15 9 16
REMARK SMILES IDX 10 17 14 18 11 19 13 20 15 21 12 22 20 23 21 24 22 25 23 26
REMARK SMILES IDX 24 28 25 29 26 30 87 31 27 32 86 33 28 34 29 35 30 36 80 37
REMARK SMILES IDX 31 38 85 39 79 40 81 41 32 42 84 43 78 44 77 45 33 47 65 48
REMARK SMILES IDX 45 49 64 50 46 51 49 52 63 53 82 54 47 55 48 56 62 58 83 59
REMARK SMILES IDX 50 60 34 61 35 62 43 63 36 64 38 65 44 66 37 67 39 68 40 69
REMARK SMILES IDX 41 70 42 71 66 72 67 73 75 74 68 75 70 76 76 77 69 78 71 79
REMARK SMILES IDX 72 80 73 81 74 82 51 83 52 84 60 85 53 86 55 87 61 88 54 89
REMARK SMILES IDX 56 90 57 91 58 92 59 93
REMARK H PARENT 18 5 3 10 6 13 22 27 81 46 49 57
REMARK Flexibility Score: inf
ROOT
ATOM      1  C   UNL A   1      31.521  27.869  25.098  1.00  0.00     0.117 C 
ENDROOT
BRANCH   1   2
ATOM      2  N   UNL A   1      30.283  27.524  24.418  1.00  0.00    -0.354 N 
ATOM      3  C   UNL A   1      29.748  26.297  24.165  1.00  0.00     0.242 C 
ATOM      4  O   UNL A   1      28.585  26.239  23.761  1.00  0.00    -0.273 OA
ATOM      5  H   UNL A   1      29.754  28.288  24.093  1.00  0.00     0.163 HD
BRANCH   3   6
ATOM      6  C   UNL A   1      30.545  25.028  24.483  1.00  0.00     0.170 C 
ATOM      7  C   UNL A   1      30.569  24.126  23.246  1.00  0.00     0.041 C 
BRANCH   6   8
ATOM      8  N   UNL A   1      30.014  24.381  25.679  1.00  0.00    -0.327 N 
ATOM      9  C   UNL A   1      30.543  23.590  26.616  1.00  0.00     0.315 C 
ATOM     10  H   UNL A   1      29.059  24.569  25.828  1.00  0.00     0.166 HD
ATOM     11  O   UNL A   1      29.809  23.191  27.521  1.00  0.00    -0.249 OA
ATOM     12  N   UNL A   1      31.823  23.205  26.628  1.00  0.00    -0.338 N 
ATOM     13  H   UNL A   1      32.038  22.609  27.381  1.00  0.00     0.165 HD
BRANCH  12  14
ATOM     14  C   UNL A   1      32.965  23.472  25.774  1.00  0.00     0.122 C 
BRANCH  14  15
ATOM     15  C   UNL A   1      33.205  22.368  24.750  1.00  0.00     0.060 C 
BRANCH  15  16
ATOM     16  C   UNL A   1      34.665  22.036  24.648  1.00  0.00    -0.010 A 
ATOM     17  C   UNL A   1      35.603  23.009  24.289  1.00  0.00     0.007 A 
ATOM     18  C   UNL A   1      35.111  20.752  24.978  1.00  0.00     0.126 A 
ATOM     19  C   UNL A   1      36.961  22.693  24.276  1.00  0.00     0.000 A 
ATOM     20  C   UNL A   1      36.461  20.434  24.975  1.00  0.00     0.039 A 
ATOM     21  F   UNL A   1      34.223  19.811  25.334  1.00  0.00    -0.207 F 
ATOM     22  C   UNL A   1      37.391  21.410  24.624  1.00  0.00     0.003 A 
ENDBRANCH  15  16
ENDBRANCH  14  15
ENDBRANCH  12  14
ENDBRANCH   6   8
ENDBRANCH   3   6
ENDBRANCH   1   2
BRANCH   1  23
ATOM     23  C   UNL A   1      31.769  29.362  25.108  1.00  0.00     0.042 C 
BRANCH  23  24
ATOM     24  C   UNL A   1      32.480  29.839  26.362  1.00  0.00     0.118 C 
BRANCH  24  25
ATOM     25  N   UNL A   1      32.315  31.269  26.604  1.00  0.00    -0.352 N 
ATOM     26  C   UNL A   1      33.124  32.122  27.318  1.00  0.00     0.251 C 
ATOM     27  H   UNL A   1      31.516  31.679  26.201  1.00  0.00     0.163 HD
ATOM     28  O   UNL A   1      32.756  33.258  27.577  1.00  0.00    -0.269 OA
BRANCH  26  29
ATOM     29  C   UNL A   1      34.433  31.622  27.783  1.00  0.00     0.039 A 
ATOM     30  C   UNL A   1      35.467  32.528  28.016  1.00  0.00     0.014 A 
ATOM     31  C   UNL A   1      34.596  30.264  28.064  1.00  0.00     0.014 A 
ATOM     32  C   UNL A   1      36.645  32.075  28.609  1.00  0.00     0.010 A 
ATOM     33  C   UNL A   1      35.714  29.842  28.765  1.00  0.00     0.010 A 
ATOM     34  C   UNL A   1      36.759  30.738  29.029  1.00  0.00    -0.014 A 
BRANCH  34  35
ATOM     35  C   UNL A   1      37.962  30.252  29.747  1.00  0.00     0.031 A 
ATOM     36  C   UNL A   1      38.241  30.725  31.148  1.00  0.00     0.074 A 
ATOM     37  C   UNL A   1      38.843  29.455  29.108  1.00  0.00     0.049 A 
ATOM     38  N   UNL A   1      39.254  30.440  31.923  1.00  0.00    -0.248 NA
ATOM     39  C   UNL A   1      37.280  31.667  31.749  1.00  0.00     0.031 C 
ATOM     40  C   UNL A   1      38.730  29.018  27.715  1.00  0.00     0.029 A 
ATOM     41  N   UNL A   1      40.013  28.885  29.540  1.00  0.00    -0.354 N 
ATOM     42  C   UNL A   1      39.070  31.191  33.077  1.00  0.00     0.074 A 
ATOM     43  C   UNL A   1      37.880  31.985  32.886  1.00  0.00     0.031 C 
ATOM     44  C   UNL A   1      39.769  28.223  27.417  1.00  0.00     0.029 A 
ATOM     45  C   UNL A   1      40.639  28.118  28.583  1.00  0.00     0.049 A 
ATOM     46  H   UNL A   1      40.371  29.011  30.448  1.00  0.00     0.167 HD
ATOM     47  C   UNL A   1      39.804  31.186  34.212  1.00  0.00     0.034 A 
ATOM     48  C   UNL A   1      41.782  27.406  28.644  1.00  0.00     0.034 A 
ATOM     49  C   UNL A   1      40.945  30.340  34.419  1.00  0.00     0.049 A 
ATOM     50  C   UNL A   1      42.543  27.363  29.940  1.00  0.00     0.074 A 
ATOM     51  C   UNL A   1      41.695  30.181  35.569  1.00  0.00     0.029 A 
ATOM     52  N   UNL A   1      41.497  29.509  33.457  1.00  0.00    -0.354 N 
ATOM     53  N   UNL A   1      42.264  27.957  31.076  1.00  0.00    -0.248 NA
ATOM     54  C   UNL A   1      43.752  26.528  29.982  1.00  0.00     0.031 C 
ATOM     55  C   UNL A   1      42.716  29.270  35.297  1.00  0.00     0.029 A 
ATOM     56  C   UNL A   1      42.584  28.839  33.986  1.00  0.00     0.049 A 
ATOM     57  H   UNL A   1      41.165  29.411  32.535  1.00  0.00     0.167 HD
ATOM     58  C   UNL A   1      43.240  27.543  31.975  1.00  0.00     0.074 A 
ATOM     59  C   UNL A   1      44.112  26.637  31.256  1.00  0.00     0.031 C 
ATOM     60  C   UNL A   1      43.403  27.892  33.273  1.00  0.00     0.034 A 
BRANCH  47  61
ATOM     61  C   UNL A   1      39.352  32.059  35.353  1.00  0.00     0.023 A 
ATOM     62  C   UNL A   1      38.529  31.512  36.359  1.00  0.00     0.012 A 
ATOM     63  C   UNL A   1      39.817  33.381  35.482  1.00  0.00     0.148 A 
ATOM     64  C   UNL A   1      38.155  32.276  37.463  1.00  0.00     0.002 A 
ATOM     65  C   UNL A   1      39.481  34.121  36.609  1.00  0.00     0.091 A 
ATOM     66  F   UNL A   1      40.580  33.889  34.503  1.00  0.00    -0.205 F 
ATOM     67  C   UNL A   1      38.642  33.574  37.595  1.00  0.00     0.022 A 
BRANCH  65  68
ATOM     68  S   UNL A   1      40.127  35.768  36.919  1.00  0.00     0.127 S 
ATOM     69  O   UNL A   1      39.482  36.103  38.187  1.00  0.00    -0.237 OA
ATOM     70  O   UNL A   1      41.565  35.520  37.013  1.00  0.00    -0.237 OA
ATOM     71  O   UNL A   1      39.722  36.581  35.781  1.00  0.00    -0.744 OA
ENDBRANCH  65  68
ENDBRANCH  47  61
BRANCH  48  72
ATOM     72  C   UNL A   1      42.208  26.601  27.463  1.00  0.00     0.023 A 
ATOM     73  C   UNL A   1      43.010  27.202  26.473  1.00  0.00     0.012 A 
ATOM     74  C   UNL A   1      41.893  25.233  27.352  1.00  0.00     0.148 A 
ATOM     75  C   UNL A   1      43.477  26.461  25.387  1.00  0.00     0.002 A 
ATOM     76  C   UNL A   1      42.408  24.487  26.298  1.00  0.00     0.091 A 
ATOM     77  F   UNL A   1      41.122  24.682  28.300  1.00  0.00    -0.205 F 
ATOM     78  C   UNL A   1      43.187  25.102  25.306  1.00  0.00     0.022 A 
BRANCH  76  79
ATOM     79  S   UNL A   1      42.209  22.704  26.188  1.00  0.00     0.127 S 
ATOM     80  O   UNL A   1      42.933  22.398  24.958  1.00  0.00    -0.237 OA
ATOM     81  O   UNL A   1      42.862  22.254  27.418  1.00  0.00    -0.237 OA
ATOM     82  O   UNL A   1      40.772  22.471  26.150  1.00  0.00    -0.744 OA
ENDBRANCH  76  79
ENDBRANCH  48  72
BRANCH  60  83
ATOM     83  C   UNL A   1      44.544  27.281  34.040  1.00  0.00     0.023 A 
ATOM     84  C   UNL A   1      45.786  27.943  34.084  1.00  0.00     0.012 A 
ATOM     85  C   UNL A   1      44.331  26.145  34.846  1.00  0.00     0.148 A 
ATOM     86  C   UNL A   1      46.803  27.479  34.917  1.00  0.00     0.002 A 
ATOM     87  C   UNL A   1      45.331  25.718  35.710  1.00  0.00     0.091 A 
ATOM     88  F   UNL A   1      43.142  25.528  34.777  1.00  0.00    -0.205 F 
ATOM     89  C   UNL A   1      46.570  26.379  35.741  1.00  0.00     0.022 A 
BRANCH  87  90
ATOM     90  S   UNL A   1      45.086  24.385  36.888  1.00  0.00     0.127 S 
ATOM     91  O   UNL A   1      44.003  24.914  37.715  1.00  0.00    -0.237 OA
ATOM     92  O   UNL A   1      44.702  23.272  36.018  1.00  0.00    -0.237 OA
ATOM     93  O   UNL A   1      46.359  24.210  37.573  1.00  0.00    -0.744 OA
ENDBRANCH  87  90
ENDBRANCH  60  83
ENDBRANCH  34  35
ENDBRANCH  26  29
ENDBRANCH  24  25
ENDBRANCH  23  24
ENDBRANCH   1  23
TORSDOF 17
ENDMDL
MODEL 3
REMARK VINA RESULT:     -11.7      1.958      3.850
REMARK SMILES C[C@H](NC(=O)NCCc1ccccc1F)C(=O)NCCCNC(=O)c1ccc(-c2c3nc(c(-c4cccc(S(=O)(=O)[O-])c4F)c4ccc([nH]4)c(-c4cccc(S(=O)(=O)[O-])c4F)c4nc(c(-c5cccc(S(=O)(=O)[O-])c5F)c5ccc2[nH]5)C=C4)C=C3)cc1
REMARK SMILES IDX 19 1 18 2 16 3 17 4 2 6 1 7 3 8 4 9 5 11 6 12 7 14 8 15 9 16
REMARK SMILES IDX 10 17 14 18 11 19 13 20 15 21 12 22 20 23 21 24 22 25 23 26
REMARK SMILES IDX 24 28 25 29 26 30 87 31 27 32 86 33 28 34 29 35 30 36 80 37
REMARK SMILES IDX 31 38 85 39 79 40 81 41 32 42 84 43 78 44 77 45 33 47 65 48
REMARK SMILES IDX 45 49 64 50 46 51 49 52 63 53 82 54 47 55 48 56 62 58 83 59
REMARK SMILES IDX 50 60 34 61 35 62 43 63 36 64 38 65 44 66 37 67 39 68 40 69
REMARK SMILES IDX 41 70 42 71 66 72 67 73 75 74 68 75 70 76 76 77 69 78 71 79
REMARK SMILES IDX 72 80 73 81 74 82 51 83 52 84 60 85 53 86 55 87 61 88 54 89
REMARK SMILES IDX 56 90 57 91 58 92 59 93
REMARK H PARENT 18 5 3 10 6 13 22 27 81 46 49 57
REMARK Flexibility Score: inf
ROOT
ATOM      1  C   UNL A   1      31.746  28.891  25.485  1.00  0.00     0.117 C 
ENDROOT
BRANCH   1   2
ATOM      2  N   UNL A   1      31.096  28.851  24.185  1.00  0.00    -0.354 N 
ATOM      3  C   UNL A   1      31.510  28.262  23.028  1.00  0.00     0.242 C 
ATOM      4  O   UNL A   1      30.705  28.169  22.099  1.00  0.00    -0.273 OA
ATOM      5  H   UNL A   1      30.231  29.318  24.132  1.00  0.00     0.163 HD
BRANCH   3   6
ATOM      6  C   UNL A   1      32.905  27.635  22.938  1.00  0.00     0.170 C 
ATOM      7  C   UNL A   1      33.930  28.733  22.639  1.00  0.00     0.041 C 
BRANCH   6   8
ATOM      8  N   UNL A   1      32.909  26.540  21.974  1.00  0.00    -0.327 N 
ATOM      9  C   UNL A   1      33.117  25.224  22.067  1.00  0.00     0.315 C 
ATOM     10  H   UNL A   1      32.717  26.835  21.055  1.00  0.00     0.166 HD
ATOM     11  O   UNL A   1      33.056  24.552  21.038  1.00  0.00    -0.249 OA
ATOM     12  N   UNL A   1      33.388  24.595  23.215  1.00  0.00    -0.338 N 
ATOM     13  H   UNL A   1      33.530  23.627  23.098  1.00  0.00     0.165 HD
BRANCH  12  14
ATOM     14  C   UNL A   1      33.519  25.023  24.595  1.00  0.00     0.122 C 
BRANCH  14  15
ATOM     15  C   UNL A   1      33.716  23.856  25.557  1.00  0.00     0.060 C 
BRANCH  15  16
ATOM     16  C   UNL A   1      35.055  23.210  25.354  1.00  0.00    -0.010 A 
ATOM     17  C   UNL A   1      36.235  23.863  25.720  1.00  0.00     0.007 A 
ATOM     18  C   UNL A   1      35.127  21.907  24.850  1.00  0.00     0.126 A 
ATOM     19  C   UNL A   1      37.460  23.209  25.591  1.00  0.00     0.000 A 
ATOM     20  C   UNL A   1      36.342  21.248  24.727  1.00  0.00     0.039 A 
ATOM     21  F   UNL A   1      34.002  21.263  24.504  1.00  0.00    -0.207 F 
ATOM     22  C   UNL A   1      37.514  21.902  25.101  1.00  0.00     0.003 A 
ENDBRANCH  15  16
ENDBRANCH  14  15
ENDBRANCH  12  14
ENDBRANCH   6   8
ENDBRANCH   3   6
ENDBRANCH   1   2
BRANCH   1  23
ATOM     23  C   UNL A   1      32.579  30.140  25.668  1.00  0.00     0.042 C 
BRANCH  23  24
ATOM     24  C   UNL A   1      32.609  30.630  27.105  1.00  0.00     0.118 C 
BRANCH  24  25
ATOM     25  N   UNL A   1      32.681  32.084  27.212  1.00  0.00    -0.352 N 
ATOM     26  C   UNL A   1      33.675  32.861  27.760  1.00  0.00     0.251 C 
ATOM     27  H   UNL A   1      31.913  32.576  26.841  1.00  0.00     0.163 HD
ATOM     28  O   UNL A   1      33.506  34.059  27.931  1.00  0.00    -0.269 OA
BRANCH  26  29
ATOM     29  C   UNL A   1      34.938  32.207  28.155  1.00  0.00     0.039 A 
ATOM     30  C   UNL A   1      36.119  32.948  28.165  1.00  0.00     0.014 A 
ATOM     31  C   UNL A   1      34.923  30.881  28.596  1.00  0.00     0.014 A 
ATOM     32  C   UNL A   1      37.274  32.376  28.695  1.00  0.00     0.010 A 
ATOM     33  C   UNL A   1      36.038  30.362  29.233  1.00  0.00     0.010 A 
ATOM     34  C   UNL A   1      37.231  31.096  29.274  1.00  0.00    -0.014 A 
BRANCH  34  35
ATOM     35  C   UNL A   1      38.422  30.502  29.928  1.00  0.00     0.031 A 
ATOM     36  C   UNL A   1      38.811  30.937  31.315  1.00  0.00     0.074 A 
ATOM     37  C   UNL A   1      39.197  29.637  29.242  1.00  0.00     0.049 A 
ATOM     38  N   UNL A   1      39.832  30.559  32.037  1.00  0.00    -0.248 NA
ATOM     39  C   UNL A   1      37.966  31.954  31.967  1.00  0.00     0.031 C 
ATOM     40  C   UNL A   1      38.977  29.223  27.855  1.00  0.00     0.029 A 
ATOM     41  N   UNL A   1      40.334  28.964  29.612  1.00  0.00    -0.354 N 
ATOM     42  C   UNL A   1      39.772  31.313  33.202  1.00  0.00     0.074 A 
ATOM     43  C   UNL A   1      38.648  32.209  33.074  1.00  0.00     0.031 C 
ATOM     44  C   UNL A   1      39.927  28.343  27.502  1.00  0.00     0.029 A 
ATOM     45  C   UNL A   1      40.842  28.154  28.622  1.00  0.00     0.049 A 
ATOM     46  H   UNL A   1      40.746  29.051  30.502  1.00  0.00     0.167 HD
ATOM     47  C   UNL A   1      40.558  31.235  34.299  1.00  0.00     0.034 A 
ATOM     48  C   UNL A   1      41.920  27.345  28.622  1.00  0.00     0.034 A 
ATOM     49  C   UNL A   1      41.630  30.293  34.445  1.00  0.00     0.049 A 
ATOM     50  C   UNL A   1      42.739  27.226  29.878  1.00  0.00     0.074 A 
ATOM     51  C   UNL A   1      42.421  30.060  35.555  1.00  0.00     0.029 A 
ATOM     52  N   UNL A   1      42.060  29.425  33.453  1.00  0.00    -0.354 N 
ATOM     53  N   UNL A   1      42.569  27.832  31.029  1.00  0.00    -0.248 NA
ATOM     54  C   UNL A   1      43.872  26.289  29.856  1.00  0.00     0.031 C 
ATOM     55  C   UNL A   1      43.344  29.065  35.227  1.00  0.00     0.029 A 
ATOM     56  C   UNL A   1      43.110  28.658  33.923  1.00  0.00     0.049 A 
ATOM     57  H   UNL A   1      41.675  29.363  32.548  1.00  0.00     0.167 HD
ATOM     58  C   UNL A   1      43.549  27.327  31.876  1.00  0.00     0.074 A 
ATOM     59  C   UNL A   1      44.302  26.355  31.111  1.00  0.00     0.031 C 
ATOM     60  C   UNL A   1      43.807  27.650  33.166  1.00  0.00     0.034 A 
BRANCH  47  61
ATOM     61  C   UNL A   1      40.242  32.134  35.465  1.00  0.00     0.023 A 
ATOM     62  C   UNL A   1      40.948  33.345  35.617  1.00  0.00     0.012 A 
ATOM     63  C   UNL A   1      39.188  31.832  36.348  1.00  0.00     0.148 A 
ATOM     64  C   UNL A   1      40.628  34.230  36.645  1.00  0.00     0.002 A 
ATOM     65  C   UNL A   1      38.842  32.741  37.340  1.00  0.00     0.091 A 
ATOM     66  F   UNL A   1      38.545  30.665  36.200  1.00  0.00    -0.205 F 
ATOM     67  C   UNL A   1      39.567  33.935  37.496  1.00  0.00     0.022 A 
BRANCH  65  68
ATOM     68  S   UNL A   1      37.436  32.499  38.431  1.00  0.00     0.127 S 
ATOM     69  O   UNL A   1      37.780  33.371  39.553  1.00  0.00    -0.237 OA
ATOM     70  O   UNL A   1      36.324  32.974  37.609  1.00  0.00    -0.237 OA
ATOM     71  O   UNL A   1      37.403  31.076  38.737  1.00  0.00    -0.744 OA
ENDBRANCH  65  68
ENDBRANCH  47  61
BRANCH  48  72
ATOM     72  C   UNL A   1      42.216  26.517  27.419  1.00  0.00     0.023 A 
ATOM     73  C   UNL A   1      42.876  27.105  26.323  1.00  0.00     0.012 A 
ATOM     74  C   UNL A   1      41.920  25.140  27.382  1.00  0.00     0.148 A 
ATOM     75  C   UNL A   1      43.222  26.343  25.205  1.00  0.00     0.002 A 
ATOM     76  C   UNL A   1      42.317  24.375  26.291  1.00  0.00     0.091 A 
ATOM     77  F   UNL A   1      41.284  24.601  28.431  1.00  0.00    -0.205 F 
ATOM     78  C   UNL A   1      42.955  24.977  25.196  1.00  0.00     0.022 A 
BRANCH  76  79
ATOM     79  S   UNL A   1      42.146  22.586  26.251  1.00  0.00     0.127 S 
ATOM     80  O   UNL A   1      42.755  22.256  24.966  1.00  0.00    -0.237 OA
ATOM     81  O   UNL A   1      42.922  22.185  27.424  1.00  0.00    -0.237 OA
ATOM     82  O   UNL A   1      40.716  22.327  26.359  1.00  0.00    -0.744 OA
ENDBRANCH  76  79
ENDBRANCH  48  72
BRANCH  60  83
ATOM     83  C   UNL A   1      44.927  26.937  33.872  1.00  0.00     0.023 A 
ATOM     84  C   UNL A   1      46.218  27.500  33.877  1.00  0.00     0.012 A 
ATOM     85  C   UNL A   1      44.659  25.802  34.665  1.00  0.00     0.148 A 
ATOM     86  C   UNL A   1      47.228  26.941  34.656  1.00  0.00     0.002 A 
ATOM     87  C   UNL A   1      45.657  25.280  35.477  1.00  0.00     0.091 A 
ATOM     88  F   UNL A   1      43.424  25.280  34.634  1.00  0.00    -0.205 F 
ATOM     89  C   UNL A   1      46.944  25.843  35.468  1.00  0.00     0.022 A 
BRANCH  87  90
ATOM     90  S   UNL A   1      45.358  23.944  36.638  1.00  0.00     0.127 S 
ATOM     91  O   UNL A   1      44.363  24.540  37.527  1.00  0.00    -0.237 OA
ATOM     92  O   UNL A   1      44.842  22.888  35.766  1.00  0.00    -0.237 OA
ATOM     93  O   UNL A   1      46.643  23.648  37.257  1.00  0.00    -0.744 OA
ENDBRANCH  87  90
ENDBRANCH  60  83
ENDBRANCH  34  35
ENDBRANCH  26  29
ENDBRANCH  24  25
ENDBRANCH  23  24
ENDBRANCH   1  23
TORSDOF 17
ENDMDL
