MODEL 1
REMARK VINA RESULT:     -13.3      0.000      0.000
REMARK SMILES O=C(NCCCNC(=O)c1ccc([C@H]2CCCN(C(=O)c3ccc4[nH]ccc4c3)C2)cc1)c1ccc(-c2c3nc(c(-c4cccc(S(=O)(=O)[O-])c4F)c4ccc([nH]4)c(-c4cccc(S(=O)(=O)[O-])c4F)c4nc(c(-c5cccc(S(=O)(=O)[O-])c5F)c5ccc2[nH]5)C=C4)C=C3)cc1
REMARK SMILES IDX 5 1 4 2 3 3 1 4 2 5 33 7 34 8 95 9 35 10 94 11 36 12 37 13
REMARK SMILES IDX 38 14 88 15 39 16 93 17 87 18 89 19 40 20 92 21 86 22 85 23
REMARK SMILES IDX 41 25 73 26 53 27 72 28 54 29 57 30 71 31 90 32 55 33 56 34
REMARK SMILES IDX 70 36 91 37 58 38 42 39 43 40 51 41 44 42 46 43 52 44 45 45
REMARK SMILES IDX 47 46 48 47 49 48 50 49 74 50 75 51 83 52 76 53 78 54 84 55
REMARK SMILES IDX 77 56 79 57 80 58 81 59 82 60 59 61 60 62 68 63 61 64 63 65
REMARK SMILES IDX 69 66 62 67 64 68 65 69 66 70 67 71 6 72 7 73 8 74 9 76
REMARK SMILES IDX 10 77 11 78 32 79 12 80 31 81 13 82 14 83 15 84 30 85 16 86
REMARK SMILES IDX 18 87 17 88 19 89 20 90 21 91 22 92 29 93 23 94 28 95 24 96
REMARK SMILES IDX 27 97 25 98 26 99
REMARK H PARENT 3 6 89 24 57 35 7 75 25 100
REMARK Flexibility Score: inf
ROOT
ATOM      1  C   UNL A   1      31.600  31.510  26.783  1.00  0.00     0.042 C 
ENDROOT
BRANCH   1   2
ATOM      2  C   UNL A   1      32.876  32.249  27.156  1.00  0.00     0.118 C 
BRANCH   2   3
ATOM      3  N   UNL A   1      32.629  33.613  27.596  1.00  0.00    -0.352 N 
ATOM      4  O   UNL A   1      32.725  35.415  28.931  1.00  0.00    -0.269 OA
ATOM      5  C   UNL A   1      33.222  34.344  28.596  1.00  0.00     0.251 C 
ATOM      6  H   UNL A   1      31.924  34.087  27.097  1.00  0.00     0.163 HD
BRANCH   5   7
ATOM      7  C   UNL A   1      34.429  33.832  29.281  1.00  0.00     0.039 A 
ATOM      8  C   UNL A   1      35.705  34.282  28.930  1.00  0.00     0.014 A 
ATOM      9  C   UNL A   1      34.276  32.901  30.311  1.00  0.00     0.014 A 
ATOM     10  C   UNL A   1      36.831  33.692  29.494  1.00  0.00     0.010 A 
ATOM     11  C   UNL A   1      35.406  32.377  30.942  1.00  0.00     0.010 A 
ATOM     12  C   UNL A   1      36.693  32.741  30.515  1.00  0.00    -0.014 A 
BRANCH  12  13
ATOM     13  C   UNL A   1      37.895  32.171  31.174  1.00  0.00     0.031 A 
ATOM     14  C   UNL A   1      38.645  31.029  30.550  1.00  0.00     0.074 A 
ATOM     15  C   UNL A   1      38.271  32.652  32.374  1.00  0.00     0.049 A 
ATOM     16  N   UNL A   1      39.650  30.343  31.029  1.00  0.00    -0.248 NA
ATOM     17  C   UNL A   1      38.202  30.593  29.216  1.00  0.00     0.031 C 
ATOM     18  C   UNL A   1      37.604  33.741  33.091  1.00  0.00     0.029 A 
ATOM     19  N   UNL A   1      39.282  32.268  33.219  1.00  0.00    -0.354 N 
ATOM     20  C   UNL A   1      39.927  29.362  30.085  1.00  0.00     0.074 A 
ATOM     21  C   UNL A   1      38.980  29.541  29.005  1.00  0.00     0.031 C 
ATOM     22  C   UNL A   1      38.212  33.929  34.271  1.00  0.00     0.029 A 
ATOM     23  C   UNL A   1      39.268  32.934  34.420  1.00  0.00     0.049 A 
ATOM     24  H   UNL A   1      39.950  31.582  32.986  1.00  0.00     0.167 HD
ATOM     25  C   UNL A   1      40.884  28.404  30.115  1.00  0.00     0.034 A 
ATOM     26  C   UNL A   1      39.991  32.741  35.540  1.00  0.00     0.034 A 
ATOM     27  C   UNL A   1      41.828  28.245  31.190  1.00  0.00     0.049 A 
ATOM     28  C   UNL A   1      41.040  31.669  35.556  1.00  0.00     0.074 A 
ATOM     29  C   UNL A   1      42.879  27.350  31.286  1.00  0.00     0.029 A 
ATOM     30  N   UNL A   1      41.821  28.981  32.366  1.00  0.00    -0.354 N 
ATOM     31  N   UNL A   1      41.365  30.822  34.609  1.00  0.00    -0.248 NA
ATOM     32  C   UNL A   1      41.844  31.541  36.779  1.00  0.00     0.031 C 
ATOM     33  C   UNL A   1      43.480  27.515  32.538  1.00  0.00     0.029 A 
ATOM     34  C   UNL A   1      42.838  28.549  33.202  1.00  0.00     0.049 A 
ATOM     35  H   UNL A   1      41.187  29.703  32.576  1.00  0.00     0.167 HD
ATOM     36  C   UNL A   1      42.437  30.090  35.103  1.00  0.00     0.074 A 
ATOM     37  C   UNL A   1      42.708  30.594  36.434  1.00  0.00     0.031 C 
ATOM     38  C   UNL A   1      43.130  29.092  34.505  1.00  0.00     0.034 A 
BRANCH  25  39
ATOM     39  C   UNL A   1      40.956  27.450  28.949  1.00  0.00     0.023 A 
ATOM     40  C   UNL A   1      40.097  26.333  28.896  1.00  0.00     0.012 A 
ATOM     41  C   UNL A   1      41.852  27.679  27.887  1.00  0.00     0.148 A 
ATOM     42  C   UNL A   1      40.167  25.432  27.834  1.00  0.00     0.002 A 
ATOM     43  C   UNL A   1      41.882  26.804  26.807  1.00  0.00     0.091 A 
ATOM     44  F   UNL A   1      42.675  28.736  27.958  1.00  0.00    -0.205 F 
ATOM     45  C   UNL A   1      41.052  25.671  26.786  1.00  0.00     0.022 A 
BRANCH  43  46
ATOM     46  S   UNL A   1      42.928  27.075  25.372  1.00  0.00     0.127 S 
ATOM     47  O   UNL A   1      44.229  27.304  25.996  1.00  0.00    -0.237 OA
ATOM     48  O   UNL A   1      42.812  25.802  24.659  1.00  0.00    -0.237 OA
ATOM     49  O   UNL A   1      42.356  28.216  24.671  1.00  0.00    -0.744 OA
ENDBRANCH  43  46
ENDBRANCH  25  39
BRANCH  26  50
ATOM     50  C   UNL A   1      39.742  33.610  36.723  1.00  0.00     0.023 A 
ATOM     51  C   UNL A   1      40.112  34.968  36.679  1.00  0.00     0.012 A 
ATOM     52  C   UNL A   1      39.064  33.114  37.855  1.00  0.00     0.148 A 
ATOM     53  C   UNL A   1      39.826  35.813  37.751  1.00  0.00     0.002 A 
ATOM     54  C   UNL A   1      38.733  33.974  38.892  1.00  0.00     0.091 A 
ATOM     55  F   UNL A   1      38.723  31.818  37.870  1.00  0.00    -0.205 F 
ATOM     56  C   UNL A   1      39.127  35.321  38.850  1.00  0.00     0.022 A 
BRANCH  54  57
ATOM     57  S   UNL A   1      37.715  33.466  40.282  1.00  0.00     0.127 S 
ATOM     58  O   UNL A   1      38.539  32.423  40.890  1.00  0.00    -0.237 OA
ATOM     59  O   UNL A   1      37.624  34.707  41.053  1.00  0.00    -0.237 OA
ATOM     60  O   UNL A   1      36.454  33.017  39.709  1.00  0.00    -0.744 OA
ENDBRANCH  54  57
ENDBRANCH  26  50
BRANCH  38  61
ATOM     61  C   UNL A   1      44.305  28.506  35.244  1.00  0.00     0.023 A 
ATOM     62  C   UNL A   1      45.598  29.032  35.056  1.00  0.00     0.012 A 
ATOM     63  C   UNL A   1      44.097  27.503  36.211  1.00  0.00     0.148 A 
ATOM     64  C   UNL A   1      46.670  28.555  35.810  1.00  0.00     0.002 A 
ATOM     65  C   UNL A   1      45.159  27.071  36.995  1.00  0.00     0.091 A 
ATOM     66  F   UNL A   1      42.862  27.003  36.356  1.00  0.00    -0.205 F 
ATOM     67  C   UNL A   1      46.448  27.588  36.789  1.00  0.00     0.022 A 
BRANCH  65  68
ATOM     68  S   UNL A   1      44.947  25.909  38.348  1.00  0.00     0.127 S 
ATOM     69  O   UNL A   1      46.317  25.778  38.845  1.00  0.00    -0.237 OA
ATOM     70  O   UNL A   1      44.043  26.636  39.239  1.00  0.00    -0.237 OA
ATOM     71  O   UNL A   1      44.382  24.701  37.762  1.00  0.00    -0.744 OA
ENDBRANCH  65  68
ENDBRANCH  38  61
ENDBRANCH  12  13
ENDBRANCH   5   7
ENDBRANCH   2   3
ENDBRANCH   1   2
BRANCH   1  72
ATOM     72  C   UNL A   1      31.783  30.455  25.703  1.00  0.00     0.118 C 
BRANCH  72  73
ATOM     73  N   UNL A   1      30.717  30.474  24.709  1.00  0.00    -0.352 N 
ATOM     74  C   UNL A   1      30.375  29.535  23.767  1.00  0.00     0.251 C 
ATOM     75  H   UNL A   1      30.157  31.284  24.713  1.00  0.00     0.163 HD
ATOM     76  O   UNL A   1      29.552  29.802  22.898  1.00  0.00    -0.269 OA
BRANCH  74  77
ATOM     77  C   UNL A   1      31.015  28.206  23.790  1.00  0.00     0.039 A 
ATOM     78  C   UNL A   1      32.076  27.948  22.924  1.00  0.00     0.014 A 
ATOM     79  C   UNL A   1      30.568  27.211  24.659  1.00  0.00     0.014 A 
ATOM     80  C   UNL A   1      32.760  26.733  23.013  1.00  0.00     0.005 A 
ATOM     81  C   UNL A   1      31.273  26.016  24.769  1.00  0.00     0.005 A 
ATOM     82  C   UNL A   1      32.410  25.773  23.981  1.00  0.00    -0.043 A 
BRANCH  82  83
ATOM     83  C   UNL A   1      33.264  24.517  24.147  1.00  0.00     0.039 C 
ATOM     84  C   UNL A   1      34.642  24.689  23.457  1.00  0.00     0.012 C 
ATOM     85  C   UNL A   1      33.488  24.095  25.617  1.00  0.00     0.128 C 
ATOM     86  C   UNL A   1      35.550  23.473  23.657  1.00  0.00     0.022 C 
ATOM     87  N   UNL A   1      34.365  22.938  25.720  1.00  0.00    -0.338 N 
ATOM     88  C   UNL A   1      35.691  23.117  25.132  1.00  0.00     0.120 C 
BRANCH  87  89
ATOM     89  C   UNL A   1      33.863  21.765  26.268  1.00  0.00     0.253 C 
ATOM     90  O   UNL A   1      33.617  21.605  27.460  1.00  0.00    -0.269 OA
BRANCH  89  91
ATOM     91  C   UNL A   1      33.563  20.645  25.365  1.00  0.00     0.040 A 
ATOM     92  C   UNL A   1      32.390  20.700  24.611  1.00  0.00     0.016 A 
ATOM     93  C   UNL A   1      34.429  19.544  25.314  1.00  0.00     0.024 A 
ATOM     94  C   UNL A   1      32.069  19.666  23.732  1.00  0.00     0.027 A 
ATOM     95  C   UNL A   1      34.096  18.477  24.459  1.00  0.00     0.000 A 
ATOM     96  C   UNL A   1      32.943  18.573  23.676  1.00  0.00     0.045 A 
ATOM     97  C   UNL A   1      34.682  17.210  24.189  1.00  0.00     0.028 A 
ATOM     98  N   UNL A   1      32.881  17.429  22.912  1.00  0.00    -0.361 N 
ATOM     99  C   UNL A   1      33.901  16.580  23.248  1.00  0.00     0.083 A 
ATOM    100  H   UNL A   1      32.200  17.246  22.224  1.00  0.00     0.166 HD
ENDBRANCH  89  91
ENDBRANCH  87  89
ENDBRANCH  82  83
ENDBRANCH  74  77
ENDBRANCH  72  73
ENDBRANCH   1  72
TORSDOF 16
ENDMDL
MODEL 2
REMARK VINA RESULT:     -13.2      1.553      2.444
REMARK SMILES O=C(NCCCNC(=O)c1ccc([C@H]2CCCN(C(=O)c3ccc4[nH]ccc4c3)C2)cc1)c1ccc(-c2c3nc(c(-c4cccc(S(=O)(=O)[O-])c4F)c4ccc([nH]4)c(-c4cccc(S(=O)(=O)[O-])c4F)c4nc(c(-c5cccc(S(=O)(=O)[O-])c5F)c5ccc2[nH]5)C=C4)C=C3)cc1
REMARK SMILES IDX 5 1 4 2 3 3 1 4 2 5 33 7 34 8 95 9 35 10 94 11 36 12 37 13
REMARK SMILES IDX 38 14 88 15 39 16 93 17 87 18 89 19 40 20 92 21 86 22 85 23
REMARK SMILES IDX 41 25 73 26 53 27 72 28 54 29 57 30 71 31 90 32 55 33 56 34
REMARK SMILES IDX 70 36 91 37 58 38 42 39 43 40 51 41 44 42 46 43 52 44 45 45
REMARK SMILES IDX 47 46 48 47 49 48 50 49 74 50 75 51 83 52 76 53 78 54 84 55
REMARK SMILES IDX 77 56 79 57 80 58 81 59 82 60 59 61 60 62 68 63 61 64 63 65
REMARK SMILES IDX 69 66 62 67 64 68 65 69 66 70 67 71 6 72 7 73 8 74 9 76
REMARK SMILES IDX 10 77 11 78 32 79 12 80 31 81 13 82 14 83 15 84 30 85 16 86
REMARK SMILES IDX 18 87 17 88 19 89 20 90 21 91 22 92 29 93 23 94 28 95 24 96
REMARK SMILES IDX 27 97 25 98 26 99
REMARK H PARENT 3 6 89 24 57 35 7 75 25 100
REMARK Flexibility Score: inf
ROOT
ATOM      1  C   UNL A   1      31.572  32.170  26.967  1.00  0.00     0.042 C 
ENDROOT
BRANCH   1   2
ATOM      2  C   UNL A   1      32.838  32.910  27.368  1.00  0.00     0.118 C 
BRANCH   2   3
ATOM      3  N   UNL A   1      32.571  34.244  27.883  1.00  0.00    -0.352 N 
ATOM      4  O   UNL A   1      32.636  35.968  29.320  1.00  0.00    -0.269 OA
ATOM      5  C   UNL A   1      33.148  34.924  28.928  1.00  0.00     0.251 C 
ATOM      6  H   UNL A   1      31.865  34.739  27.406  1.00  0.00     0.163 HD
BRANCH   5   7
ATOM      7  C   UNL A   1      34.355  34.386  29.593  1.00  0.00     0.039 A 
ATOM      8  C   UNL A   1      35.630  34.610  29.066  1.00  0.00     0.014 A 
ATOM      9  C   UNL A   1      34.207  33.665  30.781  1.00  0.00     0.014 A 
ATOM     10  C   UNL A   1      36.737  33.986  29.633  1.00  0.00     0.010 A 
ATOM     11  C   UNL A   1      35.332  33.117  31.401  1.00  0.00     0.010 A 
ATOM     12  C   UNL A   1      36.601  33.243  30.813  1.00  0.00    -0.014 A 
BRANCH  12  13
ATOM     13  C   UNL A   1      37.794  32.645  31.464  1.00  0.00     0.031 A 
ATOM     14  C   UNL A   1      38.534  31.510  30.816  1.00  0.00     0.074 A 
ATOM     15  C   UNL A   1      38.171  33.095  32.676  1.00  0.00     0.049 A 
ATOM     16  N   UNL A   1      39.531  30.803  31.283  1.00  0.00    -0.248 NA
ATOM     17  C   UNL A   1      38.092  31.109  29.472  1.00  0.00     0.031 C 
ATOM     18  C   UNL A   1      37.512  34.175  33.415  1.00  0.00     0.029 A 
ATOM     19  N   UNL A   1      39.174  32.681  33.515  1.00  0.00    -0.354 N 
ATOM     20  C   UNL A   1      39.800  29.841  30.319  1.00  0.00     0.074 A 
ATOM     21  C   UNL A   1      38.860  30.054  29.240  1.00  0.00     0.031 C 
ATOM     22  C   UNL A   1      38.117  34.329  34.601  1.00  0.00     0.029 A 
ATOM     23  C   UNL A   1      39.163  33.321  34.731  1.00  0.00     0.049 A 
ATOM     24  H   UNL A   1      39.836  31.994  33.270  1.00  0.00     0.167 HD
ATOM     25  C   UNL A   1      40.747  28.872  30.330  1.00  0.00     0.034 A 
ATOM     26  C   UNL A   1      39.879  33.094  35.849  1.00  0.00     0.034 A 
ATOM     27  C   UNL A   1      41.686  28.679  31.405  1.00  0.00     0.049 A 
ATOM     28  C   UNL A   1      40.918  32.011  35.845  1.00  0.00     0.074 A 
ATOM     29  C   UNL A   1      42.727  27.771  31.484  1.00  0.00     0.029 A 
ATOM     30  N   UNL A   1      41.682  29.388  32.597  1.00  0.00    -0.354 N 
ATOM     31  N   UNL A   1      41.237  31.183  34.880  1.00  0.00    -0.248 NA
ATOM     32  C   UNL A   1      41.715  31.848  37.067  1.00  0.00     0.031 C 
ATOM     33  C   UNL A   1      43.325  27.901  32.741  1.00  0.00     0.029 A 
ATOM     34  C   UNL A   1      42.691  28.926  33.426  1.00  0.00     0.049 A 
ATOM     35  H   UNL A   1      41.055  30.112  32.821  1.00  0.00     0.167 HD
ATOM     36  C   UNL A   1      42.299  30.428  35.361  1.00  0.00     0.074 A 
ATOM     37  C   UNL A   1      42.570  30.899  36.704  1.00  0.00     0.031 C 
ATOM     38  C   UNL A   1      42.984  29.437  34.743  1.00  0.00     0.034 A 
BRANCH  25  39
ATOM     39  C   UNL A   1      40.814  27.944  29.144  1.00  0.00     0.023 A 
ATOM     40  C   UNL A   1      39.974  26.813  29.083  1.00  0.00     0.012 A 
ATOM     41  C   UNL A   1      41.686  28.211  28.070  1.00  0.00     0.148 A 
ATOM     42  C   UNL A   1      40.039  25.936  28.000  1.00  0.00     0.002 A 
ATOM     43  C   UNL A   1      41.710  27.359  26.972  1.00  0.00     0.091 A 
ATOM     44  F   UNL A   1      42.491  29.281  28.148  1.00  0.00    -0.205 F 
ATOM     45  C   UNL A   1      40.900  26.213  26.942  1.00  0.00     0.022 A 
BRANCH  43  46
ATOM     46  S   UNL A   1      42.725  27.679  25.524  1.00  0.00     0.127 S 
ATOM     47  O   UNL A   1      42.127  28.909  25.012  1.00  0.00    -0.237 OA
ATOM     48  O   UNL A   1      44.056  27.846  26.109  1.00  0.00    -0.237 OA
ATOM     49  O   UNL A   1      42.583  26.506  24.670  1.00  0.00    -0.744 OA
ENDBRANCH  43  46
ENDBRANCH  25  39
BRANCH  26  50
ATOM     50  C   UNL A   1      39.635  33.939  37.050  1.00  0.00     0.023 A 
ATOM     51  C   UNL A   1      39.995  35.300  37.029  1.00  0.00     0.012 A 
ATOM     52  C   UNL A   1      38.971  33.417  38.178  1.00  0.00     0.148 A 
ATOM     53  C   UNL A   1      39.713  36.123  38.120  1.00  0.00     0.002 A 
ATOM     54  C   UNL A   1      38.643  34.255  39.235  1.00  0.00     0.091 A 
ATOM     55  F   UNL A   1      38.639  32.119  38.172  1.00  0.00    -0.205 F 
ATOM     56  C   UNL A   1      39.027  35.605  39.215  1.00  0.00     0.022 A 
BRANCH  54  57
ATOM     57  S   UNL A   1      37.641  33.713  40.624  1.00  0.00     0.127 S 
ATOM     58  O   UNL A   1      36.465  33.170  39.950  1.00  0.00    -0.237 OA
ATOM     59  O   UNL A   1      38.512  32.715  41.246  1.00  0.00    -0.237 OA
ATOM     60  O   UNL A   1      37.409  34.901  41.434  1.00  0.00    -0.744 OA
ENDBRANCH  54  57
ENDBRANCH  26  50
BRANCH  38  61
ATOM     61  C   UNL A   1      44.150  28.822  35.472  1.00  0.00     0.023 A 
ATOM     62  C   UNL A   1      45.436  29.387  35.363  1.00  0.00     0.012 A 
ATOM     63  C   UNL A   1      43.937  27.746  36.356  1.00  0.00     0.148 A 
ATOM     64  C   UNL A   1      46.496  28.877  36.112  1.00  0.00     0.002 A 
ATOM     65  C   UNL A   1      44.985  27.280  37.138  1.00  0.00     0.091 A 
ATOM     66  F   UNL A   1      42.710  27.212  36.427  1.00  0.00    -0.205 F 
ATOM     67  C   UNL A   1      46.268  27.836  37.011  1.00  0.00     0.022 A 
BRANCH  65  68
ATOM     68  S   UNL A   1      44.760  26.016  38.396  1.00  0.00     0.127 S 
ATOM     69  O   UNL A   1      46.119  25.873  38.919  1.00  0.00    -0.237 OA
ATOM     70  O   UNL A   1      43.819  26.659  39.312  1.00  0.00    -0.237 OA
ATOM     71  O   UNL A   1      44.235  24.846  37.706  1.00  0.00    -0.744 OA
ENDBRANCH  65  68
ENDBRANCH  38  61
ENDBRANCH  12  13
ENDBRANCH   5   7
ENDBRANCH   2   3
ENDBRANCH   1   2
BRANCH   1  72
ATOM     72  C   UNL A   1      31.813  30.934  26.114  1.00  0.00     0.118 C 
BRANCH  72  73
ATOM     73  N   UNL A   1      30.828  30.781  25.051  1.00  0.00    -0.352 N 
ATOM     74  C   UNL A   1      30.667  29.764  24.141  1.00  0.00     0.251 C 
ATOM     75  H   UNL A   1      30.180  31.518  24.973  1.00  0.00     0.163 HD
ATOM     76  O   UNL A   1      29.885  29.891  23.205  1.00  0.00    -0.269 OA
BRANCH  74  77
ATOM     77  C   UNL A   1      31.453  28.523  24.281  1.00  0.00     0.039 A 
ATOM     78  C   UNL A   1      32.835  28.571  24.105  1.00  0.00     0.014 A 
ATOM     79  C   UNL A   1      30.830  27.312  24.576  1.00  0.00     0.014 A 
ATOM     80  C   UNL A   1      33.601  27.428  24.342  1.00  0.00     0.005 A 
ATOM     81  C   UNL A   1      31.600  26.183  24.845  1.00  0.00     0.005 A 
ATOM     82  C   UNL A   1      33.001  26.231  24.779  1.00  0.00    -0.043 A 
BRANCH  82  83
ATOM     83  C   UNL A   1      33.878  25.040  25.164  1.00  0.00     0.039 C 
ATOM     84  C   UNL A   1      33.260  24.258  26.352  1.00  0.00     0.012 C 
ATOM     85  C   UNL A   1      34.150  24.057  24.003  1.00  0.00     0.128 C 
ATOM     86  C   UNL A   1      34.078  23.020  26.724  1.00  0.00     0.022 C 
ATOM     87  N   UNL A   1      34.928  22.906  24.442  1.00  0.00    -0.338 N 
ATOM     88  C   UNL A   1      34.318  22.125  25.515  1.00  0.00     0.120 C 
BRANCH  87  89
ATOM     89  C   UNL A   1      36.185  22.699  23.888  1.00  0.00     0.253 C 
ATOM     90  O   UNL A   1      36.436  22.771  22.689  1.00  0.00    -0.269 OA
BRANCH  89  91
ATOM     91  C   UNL A   1      37.307  22.413  24.794  1.00  0.00     0.040 A 
ATOM     92  C   UNL A   1      37.782  23.446  25.603  1.00  0.00     0.016 A 
ATOM     93  C   UNL A   1      37.892  21.140  24.792  1.00  0.00     0.024 A 
ATOM     94  C   UNL A   1      38.838  23.220  26.485  1.00  0.00     0.027 A 
ATOM     95  C   UNL A   1      38.983  20.911  25.651  1.00  0.00     0.000 A 
ATOM     96  C   UNL A   1      39.413  21.943  26.489  1.00  0.00     0.045 A 
ATOM     97  C   UNL A   1      39.841  19.801  25.881  1.00  0.00     0.028 A 
ATOM     98  N   UNL A   1      40.450  21.442  27.244  1.00  0.00    -0.361 N 
ATOM     99  C   UNL A   1      40.746  20.164  26.852  1.00  0.00     0.083 A 
ATOM    100  H   UNL A   1      40.914  21.932  27.961  1.00  0.00     0.166 HD
ENDBRANCH  89  91
ENDBRANCH  87  89
ENDBRANCH  82  83
ENDBRANCH  74  77
ENDBRANCH  72  73
ENDBRANCH   1  72
TORSDOF 16
ENDMDL
MODEL 3
REMARK VINA RESULT:     -13.0      6.458     11.438
REMARK SMILES O=C(NCCCNC(=O)c1ccc([C@H]2CCCN(C(=O)c3ccc4[nH]ccc4c3)C2)cc1)c1ccc(-c2c3nc(c(-c4cccc(S(=O)(=O)[O-])c4F)c4ccc([nH]4)c(-c4cccc(S(=O)(=O)[O-])c4F)c4nc(c(-c5cccc(S(=O)(=O)[O-])c5F)c5ccc2[nH]5)C=C4)C=C3)cc1
REMARK SMILES IDX 5 1 4 2 3 3 1 4 2 5 33 7 34 8 95 9 35 10 94 11 36 12 37 13
REMARK SMILES IDX 38 14 88 15 39 16 93 17 87 18 89 19 40 20 92 21 86 22 85 23
REMARK SMILES IDX 41 25 73 26 53 27 72 28 54 29 57 30 71 31 90 32 55 33 56 34
REMARK SMILES IDX 70 36 91 37 58 38 42 39 43 40 51 41 44 42 46 43 52 44 45 45
REMARK SMILES IDX 47 46 48 47 49 48 50 49 74 50 75 51 83 52 76 53 78 54 84 55
REMARK SMILES IDX 77 56 79 57 80 58 81 59 82 60 59 61 60 62 68 63 61 64 63 65
REMARK SMILES IDX 69 66 62 67 64 68 65 69 66 70 67 71 6 72 7 73 8 74 9 76
REMARK SMILES IDX 10 77 11 78 32 79 12 80 31 81 13 82 14 83 15 84 30 85 16 86
REMARK SMILES IDX 18 87 17 88 19 89 20 90 21 91 22 92 29 93 23 94 28 95 24 96
REMARK SMILES IDX 27 97 25 98 26 99
REMARK H PARENT 3 6 89 24 57 35 7 75 25 100
REMARK Flexibility Score: inf
ROOT
ATOM      1  C   UNL A   1      42.345  19.025  26.885  1.00  0.00     0.042 C 
ENDROOT
BRANCH   1   2
ATOM      2  C   UNL A   1      42.538  19.379  25.419  1.00  0.00     0.118 C 
BRANCH   2   3
ATOM      3  N   UNL A   1      43.792  18.877  24.879  1.00  0.00    -0.352 N 
ATOM      4  O   UNL A   1      45.806  18.951  23.888  1.00  0.00    -0.269 OA
ATOM      5  C   UNL A   1      44.931  19.548  24.507  1.00  0.00     0.251 C 
ATOM      6  H   UNL A   1      43.830  17.899  24.761  1.00  0.00     0.163 HD
BRANCH   5   7
ATOM      7  C   UNL A   1      45.087  20.986  24.824  1.00  0.00     0.039 A 
ATOM      8  C   UNL A   1      44.950  21.962  23.833  1.00  0.00     0.014 A 
ATOM      9  C   UNL A   1      45.350  21.362  26.143  1.00  0.00     0.014 A 
ATOM     10  C   UNL A   1      45.231  23.293  24.124  1.00  0.00     0.010 A 
ATOM     11  C   UNL A   1      45.539  22.710  26.453  1.00  0.00     0.010 A 
ATOM     12  C   UNL A   1      45.516  23.683  25.440  1.00  0.00    -0.014 A 
BRANCH  12  13
ATOM     13  C   UNL A   1      45.734  25.115  25.767  1.00  0.00     0.031 A 
ATOM     14  C   UNL A   1      47.121  25.691  25.804  1.00  0.00     0.074 A 
ATOM     15  C   UNL A   1      44.674  25.880  26.088  1.00  0.00     0.049 A 
ATOM     16  N   UNL A   1      47.506  26.888  26.166  1.00  0.00    -0.248 NA
ATOM     17  C   UNL A   1      48.220  24.805  25.393  1.00  0.00     0.031 C 
ATOM     18  C   UNL A   1      43.283  25.423  26.112  1.00  0.00     0.029 A 
ATOM     19  N   UNL A   1      44.601  27.189  26.490  1.00  0.00    -0.354 N 
ATOM     20  C   UNL A   1      48.892  26.885  26.078  1.00  0.00     0.074 A 
ATOM     21  C   UNL A   1      49.281  25.564  25.631  1.00  0.00     0.031 C 
ATOM     22  C   UNL A   1      42.496  26.428  26.521  1.00  0.00     0.029 A 
ATOM     23  C   UNL A   1      43.332  27.578  26.847  1.00  0.00     0.049 A 
ATOM     24  H   UNL A   1      45.381  27.791  26.520  1.00  0.00     0.167 HD
ATOM     25  C   UNL A   1      49.760  27.891  26.342  1.00  0.00     0.034 A 
ATOM     26  C   UNL A   1      42.889  28.715  27.418  1.00  0.00     0.034 A 
ATOM     27  C   UNL A   1      49.359  29.204  26.774  1.00  0.00     0.049 A 
ATOM     28  C   UNL A   1      43.867  29.814  27.711  1.00  0.00     0.074 A 
ATOM     29  C   UNL A   1      50.154  30.314  27.003  1.00  0.00     0.029 A 
ATOM     30  N   UNL A   1      48.056  29.579  27.067  1.00  0.00    -0.354 N 
ATOM     31  N   UNL A   1      45.164  29.835  27.515  1.00  0.00    -0.248 NA
ATOM     32  C   UNL A   1      43.323  31.057  28.274  1.00  0.00     0.031 C 
ATOM     33  C   UNL A   1      49.337  31.346  27.476  1.00  0.00     0.029 A 
ATOM     34  C   UNL A   1      48.025  30.897  27.491  1.00  0.00     0.049 A 
ATOM     35  H   UNL A   1      47.268  28.994  26.985  1.00  0.00     0.167 HD
ATOM     36  C   UNL A   1      45.586  31.104  27.889  1.00  0.00     0.074 A 
ATOM     37  C   UNL A   1      44.406  31.824  28.324  1.00  0.00     0.031 C 
ATOM     38  C   UNL A   1      46.838  31.620  27.873  1.00  0.00     0.034 A 
BRANCH  25  39
ATOM     39  C   UNL A   1      51.231  27.609  26.172  1.00  0.00     0.023 A 
ATOM     40  C   UNL A   1      52.036  27.350  27.301  1.00  0.00     0.012 A 
ATOM     41  C   UNL A   1      51.812  27.567  24.889  1.00  0.00     0.148 A 
ATOM     42  C   UNL A   1      53.402  27.107  27.160  1.00  0.00     0.002 A 
ATOM     43  C   UNL A   1      53.165  27.276  24.753  1.00  0.00     0.091 A 
ATOM     44  F   UNL A   1      51.039  27.831  23.826  1.00  0.00    -0.205 F 
ATOM     45  C   UNL A   1      53.965  27.062  25.887  1.00  0.00     0.022 A 
BRANCH  43  46
ATOM     46  S   UNL A   1      53.960  27.112  23.151  1.00  0.00     0.127 S 
ATOM     47  O   UNL A   1      53.798  28.456  22.603  1.00  0.00    -0.237 OA
ATOM     48  O   UNL A   1      55.334  26.768  23.521  1.00  0.00    -0.237 OA
ATOM     49  O   UNL A   1      53.239  26.055  22.453  1.00  0.00    -0.744 OA
ENDBRANCH  43  46
ENDBRANCH  25  39
BRANCH  26  50
ATOM     50  C   UNL A   1      41.439  28.855  27.723  1.00  0.00     0.023 A 
ATOM     51  C   UNL A   1      40.540  29.186  26.692  1.00  0.00     0.012 A 
ATOM     52  C   UNL A   1      40.942  28.579  29.013  1.00  0.00     0.148 A 
ATOM     53  C   UNL A   1      39.169  29.257  26.945  1.00  0.00     0.002 A 
ATOM     54  C   UNL A   1      39.573  28.595  29.243  1.00  0.00     0.091 A 
ATOM     55  F   UNL A   1      41.820  28.267  29.975  1.00  0.00    -0.205 F 
ATOM     56  C   UNL A   1      38.686  28.950  28.214  1.00  0.00     0.022 A 
BRANCH  54  57
ATOM     57  S   UNL A   1      38.848  28.081  30.803  1.00  0.00     0.127 S 
ATOM     58  O   UNL A   1      37.556  28.763  30.771  1.00  0.00    -0.237 OA
ATOM     59  O   UNL A   1      38.782  26.629  30.635  1.00  0.00    -0.237 OA
ATOM     60  O   UNL A   1      39.769  28.529  31.837  1.00  0.00    -0.744 OA
ENDBRANCH  54  57
ENDBRANCH  26  50
BRANCH  38  61
ATOM     61  C   UNL A   1      47.012  33.063  28.272  1.00  0.00     0.023 A 
ATOM     62  C   UNL A   1      47.202  33.409  29.624  1.00  0.00     0.012 A 
ATOM     63  C   UNL A   1      47.099  34.060  27.281  1.00  0.00     0.148 A 
ATOM     64  C   UNL A   1      47.460  34.732  29.983  1.00  0.00     0.002 A 
ATOM     65  C   UNL A   1      47.409  35.364  27.641  1.00  0.00     0.091 A 
ATOM     66  F   UNL A   1      46.894  33.709  26.003  1.00  0.00    -0.205 F 
ATOM     67  C   UNL A   1      47.579  35.706  28.993  1.00  0.00     0.022 A 
BRANCH  65  68
ATOM     68  S   UNL A   1      47.687  36.659  26.427  1.00  0.00     0.127 S 
ATOM     69  O   UNL A   1      46.334  36.885  25.918  1.00  0.00    -0.237 OA
ATOM     70  O   UNL A   1      48.217  37.745  27.251  1.00  0.00    -0.237 OA
ATOM     71  O   UNL A   1      48.630  36.113  25.460  1.00  0.00    -0.744 OA
ENDBRANCH  65  68
ENDBRANCH  38  61
ENDBRANCH  12  13
ENDBRANCH   5   7
ENDBRANCH   2   3
ENDBRANCH   1   2
BRANCH   1  72
ATOM     72  C   UNL A   1      41.303  19.870  27.600  1.00  0.00     0.118 C 
BRANCH  72  73
ATOM     73  N   UNL A   1      41.876  21.042  28.251  1.00  0.00    -0.352 N 
ATOM     74  C   UNL A   1      41.560  22.371  28.107  1.00  0.00     0.251 C 
ATOM     75  H   UNL A   1      42.599  20.852  28.891  1.00  0.00     0.163 HD
ATOM     76  O   UNL A   1      42.270  23.233  28.611  1.00  0.00    -0.269 OA
BRANCH  74  77
ATOM     77  C   UNL A   1      40.371  22.762  27.325  1.00  0.00     0.039 A 
ATOM     78  C   UNL A   1      39.782  21.829  26.473  1.00  0.00     0.014 A 
ATOM     79  C   UNL A   1      39.840  24.046  27.424  1.00  0.00     0.014 A 
ATOM     80  C   UNL A   1      38.595  22.151  25.811  1.00  0.00     0.005 A 
ATOM     81  C   UNL A   1      38.638  24.353  26.791  1.00  0.00     0.005 A 
ATOM     82  C   UNL A   1      37.969  23.396  26.010  1.00  0.00    -0.043 A 
BRANCH  82  83
ATOM     83  C   UNL A   1      36.601  23.666  25.385  1.00  0.00     0.039 C 
ATOM     84  C   UNL A   1      36.546  23.140  23.927  1.00  0.00     0.012 C 
ATOM     85  C   UNL A   1      35.416  23.071  26.179  1.00  0.00     0.128 C 
ATOM     86  C   UNL A   1      35.169  23.335  23.289  1.00  0.00     0.022 C 
ATOM     87  N   UNL A   1      34.147  23.294  25.502  1.00  0.00    -0.338 N 
ATOM     88  C   UNL A   1      34.063  22.741  24.152  1.00  0.00     0.120 C 
BRANCH  87  89
ATOM     89  C   UNL A   1      33.179  24.065  26.133  1.00  0.00     0.253 C 
ATOM     90  O   UNL A   1      32.530  23.703  27.109  1.00  0.00    -0.269 OA
BRANCH  89  91
ATOM     91  C   UNL A   1      32.936  25.426  25.632  1.00  0.00     0.040 A 
ATOM     92  C   UNL A   1      33.925  26.390  25.831  1.00  0.00     0.016 A 
ATOM     93  C   UNL A   1      31.715  25.729  25.014  1.00  0.00     0.024 A 
ATOM     94  C   UNL A   1      33.744  27.691  25.364  1.00  0.00     0.027 A 
ATOM     95  C   UNL A   1      31.506  27.049  24.573  1.00  0.00     0.000 A 
ATOM     96  C   UNL A   1      32.528  27.987  24.736  1.00  0.00     0.045 A 
ATOM     97  C   UNL A   1      30.409  27.725  23.970  1.00  0.00     0.028 A 
ATOM     98  N   UNL A   1      32.081  29.168  24.186  1.00  0.00    -0.361 N 
ATOM     99  C   UNL A   1      30.786  29.032  23.762  1.00  0.00     0.083 A 
ATOM    100  H   UNL A   1      32.615  29.992  24.109  1.00  0.00     0.166 HD
ENDBRANCH  89  91
ENDBRANCH  87  89
ENDBRANCH  82  83
ENDBRANCH  74  77
ENDBRANCH  72  73
ENDBRANCH   1  72
TORSDOF 16
ENDMDL
