MODEL 1
REMARK VINA RESULT:     -12.9      0.000      0.000
REMARK SMILES O=C(NCCCNC(=O)c1cc(S[C@H]2CCOC3(CCC3)C2)ccn1)c1ccc(-c2c3nc(c(-c4cccc(S(=O)(=O)[O-])c4F)c4ccc([nH]4)c(-c4cccc(S(=O)(=O)[O-])c4F)c4nc(c(-c5cccc(S(=O)(=O)[O-])c5F)c5ccc2[nH]5)C=C4)C=C3)cc1
REMARK SMILES IDX 4 1 3 2 1 3 2 4 26 6 27 7 88 8 28 9 87 10 29 11 30 12 31 13
REMARK SMILES IDX 81 14 32 15 86 16 80 17 82 18 33 19 85 20 79 21 78 22 34 24
REMARK SMILES IDX 66 25 46 26 65 27 47 28 50 29 64 30 83 31 48 32 49 33 63 35
REMARK SMILES IDX 84 36 51 37 35 38 36 39 44 40 37 41 39 42 45 43 38 44 40 45
REMARK SMILES IDX 41 46 42 47 43 48 67 49 68 50 76 51 69 52 71 53 77 54 70 55
REMARK SMILES IDX 72 56 73 57 74 58 75 59 52 60 53 61 61 62 54 63 56 64 62 65
REMARK SMILES IDX 55 66 57 67 58 68 59 69 60 70 5 71 6 72 7 73 8 74 9 76 10 77
REMARK SMILES IDX 11 78 25 79 12 80 24 81 23 82 13 83 14 84 15 85 22 86 16 87
REMARK SMILES IDX 18 88 17 89 19 90 21 91 20 92
REMARK H PARENT 3 5 82 23 50 34 7 75
REMARK Flexibility Score: inf
ROOT
ATOM      1  C   UNL A   1      37.233  22.068  24.761  1.00  0.00     0.118 C 
ENDROOT
BRANCH   1   2
ATOM      2  N   UNL A   1      38.106  21.010  25.254  1.00  0.00    -0.352 N 
ATOM      3  O   UNL A   1      39.921  20.042  26.154  1.00  0.00    -0.269 OA
ATOM      4  C   UNL A   1      39.260  21.067  26.002  1.00  0.00     0.251 C 
ATOM      5  H   UNL A   1      37.822  20.099  25.009  1.00  0.00     0.163 HD
BRANCH   4   6
ATOM      6  C   UNL A   1      39.731  22.348  26.578  1.00  0.00     0.039 A 
ATOM      7  C   UNL A   1      39.201  23.566  26.156  1.00  0.00     0.014 A 
ATOM      8  C   UNL A   1      40.718  22.335  27.568  1.00  0.00     0.014 A 
ATOM      9  C   UNL A   1      39.807  24.756  26.541  1.00  0.00     0.010 A 
ATOM     10  C   UNL A   1      41.242  23.540  28.050  1.00  0.00     0.010 A 
ATOM     11  C   UNL A   1      40.837  24.763  27.495  1.00  0.00    -0.014 A 
BRANCH  11  12
ATOM     12  C   UNL A   1      41.442  26.061  27.899  1.00  0.00     0.031 A 
ATOM     13  C   UNL A   1      42.831  26.449  27.463  1.00  0.00     0.074 A 
ATOM     14  C   UNL A   1      40.709  26.921  28.638  1.00  0.00     0.049 A 
ATOM     15  N   UNL A   1      43.471  27.575  27.664  1.00  0.00    -0.248 NA
ATOM     16  C   UNL A   1      43.613  25.449  26.718  1.00  0.00     0.031 C 
ATOM     17  C   UNL A   1      39.369  26.647  29.164  1.00  0.00     0.029 A 
ATOM     18  N   UNL A   1      40.972  28.199  29.057  1.00  0.00    -0.354 N 
ATOM     19  C   UNL A   1      44.740  27.400  27.122  1.00  0.00     0.074 A 
ATOM     20  C   UNL A   1      44.784  26.057  26.585  1.00  0.00     0.031 C 
ATOM     21  C   UNL A   1      38.907  27.739  29.787  1.00  0.00     0.029 A 
ATOM     22  C   UNL A   1      39.933  28.775  29.753  1.00  0.00     0.049 A 
ATOM     23  H   UNL A   1      41.822  28.663  28.878  1.00  0.00     0.167 HD
ATOM     24  C   UNL A   1      45.766  28.281  27.058  1.00  0.00     0.034 A 
ATOM     25  C   UNL A   1      39.813  29.999  30.300  1.00  0.00     0.034 A 
ATOM     26  C   UNL A   1      45.700  29.638  27.533  1.00  0.00     0.049 A 
ATOM     27  C   UNL A   1      40.944  30.976  30.156  1.00  0.00     0.074 A 
ATOM     28  C   UNL A   1      46.664  30.628  27.446  1.00  0.00     0.029 A 
ATOM     29  N   UNL A   1      44.611  30.197  28.182  1.00  0.00    -0.354 N 
ATOM     30  N   UNL A   1      42.082  30.831  29.522  1.00  0.00    -0.248 NA
ATOM     31  C   UNL A   1      40.763  32.296  30.776  1.00  0.00     0.031 C 
ATOM     32  C   UNL A   1      46.160  31.785  28.052  1.00  0.00     0.029 A 
ATOM     33  C   UNL A   1      44.878  31.518  28.504  1.00  0.00     0.049 A 
ATOM     34  H   UNL A   1      43.771  29.726  28.386  1.00  0.00     0.167 HD
ATOM     35  C   UNL A   1      42.740  32.049  29.640  1.00  0.00     0.074 A 
ATOM     36  C   UNL A   1      41.862  32.928  30.386  1.00  0.00     0.031 C 
ATOM     37  C   UNL A   1      43.970  32.400  29.191  1.00  0.00     0.034 A 
BRANCH  24  38
ATOM     38  C   UNL A   1      47.046  27.825  26.406  1.00  0.00     0.023 A 
ATOM     39  C   UNL A   1      48.042  27.201  27.186  1.00  0.00     0.012 A 
ATOM     40  C   UNL A   1      47.237  27.948  25.015  1.00  0.00     0.148 A 
ATOM     41  C   UNL A   1      49.216  26.733  26.598  1.00  0.00     0.002 A 
ATOM     42  C   UNL A   1      48.393  27.445  24.430  1.00  0.00     0.091 A 
ATOM     43  F   UNL A   1      46.291  28.565  24.291  1.00  0.00    -0.205 F 
ATOM     44  C   UNL A   1      49.388  26.845  25.220  1.00  0.00     0.022 A 
BRANCH  42  45
ATOM     45  S   UNL A   1      48.667  27.478  22.655  1.00  0.00     0.127 S 
ATOM     46  O   UNL A   1      49.974  28.126  22.569  1.00  0.00    -0.237 OA
ATOM     47  O   UNL A   1      48.670  26.054  22.312  1.00  0.00    -0.237 OA
ATOM     48  O   UNL A   1      47.552  28.230  22.096  1.00  0.00    -0.744 OA
ENDBRANCH  42  45
ENDBRANCH  24  38
BRANCH  25  49
ATOM     49  C   UNL A   1      38.539  30.387  30.969  1.00  0.00     0.023 A 
ATOM     50  C   UNL A   1      38.345  30.063  32.325  1.00  0.00     0.012 A 
ATOM     51  C   UNL A   1      37.545  31.116  30.289  1.00  0.00     0.148 A 
ATOM     52  C   UNL A   1      37.177  30.440  32.987  1.00  0.00     0.002 A 
ATOM     53  C   UNL A   1      36.411  31.541  30.968  1.00  0.00     0.091 A 
ATOM     54  F   UNL A   1      37.739  31.399  28.992  1.00  0.00    -0.205 F 
ATOM     55  C   UNL A   1      36.216  31.190  32.313  1.00  0.00     0.022 A 
BRANCH  53  56
ATOM     56  S   UNL A   1      35.200  32.632  30.213  1.00  0.00     0.127 S 
ATOM     57  O   UNL A   1      34.668  31.795  29.142  1.00  0.00    -0.237 OA
ATOM     58  O   UNL A   1      34.276  32.879  31.321  1.00  0.00    -0.237 OA
ATOM     59  O   UNL A   1      35.952  33.808  29.791  1.00  0.00    -0.744 OA
ENDBRANCH  53  56
ENDBRANCH  25  49
BRANCH  37  60
ATOM     60  C   UNL A   1      44.431  33.807  29.463  1.00  0.00     0.023 A 
ATOM     61  C   UNL A   1      45.046  34.115  30.692  1.00  0.00     0.012 A 
ATOM     62  C   UNL A   1      44.309  34.808  28.479  1.00  0.00     0.148 A 
ATOM     63  C   UNL A   1      45.504  35.406  30.951  1.00  0.00     0.002 A 
ATOM     64  C   UNL A   1      44.807  36.081  28.727  1.00  0.00     0.091 A 
ATOM     65  F   UNL A   1      43.697  34.502  27.325  1.00  0.00    -0.205 F 
ATOM     66  C   UNL A   1      45.396  36.385  29.965  1.00  0.00     0.022 A 
BRANCH  64  67
ATOM     67  S   UNL A   1      44.787  37.368  27.475  1.00  0.00     0.127 S 
ATOM     68  O   UNL A   1      45.290  38.519  28.220  1.00  0.00    -0.237 OA
ATOM     69  O   UNL A   1      45.708  36.844  26.466  1.00  0.00    -0.237 OA
ATOM     70  O   UNL A   1      43.402  37.458  27.028  1.00  0.00    -0.744 OA
ENDBRANCH  64  67
ENDBRANCH  37  60
ENDBRANCH  11  12
ENDBRANCH   4   6
ENDBRANCH   1   2
BRANCH   1  71
ATOM     71  C   UNL A   1      35.791  21.620  24.584  1.00  0.00     0.042 C 
BRANCH  71  72
ATOM     72  C   UNL A   1      35.103  21.234  25.883  1.00  0.00     0.118 C 
BRANCH  72  73
ATOM     73  N   UNL A   1      34.175  20.119  25.717  1.00  0.00    -0.351 N 
ATOM     74  C   UNL A   1      32.855  20.097  25.311  1.00  0.00     0.269 C 
ATOM     75  H   UNL A   1      34.554  19.236  25.928  1.00  0.00     0.163 HD
ATOM     76  O   UNL A   1      32.228  19.045  25.406  1.00  0.00    -0.268 OA
BRANCH  74  77
ATOM     77  C   UNL A   1      32.228  21.306  24.699  1.00  0.00     0.129 A 
ATOM     78  C   UNL A   1      31.673  22.262  25.535  1.00  0.00     0.049 A 
ATOM     79  N   UNL A   1      32.290  21.443  23.358  1.00  0.00    -0.251 NA
ATOM     80  C   UNL A   1      31.065  23.388  24.994  1.00  0.00     0.011 A 
ATOM     81  C   UNL A   1      31.734  22.560  22.844  1.00  0.00     0.113 A 
ATOM     82  C   UNL A   1      31.106  23.539  23.608  1.00  0.00     0.035 A 
BRANCH  80  83
ATOM     83  S   UNL A   1      30.228  24.636  25.982  1.00  0.00    -0.122 SA
BRANCH  83  84
ATOM     84  C   UNL A   1      31.056  26.202  25.475  1.00  0.00     0.057 C 
ATOM     85  C   UNL A   1      30.200  26.947  24.440  1.00  0.00     0.043 C 
ATOM     86  C   UNL A   1      31.318  27.140  26.661  1.00  0.00     0.050 C 
ATOM     87  C   UNL A   1      30.993  28.142  23.942  1.00  0.00     0.162 C 
ATOM     88  C   UNL A   1      32.043  28.393  26.142  1.00  0.00     0.069 C 
ATOM     89  O   UNL A   1      31.294  28.987  25.045  1.00  0.00    -0.375 OA
ATOM     90  C   UNL A   1      32.418  29.429  27.245  1.00  0.00     0.035 C 
ATOM     91  C   UNL A   1      33.582  28.241  25.910  1.00  0.00     0.035 C 
ATOM     92  C   UNL A   1      33.739  29.661  26.483  1.00  0.00     0.006 C 
ENDBRANCH  83  84
ENDBRANCH  80  83
ENDBRANCH  74  77
ENDBRANCH  72  73
ENDBRANCH  71  72
ENDBRANCH   1  71
TORSDOF 15
ENDMDL
MODEL 2
REMARK VINA RESULT:     -12.9      5.150     10.200
REMARK SMILES O=C(NCCCNC(=O)c1cc(S[C@H]2CCOC3(CCC3)C2)ccn1)c1ccc(-c2c3nc(c(-c4cccc(S(=O)(=O)[O-])c4F)c4ccc([nH]4)c(-c4cccc(S(=O)(=O)[O-])c4F)c4nc(c(-c5cccc(S(=O)(=O)[O-])c5F)c5ccc2[nH]5)C=C4)C=C3)cc1
REMARK SMILES IDX 4 1 3 2 1 3 2 4 26 6 27 7 88 8 28 9 87 10 29 11 30 12 31 13
REMARK SMILES IDX 81 14 32 15 86 16 80 17 82 18 33 19 85 20 79 21 78 22 34 24
REMARK SMILES IDX 66 25 46 26 65 27 47 28 50 29 64 30 83 31 48 32 49 33 63 35
REMARK SMILES IDX 84 36 51 37 35 38 36 39 44 40 37 41 39 42 45 43 38 44 40 45
REMARK SMILES IDX 41 46 42 47 43 48 67 49 68 50 76 51 69 52 71 53 77 54 70 55
REMARK SMILES IDX 72 56 73 57 74 58 75 59 52 60 53 61 61 62 54 63 56 64 62 65
REMARK SMILES IDX 55 66 57 67 58 68 59 69 60 70 5 71 6 72 7 73 8 74 9 76 10 77
REMARK SMILES IDX 11 78 25 79 12 80 24 81 23 82 13 83 14 84 15 85 22 86 16 87
REMARK SMILES IDX 18 88 17 89 19 90 21 91 20 92
REMARK H PARENT 3 5 82 23 50 34 7 75
REMARK Flexibility Score: inf
ROOT
ATOM      1  C   UNL A   1      32.949  29.164  25.340  1.00  0.00     0.118 C 
ENDROOT
BRANCH   1   2
ATOM      2  N   UNL A   1      32.513  30.423  25.932  1.00  0.00    -0.352 N 
ATOM      3  O   UNL A   1      32.425  32.136  27.381  1.00  0.00    -0.269 OA
ATOM      4  C   UNL A   1      33.069  31.192  26.930  1.00  0.00     0.251 C 
ATOM      5  H   UNL A   1      31.679  30.785  25.554  1.00  0.00     0.163 HD
BRANCH   4   6
ATOM      6  C   UNL A   1      34.402  30.865  27.488  1.00  0.00     0.039 A 
ATOM      7  C   UNL A   1      34.756  29.551  27.789  1.00  0.00     0.014 A 
ATOM      8  C   UNL A   1      35.324  31.893  27.711  1.00  0.00     0.014 A 
ATOM      9  C   UNL A   1      35.913  29.294  28.515  1.00  0.00     0.010 A 
ATOM     10  C   UNL A   1      36.549  31.612  28.331  1.00  0.00     0.010 A 
ATOM     11  C   UNL A   1      36.829  30.320  28.797  1.00  0.00    -0.014 A 
BRANCH  11  12
ATOM     12  C   UNL A   1      38.068  29.996  29.554  1.00  0.00     0.031 A 
ATOM     13  C   UNL A   1      38.271  30.476  30.968  1.00  0.00     0.074 A 
ATOM     14  C   UNL A   1      39.007  29.224  28.970  1.00  0.00     0.049 A 
ATOM     15  N   UNL A   1      39.257  30.216  31.790  1.00  0.00    -0.248 NA
ATOM     16  C   UNL A   1      37.249  31.372  31.534  1.00  0.00     0.031 C 
ATOM     17  C   UNL A   1      38.953  28.734  27.589  1.00  0.00     0.029 A 
ATOM     18  N   UNL A   1      40.175  28.698  29.460  1.00  0.00    -0.354 N 
ATOM     19  C   UNL A   1      39.005  30.952  32.943  1.00  0.00     0.074 A 
ATOM     20  C   UNL A   1      37.773  31.676  32.715  1.00  0.00     0.031 C 
ATOM     21  C   UNL A   1      40.007  27.938  27.361  1.00  0.00     0.029 A 
ATOM     22  C   UNL A   1      40.841  27.900  28.557  1.00  0.00     0.049 A 
ATOM     23  H   UNL A   1      40.506  28.873  30.370  1.00  0.00     0.167 HD
ATOM     24  C   UNL A   1      39.719  31.006  34.092  1.00  0.00     0.034 A 
ATOM     25  C   UNL A   1      41.991  27.210  28.675  1.00  0.00     0.034 A 
ATOM     26  C   UNL A   1      40.909  30.236  34.342  1.00  0.00     0.049 A 
ATOM     27  C   UNL A   1      42.727  27.238  29.984  1.00  0.00     0.074 A 
ATOM     28  C   UNL A   1      41.661  30.168  35.503  1.00  0.00     0.029 A 
ATOM     29  N   UNL A   1      41.519  29.399  33.422  1.00  0.00    -0.354 N 
ATOM     30  N   UNL A   1      42.396  27.836  31.102  1.00  0.00    -0.248 NA
ATOM     31  C   UNL A   1      43.979  26.472  30.057  1.00  0.00     0.031 C 
ATOM     32  C   UNL A   1      42.734  29.296  35.280  1.00  0.00     0.029 A 
ATOM     33  C   UNL A   1      42.640  28.811  33.986  1.00  0.00     0.049 A 
ATOM     34  H   UNL A   1      41.204  29.245  32.502  1.00  0.00     0.167 HD
ATOM     35  C   UNL A   1      43.381  27.496  32.020  1.00  0.00     0.074 A 
ATOM     36  C   UNL A   1      44.307  26.618  31.333  1.00  0.00     0.031 C 
ATOM     37  C   UNL A   1      43.518  27.892  33.309  1.00  0.00     0.034 A 
BRANCH  24  38
ATOM     38  C   UNL A   1      39.211  31.897  35.196  1.00  0.00     0.023 A 
ATOM     39  C   UNL A   1      38.260  31.402  36.111  1.00  0.00     0.012 A 
ATOM     40  C   UNL A   1      39.724  33.198  35.371  1.00  0.00     0.148 A 
ATOM     41  C   UNL A   1      37.807  32.194  37.164  1.00  0.00     0.002 A 
ATOM     42  C   UNL A   1      39.295  33.969  36.446  1.00  0.00     0.091 A 
ATOM     43  F   UNL A   1      40.610  33.664  34.479  1.00  0.00    -0.205 F 
ATOM     44  C   UNL A   1      38.332  33.473  37.338  1.00  0.00     0.022 A 
BRANCH  42  45
ATOM     45  S   UNL A   1      39.971  35.598  36.793  1.00  0.00     0.127 S 
ATOM     46  O   UNL A   1      41.403  35.313  36.870  1.00  0.00    -0.237 OA
ATOM     47  O   UNL A   1      39.566  36.363  35.612  1.00  0.00    -0.237 OA
ATOM     48  O   UNL A   1      39.345  36.031  38.034  1.00  0.00    -0.744 OA
ENDBRANCH  42  45
ENDBRANCH  24  38
BRANCH  25  49
ATOM     49  C   UNL A   1      42.471  26.375  27.538  1.00  0.00     0.023 A 
ATOM     50  C   UNL A   1      43.379  26.925  26.613  1.00  0.00     0.012 A 
ATOM     51  C   UNL A   1      42.076  25.031  27.396  1.00  0.00     0.148 A 
ATOM     52  C   UNL A   1      43.870  26.158  25.557  1.00  0.00     0.002 A 
ATOM     53  C   UNL A   1      42.614  24.255  26.378  1.00  0.00     0.091 A 
ATOM     54  F   UNL A   1      41.196  24.531  28.276  1.00  0.00    -0.205 F 
ATOM     55  C   UNL A   1      43.498  24.820  25.447  1.00  0.00     0.022 A 
BRANCH  53  56
ATOM     56  S   UNL A   1      42.300  22.491  26.257  1.00  0.00     0.127 S 
ATOM     57  O   UNL A   1      42.847  22.002  27.519  1.00  0.00    -0.237 OA
ATOM     58  O   UNL A   1      40.840  22.445  26.158  1.00  0.00    -0.237 OA
ATOM     59  O   UNL A   1      42.992  22.058  25.050  1.00  0.00    -0.744 OA
ENDBRANCH  53  56
ENDBRANCH  25  49
BRANCH  37  60
ATOM     60  C   UNL A   1      44.695  27.354  34.078  1.00  0.00     0.023 A 
ATOM     61  C   UNL A   1      45.925  28.041  34.042  1.00  0.00     0.012 A 
ATOM     62  C   UNL A   1      44.567  26.204  34.881  1.00  0.00     0.148 A 
ATOM     63  C   UNL A   1      47.019  27.573  34.769  1.00  0.00     0.002 A 
ATOM     64  C   UNL A   1      45.649  25.769  35.637  1.00  0.00     0.091 A 
ATOM     65  F   UNL A   1      43.397  25.549  34.883  1.00  0.00    -0.205 F 
ATOM     66  C   UNL A   1      46.878  26.445  35.575  1.00  0.00     0.022 A 
BRANCH  64  67
ATOM     67  S   UNL A   1      45.518  24.380  36.769  1.00  0.00     0.127 S 
ATOM     68  O   UNL A   1      45.207  23.281  35.858  1.00  0.00    -0.237 OA
ATOM     69  O   UNL A   1      46.856  24.324  37.359  1.00  0.00    -0.237 OA
ATOM     70  O   UNL A   1      44.465  24.740  37.711  1.00  0.00    -0.744 OA
ENDBRANCH  64  67
ENDBRANCH  37  60
ENDBRANCH  11  12
ENDBRANCH   4   6
ENDBRANCH   1   2
BRANCH   1  71
ATOM     71  C   UNL A   1      33.788  29.352  24.085  1.00  0.00     0.042 C 
BRANCH  71  72
ATOM     72  C   UNL A   1      33.337  28.499  22.911  1.00  0.00     0.118 C 
BRANCH  72  73
ATOM     73  N   UNL A   1      31.980  28.816  22.476  1.00  0.00    -0.351 N 
ATOM     74  C   UNL A   1      30.811  28.086  22.567  1.00  0.00     0.269 C 
ATOM     75  H   UNL A   1      31.881  29.696  22.047  1.00  0.00     0.163 HD
ATOM     76  O   UNL A   1      29.813  28.497  21.978  1.00  0.00    -0.268 OA
BRANCH  74  77
ATOM     77  C   UNL A   1      30.740  26.867  23.426  1.00  0.00     0.129 A 
ATOM     78  C   UNL A   1      31.200  25.665  22.912  1.00  0.00     0.049 A 
ATOM     79  N   UNL A   1      30.291  27.006  24.691  1.00  0.00    -0.251 NA
ATOM     80  C   UNL A   1      31.130  24.509  23.680  1.00  0.00     0.011 A 
ATOM     81  C   UNL A   1      30.266  25.886  25.444  1.00  0.00     0.113 A 
ATOM     82  C   UNL A   1      30.655  24.631  24.985  1.00  0.00     0.035 A 
BRANCH  80  83
ATOM     83  S   UNL A   1      31.606  22.884  23.075  1.00  0.00    -0.122 SA
BRANCH  83  84
ATOM     84  C   UNL A   1      33.086  22.470  24.090  1.00  0.00     0.057 C 
ATOM     85  C   UNL A   1      33.188  20.951  24.289  1.00  0.00     0.043 C 
ATOM     86  C   UNL A   1      34.392  22.971  23.458  1.00  0.00     0.050 C 
ATOM     87  C   UNL A   1      34.326  20.676  25.256  1.00  0.00     0.162 C 
ATOM     88  C   UNL A   1      35.557  22.613  24.396  1.00  0.00     0.069 C 
ATOM     89  O   UNL A   1      35.532  21.192  24.707  1.00  0.00    -0.375 OA
ATOM     90  C   UNL A   1      36.956  23.099  23.907  1.00  0.00     0.035 C 
ATOM     91  C   UNL A   1      35.768  23.570  25.614  1.00  0.00     0.035 C 
ATOM     92  C   UNL A   1      37.283  23.425  25.379  1.00  0.00     0.006 C 
ENDBRANCH  83  84
ENDBRANCH  80  83
ENDBRANCH  74  77
ENDBRANCH  72  73
ENDBRANCH  71  72
ENDBRANCH   1  71
TORSDOF 15
ENDMDL
MODEL 3
REMARK VINA RESULT:     -12.9      5.198     10.508
REMARK SMILES O=C(NCCCNC(=O)c1cc(S[C@H]2CCOC3(CCC3)C2)ccn1)c1ccc(-c2c3nc(c(-c4cccc(S(=O)(=O)[O-])c4F)c4ccc([nH]4)c(-c4cccc(S(=O)(=O)[O-])c4F)c4nc(c(-c5cccc(S(=O)(=O)[O-])c5F)c5ccc2[nH]5)C=C4)C=C3)cc1
REMARK SMILES IDX 4 1 3 2 1 3 2 4 26 6 27 7 88 8 28 9 87 10 29 11 30 12 31 13
REMARK SMILES IDX 81 14 32 15 86 16 80 17 82 18 33 19 85 20 79 21 78 22 34 24
REMARK SMILES IDX 66 25 46 26 65 27 47 28 50 29 64 30 83 31 48 32 49 33 63 35
REMARK SMILES IDX 84 36 51 37 35 38 36 39 44 40 37 41 39 42 45 43 38 44 40 45
REMARK SMILES IDX 41 46 42 47 43 48 67 49 68 50 76 51 69 52 71 53 77 54 70 55
REMARK SMILES IDX 72 56 73 57 74 58 75 59 52 60 53 61 61 62 54 63 56 64 62 65
REMARK SMILES IDX 55 66 57 67 58 68 59 69 60 70 5 71 6 72 7 73 8 74 9 76 10 77
REMARK SMILES IDX 11 78 25 79 12 80 24 81 23 82 13 83 14 84 15 85 22 86 16 87
REMARK SMILES IDX 18 88 17 89 19 90 21 91 20 92
REMARK H PARENT 3 5 82 23 50 34 7 75
REMARK Flexibility Score: inf
ROOT
ATOM      1  C   UNL A   1      32.553  30.231  27.050  1.00  0.00     0.118 C 
ENDROOT
BRANCH   1   2
ATOM      2  N   UNL A   1      32.635  31.685  27.122  1.00  0.00    -0.352 N 
ATOM      3  O   UNL A   1      33.382  33.713  27.732  1.00  0.00    -0.269 OA
ATOM      4  C   UNL A   1      33.613  32.510  27.630  1.00  0.00     0.251 C 
ATOM      5  H   UNL A   1      31.859  32.157  26.742  1.00  0.00     0.163 HD
BRANCH   4   6
ATOM      6  C   UNL A   1      34.908  31.959  28.092  1.00  0.00     0.039 A 
ATOM      7  C   UNL A   1      35.041  30.612  28.425  1.00  0.00     0.014 A 
ATOM      8  C   UNL A   1      36.019  32.803  28.189  1.00  0.00     0.014 A 
ATOM      9  C   UNL A   1      36.192  30.167  29.064  1.00  0.00     0.010 A 
ATOM     10  C   UNL A   1      37.222  32.319  28.718  1.00  0.00     0.010 A 
ATOM     11  C   UNL A   1      37.302  31.012  29.221  1.00  0.00    -0.014 A 
BRANCH  11  12
ATOM     12  C   UNL A   1      38.524  30.488  29.888  1.00  0.00     0.031 A 
ATOM     13  C   UNL A   1      38.868  30.868  31.306  1.00  0.00     0.074 A 
ATOM     14  C   UNL A   1      39.314  29.624  29.218  1.00  0.00     0.049 A 
ATOM     15  N   UNL A   1      39.852  30.437  32.055  1.00  0.00    -0.248 NA
ATOM     16  C   UNL A   1      38.012  31.866  31.968  1.00  0.00     0.031 C 
ATOM     17  C   UNL A   1      39.118  29.213  27.825  1.00  0.00     0.029 A 
ATOM     18  N   UNL A   1      40.423  28.922  29.615  1.00  0.00    -0.354 N 
ATOM     19  C   UNL A   1      39.767  31.144  33.249  1.00  0.00     0.074 A 
ATOM     20  C   UNL A   1      38.636  32.039  33.125  1.00  0.00     0.031 C 
ATOM     21  C   UNL A   1      40.038  28.293  27.502  1.00  0.00     0.029 A 
ATOM     22  C   UNL A   1      40.922  28.086  28.642  1.00  0.00     0.049 A 
ATOM     23  H   UNL A   1      40.824  29.007  30.510  1.00  0.00     0.167 HD
ATOM     24  C   UNL A   1      40.544  31.046  34.354  1.00  0.00     0.034 A 
ATOM     25  C   UNL A   1      41.970  27.242  28.663  1.00  0.00     0.034 A 
ATOM     26  C   UNL A   1      41.627  30.111  34.501  1.00  0.00     0.049 A 
ATOM     27  C   UNL A   1      42.774  27.106  29.924  1.00  0.00     0.074 A 
ATOM     28  C   UNL A   1      42.425  29.886  35.611  1.00  0.00     0.029 A 
ATOM     29  N   UNL A   1      42.065  29.244  33.513  1.00  0.00    -0.354 N 
ATOM     30  N   UNL A   1      42.590  27.690  31.084  1.00  0.00    -0.248 NA
ATOM     31  C   UNL A   1      43.910  26.176  29.891  1.00  0.00     0.031 C 
ATOM     32  C   UNL A   1      43.353  28.889  35.288  1.00  0.00     0.029 A 
ATOM     33  C   UNL A   1      43.123  28.484  33.984  1.00  0.00     0.049 A 
ATOM     34  H   UNL A   1      41.682  29.178  32.609  1.00  0.00     0.167 HD
ATOM     35  C   UNL A   1      43.567  27.176  31.926  1.00  0.00     0.074 A 
ATOM     36  C   UNL A   1      44.324  26.214  31.150  1.00  0.00     0.031 C 
ATOM     37  C   UNL A   1      43.828  27.487  33.220  1.00  0.00     0.034 A 
BRANCH  24  38
ATOM     38  C   UNL A   1      40.224  31.944  35.522  1.00  0.00     0.023 A 
ATOM     39  C   UNL A   1      40.971  33.124  35.719  1.00  0.00     0.012 A 
ATOM     40  C   UNL A   1      39.144  31.661  36.381  1.00  0.00     0.148 A 
ATOM     41  C   UNL A   1      40.667  33.991  36.768  1.00  0.00     0.002 A 
ATOM     42  C   UNL A   1      38.823  32.549  37.402  1.00  0.00     0.091 A 
ATOM     43  F   UNL A   1      38.458  30.523  36.195  1.00  0.00    -0.205 F 
ATOM     44  C   UNL A   1      39.587  33.709  37.602  1.00  0.00     0.022 A 
BRANCH  42  45
ATOM     45  S   UNL A   1      37.404  32.307  38.477  1.00  0.00     0.127 S 
ATOM     46  O   UNL A   1      37.857  32.945  39.712  1.00  0.00    -0.237 OA
ATOM     47  O   UNL A   1      36.347  33.032  37.770  1.00  0.00    -0.237 OA
ATOM     48  O   UNL A   1      37.202  30.866  38.549  1.00  0.00    -0.744 OA
ENDBRANCH  42  45
ENDBRANCH  24  38
BRANCH  25  49
ATOM     49  C   UNL A   1      42.268  26.405  27.466  1.00  0.00     0.023 A 
ATOM     50  C   UNL A   1      42.983  26.966  26.392  1.00  0.00     0.012 A 
ATOM     51  C   UNL A   1      41.894  25.048  27.408  1.00  0.00     0.148 A 
ATOM     52  C   UNL A   1      43.304  26.199  25.272  1.00  0.00     0.002 A 
ATOM     53  C   UNL A   1      42.267  24.274  26.317  1.00  0.00     0.091 A 
ATOM     54  F   UNL A   1      41.196  24.536  28.432  1.00  0.00    -0.205 F 
ATOM     55  C   UNL A   1      42.958  24.850  25.240  1.00  0.00     0.022 A 
BRANCH  53  56
ATOM     56  S   UNL A   1      41.989  22.500  26.269  1.00  0.00     0.127 S 
ATOM     57  O   UNL A   1      40.531  22.426  26.227  1.00  0.00    -0.237 OA
ATOM     58  O   UNL A   1      42.661  22.118  25.026  1.00  0.00    -0.237 OA
ATOM     59  O   UNL A   1      42.621  21.977  27.473  1.00  0.00    -0.744 OA
ENDBRANCH  53  56
ENDBRANCH  25  49
BRANCH  37  60
ATOM     60  C   UNL A   1      44.959  26.758  33.893  1.00  0.00     0.023 A 
ATOM     61  C   UNL A   1      46.269  27.268  33.804  1.00  0.00     0.012 A 
ATOM     62  C   UNL A   1      44.717  25.604  34.663  1.00  0.00     0.148 A 
ATOM     63  C   UNL A   1      47.326  26.623  34.444  1.00  0.00     0.002 A 
ATOM     64  C   UNL A   1      45.768  24.991  35.334  1.00  0.00     0.091 A 
ATOM     65  F   UNL A   1      43.468  25.118  34.716  1.00  0.00    -0.205 F 
ATOM     66  C   UNL A   1      47.074  25.492  35.218  1.00  0.00     0.022 A 
BRANCH  64  67
ATOM     67  S   UNL A   1      45.507  23.586  36.423  1.00  0.00     0.127 S 
ATOM     68  O   UNL A   1      44.726  22.690  35.573  1.00  0.00    -0.237 OA
ATOM     69  O   UNL A   1      46.873  23.135  36.691  1.00  0.00    -0.237 OA
ATOM     70  O   UNL A   1      44.814  24.117  37.590  1.00  0.00    -0.744 OA
ENDBRANCH  64  67
ENDBRANCH  37  60
ENDBRANCH  11  12
ENDBRANCH   4   6
ENDBRANCH   1   2
BRANCH   1  71
ATOM     71  C   UNL A   1      32.553  29.701  25.625  1.00  0.00     0.042 C 
BRANCH  71  72
ATOM     72  C   UNL A   1      33.762  28.845  25.286  1.00  0.00     0.118 C 
BRANCH  72  73
ATOM     73  N   UNL A   1      34.074  28.854  23.860  1.00  0.00    -0.351 N 
ATOM     74  C   UNL A   1      33.632  28.041  22.835  1.00  0.00     0.269 C 
ATOM     75  H   UNL A   1      34.704  29.557  23.582  1.00  0.00     0.163 HD
ATOM     76  O   UNL A   1      34.166  28.140  21.733  1.00  0.00    -0.268 OA
BRANCH  74  77
ATOM     77  C   UNL A   1      32.478  27.116  23.042  1.00  0.00     0.129 A 
ATOM     78  C   UNL A   1      32.734  25.766  23.229  1.00  0.00     0.049 A 
ATOM     79  N   UNL A   1      31.240  27.649  23.105  1.00  0.00    -0.251 NA
ATOM     80  C   UNL A   1      31.679  24.878  23.405  1.00  0.00     0.011 A 
ATOM     81  C   UNL A   1      30.226  26.784  23.319  1.00  0.00     0.113 A 
ATOM     82  C   UNL A   1      30.392  25.410  23.458  1.00  0.00     0.035 A 
BRANCH  80  83
ATOM     83  S   UNL A   1      31.895  23.099  23.555  1.00  0.00    -0.122 SA
BRANCH  83  84
ATOM     84  C   UNL A   1      33.499  22.941  24.448  1.00  0.00     0.057 C 
ATOM     85  C   UNL A   1      33.308  23.233  25.943  1.00  0.00     0.043 C 
ATOM     86  C   UNL A   1      34.121  21.546  24.296  1.00  0.00     0.050 C 
ATOM     87  C   UNL A   1      34.676  23.243  26.601  1.00  0.00     0.162 C 
ATOM     88  C   UNL A   1      35.468  21.529  25.039  1.00  0.00     0.069 C 
ATOM     89  O   UNL A   1      35.288  21.974  26.413  1.00  0.00    -0.375 OA
ATOM     90  C   UNL A   1      36.246  20.182  24.939  1.00  0.00     0.035 C 
ATOM     91  C   UNL A   1      36.675  22.162  24.274  1.00  0.00     0.035 C 
ATOM     92  C   UNL A   1      37.540  21.015  24.829  1.00  0.00     0.006 C 
ENDBRANCH  83  84
ENDBRANCH  80  83
ENDBRANCH  74  77
ENDBRANCH  72  73
ENDBRANCH  71  72
ENDBRANCH   1  71
TORSDOF 15
ENDMDL
