MODEL 1
REMARK VINA RESULT:     -12.4      0.000      0.000
REMARK SMILES COc1ccc(-c2cnc(N)c(C(=O)NCCCNC(=O)c3ccc(-c4c5nc(c(-c6cccc(S(=O)(=O)[O-])c6F)c6ccc([nH]6)c(-c6cccc(S(=O)(=O)[O-])c6F)c6nc(c(-c7cccc(S(=O)(=O)[O-])c7F)c7ccc4[nH]7)C=C6)C=C5)cc3)c2)c(C)c1
REMARK SMILES IDX 17 1 16 2 15 3 13 4 14 5 12 7 7 8 8 9 85 10 9 11 10 12 6 13
REMARK SMILES IDX 3 14 4 15 88 16 5 17 86 18 87 19 2 20 1 21 11 22 18 25 19 26
REMARK SMILES IDX 20 27 21 29 22 30 23 31 84 32 24 33 83 34 25 35 26 36 27 37
REMARK SMILES IDX 77 38 28 39 82 40 76 41 78 42 29 43 81 44 75 45 74 46 30 48
REMARK SMILES IDX 62 49 42 50 61 51 43 52 46 53 60 54 79 55 44 56 45 57 59 59
REMARK SMILES IDX 80 60 47 61 31 62 32 63 40 64 33 65 35 66 41 67 34 68 36 69
REMARK SMILES IDX 37 70 38 71 39 72 63 73 64 74 72 75 65 76 67 77 73 78 66 79
REMARK SMILES IDX 68 80 69 81 70 82 71 83 48 84 49 85 57 86 50 87 52 88 58 89
REMARK SMILES IDX 51 90 53 91 54 92 55 93 56 94
REMARK H PARENT 15 6 11 23 11 24 19 28 78 47 46 58
REMARK Flexibility Score: inf
ROOT
ATOM      1  C   UNL A   1      33.082  30.059  25.886  1.00  0.00     0.042 C 
ENDROOT
BRANCH   1   2
ATOM      2  C   UNL A   1      31.651  29.719  25.559  1.00  0.00     0.118 C 
BRANCH   2   3
ATOM      3  N   UNL A   1      31.319  29.723  24.142  1.00  0.00    -0.352 N 
ATOM      4  C   UNL A   1      30.979  28.654  23.340  1.00  0.00     0.255 C 
ATOM      5  O   UNL A   1      30.660  28.842  22.168  1.00  0.00    -0.269 OA
ATOM      6  H   UNL A   1      31.339  30.602  23.700  1.00  0.00     0.163 HD
BRANCH   4   7
ATOM      7  C   UNL A   1      31.091  27.262  23.836  1.00  0.00     0.082 A 
ATOM      8  C   UNL A   1      32.559  25.466  24.524  1.00  0.00     0.001 A 
ATOM      9  C   UNL A   1      31.423  24.886  25.087  1.00  0.00     0.122 A 
ATOM     10  C   UNL A   1      32.382  26.718  23.938  1.00  0.00     0.028 A 
ATOM     11  N   UNL A   1      30.162  25.327  24.902  1.00  0.00    -0.238 NA
ATOM     12  C   UNL A   1      30.007  26.454  24.185  1.00  0.00     0.136 A 
BRANCH   8  13
ATOM     13  C   UNL A   1      33.783  24.665  24.377  1.00  0.00    -0.014 A 
ATOM     14  C   UNL A   1      36.194  23.187  24.433  1.00  0.00     0.119 A 
ATOM     15  C   UNL A   1      35.896  24.049  25.475  1.00  0.00     0.047 A 
ATOM     16  C   UNL A   1      35.315  23.085  23.350  1.00  0.00     0.050 A 
ATOM     17  C   UNL A   1      34.703  24.760  25.449  1.00  0.00     0.013 A 
ATOM     18  C   UNL A   1      34.102  23.810  23.306  1.00  0.00    -0.040 A 
ATOM     19  C   UNL A   1      33.212  23.591  22.112  1.00  0.00     0.045 C 
BRANCH  14  20
ATOM     20  O   UNL A   1      37.334  22.433  24.374  1.00  0.00    -0.497 OA
ATOM     21  C   UNL A   1      37.952  22.222  25.643  1.00  0.00     0.278 C 
ENDBRANCH  14  20
ENDBRANCH   8  13
BRANCH  12  22
ATOM     22  N   UNL A   1      28.690  26.733  23.881  1.00  0.00    -0.383 N 
ATOM     23  H   UNL A   1      28.465  27.180  23.032  1.00  0.00     0.158 HD
ATOM     24  H   UNL A   1      27.977  26.485  24.512  1.00  0.00     0.158 HD
ENDBRANCH  12  22
ENDBRANCH   4   7
ENDBRANCH   2   3
ENDBRANCH   1   2
BRANCH   1  25
ATOM     25  C   UNL A   1      33.316  30.374  27.346  1.00  0.00     0.118 C 
BRANCH  25  26
ATOM     26  N   UNL A   1      34.236  31.495  27.542  1.00  0.00    -0.352 N 
ATOM     27  C   UNL A   1      35.523  31.521  28.054  1.00  0.00     0.251 C 
ATOM     28  H   UNL A   1      33.884  32.373  27.265  1.00  0.00     0.163 HD
ATOM     29  O   UNL A   1      36.099  32.600  28.168  1.00  0.00    -0.269 OA
BRANCH  27  30
ATOM     30  C   UNL A   1      36.231  30.245  28.310  1.00  0.00     0.039 A 
ATOM     31  C   UNL A   1      36.513  29.922  29.642  1.00  0.00     0.014 A 
ATOM     32  C   UNL A   1      36.893  29.596  27.278  1.00  0.00     0.014 A 
ATOM     33  C   UNL A   1      37.680  29.227  29.937  1.00  0.00     0.010 A 
ATOM     34  C   UNL A   1      38.115  29.038  27.559  1.00  0.00     0.010 A 
ATOM     35  C   UNL A   1      38.540  28.937  28.887  1.00  0.00    -0.014 A 
BRANCH  35  36
ATOM     36  C   UNL A   1      39.931  28.556  29.028  1.00  0.00     0.031 A 
ATOM     37  C   UNL A   1      40.298  27.139  28.898  1.00  0.00     0.074 A 
ATOM     38  C   UNL A   1      40.848  29.546  28.935  1.00  0.00     0.049 A 
ATOM     39  N   UNL A   1      41.476  26.669  29.115  1.00  0.00    -0.248 NA
ATOM     40  C   UNL A   1      39.322  26.116  28.533  1.00  0.00     0.031 C 
ATOM     41  C   UNL A   1      42.242  29.431  28.531  1.00  0.00     0.029 A 
ATOM     42  N   UNL A   1      40.731  30.875  29.362  1.00  0.00    -0.354 N 
ATOM     43  C   UNL A   1      41.499  25.396  28.586  1.00  0.00     0.074 A 
ATOM     44  C   UNL A   1      40.114  25.049  28.401  1.00  0.00     0.031 C 
ATOM     45  C   UNL A   1      42.909  30.511  28.968  1.00  0.00     0.029 A 
ATOM     46  C   UNL A   1      42.002  31.229  29.849  1.00  0.00     0.049 A 
ATOM     47  H   UNL A   1      39.927  31.443  29.328  1.00  0.00     0.167 HD
ATOM     48  C   UNL A   1      42.700  24.877  28.205  1.00  0.00     0.034 A 
ATOM     49  C   UNL A   1      42.242  31.492  31.170  1.00  0.00     0.034 A 
ATOM     50  C   UNL A   1      43.801  25.710  28.726  1.00  0.00     0.049 A 
ATOM     51  C   UNL A   1      43.238  30.526  31.798  1.00  0.00     0.074 A 
ATOM     52  C   UNL A   1      44.655  26.633  28.146  1.00  0.00     0.029 A 
ATOM     53  N   UNL A   1      43.933  25.876  30.104  1.00  0.00    -0.354 N 
ATOM     54  N   UNL A   1      43.736  29.479  31.193  1.00  0.00    -0.248 NA
ATOM     55  C   UNL A   1      43.732  30.646  33.169  1.00  0.00     0.031 C 
ATOM     56  C   UNL A   1      45.181  27.455  29.188  1.00  0.00     0.029 A 
ATOM     57  C   UNL A   1      44.689  27.001  30.402  1.00  0.00     0.049 A 
ATOM     58  H   UNL A   1      43.541  25.275  30.778  1.00  0.00     0.167 HD
ATOM     59  C   UNL A   1      44.440  28.713  32.083  1.00  0.00     0.074 A 
ATOM     60  C   UNL A   1      44.494  29.542  33.277  1.00  0.00     0.031 C 
ATOM     61  C   UNL A   1      44.848  27.436  31.793  1.00  0.00     0.034 A 
BRANCH  48  62
ATOM     62  C   UNL A   1      42.909  23.770  27.170  1.00  0.00     0.023 A 
ATOM     63  C   UNL A   1      43.558  24.134  25.966  1.00  0.00     0.012 A 
ATOM     64  C   UNL A   1      42.436  22.432  27.221  1.00  0.00     0.148 A 
ATOM     65  C   UNL A   1      43.695  23.253  24.882  1.00  0.00     0.002 A 
ATOM     66  C   UNL A   1      42.602  21.541  26.154  1.00  0.00     0.091 A 
ATOM     67  F   UNL A   1      41.768  21.991  28.283  1.00  0.00    -0.205 F 
ATOM     68  C   UNL A   1      43.219  21.954  24.975  1.00  0.00     0.022 A 
BRANCH  66  69
ATOM     69  S   UNL A   1      42.017  19.831  26.211  1.00  0.00     0.127 S 
ATOM     70  O   UNL A   1      42.498  19.386  27.519  1.00  0.00    -0.237 OA
ATOM     71  O   UNL A   1      40.566  19.997  26.120  1.00  0.00    -0.237 OA
ATOM     72  O   UNL A   1      42.621  19.145  25.075  1.00  0.00    -0.744 OA
ENDBRANCH  66  69
ENDBRANCH  48  62
BRANCH  49  73
ATOM     73  C   UNL A   1      41.074  32.119  31.865  1.00  0.00     0.023 A 
ATOM     74  C   UNL A   1      40.626  33.359  31.349  1.00  0.00     0.012 A 
ATOM     75  C   UNL A   1      40.197  31.362  32.664  1.00  0.00     0.148 A 
ATOM     76  C   UNL A   1      39.294  33.751  31.481  1.00  0.00     0.002 A 
ATOM     77  C   UNL A   1      38.869  31.768  32.801  1.00  0.00     0.091 A 
ATOM     78  F   UNL A   1      40.645  30.222  33.206  1.00  0.00    -0.205 F 
ATOM     79  C   UNL A   1      38.405  32.934  32.168  1.00  0.00     0.022 A 
BRANCH  77  80
ATOM     80  S   UNL A   1      37.660  30.765  33.678  1.00  0.00     0.127 S 
ATOM     81  O   UNL A   1      36.417  31.163  33.025  1.00  0.00    -0.237 OA
ATOM     82  O   UNL A   1      38.101  29.403  33.380  1.00  0.00    -0.237 OA
ATOM     83  O   UNL A   1      37.805  31.145  35.076  1.00  0.00    -0.744 OA
ENDBRANCH  77  80
ENDBRANCH  49  73
BRANCH  61  84
ATOM     84  C   UNL A   1      45.402  26.459  32.816  1.00  0.00     0.023 A 
ATOM     85  C   UNL A   1      46.785  26.232  32.970  1.00  0.00     0.012 A 
ATOM     86  C   UNL A   1      44.550  25.841  33.768  1.00  0.00     0.148 A 
ATOM     87  C   UNL A   1      47.293  25.375  33.953  1.00  0.00     0.002 A 
ATOM     88  C   UNL A   1      45.070  25.088  34.818  1.00  0.00     0.091 A 
ATOM     89  F   UNL A   1      43.220  25.967  33.654  1.00  0.00    -0.205 F 
ATOM     90  C   UNL A   1      46.438  24.819  34.892  1.00  0.00     0.022 A 
BRANCH  88  91
ATOM     91  S   UNL A   1      44.029  24.582  36.196  1.00  0.00     0.127 S 
ATOM     92  O   UNL A   1      43.429  25.849  36.608  1.00  0.00    -0.237 OA
ATOM     93  O   UNL A   1      43.097  23.646  35.563  1.00  0.00    -0.237 OA
ATOM     94  O   UNL A   1      44.941  23.960  37.145  1.00  0.00    -0.744 OA
ENDBRANCH  88  91
ENDBRANCH  61  84
ENDBRANCH  35  36
ENDBRANCH  27  30
ENDBRANCH  25  26
ENDBRANCH   1  25
TORSDOF 16
ENDMDL
MODEL 2
REMARK VINA RESULT:     -11.9      3.984      9.274
REMARK SMILES COc1ccc(-c2cnc(N)c(C(=O)NCCCNC(=O)c3ccc(-c4c5nc(c(-c6cccc(S(=O)(=O)[O-])c6F)c6ccc([nH]6)c(-c6cccc(S(=O)(=O)[O-])c6F)c6nc(c(-c7cccc(S(=O)(=O)[O-])c7F)c7ccc4[nH]7)C=C6)C=C5)cc3)c2)c(C)c1
REMARK SMILES IDX 17 1 16 2 15 3 13 4 14 5 12 7 7 8 8 9 85 10 9 11 10 12 6 13
REMARK SMILES IDX 3 14 4 15 88 16 5 17 86 18 87 19 2 20 1 21 11 22 18 25 19 26
REMARK SMILES IDX 20 27 21 29 22 30 23 31 84 32 24 33 83 34 25 35 26 36 27 37
REMARK SMILES IDX 77 38 28 39 82 40 76 41 78 42 29 43 81 44 75 45 74 46 30 48
REMARK SMILES IDX 62 49 42 50 61 51 43 52 46 53 60 54 79 55 44 56 45 57 59 59
REMARK SMILES IDX 80 60 47 61 31 62 32 63 40 64 33 65 35 66 41 67 34 68 36 69
REMARK SMILES IDX 37 70 38 71 39 72 63 73 64 74 72 75 65 76 67 77 73 78 66 79
REMARK SMILES IDX 68 80 69 81 70 82 71 83 48 84 49 85 57 86 50 87 52 88 58 89
REMARK SMILES IDX 51 90 53 91 54 92 55 93 56 94
REMARK H PARENT 15 6 11 23 11 24 19 28 78 47 46 58
REMARK Flexibility Score: inf
ROOT
ATOM      1  C   UNL A   1      37.028  22.723  25.967  1.00  0.00     0.042 C 
ENDROOT
BRANCH   1   2
ATOM      2  C   UNL A   1      35.887  21.753  26.124  1.00  0.00     0.118 C 
BRANCH   2   3
ATOM      3  N   UNL A   1      34.982  22.031  27.229  1.00  0.00    -0.352 N 
ATOM      4  C   UNL A   1      33.619  22.234  27.189  1.00  0.00     0.255 C 
ATOM      5  O   UNL A   1      32.989  22.392  28.234  1.00  0.00    -0.269 OA
ATOM      6  H   UNL A   1      35.397  22.079  28.121  1.00  0.00     0.163 HD
BRANCH   4   7
ATOM      7  C   UNL A   1      32.905  22.369  25.898  1.00  0.00     0.082 A 
ATOM      8  C   UNL A   1      32.104  23.862  24.170  1.00  0.00     0.001 A 
ATOM      9  C   UNL A   1      31.962  22.718  23.386  1.00  0.00     0.122 A 
ATOM     10  C   UNL A   1      32.649  23.672  25.439  1.00  0.00     0.028 A 
ATOM     11  N   UNL A   1      32.087  21.454  23.839  1.00  0.00    -0.238 NA
ATOM     12  C   UNL A   1      32.453  21.298  25.124  1.00  0.00     0.136 A 
BRANCH   8  13
ATOM     13  C   UNL A   1      31.487  25.122  23.730  1.00  0.00    -0.014 A 
ATOM     14  C   UNL A   1      30.433  27.476  22.569  1.00  0.00     0.119 A 
ATOM     15  C   UNL A   1      31.415  26.764  21.901  1.00  0.00     0.047 A 
ATOM     16  C   UNL A   1      30.001  27.041  23.825  1.00  0.00     0.050 A 
ATOM     17  C   UNL A   1      31.918  25.601  22.469  1.00  0.00     0.013 A 
ATOM     18  C   UNL A   1      30.511  25.863  24.420  1.00  0.00    -0.040 A 
ATOM     19  C   UNL A   1      29.943  25.466  25.757  1.00  0.00     0.045 C 
BRANCH  14  20
ATOM     20  O   UNL A   1      29.866  28.624  22.086  1.00  0.00    -0.497 OA
ATOM     21  C   UNL A   1      28.735  29.067  22.834  1.00  0.00     0.278 C 
ENDBRANCH  14  20
ENDBRANCH   8  13
BRANCH  12  22
ATOM     22  N   UNL A   1      32.376  19.992  25.561  1.00  0.00    -0.383 N 
ATOM     23  H   UNL A   1      33.199  19.482  25.739  1.00  0.00     0.158 HD
ATOM     24  H   UNL A   1      31.496  19.571  25.697  1.00  0.00     0.158 HD
ENDBRANCH  12  22
ENDBRANCH   4   7
ENDBRANCH   2   3
ENDBRANCH   1   2
BRANCH   1  25
ATOM     25  C   UNL A   1      38.291  22.095  25.422  1.00  0.00     0.118 C 
BRANCH  25  26
ATOM     26  N   UNL A   1      39.295  21.855  26.460  1.00  0.00    -0.352 N 
ATOM     27  C   UNL A   1      40.065  22.747  27.188  1.00  0.00     0.251 C 
ATOM     28  H   UNL A   1      39.449  20.906  26.676  1.00  0.00     0.163 HD
ATOM     29  O   UNL A   1      40.888  22.312  27.989  1.00  0.00    -0.269 OA
BRANCH  27  30
ATOM     30  C   UNL A   1      39.778  24.198  27.100  1.00  0.00     0.039 A 
ATOM     31  C   UNL A   1      40.738  25.008  26.484  1.00  0.00     0.014 A 
ATOM     32  C   UNL A   1      38.795  24.765  27.899  1.00  0.00     0.014 A 
ATOM     33  C   UNL A   1      40.924  26.306  26.944  1.00  0.00     0.010 A 
ATOM     34  C   UNL A   1      39.060  25.988  28.461  1.00  0.00     0.010 A 
ATOM     35  C   UNL A   1      40.178  26.715  28.040  1.00  0.00    -0.014 A 
BRANCH  35  36
ATOM     36  C   UNL A   1      40.475  27.863  28.872  1.00  0.00     0.031 A 
ATOM     37  C   UNL A   1      39.657  29.076  28.731  1.00  0.00     0.074 A 
ATOM     38  C   UNL A   1      41.259  27.648  29.953  1.00  0.00     0.049 A 
ATOM     39  N   UNL A   1      39.895  30.189  29.330  1.00  0.00    -0.248 NA
ATOM     40  C   UNL A   1      38.491  29.126  27.853  1.00  0.00     0.031 C 
ATOM     41  C   UNL A   1      41.303  28.420  31.187  1.00  0.00     0.029 A 
ATOM     42  N   UNL A   1      42.325  26.748  30.082  1.00  0.00    -0.354 N 
ATOM     43  C   UNL A   1      38.758  30.958  29.207  1.00  0.00     0.074 A 
ATOM     44  C   UNL A   1      38.002  30.331  28.154  1.00  0.00     0.031 C 
ATOM     45  C   UNL A   1      42.464  28.170  31.812  1.00  0.00     0.029 A 
ATOM     46  C   UNL A   1      43.278  27.404  30.882  1.00  0.00     0.049 A 
ATOM     47  H   UNL A   1      42.392  25.845  29.695  1.00  0.00     0.167 HD
ATOM     48  C   UNL A   1      38.525  31.920  30.144  1.00  0.00     0.034 A 
ATOM     49  C   UNL A   1      44.499  27.797  30.406  1.00  0.00     0.034 A 
ATOM     50  C   UNL A   1      39.734  32.135  30.962  1.00  0.00     0.049 A 
ATOM     51  C   UNL A   1      44.703  29.305  30.465  1.00  0.00     0.074 A 
ATOM     52  C   UNL A   1      40.092  31.768  32.249  1.00  0.00     0.029 A 
ATOM     53  N   UNL A   1      40.909  32.556  30.339  1.00  0.00    -0.354 N 
ATOM     54  N   UNL A   1      43.783  30.163  30.819  1.00  0.00    -0.248 NA
ATOM     55  C   UNL A   1      45.954  29.971  30.103  1.00  0.00     0.031 C 
ATOM     56  C   UNL A   1      41.516  31.826  32.337  1.00  0.00     0.029 A 
ATOM     57  C   UNL A   1      42.018  32.278  31.126  1.00  0.00     0.049 A 
ATOM     58  H   UNL A   1      40.947  32.991  29.457  1.00  0.00     0.167 HD
ATOM     59  C   UNL A   1      44.213  31.440  30.580  1.00  0.00     0.074 A 
ATOM     60  C   UNL A   1      45.616  31.266  30.231  1.00  0.00     0.031 C 
ATOM     61  C   UNL A   1      43.368  32.520  30.609  1.00  0.00     0.034 A 
BRANCH  48  62
ATOM     62  C   UNL A   1      37.159  32.507  30.503  1.00  0.00     0.023 A 
ATOM     63  C   UNL A   1      36.696  32.290  31.823  1.00  0.00     0.012 A 
ATOM     64  C   UNL A   1      36.239  33.160  29.640  1.00  0.00     0.148 A 
ATOM     65  C   UNL A   1      35.409  32.656  32.246  1.00  0.00     0.002 A 
ATOM     66  C   UNL A   1      34.967  33.557  30.069  1.00  0.00     0.091 A 
ATOM     67  F   UNL A   1      36.545  33.374  28.364  1.00  0.00    -0.205 F 
ATOM     68  C   UNL A   1      34.544  33.293  31.370  1.00  0.00     0.022 A 
BRANCH  66  69
ATOM     69  S   UNL A   1      33.792  34.401  28.985  1.00  0.00     0.127 S 
ATOM     70  O   UNL A   1      34.607  35.481  28.430  1.00  0.00    -0.237 OA
ATOM     71  O   UNL A   1      33.442  33.350  28.030  1.00  0.00    -0.237 OA
ATOM     72  O   UNL A   1      32.689  34.844  29.830  1.00  0.00    -0.744 OA
ENDBRANCH  66  69
ENDBRANCH  48  62
BRANCH  49  73
ATOM     73  C   UNL A   1      45.042  26.881  29.355  1.00  0.00     0.023 A 
ATOM     74  C   UNL A   1      45.265  25.538  29.743  1.00  0.00     0.012 A 
ATOM     75  C   UNL A   1      44.922  27.177  27.984  1.00  0.00     0.148 A 
ATOM     76  C   UNL A   1      45.199  24.501  28.812  1.00  0.00     0.002 A 
ATOM     77  C   UNL A   1      44.870  26.135  27.058  1.00  0.00     0.091 A 
ATOM     78  F   UNL A   1      44.779  28.456  27.614  1.00  0.00    -0.205 F 
ATOM     79  C   UNL A   1      44.957  24.797  27.476  1.00  0.00     0.022 A 
BRANCH  77  80
ATOM     80  S   UNL A   1      44.563  26.439  25.311  1.00  0.00     0.127 S 
ATOM     81  O   UNL A   1      43.831  25.236  24.928  1.00  0.00    -0.237 OA
ATOM     82  O   UNL A   1      43.761  27.662  25.337  1.00  0.00    -0.237 OA
ATOM     83  O   UNL A   1      45.884  26.605  24.723  1.00  0.00    -0.744 OA
ENDBRANCH  77  80
ENDBRANCH  49  73
BRANCH  61  84
ATOM     84  C   UNL A   1      43.732  33.909  30.110  1.00  0.00     0.023 A 
ATOM     85  C   UNL A   1      43.964  34.988  30.985  1.00  0.00     0.012 A 
ATOM     86  C   UNL A   1      44.000  34.140  28.736  1.00  0.00     0.148 A 
ATOM     87  C   UNL A   1      44.356  36.250  30.524  1.00  0.00     0.002 A 
ATOM     88  C   UNL A   1      44.507  35.362  28.297  1.00  0.00     0.091 A 
ATOM     89  F   UNL A   1      43.750  33.178  27.836  1.00  0.00    -0.205 F 
ATOM     90  C   UNL A   1      44.649  36.432  29.181  1.00  0.00     0.022 A 
BRANCH  88  91
ATOM     91  S   UNL A   1      45.149  35.548  26.626  1.00  0.00     0.127 S 
ATOM     92  O   UNL A   1      46.144  34.481  26.559  1.00  0.00    -0.237 OA
ATOM     93  O   UNL A   1      43.959  35.322  25.801  1.00  0.00    -0.237 OA
ATOM     94  O   UNL A   1      45.657  36.911  26.571  1.00  0.00    -0.744 OA
ENDBRANCH  88  91
ENDBRANCH  61  84
ENDBRANCH  35  36
ENDBRANCH  27  30
ENDBRANCH  25  26
ENDBRANCH   1  25
TORSDOF 16
ENDMDL
MODEL 3
REMARK VINA RESULT:     -11.9      2.675      3.486
REMARK SMILES COc1ccc(-c2cnc(N)c(C(=O)NCCCNC(=O)c3ccc(-c4c5nc(c(-c6cccc(S(=O)(=O)[O-])c6F)c6ccc([nH]6)c(-c6cccc(S(=O)(=O)[O-])c6F)c6nc(c(-c7cccc(S(=O)(=O)[O-])c7F)c7ccc4[nH]7)C=C6)C=C5)cc3)c2)c(C)c1
REMARK SMILES IDX 17 1 16 2 15 3 13 4 14 5 12 7 7 8 8 9 85 10 9 11 10 12 6 13
REMARK SMILES IDX 3 14 4 15 88 16 5 17 86 18 87 19 2 20 1 21 11 22 18 25 19 26
REMARK SMILES IDX 20 27 21 29 22 30 23 31 84 32 24 33 83 34 25 35 26 36 27 37
REMARK SMILES IDX 77 38 28 39 82 40 76 41 78 42 29 43 81 44 75 45 74 46 30 48
REMARK SMILES IDX 62 49 42 50 61 51 43 52 46 53 60 54 79 55 44 56 45 57 59 59
REMARK SMILES IDX 80 60 47 61 31 62 32 63 40 64 33 65 35 66 41 67 34 68 36 69
REMARK SMILES IDX 37 70 38 71 39 72 63 73 64 74 72 75 65 76 67 77 73 78 66 79
REMARK SMILES IDX 68 80 69 81 70 82 71 83 48 84 49 85 57 86 50 87 52 88 58 89
REMARK SMILES IDX 51 90 53 91 54 92 55 93 56 94
REMARK H PARENT 15 6 11 23 11 24 19 28 78 47 46 58
REMARK Flexibility Score: inf
ROOT
ATOM      1  C   UNL A   1      34.880  29.402  27.139  1.00  0.00     0.042 C 
ENDROOT
BRANCH   1   2
ATOM      2  C   UNL A   1      33.517  29.658  26.549  1.00  0.00     0.118 C 
BRANCH   2   3
ATOM      3  N   UNL A   1      33.466  29.691  25.094  1.00  0.00    -0.352 N 
ATOM      4  C   UNL A   1      33.157  28.666  24.225  1.00  0.00     0.255 C 
ATOM      5  O   UNL A   1      33.094  28.882  23.017  1.00  0.00    -0.269 OA
ATOM      6  H   UNL A   1      33.678  30.557  24.678  1.00  0.00     0.163 HD
BRANCH   4   7
ATOM      7  C   UNL A   1      33.000  27.275  24.711  1.00  0.00     0.082 A 
ATOM      8  C   UNL A   1      34.091  25.197  25.302  1.00  0.00     0.001 A 
ATOM      9  C   UNL A   1      32.895  24.864  25.936  1.00  0.00     0.122 A 
ATOM     10  C   UNL A   1      34.149  26.467  24.730  1.00  0.00     0.028 A 
ATOM     11  N   UNL A   1      31.748  25.566  25.832  1.00  0.00    -0.238 NA
ATOM     12  C   UNL A   1      31.792  26.711  25.128  1.00  0.00     0.136 A 
BRANCH   8  13
ATOM     13  C   UNL A   1      35.104  24.156  25.076  1.00  0.00    -0.014 A 
ATOM     14  C   UNL A   1      37.164  22.222  24.965  1.00  0.00     0.119 A 
ATOM     15  C   UNL A   1      37.179  23.180  25.965  1.00  0.00     0.047 A 
ATOM     16  C   UNL A   1      36.150  22.245  24.003  1.00  0.00     0.050 A 
ATOM     17  C   UNL A   1      36.156  24.118  26.022  1.00  0.00     0.013 A 
ATOM     18  C   UNL A   1      35.108  23.199  24.044  1.00  0.00    -0.040 A 
ATOM     19  C   UNL A   1      34.045  23.105  22.982  1.00  0.00     0.045 C 
BRANCH  14  20
ATOM     20  O   UNL A   1      38.117  21.249  24.832  1.00  0.00    -0.497 OA
ATOM     21  C   UNL A   1      37.589  19.924  24.800  1.00  0.00     0.278 C 
ENDBRANCH  14  20
ENDBRANCH   8  13
BRANCH  12  22
ATOM     22  N   UNL A   1      30.550  27.269  24.908  1.00  0.00    -0.383 N 
ATOM     23  H   UNL A   1      30.243  27.442  23.989  1.00  0.00     0.158 HD
ATOM     24  H   UNL A   1      29.970  27.492  25.672  1.00  0.00     0.158 HD
ENDBRANCH  12  22
ENDBRANCH   4   7
ENDBRANCH   2   3
ENDBRANCH   1   2
BRANCH   1  25
ATOM     25  C   UNL A   1      35.214  30.297  28.310  1.00  0.00     0.118 C 
BRANCH  25  26
ATOM     26  N   UNL A   1      34.414  31.523  28.331  1.00  0.00    -0.352 N 
ATOM     27  C   UNL A   1      34.594  32.701  29.038  1.00  0.00     0.251 C 
ATOM     28  H   UNL A   1      33.620  31.509  27.748  1.00  0.00     0.163 HD
ATOM     29  O   UNL A   1      33.760  33.596  28.931  1.00  0.00    -0.269 OA
BRANCH  27  30
ATOM     30  C   UNL A   1      35.857  32.917  29.783  1.00  0.00     0.039 A 
ATOM     31  C   UNL A   1      36.962  33.373  29.057  1.00  0.00     0.014 A 
ATOM     32  C   UNL A   1      36.030  32.355  31.040  1.00  0.00     0.014 A 
ATOM     33  C   UNL A   1      38.235  32.951  29.425  1.00  0.00     0.010 A 
ATOM     34  C   UNL A   1      37.257  31.814  31.331  1.00  0.00     0.010 A 
ATOM     35  C   UNL A   1      38.335  32.045  30.471  1.00  0.00    -0.014 A 
BRANCH  35  36
ATOM     36  C   UNL A   1      39.498  31.230  30.761  1.00  0.00     0.031 A 
ATOM     37  C   UNL A   1      39.599  29.893  30.159  1.00  0.00     0.074 A 
ATOM     38  C   UNL A   1      40.571  31.862  31.289  1.00  0.00     0.049 A 
ATOM     39  N   UNL A   1      40.522  29.039  30.431  1.00  0.00    -0.248 NA
ATOM     40  C   UNL A   1      38.616  29.400  29.199  1.00  0.00     0.031 C 
ATOM     41  C   UNL A   1      41.968  31.462  31.204  1.00  0.00     0.029 A 
ATOM     42  N   UNL A   1      40.585  32.946  32.176  1.00  0.00    -0.354 N 
ATOM     43  C   UNL A   1      40.466  28.068  29.455  1.00  0.00     0.074 A 
ATOM     44  C   UNL A   1      39.179  28.246  28.833  1.00  0.00     0.031 C 
ATOM     45  C   UNL A   1      42.654  32.078  32.180  1.00  0.00     0.029 A 
ATOM     46  C   UNL A   1      41.669  32.711  33.042  1.00  0.00     0.049 A 
ATOM     47  H   UNL A   1      39.967  33.712  32.190  1.00  0.00     0.167 HD
ATOM     48  C   UNL A   1      41.597  27.358  29.184  1.00  0.00     0.034 A 
ATOM     49  C   UNL A   1      41.507  32.440  34.373  1.00  0.00     0.034 A 
ATOM     50  C   UNL A   1      42.607  27.593  30.234  1.00  0.00     0.049 A 
ATOM     51  C   UNL A   1      42.028  31.064  34.769  1.00  0.00     0.074 A 
ATOM     52  C   UNL A   1      43.770  28.344  30.289  1.00  0.00     0.029 A 
ATOM     53  N   UNL A   1      42.308  27.250  31.552  1.00  0.00    -0.354 N 
ATOM     54  N   UNL A   1      42.480  30.174  33.925  1.00  0.00    -0.248 NA
ATOM     55  C   UNL A   1      42.056  30.571  36.145  1.00  0.00     0.031 C 
ATOM     56  C   UNL A   1      44.074  28.576  31.664  1.00  0.00     0.029 A 
ATOM     57  C   UNL A   1      43.130  27.925  32.444  1.00  0.00     0.049 A 
ATOM     58  H   UNL A   1      41.604  26.614  31.816  1.00  0.00     0.167 HD
ATOM     59  C   UNL A   1      42.685  28.982  34.565  1.00  0.00     0.074 A 
ATOM     60  C   UNL A   1      42.505  29.315  35.971  1.00  0.00     0.031 C 
ATOM     61  C   UNL A   1      42.904  27.810  33.887  1.00  0.00     0.034 A 
BRANCH  48  62
ATOM     62  C   UNL A   1      41.913  26.644  27.869  1.00  0.00     0.023 A 
ATOM     63  C   UNL A   1      41.829  27.414  26.685  1.00  0.00     0.012 A 
ATOM     64  C   UNL A   1      42.180  25.262  27.673  1.00  0.00     0.148 A 
ATOM     65  C   UNL A   1      41.962  26.856  25.404  1.00  0.00     0.002 A 
ATOM     66  C   UNL A   1      42.347  24.708  26.398  1.00  0.00     0.091 A 
ATOM     67  F   UNL A   1      42.233  24.431  28.709  1.00  0.00    -0.205 F 
ATOM     68  C   UNL A   1      42.224  25.502  25.259  1.00  0.00     0.022 A 
BRANCH  66  69
ATOM     69  S   UNL A   1      42.701  22.955  26.135  1.00  0.00     0.127 S 
ATOM     70  O   UNL A   1      43.902  22.760  26.946  1.00  0.00    -0.237 OA
ATOM     71  O   UNL A   1      41.498  22.314  26.665  1.00  0.00    -0.237 OA
ATOM     72  O   UNL A   1      42.900  22.780  24.701  1.00  0.00    -0.744 OA
ENDBRANCH  66  69
ENDBRANCH  48  62
BRANCH  49  73
ATOM     73  C   UNL A   1      40.324  33.132  34.974  1.00  0.00     0.023 A 
ATOM     74  C   UNL A   1      39.091  32.437  34.915  1.00  0.00     0.012 A 
ATOM     75  C   UNL A   1      40.472  34.167  35.916  1.00  0.00     0.148 A 
ATOM     76  C   UNL A   1      38.102  32.648  35.877  1.00  0.00     0.002 A 
ATOM     77  C   UNL A   1      39.472  34.379  36.866  1.00  0.00     0.091 A 
ATOM     78  F   UNL A   1      41.613  34.868  35.925  1.00  0.00    -0.205 F 
ATOM     79  C   UNL A   1      38.312  33.588  36.879  1.00  0.00     0.022 A 
BRANCH  77  80
ATOM     80  S   UNL A   1      39.670  35.580  38.192  1.00  0.00     0.127 S 
ATOM     81  O   UNL A   1      40.974  35.209  38.733  1.00  0.00    -0.237 OA
ATOM     82  O   UNL A   1      39.645  36.854  37.474  1.00  0.00    -0.237 OA
ATOM     83  O   UNL A   1      38.524  35.364  39.064  1.00  0.00    -0.744 OA
ENDBRANCH  77  80
ENDBRANCH  49  73
BRANCH  61  84
ATOM     84  C   UNL A   1      42.885  26.431  34.527  1.00  0.00     0.023 A 
ATOM     85  C   UNL A   1      41.772  25.947  35.243  1.00  0.00     0.012 A 
ATOM     86  C   UNL A   1      43.941  25.510  34.302  1.00  0.00     0.148 A 
ATOM     87  C   UNL A   1      41.737  24.656  35.780  1.00  0.00     0.002 A 
ATOM     88  C   UNL A   1      43.848  24.189  34.734  1.00  0.00     0.091 A 
ATOM     89  F   UNL A   1      45.057  25.914  33.676  1.00  0.00    -0.205 F 
ATOM     90  C   UNL A   1      42.766  23.768  35.508  1.00  0.00     0.022 A 
BRANCH  88  91
ATOM     91  S   UNL A   1      45.025  22.949  34.171  1.00  0.00     0.127 S 
ATOM     92  O   UNL A   1      44.894  23.039  32.719  1.00  0.00    -0.237 OA
ATOM     93  O   UNL A   1      46.295  23.454  34.698  1.00  0.00    -0.237 OA
ATOM     94  O   UNL A   1      44.580  21.706  34.786  1.00  0.00    -0.744 OA
ENDBRANCH  88  91
ENDBRANCH  61  84
ENDBRANCH  35  36
ENDBRANCH  27  30
ENDBRANCH  25  26
ENDBRANCH   1  25
TORSDOF 16
ENDMDL
