MODEL 1
REMARK VINA RESULT:     -14.0      0.000      0.000
REMARK SMILES Cc1ccccc1/[NH+]=C1\S[C@@H](CC(=O)Nc2ccc(C(=O)NCCCNC(=O)c3ccc(-c4c5nc(c(-c6cccc(S(=O)(=O)[O-])c6F)c6ccc([nH]6)c(-c6cccc(S(=O)(=O)[O-])c6F)c6nc(c(-c7cccc(S(=O)(=O)[O-])c7F)c7ccc4[nH]7)C=C6)C=C5)cc3)cc2)C(=O)N1C
REMARK SMILES IDX 23 1 22 2 20 3 21 4 19 6 16 7 17 8 93 9 18 10 92 11 15 12
REMARK SMILES IDX 13 13 14 14 12 16 11 17 8 18 9 19 10 21 96 22 94 23 97 24
REMARK SMILES IDX 95 25 7 26 1 27 2 28 3 29 4 30 6 31 5 32 24 33 25 34 26 35
REMARK SMILES IDX 27 36 28 38 29 39 30 40 91 41 31 42 90 43 32 44 33 45 34 46
REMARK SMILES IDX 84 47 35 48 89 49 83 50 85 51 36 52 88 53 82 54 81 55 37 57
REMARK SMILES IDX 69 58 49 59 68 60 50 61 53 62 67 63 86 64 51 65 52 66 66 68
REMARK SMILES IDX 87 69 54 70 38 71 39 72 47 73 40 74 42 75 48 76 41 77 43 78
REMARK SMILES IDX 44 79 45 80 46 81 70 82 71 83 79 84 72 85 74 86 80 87 73 88
REMARK SMILES IDX 75 89 76 90 77 91 78 92 55 93 56 94 64 95 57 96 59 97 65 98
REMARK SMILES IDX 58 99 60 100 61 101 62 102 63 103
REMARK H PARENT 22 5 15 15 8 20 26 37 85 56 53 67
REMARK Flexibility Score: inf
ROOT
ATOM      1  C   UNL A   1      34.193  30.729  27.259  1.00  0.00     0.118 C 
ENDROOT
BRANCH   1   2
ATOM      2  N   UNL A   1      32.979  30.036  27.687  1.00  0.00    -0.352 N 
ATOM      3  C   UNL A   1      32.232  29.055  27.067  1.00  0.00     0.251 C 
ATOM      4  O   UNL A   1      31.413  28.411  27.717  1.00  0.00    -0.269 OA
ATOM      5  H   UNL A   1      32.636  30.317  28.566  1.00  0.00     0.163 HD
BRANCH   3   6
ATOM      6  C   UNL A   1      32.401  28.726  25.628  1.00  0.00     0.039 A 
ATOM      7  C   UNL A   1      32.640  27.991  22.938  1.00  0.00     0.041 A 
ATOM      8  C   UNL A   1      33.753  28.013  23.770  1.00  0.00     0.027 A 
ATOM      9  C   UNL A   1      31.440  28.523  23.389  1.00  0.00     0.027 A 
ATOM     10  C   UNL A   1      33.638  28.375  25.104  1.00  0.00     0.016 A 
ATOM     11  C   UNL A   1      31.319  28.876  24.743  1.00  0.00     0.016 A 
BRANCH   7  12
ATOM     12  N   UNL A   1      32.743  27.394  21.675  1.00  0.00    -0.326 N 
ATOM     13  C   UNL A   1      32.733  26.033  21.442  1.00  0.00     0.226 C 
ATOM     14  O   UNL A   1      33.089  25.573  20.357  1.00  0.00    -0.275 OA
ATOM     15  H   UNL A   1      32.827  27.990  20.895  1.00  0.00     0.169 HD
BRANCH  13  16
ATOM     16  C   UNL A   1      32.054  25.152  22.485  1.00  0.00     0.128 C 
BRANCH  16  17
ATOM     17  C   UNL A   1      32.894  24.725  23.669  1.00  0.00     0.183 C 
ATOM     18  N   UNL A   1      34.620  22.193  25.747  1.00  0.00    -0.234 N 
ATOM     19  C   UNL A   1      33.736  22.769  25.022  1.00  0.00     0.319 C 
ATOM     20  H   UNL A   1      34.369  22.062  26.690  1.00  0.00     0.313 HD
ATOM     21  S   UNL A   1      33.687  23.105  23.323  1.00  0.00    -0.022 SA
ATOM     22  N   UNL A   1      32.627  23.323  25.594  1.00  0.00    -0.193 N 
ATOM     23  C   UNL A   1      32.199  24.492  25.000  1.00  0.00     0.324 C 
ATOM     24  C   UNL A   1      32.080  22.879  26.859  1.00  0.00     0.301 C 
ATOM     25  O   UNL A   1      31.453  25.305  25.533  1.00  0.00    -0.245 OA
BRANCH  18  26
ATOM     26  C   UNL A   1      35.893  21.718  25.398  1.00  0.00     0.128 A 
ATOM     27  C   UNL A   1      37.301  23.802  26.010  1.00  0.00     0.049 C 
ATOM     28  C   UNL A   1      37.131  22.371  25.586  1.00  0.00    -0.004 A 
ATOM     29  C   UNL A   1      38.331  21.655  25.382  1.00  0.00     0.008 A 
ATOM     30  C   UNL A   1      38.323  20.296  25.083  1.00  0.00     0.001 A 
ATOM     31  C   UNL A   1      35.918  20.348  25.075  1.00  0.00     0.052 A 
ATOM     32  C   UNL A   1      37.113  19.639  24.933  1.00  0.00     0.004 A 
ENDBRANCH  18  26
ENDBRANCH  16  17
ENDBRANCH  13  16
ENDBRANCH   7  12
ENDBRANCH   3   6
ENDBRANCH   1   2
BRANCH   1  33
ATOM     33  C   UNL A   1      34.256  32.185  27.719  1.00  0.00     0.042 C 
BRANCH  33  34
ATOM     34  C   UNL A   1      35.355  32.495  28.726  1.00  0.00     0.118 C 
BRANCH  34  35
ATOM     35  N   UNL A   1      35.280  31.686  29.939  1.00  0.00    -0.352 N 
ATOM     36  C   UNL A   1      36.132  30.674  30.383  1.00  0.00     0.251 C 
ATOM     37  H   UNL A   1      34.519  31.884  30.531  1.00  0.00     0.163 HD
ATOM     38  O   UNL A   1      35.887  30.086  31.407  1.00  0.00    -0.269 OA
BRANCH  36  39
ATOM     39  C   UNL A   1      37.395  30.443  29.627  1.00  0.00     0.039 A 
ATOM     40  C   UNL A   1      37.422  29.395  28.701  1.00  0.00     0.014 A 
ATOM     41  C   UNL A   1      38.575  31.039  30.053  1.00  0.00     0.014 A 
ATOM     42  C   UNL A   1      38.633  28.754  28.440  1.00  0.00     0.010 A 
ATOM     43  C   UNL A   1      39.750  30.337  29.893  1.00  0.00     0.010 A 
ATOM     44  C   UNL A   1      39.760  29.146  29.154  1.00  0.00    -0.014 A 
BRANCH  44  45
ATOM     45  C   UNL A   1      40.986  28.366  29.274  1.00  0.00     0.031 A 
ATOM     46  C   UNL A   1      40.960  26.918  28.943  1.00  0.00     0.074 A 
ATOM     47  C   UNL A   1      42.168  28.995  29.491  1.00  0.00     0.049 A 
ATOM     48  N   UNL A   1      41.960  26.124  29.102  1.00  0.00    -0.248 NA
ATOM     49  C   UNL A   1      39.782  26.247  28.401  1.00  0.00     0.031 C 
ATOM     50  C   UNL A   1      43.504  28.446  29.245  1.00  0.00     0.029 A 
ATOM     51  N   UNL A   1      42.456  30.214  30.117  1.00  0.00    -0.354 N 
ATOM     52  C   UNL A   1      41.660  24.919  28.509  1.00  0.00     0.074 A 
ATOM     53  C   UNL A   1      40.279  25.041  28.107  1.00  0.00     0.031 C 
ATOM     54  C   UNL A   1      44.393  29.123  29.987  1.00  0.00     0.029 A 
ATOM     55  C   UNL A   1      43.625  29.978  30.868  1.00  0.00     0.049 A 
ATOM     56  H   UNL A   1      41.949  31.056  30.048  1.00  0.00     0.167 HD
ATOM     57  C   UNL A   1      42.659  24.003  28.356  1.00  0.00     0.034 A 
ATOM     58  C   UNL A   1      43.683  29.932  32.236  1.00  0.00     0.034 A 
ATOM     59  C   UNL A   1      43.878  24.431  29.057  1.00  0.00     0.049 A 
ATOM     60  C   UNL A   1      44.250  28.626  32.806  1.00  0.00     0.074 A 
ATOM     61  C   UNL A   1      45.061  25.056  28.696  1.00  0.00     0.029 A 
ATOM     62  N   UNL A   1      43.846  24.449  30.438  1.00  0.00    -0.354 N 
ATOM     63  N   UNL A   1      44.651  27.611  32.088  1.00  0.00    -0.248 NA
ATOM     64  C   UNL A   1      44.311  28.331  34.242  1.00  0.00     0.031 C 
ATOM     65  C   UNL A   1      45.721  25.474  29.894  1.00  0.00     0.029 A 
ATOM     66  C   UNL A   1      44.947  25.086  30.973  1.00  0.00     0.049 A 
ATOM     67  H   UNL A   1      43.122  24.054  30.975  1.00  0.00     0.167 HD
ATOM     68  C   UNL A   1      44.824  26.516  32.898  1.00  0.00     0.074 A 
ATOM     69  C   UNL A   1      44.652  27.030  34.244  1.00  0.00     0.031 C 
ATOM     70  C   UNL A   1      45.009  25.247  32.420  1.00  0.00     0.034 A 
BRANCH  57  71
ATOM     71  C   UNL A   1      42.628  22.792  27.446  1.00  0.00     0.023 A 
ATOM     72  C   UNL A   1      41.623  21.828  27.691  1.00  0.00     0.012 A 
ATOM     73  C   UNL A   1      43.535  22.485  26.407  1.00  0.00     0.148 A 
ATOM     74  C   UNL A   1      41.571  20.603  27.020  1.00  0.00     0.002 A 
ATOM     75  C   UNL A   1      43.531  21.232  25.786  1.00  0.00     0.091 A 
ATOM     76  F   UNL A   1      44.361  23.424  25.944  1.00  0.00    -0.205 F 
ATOM     77  C   UNL A   1      42.549  20.288  26.091  1.00  0.00     0.022 A 
BRANCH  75  78
ATOM     78  S   UNL A   1      44.826  20.718  24.641  1.00  0.00     0.127 S 
ATOM     79  O   UNL A   1      46.039  20.981  25.418  1.00  0.00    -0.237 OA
ATOM     80  O   UNL A   1      44.528  19.303  24.441  1.00  0.00    -0.237 OA
ATOM     81  O   UNL A   1      44.686  21.563  23.460  1.00  0.00    -0.744 OA
ENDBRANCH  75  78
ENDBRANCH  57  71
BRANCH  58  82
ATOM     82  C   UNL A   1      42.639  30.761  32.908  1.00  0.00     0.023 A 
ATOM     83  C   UNL A   1      42.743  32.167  32.777  1.00  0.00     0.012 A 
ATOM     84  C   UNL A   1      41.421  30.210  33.340  1.00  0.00     0.148 A 
ATOM     85  C   UNL A   1      41.619  32.982  32.909  1.00  0.00     0.002 A 
ATOM     86  C   UNL A   1      40.308  31.034  33.491  1.00  0.00     0.091 A 
ATOM     87  F   UNL A   1      41.342  28.889  33.540  1.00  0.00    -0.205 F 
ATOM     88  C   UNL A   1      40.394  32.409  33.230  1.00  0.00     0.022 A 
BRANCH  86  89
ATOM     89  S   UNL A   1      38.692  30.353  33.884  1.00  0.00     0.127 S 
ATOM     90  O   UNL A   1      37.814  31.460  33.518  1.00  0.00    -0.237 OA
ATOM     91  O   UNL A   1      38.622  29.188  33.001  1.00  0.00    -0.237 OA
ATOM     92  O   UNL A   1      38.766  30.020  35.300  1.00  0.00    -0.744 OA
ENDBRANCH  86  89
ENDBRANCH  58  82
BRANCH  70  93
ATOM     93  C   UNL A   1      45.243  24.040  33.308  1.00  0.00     0.023 A 
ATOM     94  C   UNL A   1      44.171  23.192  33.650  1.00  0.00     0.012 A 
ATOM     95  C   UNL A   1      46.485  23.795  33.947  1.00  0.00     0.148 A 
ATOM     96  C   UNL A   1      44.333  22.126  34.543  1.00  0.00     0.002 A 
ATOM     97  C   UNL A   1      46.614  22.798  34.910  1.00  0.00     0.091 A 
ATOM     98  F   UNL A   1      47.568  24.493  33.590  1.00  0.00    -0.205 F 
ATOM     99  C   UNL A   1      45.547  21.942  35.190  1.00  0.00     0.022 A 
BRANCH  97 100
ATOM    100  S   UNL A   1      48.088  22.630  35.931  1.00  0.00     0.127 S 
ATOM    101  O   UNL A   1      48.150  23.941  36.582  1.00  0.00    -0.237 OA
ATOM    102  O   UNL A   1      47.716  21.529  36.816  1.00  0.00    -0.237 OA
ATOM    103  O   UNL A   1      49.184  22.367  35.010  1.00  0.00    -0.744 OA
ENDBRANCH  97 100
ENDBRANCH  70  93
ENDBRANCH  44  45
ENDBRANCH  36  39
ENDBRANCH  34  35
ENDBRANCH  33  34
ENDBRANCH   1  33
TORSDOF 17
ENDMDL
MODEL 2
REMARK VINA RESULT:     -13.7      1.765      2.717
REMARK SMILES Cc1ccccc1/[NH+]=C1\S[C@@H](CC(=O)Nc2ccc(C(=O)NCCCNC(=O)c3ccc(-c4c5nc(c(-c6cccc(S(=O)(=O)[O-])c6F)c6ccc([nH]6)c(-c6cccc(S(=O)(=O)[O-])c6F)c6nc(c(-c7cccc(S(=O)(=O)[O-])c7F)c7ccc4[nH]7)C=C6)C=C5)cc3)cc2)C(=O)N1C
REMARK SMILES IDX 23 1 22 2 20 3 21 4 19 6 16 7 17 8 93 9 18 10 92 11 15 12
REMARK SMILES IDX 13 13 14 14 12 16 11 17 8 18 9 19 10 21 96 22 94 23 97 24
REMARK SMILES IDX 95 25 7 26 1 27 2 28 3 29 4 30 6 31 5 32 24 33 25 34 26 35
REMARK SMILES IDX 27 36 28 38 29 39 30 40 91 41 31 42 90 43 32 44 33 45 34 46
REMARK SMILES IDX 84 47 35 48 89 49 83 50 85 51 36 52 88 53 82 54 81 55 37 57
REMARK SMILES IDX 69 58 49 59 68 60 50 61 53 62 67 63 86 64 51 65 52 66 66 68
REMARK SMILES IDX 87 69 54 70 38 71 39 72 47 73 40 74 42 75 48 76 41 77 43 78
REMARK SMILES IDX 44 79 45 80 46 81 70 82 71 83 79 84 72 85 74 86 80 87 73 88
REMARK SMILES IDX 75 89 76 90 77 91 78 92 55 93 56 94 64 95 57 96 59 97 65 98
REMARK SMILES IDX 58 99 60 100 61 101 62 102 63 103
REMARK H PARENT 22 5 15 15 8 20 26 37 85 56 53 67
REMARK Flexibility Score: inf
ROOT
ATOM      1  C   UNL A   1      31.824  30.721  26.346  1.00  0.00     0.118 C 
ENDROOT
BRANCH   1   2
ATOM      2  N   UNL A   1      32.427  30.349  25.068  1.00  0.00    -0.352 N 
ATOM      3  C   UNL A   1      32.303  29.202  24.310  1.00  0.00     0.251 C 
ATOM      4  O   UNL A   1      32.669  29.204  23.137  1.00  0.00    -0.269 OA
ATOM      5  H   UNL A   1      33.023  31.030  24.682  1.00  0.00     0.163 HD
BRANCH   3   6
ATOM      6  C   UNL A   1      31.711  27.954  24.857  1.00  0.00     0.039 A 
ATOM      7  C   UNL A   1      30.485  25.679  25.934  1.00  0.00     0.041 A 
ATOM      8  C   UNL A   1      31.684  26.154  26.454  1.00  0.00     0.027 A 
ATOM      9  C   UNL A   1      29.993  26.217  24.752  1.00  0.00     0.027 A 
ATOM     10  C   UNL A   1      32.293  27.282  25.924  1.00  0.00     0.016 A 
ATOM     11  C   UNL A   1      30.601  27.367  24.223  1.00  0.00     0.016 A 
BRANCH   7  12
ATOM     12  N   UNL A   1      29.778  24.696  26.636  1.00  0.00    -0.326 N 
ATOM     13  C   UNL A   1      30.271  23.447  26.957  1.00  0.00     0.226 C 
ATOM     14  O   UNL A   1      29.522  22.546  27.333  1.00  0.00    -0.275 OA
ATOM     15  H   UNL A   1      28.861  24.911  26.922  1.00  0.00     0.169 HD
BRANCH  13  16
ATOM     16  C   UNL A   1      31.786  23.298  27.048  1.00  0.00     0.128 C 
BRANCH  16  17
ATOM     17  C   UNL A   1      32.467  22.541  25.928  1.00  0.00     0.183 C 
ATOM     18  N   UNL A   1      34.778  19.962  24.618  1.00  0.00    -0.234 N 
ATOM     19  C   UNL A   1      34.294  20.906  25.336  1.00  0.00     0.319 C 
ATOM     20  H   UNL A   1      35.544  20.216  24.054  1.00  0.00     0.313 HD
ATOM     21  S   UNL A   1      33.045  20.907  26.537  1.00  0.00    -0.022 SA
ATOM     22  N   UNL A   1      34.708  22.193  25.155  1.00  0.00    -0.193 N 
ATOM     23  C   UNL A   1      33.717  23.141  25.308  1.00  0.00     0.324 C 
ATOM     24  C   UNL A   1      36.004  22.543  24.609  1.00  0.00     0.301 C 
ATOM     25  O   UNL A   1      33.786  24.288  24.881  1.00  0.00    -0.245 OA
BRANCH  18  26
ATOM     26  C   UNL A   1      34.381  18.621  24.516  1.00  0.00     0.128 A 
ATOM     27  C   UNL A   1      32.314  18.910  22.984  1.00  0.00     0.049 C 
ATOM     28  C   UNL A   1      33.339  18.095  23.720  1.00  0.00    -0.004 A 
ATOM     29  C   UNL A   1      33.222  16.697  23.567  1.00  0.00     0.008 A 
ATOM     30  C   UNL A   1      34.160  15.825  24.111  1.00  0.00     0.001 A 
ATOM     31  C   UNL A   1      35.302  17.713  25.072  1.00  0.00     0.052 A 
ATOM     32  C   UNL A   1      35.207  16.335  24.863  1.00  0.00     0.004 A 
ENDBRANCH  18  26
ENDBRANCH  16  17
ENDBRANCH  13  16
ENDBRANCH   7  12
ENDBRANCH   3   6
ENDBRANCH   1   2
BRANCH   1  33
ATOM     33  C   UNL A   1      32.839  30.862  27.479  1.00  0.00     0.042 C 
BRANCH  33  34
ATOM     34  C   UNL A   1      34.290  30.648  27.072  1.00  0.00     0.118 C 
BRANCH  34  35
ATOM     35  N   UNL A   1      35.210  31.619  27.658  1.00  0.00    -0.352 N 
ATOM     36  C   UNL A   1      36.458  31.414  28.246  1.00  0.00     0.251 C 
ATOM     37  H   UNL A   1      34.906  32.555  27.633  1.00  0.00     0.163 HD
ATOM     38  O   UNL A   1      37.065  32.347  28.712  1.00  0.00    -0.269 OA
BRANCH  36  39
ATOM     39  C   UNL A   1      37.055  30.052  28.160  1.00  0.00     0.039 A 
ATOM     40  C   UNL A   1      37.083  29.274  29.322  1.00  0.00     0.014 A 
ATOM     41  C   UNL A   1      37.826  29.702  27.059  1.00  0.00     0.014 A 
ATOM     42  C   UNL A   1      38.100  28.334  29.484  1.00  0.00     0.010 A 
ATOM     43  C   UNL A   1      38.901  28.864  27.259  1.00  0.00     0.010 A 
ATOM     44  C   UNL A   1      39.083  28.244  28.503  1.00  0.00    -0.014 A 
BRANCH  44  45
ATOM     45  C   UNL A   1      40.380  27.599  28.677  1.00  0.00     0.031 A 
ATOM     46  C   UNL A   1      40.492  26.131  28.478  1.00  0.00     0.074 A 
ATOM     47  C   UNL A   1      41.496  28.356  28.823  1.00  0.00     0.049 A 
ATOM     48  N   UNL A   1      41.565  25.455  28.696  1.00  0.00    -0.248 NA
ATOM     49  C   UNL A   1      39.383  25.304  28.014  1.00  0.00     0.031 C 
ATOM     50  C   UNL A   1      42.877  27.918  28.610  1.00  0.00     0.029 A 
ATOM     51  N   UNL A   1      41.666  29.649  29.333  1.00  0.00    -0.354 N 
ATOM     52  C   UNL A   1      41.381  24.178  28.217  1.00  0.00     0.074 A 
ATOM     53  C   UNL A   1      39.993  24.130  27.823  1.00  0.00     0.031 C 
ATOM     54  C   UNL A   1      43.700  28.741  29.277  1.00  0.00     0.029 A 
ATOM     55  C   UNL A   1      42.856  29.595  30.087  1.00  0.00     0.049 A 
ATOM     56  H   UNL A   1      41.080  30.428  29.195  1.00  0.00     0.167 HD
ATOM     57  C   UNL A   1      42.462  23.352  28.135  1.00  0.00     0.034 A 
ATOM     58  C   UNL A   1      42.923  29.679  31.453  1.00  0.00     0.034 A 
ATOM     59  C   UNL A   1      43.637  23.957  28.779  1.00  0.00     0.049 A 
ATOM     60  C   UNL A   1      43.616  28.490  32.131  1.00  0.00     0.074 A 
ATOM     61  C   UNL A   1      44.753  24.656  28.349  1.00  0.00     0.029 A 
ATOM     62  N   UNL A   1      43.609  24.096  30.153  1.00  0.00    -0.354 N 
ATOM     63  N   UNL A   1      44.111  27.458  31.502  1.00  0.00    -0.248 NA
ATOM     64  C   UNL A   1      43.711  28.334  33.587  1.00  0.00     0.031 C 
ATOM     65  C   UNL A   1      45.374  25.243  29.495  1.00  0.00     0.029 A 
ATOM     66  C   UNL A   1      44.646  24.882  30.615  1.00  0.00     0.049 A 
ATOM     67  H   UNL A   1      42.929  23.684  30.733  1.00  0.00     0.167 HD
ATOM     68  C   UNL A   1      44.391  26.462  32.405  1.00  0.00     0.074 A 
ATOM     69  C   UNL A   1      44.176  27.077  33.702  1.00  0.00     0.031 C 
ATOM     70  C   UNL A   1      44.697  25.179  32.040  1.00  0.00     0.034 A 
BRANCH  57  71
ATOM     71  C   UNL A   1      42.546  22.065  27.338  1.00  0.00     0.023 A 
ATOM     72  C   UNL A   1      41.635  21.038  27.677  1.00  0.00     0.012 A 
ATOM     73  C   UNL A   1      43.478  21.752  26.323  1.00  0.00     0.148 A 
ATOM     74  C   UNL A   1      41.699  19.758  27.119  1.00  0.00     0.002 A 
ATOM     75  C   UNL A   1      43.591  20.453  25.817  1.00  0.00     0.091 A 
ATOM     76  F   UNL A   1      44.212  22.718  25.771  1.00  0.00    -0.205 F 
ATOM     77  C   UNL A   1      42.702  19.453  26.214  1.00  0.00     0.022 A 
BRANCH  75  78
ATOM     78  S   UNL A   1      44.928  19.961  24.712  1.00  0.00     0.127 S 
ATOM     79  O   UNL A   1      46.112  20.405  25.452  1.00  0.00    -0.237 OA
ATOM     80  O   UNL A   1      44.765  18.512  24.644  1.00  0.00    -0.237 OA
ATOM     81  O   UNL A   1      44.711  20.679  23.462  1.00  0.00    -0.744 OA
ENDBRANCH  75  78
ENDBRANCH  57  71
BRANCH  58  82
ATOM     82  C   UNL A   1      41.806  30.461  32.061  1.00  0.00     0.023 A 
ATOM     83  C   UNL A   1      41.727  31.837  31.738  1.00  0.00     0.012 A 
ATOM     84  C   UNL A   1      40.683  29.833  32.623  1.00  0.00     0.148 A 
ATOM     85  C   UNL A   1      40.515  32.522  31.817  1.00  0.00     0.002 A 
ATOM     86  C   UNL A   1      39.481  30.530  32.720  1.00  0.00     0.091 A 
ATOM     87  F   UNL A   1      40.778  28.552  33.002  1.00  0.00    -0.205 F 
ATOM     88  C   UNL A   1      39.384  31.856  32.274  1.00  0.00     0.022 A 
BRANCH  86  89
ATOM     89  S   UNL A   1      37.978  29.721  33.282  1.00  0.00     0.127 S 
ATOM     90  O   UNL A   1      38.208  28.347  32.848  1.00  0.00    -0.237 OA
ATOM     91  O   UNL A   1      38.035  29.931  34.730  1.00  0.00    -0.237 OA
ATOM     92  O   UNL A   1      36.901  30.442  32.621  1.00  0.00    -0.744 OA
ENDBRANCH  86  89
ENDBRANCH  58  82
BRANCH  70  93
ATOM     93  C   UNL A   1      45.050  24.085  33.031  1.00  0.00     0.023 A 
ATOM     94  C   UNL A   1      44.067  23.171  33.459  1.00  0.00     0.012 A 
ATOM     95  C   UNL A   1      46.312  24.021  33.676  1.00  0.00     0.148 A 
ATOM     96  C   UNL A   1      44.334  22.211  34.442  1.00  0.00     0.002 A 
ATOM     97  C   UNL A   1      46.539  23.132  34.723  1.00  0.00     0.091 A 
ATOM     98  F   UNL A   1      47.320  24.787  33.246  1.00  0.00    -0.205 F 
ATOM     99  C   UNL A   1      45.562  22.205  35.089  1.00  0.00     0.022 A 
BRANCH  97 100
ATOM    100  S   UNL A   1      48.024  23.202  35.739  1.00  0.00     0.127 S 
ATOM    101  O   UNL A   1      49.080  23.062  34.733  1.00  0.00    -0.237 OA
ATOM    102  O   UNL A   1      47.921  24.534  36.330  1.00  0.00    -0.237 OA
ATOM    103  O   UNL A   1      47.928  22.083  36.665  1.00  0.00    -0.744 OA
ENDBRANCH  97 100
ENDBRANCH  70  93
ENDBRANCH  44  45
ENDBRANCH  36  39
ENDBRANCH  34  35
ENDBRANCH  33  34
ENDBRANCH   1  33
TORSDOF 17
ENDMDL
MODEL 3
REMARK VINA RESULT:     -13.4      1.728      2.212
REMARK SMILES Cc1ccccc1/[NH+]=C1\S[C@@H](CC(=O)Nc2ccc(C(=O)NCCCNC(=O)c3ccc(-c4c5nc(c(-c6cccc(S(=O)(=O)[O-])c6F)c6ccc([nH]6)c(-c6cccc(S(=O)(=O)[O-])c6F)c6nc(c(-c7cccc(S(=O)(=O)[O-])c7F)c7ccc4[nH]7)C=C6)C=C5)cc3)cc2)C(=O)N1C
REMARK SMILES IDX 23 1 22 2 20 3 21 4 19 6 16 7 17 8 93 9 18 10 92 11 15 12
REMARK SMILES IDX 13 13 14 14 12 16 11 17 8 18 9 19 10 21 96 22 94 23 97 24
REMARK SMILES IDX 95 25 7 26 1 27 2 28 3 29 4 30 6 31 5 32 24 33 25 34 26 35
REMARK SMILES IDX 27 36 28 38 29 39 30 40 91 41 31 42 90 43 32 44 33 45 34 46
REMARK SMILES IDX 84 47 35 48 89 49 83 50 85 51 36 52 88 53 82 54 81 55 37 57
REMARK SMILES IDX 69 58 49 59 68 60 50 61 53 62 67 63 86 64 51 65 52 66 66 68
REMARK SMILES IDX 87 69 54 70 38 71 39 72 47 73 40 74 42 75 48 76 41 77 43 78
REMARK SMILES IDX 44 79 45 80 46 81 70 82 71 83 79 84 72 85 74 86 80 87 73 88
REMARK SMILES IDX 75 89 76 90 77 91 78 92 55 93 56 94 64 95 57 96 59 97 65 98
REMARK SMILES IDX 58 99 60 100 61 101 62 102 63 103
REMARK H PARENT 22 5 15 15 8 20 26 37 85 56 53 67
REMARK Flexibility Score: inf
ROOT
ATOM      1  C   UNL A   1      33.607  30.735  27.240  1.00  0.00     0.118 C 
ENDROOT
BRANCH   1   2
ATOM      2  N   UNL A   1      32.537  29.817  27.624  1.00  0.00    -0.352 N 
ATOM      3  C   UNL A   1      32.026  28.706  26.983  1.00  0.00     0.251 C 
ATOM      4  O   UNL A   1      31.324  27.914  27.605  1.00  0.00    -0.269 OA
ATOM      5  H   UNL A   1      32.108  30.025  28.484  1.00  0.00     0.163 HD
BRANCH   3   6
ATOM      6  C   UNL A   1      32.318  28.414  25.556  1.00  0.00     0.039 A 
ATOM      7  C   UNL A   1      32.769  27.764  22.871  1.00  0.00     0.041 A 
ATOM      8  C   UNL A   1      33.755  27.556  23.827  1.00  0.00     0.027 A 
ATOM      9  C   UNL A   1      31.628  28.478  23.211  1.00  0.00     0.027 A 
ATOM     10  C   UNL A   1      33.534  27.875  25.159  1.00  0.00     0.016 A 
ATOM     11  C   UNL A   1      31.397  28.789  24.561  1.00  0.00     0.016 A 
BRANCH   7  12
ATOM     12  N   UNL A   1      32.929  27.214  21.593  1.00  0.00    -0.326 N 
ATOM     13  C   UNL A   1      32.654  25.902  21.259  1.00  0.00     0.226 C 
ATOM     14  O   UNL A   1      33.061  25.418  20.203  1.00  0.00    -0.275 OA
ATOM     15  H   UNL A   1      33.261  27.806  20.880  1.00  0.00     0.169 HD
BRANCH  13  16
ATOM     16  C   UNL A   1      31.647  25.157  22.129  1.00  0.00     0.128 C 
BRANCH  16  17
ATOM     17  C   UNL A   1      32.157  24.596  23.438  1.00  0.00     0.183 C 
ATOM     18  N   UNL A   1      33.056  21.811  25.706  1.00  0.00    -0.234 N 
ATOM     19  C   UNL A   1      32.427  22.519  24.843  1.00  0.00     0.319 C 
ATOM     20  H   UNL A   1      32.600  21.703  26.572  1.00  0.00     0.313 HD
ATOM     21  S   UNL A   1      32.777  22.886  23.187  1.00  0.00    -0.022 SA
ATOM     22  N   UNL A   1      31.310  23.216  25.203  1.00  0.00    -0.193 N 
ATOM     23  C   UNL A   1      31.178  24.443  24.588  1.00  0.00     0.324 C 
ATOM     24  C   UNL A   1      30.458  22.834  26.311  1.00  0.00     0.301 C 
ATOM     25  O   UNL A   1      30.454  25.345  24.995  1.00  0.00    -0.245 OA
BRANCH  18  26
ATOM     26  C   UNL A   1      34.296  21.165  25.601  1.00  0.00     0.128 A 
ATOM     27  C   UNL A   1      33.521  18.943  24.522  1.00  0.00     0.049 C 
ATOM     28  C   UNL A   1      34.562  19.918  24.991  1.00  0.00    -0.004 A 
ATOM     29  C   UNL A   1      35.901  19.524  24.777  1.00  0.00     0.008 A 
ATOM     30  C   UNL A   1      36.964  20.371  25.073  1.00  0.00     0.001 A 
ATOM     31  C   UNL A   1      35.393  21.991  25.908  1.00  0.00     0.052 A 
ATOM     32  C   UNL A   1      36.710  21.611  25.637  1.00  0.00     0.004 A 
ENDBRANCH  18  26
ENDBRANCH  16  17
ENDBRANCH  13  16
ENDBRANCH   7  12
ENDBRANCH   3   6
ENDBRANCH   1   2
BRANCH   1  33
ATOM     33  C   UNL A   1      33.396  32.160  27.749  1.00  0.00     0.042 C 
BRANCH  33  34
ATOM     34  C   UNL A   1      34.664  32.884  28.180  1.00  0.00     0.118 C 
BRANCH  34  35
ATOM     35  N   UNL A   1      34.867  32.895  29.625  1.00  0.00    -0.352 N 
ATOM     36  C   UNL A   1      35.621  32.032  30.421  1.00  0.00     0.251 C 
ATOM     37  H   UNL A   1      34.406  33.618  30.110  1.00  0.00     0.163 HD
ATOM     38  O   UNL A   1      35.642  32.180  31.618  1.00  0.00    -0.269 OA
BRANCH  36  39
ATOM     39  C   UNL A   1      36.482  31.027  29.739  1.00  0.00     0.039 A 
ATOM     40  C   UNL A   1      36.419  29.701  30.181  1.00  0.00     0.014 A 
ATOM     41  C   UNL A   1      37.522  31.448  28.919  1.00  0.00     0.014 A 
ATOM     42  C   UNL A   1      37.546  28.890  30.053  1.00  0.00     0.010 A 
ATOM     43  C   UNL A   1      38.676  30.694  28.897  1.00  0.00     0.010 A 
ATOM     44  C   UNL A   1      38.711  29.448  29.538  1.00  0.00    -0.014 A 
BRANCH  44  45
ATOM     45  C   UNL A   1      40.044  28.870  29.671  1.00  0.00     0.031 A 
ATOM     46  C   UNL A   1      40.291  27.494  29.168  1.00  0.00     0.074 A 
ATOM     47  C   UNL A   1      41.081  29.650  30.065  1.00  0.00     0.049 A 
ATOM     48  N   UNL A   1      41.401  26.862  29.320  1.00  0.00    -0.248 NA
ATOM     49  C   UNL A   1      39.287  26.718  28.449  1.00  0.00     0.031 C 
ATOM     50  C   UNL A   1      42.505  29.365  29.874  1.00  0.00     0.029 A 
ATOM     51  N   UNL A   1      41.110  30.806  30.855  1.00  0.00    -0.354 N 
ATOM     52  C   UNL A   1      41.355  25.713  28.562  1.00  0.00     0.074 A 
ATOM     53  C   UNL A   1      40.004  25.659  28.058  1.00  0.00     0.031 C 
ATOM     54  C   UNL A   1      43.212  30.075  30.766  1.00  0.00     0.029 A 
ATOM     55  C   UNL A   1      42.250  30.668  31.672  1.00  0.00     0.049 A 
ATOM     56  H   UNL A   1      40.470  31.555  30.843  1.00  0.00     0.167 HD
ATOM     57  C   UNL A   1      42.506  25.002  28.390  1.00  0.00     0.034 A 
ATOM     58  C   UNL A   1      42.224  30.451  33.025  1.00  0.00     0.034 A 
ATOM     59  C   UNL A   1      43.583  25.527  29.241  1.00  0.00     0.049 A 
ATOM     60  C   UNL A   1      42.970  29.191  33.483  1.00  0.00     0.074 A 
ATOM     61  C   UNL A   1      44.661  26.379  29.063  1.00  0.00     0.029 A 
ATOM     62  N   UNL A   1      43.456  25.356  30.606  1.00  0.00    -0.354 N 
ATOM     63  N   UNL A   1      43.589  28.360  32.687  1.00  0.00    -0.248 NA
ATOM     64  C   UNL A   1      42.987  28.722  34.873  1.00  0.00     0.031 C 
ATOM     65  C   UNL A   1      45.157  26.738  30.355  1.00  0.00     0.029 A 
ATOM     66  C   UNL A   1      44.393  26.088  31.309  1.00  0.00     0.049 A 
ATOM     67  H   UNL A   1      42.778  24.780  31.027  1.00  0.00     0.167 HD
ATOM     68  C   UNL A   1      43.894  27.211  33.372  1.00  0.00     0.074 A 
ATOM     69  C   UNL A   1      43.547  27.506  34.750  1.00  0.00     0.031 C 
ATOM     70  C   UNL A   1      44.329  26.064  32.764  1.00  0.00     0.034 A 
BRANCH  57  71
ATOM     71  C   UNL A   1      42.746  23.933  27.342  1.00  0.00     0.023 A 
ATOM     72  C   UNL A   1      43.335  24.347  26.125  1.00  0.00     0.012 A 
ATOM     73  C   UNL A   1      42.392  22.567  27.422  1.00  0.00     0.148 A 
ATOM     74  C   UNL A   1      43.479  23.492  25.028  1.00  0.00     0.002 A 
ATOM     75  C   UNL A   1      42.467  21.730  26.305  1.00  0.00     0.091 A 
ATOM     76  F   UNL A   1      42.057  22.034  28.598  1.00  0.00    -0.205 F 
ATOM     77  C   UNL A   1      43.012  22.191  25.105  1.00  0.00     0.022 A 
BRANCH  75  78
ATOM     78  S   UNL A   1      41.791  20.059  26.303  1.00  0.00     0.127 S 
ATOM     79  O   UNL A   1      40.349  20.316  26.279  1.00  0.00    -0.237 OA
ATOM     80  O   UNL A   1      42.328  19.502  25.065  1.00  0.00    -0.237 OA
ATOM     81  O   UNL A   1      42.258  19.428  27.532  1.00  0.00    -0.744 OA
ENDBRANCH  75  78
ENDBRANCH  57  71
BRANCH  58  82
ATOM     82  C   UNL A   1      41.010  31.001  33.697  1.00  0.00     0.023 A 
ATOM     83  C   UNL A   1      39.894  30.140  33.826  1.00  0.00     0.012 A 
ATOM     84  C   UNL A   1      41.062  32.163  34.483  1.00  0.00     0.148 A 
ATOM     85  C   UNL A   1      38.945  30.344  34.828  1.00  0.00     0.002 A 
ATOM     86  C   UNL A   1      40.098  32.373  35.466  1.00  0.00     0.091 A 
ATOM     87  F   UNL A   1      42.076  33.020  34.308  1.00  0.00    -0.205 F 
ATOM     88  C   UNL A   1      39.069  31.442  35.672  1.00  0.00     0.022 A 
BRANCH  86  89
ATOM     89  S   UNL A   1      40.213  33.761  36.602  1.00  0.00     0.127 S 
ATOM     90  O   UNL A   1      40.619  34.838  35.705  1.00  0.00    -0.237 OA
ATOM     91  O   UNL A   1      38.844  33.861  37.111  1.00  0.00    -0.237 OA
ATOM     92  O   UNL A   1      41.187  33.342  37.600  1.00  0.00    -0.744 OA
ENDBRANCH  86  89
ENDBRANCH  58  82
BRANCH  70  93
ATOM     93  C   UNL A   1      44.710  24.804  33.519  1.00  0.00     0.023 A 
ATOM     94  C   UNL A   1      43.710  23.966  34.049  1.00  0.00     0.012 A 
ATOM     95  C   UNL A   1      46.053  24.495  33.854  1.00  0.00     0.148 A 
ATOM     96  C   UNL A   1      44.026  22.848  34.831  1.00  0.00     0.002 A 
ATOM     97  C   UNL A   1      46.355  23.443  34.715  1.00  0.00     0.091 A 
ATOM     98  F   UNL A   1      47.055  25.185  33.298  1.00  0.00    -0.205 F 
ATOM     99  C   UNL A   1      45.346  22.599  35.182  1.00  0.00     0.022 A 
BRANCH  97 100
ATOM    100  S   UNL A   1      48.011  23.184  35.373  1.00  0.00     0.127 S 
ATOM    101  O   UNL A   1      48.260  24.455  36.060  1.00  0.00    -0.237 OA
ATOM    102  O   UNL A   1      47.805  22.043  36.262  1.00  0.00    -0.237 OA
ATOM    103  O   UNL A   1      48.868  22.949  34.220  1.00  0.00    -0.744 OA
ENDBRANCH  97 100
ENDBRANCH  70  93
ENDBRANCH  44  45
ENDBRANCH  36  39
ENDBRANCH  34  35
ENDBRANCH  33  34
ENDBRANCH   1  33
TORSDOF 17
ENDMDL
