MODEL 1
REMARK VINA RESULT:     -12.7      0.000      0.000
REMARK SMILES O=C(NCCCNC(=O)[C@H](c1ccccc1)C(c1ccccc1)c1ccccc1)c1ccc(-c2c3nc(c(-c4cccc(S(=O)(=O)[O-])c4F)c4ccc([nH]4)c(-c4cccc(S(=O)(=O)[O-])c4F)c4nc(c(-c5cccc(S(=O)(=O)[O-])c5F)c5ccc2[nH]5)C=C4)C=C3)cc1
REMARK SMILES IDX 4 1 3 2 1 3 2 4 30 6 31 7 92 8 32 9 91 10 33 11 34 12 35 13
REMARK SMILES IDX 85 14 36 15 90 16 84 17 86 18 37 19 89 20 83 21 82 22 38 24
REMARK SMILES IDX 70 25 50 26 69 27 51 28 54 29 68 30 87 31 52 32 53 33 67 35
REMARK SMILES IDX 88 36 55 37 39 38 40 39 48 40 41 41 43 42 49 43 42 44 44 45
REMARK SMILES IDX 45 46 46 47 47 48 71 49 72 50 80 51 73 52 75 53 81 54 74 55
REMARK SMILES IDX 76 56 77 57 78 58 79 59 56 60 57 61 65 62 58 63 60 64 66 65
REMARK SMILES IDX 59 66 61 67 62 68 63 69 64 70 5 71 6 72 7 73 8 74 9 76 10 77
REMARK SMILES IDX 17 78 18 79 19 80 23 81 20 82 22 83 21 84 24 85 25 86 29 87
REMARK SMILES IDX 26 88 28 89 27 90 11 91 12 92 16 93 13 94 15 95 14 96
REMARK H PARENT 3 5 86 23 54 34 7 75
REMARK Flexibility Score: inf
ROOT
ATOM      1  C   UNL A   1      32.443  28.720  26.264  1.00  0.00     0.118 C 
ENDROOT
BRANCH   1   2
ATOM      2  N   UNL A   1      32.191  30.153  26.327  1.00  0.00    -0.352 N 
ATOM      3  O   UNL A   1      32.351  32.250  27.123  1.00  0.00    -0.269 OA
ATOM      4  C   UNL A   1      32.866  31.146  27.005  1.00  0.00     0.251 C 
ATOM      5  H   UNL A   1      31.417  30.462  25.804  1.00  0.00     0.163 HD
BRANCH   4   6
ATOM      6  C   UNL A   1      34.189  30.868  27.613  1.00  0.00     0.039 A 
ATOM      7  C   UNL A   1      34.649  29.560  27.750  1.00  0.00     0.014 A 
ATOM      8  C   UNL A   1      34.990  31.931  28.043  1.00  0.00     0.014 A 
ATOM      9  C   UNL A   1      35.789  29.300  28.501  1.00  0.00     0.010 A 
ATOM     10  C   UNL A   1      36.207  31.670  28.683  1.00  0.00     0.010 A 
ATOM     11  C   UNL A   1      36.594  30.351  28.965  1.00  0.00    -0.014 A 
BRANCH  11  12
ATOM     12  C   UNL A   1      37.853  30.029  29.689  1.00  0.00     0.031 A 
ATOM     13  C   UNL A   1      38.099  30.515  31.092  1.00  0.00     0.074 A 
ATOM     14  C   UNL A   1      38.776  29.263  29.072  1.00  0.00     0.049 A 
ATOM     15  N   UNL A   1      39.120  30.281  31.876  1.00  0.00    -0.248 NA
ATOM     16  C   UNL A   1      37.076  31.386  31.695  1.00  0.00     0.031 C 
ATOM     17  C   UNL A   1      38.673  28.762  27.698  1.00  0.00     0.029 A 
ATOM     18  N   UNL A   1      39.973  28.759  29.514  1.00  0.00    -0.354 N 
ATOM     19  C   UNL A   1      38.894  31.014  33.035  1.00  0.00     0.074 A 
ATOM     20  C   UNL A   1      37.636  31.705  32.853  1.00  0.00     0.031 C 
ATOM     21  C   UNL A   1      39.730  27.983  27.429  1.00  0.00     0.029 A 
ATOM     22  C   UNL A   1      40.621  27.984  28.581  1.00  0.00     0.049 A 
ATOM     23  H   UNL A   1      40.334  28.936  30.414  1.00  0.00     0.167 HD
ATOM     24  C   UNL A   1      39.658  31.096  34.152  1.00  0.00     0.034 A 
ATOM     25  C   UNL A   1      41.807  27.349  28.637  1.00  0.00     0.034 A 
ATOM     26  C   UNL A   1      40.887  30.370  34.345  1.00  0.00     0.049 A 
ATOM     27  C   UNL A   1      42.614  27.432  29.900  1.00  0.00     0.074 A 
ATOM     28  C   UNL A   1      41.695  30.329  35.468  1.00  0.00     0.029 A 
ATOM     29  N   UNL A   1      41.491  29.567  33.389  1.00  0.00    -0.354 N 
ATOM     30  N   UNL A   1      42.320  28.032  31.027  1.00  0.00    -0.248 NA
ATOM     31  C   UNL A   1      43.902  26.727  29.908  1.00  0.00     0.031 C 
ATOM     32  C   UNL A   1      42.803  29.524  35.181  1.00  0.00     0.029 A 
ATOM     33  C   UNL A   1      42.667  29.034  33.892  1.00  0.00     0.049 A 
ATOM     34  H   UNL A   1      41.137  29.399  32.486  1.00  0.00     0.167 HD
ATOM     35  C   UNL A   1      43.368  27.745  31.893  1.00  0.00     0.074 A 
ATOM     36  C   UNL A   1      44.293  26.901  31.163  1.00  0.00     0.031 C 
ATOM     37  C   UNL A   1      43.551  28.153  33.173  1.00  0.00     0.034 A 
BRANCH  24  38
ATOM     38  C   UNL A   1      39.180  31.991  35.269  1.00  0.00     0.023 A 
ATOM     39  C   UNL A   1      38.248  31.509  36.211  1.00  0.00     0.012 A 
ATOM     40  C   UNL A   1      39.698  33.294  35.418  1.00  0.00     0.148 A 
ATOM     41  C   UNL A   1      37.811  32.319  37.259  1.00  0.00     0.002 A 
ATOM     42  C   UNL A   1      39.293  34.079  36.492  1.00  0.00     0.091 A 
ATOM     43  F   UNL A   1      40.569  33.746  34.504  1.00  0.00    -0.205 F 
ATOM     44  C   UNL A   1      38.340  33.599  37.405  1.00  0.00     0.022 A 
BRANCH  42  45
ATOM     45  S   UNL A   1      39.981  35.709  36.810  1.00  0.00     0.127 S 
ATOM     46  O   UNL A   1      41.407  35.408  36.931  1.00  0.00    -0.237 OA
ATOM     47  O   UNL A   1      39.614  36.440  35.598  1.00  0.00    -0.237 OA
ATOM     48  O   UNL A   1      39.334  36.185  38.023  1.00  0.00    -0.744 OA
ENDBRANCH  42  45
ENDBRANCH  24  38
BRANCH  25  49
ATOM     49  C   UNL A   1      42.268  26.537  27.477  1.00  0.00     0.023 A 
ATOM     50  C   UNL A   1      43.108  27.124  26.512  1.00  0.00     0.012 A 
ATOM     51  C   UNL A   1      41.917  25.179  27.348  1.00  0.00     0.148 A 
ATOM     52  C   UNL A   1      43.569  26.380  25.424  1.00  0.00     0.002 A 
ATOM     53  C   UNL A   1      42.426  24.429  26.296  1.00  0.00     0.091 A 
ATOM     54  F   UNL A   1      41.107  24.643  28.272  1.00  0.00    -0.205 F 
ATOM     55  C   UNL A   1      43.238  25.032  25.323  1.00  0.00     0.022 A 
BRANCH  53  56
ATOM     56  S   UNL A   1      42.168  22.657  26.163  1.00  0.00     0.127 S 
ATOM     57  O   UNL A   1      40.710  22.572  26.115  1.00  0.00    -0.237 OA
ATOM     58  O   UNL A   1      42.847  22.347  24.905  1.00  0.00    -0.237 OA
ATOM     59  O   UNL A   1      42.795  22.078  27.343  1.00  0.00    -0.744 OA
ENDBRANCH  53  56
ENDBRANCH  25  49
BRANCH  37  60
ATOM     60  C   UNL A   1      44.775  27.647  33.891  1.00  0.00     0.023 A 
ATOM     61  C   UNL A   1      45.964  28.404  33.883  1.00  0.00     0.012 A 
ATOM     62  C   UNL A   1      44.726  26.444  34.621  1.00  0.00     0.148 A 
ATOM     63  C   UNL A   1      47.096  27.949  34.557  1.00  0.00     0.002 A 
ATOM     64  C   UNL A   1      45.841  26.024  35.334  1.00  0.00     0.091 A 
ATOM     65  F   UNL A   1      43.593  25.726  34.597  1.00  0.00    -0.205 F 
ATOM     66  C   UNL A   1      47.032  26.767  35.292  1.00  0.00     0.022 A 
BRANCH  64  67
ATOM     67  S   UNL A   1      45.812  24.568  36.387  1.00  0.00     0.127 S 
ATOM     68  O   UNL A   1      44.647  24.833  37.229  1.00  0.00    -0.237 OA
ATOM     69  O   UNL A   1      45.630  23.487  35.418  1.00  0.00    -0.237 OA
ATOM     70  O   UNL A   1      47.095  24.549  37.076  1.00  0.00    -0.744 OA
ENDBRANCH  64  67
ENDBRANCH  37  60
ENDBRANCH  11  12
ENDBRANCH   4   6
ENDBRANCH   1   2
BRANCH   1  71
ATOM     71  C   UNL A   1      31.329  27.918  26.909  1.00  0.00     0.042 C 
BRANCH  71  72
ATOM     72  C   UNL A   1      30.912  26.700  26.104  1.00  0.00     0.117 C 
BRANCH  72  73
ATOM     73  N   UNL A   1      31.104  25.437  26.800  1.00  0.00    -0.355 N 
ATOM     74  C   UNL A   1      31.865  24.348  26.479  1.00  0.00     0.228 C 
ATOM     75  H   UNL A   1      30.601  25.353  27.641  1.00  0.00     0.163 HD
ATOM     76  O   UNL A   1      32.051  23.516  27.375  1.00  0.00    -0.274 OA
BRANCH  74  77
ATOM     77  C   UNL A   1      32.484  24.138  25.081  1.00  0.00     0.120 C 
BRANCH  77  78
ATOM     78  C   UNL A   1      33.826  24.950  24.959  1.00  0.00     0.066 C 
BRANCH  78  79
ATOM     79  C   UNL A   1      35.075  24.058  24.790  1.00  0.00    -0.039 A 
ATOM     80  C   UNL A   1      35.840  23.722  25.924  1.00  0.00     0.004 A 
ATOM     81  C   UNL A   1      35.483  23.514  23.562  1.00  0.00     0.004 A 
ATOM     82  C   UNL A   1      36.908  22.825  25.846  1.00  0.00     0.000 A 
ATOM     83  C   UNL A   1      36.604  22.682  23.470  1.00  0.00     0.000 A 
ATOM     84  C   UNL A   1      37.300  22.315  24.615  1.00  0.00     0.000 A 
ENDBRANCH  78  79
BRANCH  78  85
ATOM     85  C   UNL A   1      33.771  26.113  23.933  1.00  0.00    -0.039 A 
ATOM     86  C   UNL A   1      34.303  27.391  24.168  1.00  0.00     0.004 A 
ATOM     87  C   UNL A   1      33.168  25.900  22.680  1.00  0.00     0.004 A 
ATOM     88  C   UNL A   1      34.139  28.433  23.245  1.00  0.00     0.000 A 
ATOM     89  C   UNL A   1      33.052  26.923  21.733  1.00  0.00     0.000 A 
ATOM     90  C   UNL A   1      33.511  28.200  22.027  1.00  0.00     0.000 A 
ENDBRANCH  78  85
ENDBRANCH  77  78
BRANCH  77  91
ATOM     91  C   UNL A   1      32.428  22.640  24.712  1.00  0.00    -0.035 A 
ATOM     92  C   UNL A   1      32.096  22.149  23.440  1.00  0.00     0.004 A 
ATOM     93  C   UNL A   1      32.821  21.694  25.677  1.00  0.00     0.004 A 
ATOM     94  C   UNL A   1      32.167  20.788  23.130  1.00  0.00     0.000 A 
ATOM     95  C   UNL A   1      32.889  20.329  25.372  1.00  0.00     0.000 A 
ATOM     96  C   UNL A   1      32.565  19.875  24.097  1.00  0.00     0.000 A 
ENDBRANCH  77  91
ENDBRANCH  74  77
ENDBRANCH  72  73
ENDBRANCH  71  72
ENDBRANCH   1  71
TORSDOF 17
ENDMDL
MODEL 2
REMARK VINA RESULT:     -12.6      5.015      9.823
REMARK SMILES O=C(NCCCNC(=O)[C@H](c1ccccc1)C(c1ccccc1)c1ccccc1)c1ccc(-c2c3nc(c(-c4cccc(S(=O)(=O)[O-])c4F)c4ccc([nH]4)c(-c4cccc(S(=O)(=O)[O-])c4F)c4nc(c(-c5cccc(S(=O)(=O)[O-])c5F)c5ccc2[nH]5)C=C4)C=C3)cc1
REMARK SMILES IDX 4 1 3 2 1 3 2 4 30 6 31 7 92 8 32 9 91 10 33 11 34 12 35 13
REMARK SMILES IDX 85 14 36 15 90 16 84 17 86 18 37 19 89 20 83 21 82 22 38 24
REMARK SMILES IDX 70 25 50 26 69 27 51 28 54 29 68 30 87 31 52 32 53 33 67 35
REMARK SMILES IDX 88 36 55 37 39 38 40 39 48 40 41 41 43 42 49 43 42 44 44 45
REMARK SMILES IDX 45 46 46 47 47 48 71 49 72 50 80 51 73 52 75 53 81 54 74 55
REMARK SMILES IDX 76 56 77 57 78 58 79 59 56 60 57 61 65 62 58 63 60 64 66 65
REMARK SMILES IDX 59 66 61 67 62 68 63 69 64 70 5 71 6 72 7 73 8 74 9 76 10 77
REMARK SMILES IDX 17 78 18 79 19 80 23 81 20 82 22 83 21 84 24 85 25 86 29 87
REMARK SMILES IDX 26 88 28 89 27 90 11 91 12 92 16 93 13 94 15 95 14 96
REMARK H PARENT 3 5 86 23 54 34 7 75
REMARK Flexibility Score: inf
ROOT
ATOM      1  C   UNL A   1      36.581  22.895  24.081  1.00  0.00     0.118 C 
ENDROOT
BRANCH   1   2
ATOM      2  N   UNL A   1      37.102  21.680  24.693  1.00  0.00    -0.352 N 
ATOM      3  O   UNL A   1      38.605  20.359  25.716  1.00  0.00    -0.269 OA
ATOM      4  C   UNL A   1      38.200  21.494  25.506  1.00  0.00     0.251 C 
ATOM      5  H   UNL A   1      36.590  20.864  24.495  1.00  0.00     0.163 HD
BRANCH   4   6
ATOM      6  C   UNL A   1      38.902  22.660  26.092  1.00  0.00     0.039 A 
ATOM      7  C   UNL A   1      38.295  23.915  26.123  1.00  0.00     0.014 A 
ATOM      8  C   UNL A   1      40.181  22.499  26.631  1.00  0.00     0.014 A 
ATOM      9  C   UNL A   1      39.034  25.034  26.484  1.00  0.00     0.010 A 
ATOM     10  C   UNL A   1      40.877  23.611  27.120  1.00  0.00     0.010 A 
ATOM     11  C   UNL A   1      40.330  24.898  27.004  1.00  0.00    -0.014 A 
BRANCH  11  12
ATOM     12  C   UNL A   1      41.054  26.114  27.461  1.00  0.00     0.031 A 
ATOM     13  C   UNL A   1      42.472  26.390  27.037  1.00  0.00     0.074 A 
ATOM     14  C   UNL A   1      40.406  26.993  28.254  1.00  0.00     0.049 A 
ATOM     15  N   UNL A   1      43.224  27.426  27.309  1.00  0.00    -0.248 NA
ATOM     16  C   UNL A   1      43.141  25.372  26.212  1.00  0.00     0.031 C 
ATOM     17  C   UNL A   1      39.043  26.820  28.765  1.00  0.00     0.029 A 
ATOM     18  N   UNL A   1      40.794  28.208  28.759  1.00  0.00    -0.354 N 
ATOM     19  C   UNL A   1      44.466  27.162  26.741  1.00  0.00     0.074 A 
ATOM     20  C   UNL A   1      44.368  25.865  26.108  1.00  0.00     0.031 C 
ATOM     21  C   UNL A   1      38.691  27.908  29.464  1.00  0.00     0.029 A 
ATOM     22  C   UNL A   1      39.822  28.825  29.511  1.00  0.00     0.049 A 
ATOM     23  H   UNL A   1      41.682  28.602  28.598  1.00  0.00     0.167 HD
ATOM     24  C   UNL A   1      45.580  27.934  26.737  1.00  0.00     0.034 A 
ATOM     25  C   UNL A   1      39.836  29.995  30.178  1.00  0.00     0.034 A 
ATOM     26  C   UNL A   1      45.657  29.243  27.331  1.00  0.00     0.049 A 
ATOM     27  C   UNL A   1      41.075  30.841  30.127  1.00  0.00     0.074 A 
ATOM     28  C   UNL A   1      46.717  30.134  27.317  1.00  0.00     0.029 A 
ATOM     29  N   UNL A   1      44.639  29.848  28.053  1.00  0.00    -0.354 N 
ATOM     30  N   UNL A   1      42.194  30.626  29.480  1.00  0.00    -0.248 NA
ATOM     31  C   UNL A   1      41.041  32.105  30.874  1.00  0.00     0.031 C 
ATOM     32  C   UNL A   1      46.350  31.264  28.056  1.00  0.00     0.029 A 
ATOM     33  C   UNL A   1      45.048  31.094  28.499  1.00  0.00     0.049 A 
ATOM     34  H   UNL A   1      43.754  29.451  28.224  1.00  0.00     0.167 HD
ATOM     35  C   UNL A   1      42.984  31.745  29.710  1.00  0.00     0.074 A 
ATOM     36  C   UNL A   1      42.206  32.643  30.540  1.00  0.00     0.031 C 
ATOM     37  C   UNL A   1      44.245  32.000  29.280  1.00  0.00     0.034 A 
BRANCH  24  38
ATOM     38  C   UNL A   1      46.811  27.391  26.054  1.00  0.00     0.023 A 
ATOM     39  C   UNL A   1      47.633  26.458  26.717  1.00  0.00     0.012 A 
ATOM     40  C   UNL A   1      47.121  27.762  24.730  1.00  0.00     0.148 A 
ATOM     41  C   UNL A   1      48.764  25.934  26.091  1.00  0.00     0.002 A 
ATOM     42  C   UNL A   1      48.224  27.200  24.096  1.00  0.00     0.091 A 
ATOM     43  F   UNL A   1      46.341  28.665  24.118  1.00  0.00    -0.205 F 
ATOM     44  C   UNL A   1      49.054  26.296  24.778  1.00  0.00     0.022 A 
BRANCH  42  45
ATOM     45  S   UNL A   1      48.629  27.544  22.378  1.00  0.00     0.127 S 
ATOM     46  O   UNL A   1      48.715  26.194  21.821  1.00  0.00    -0.237 OA
ATOM     47  O   UNL A   1      47.466  28.313  21.935  1.00  0.00    -0.237 OA
ATOM     48  O   UNL A   1      49.876  28.293  22.405  1.00  0.00    -0.744 OA
ENDBRANCH  42  45
ENDBRANCH  24  38
BRANCH  25  49
ATOM     49  C   UNL A   1      38.616  30.451  30.900  1.00  0.00     0.023 A 
ATOM     50  C   UNL A   1      38.496  30.203  32.280  1.00  0.00     0.012 A 
ATOM     51  C   UNL A   1      37.599  31.166  30.239  1.00  0.00     0.148 A 
ATOM     52  C   UNL A   1      37.372  30.635  32.985  1.00  0.00     0.002 A 
ATOM     53  C   UNL A   1      36.511  31.645  30.957  1.00  0.00     0.091 A 
ATOM     54  F   UNL A   1      37.728  31.383  28.923  1.00  0.00    -0.205 F 
ATOM     55  C   UNL A   1      36.386  31.366  32.327  1.00  0.00     0.022 A 
BRANCH  53  56
ATOM     56  S   UNL A   1      35.267  32.712  30.224  1.00  0.00     0.127 S 
ATOM     57  O   UNL A   1      34.758  31.874  29.140  1.00  0.00    -0.237 OA
ATOM     58  O   UNL A   1      34.342  32.908  31.340  1.00  0.00    -0.237 OA
ATOM     59  O   UNL A   1      35.975  33.917  29.811  1.00  0.00    -0.744 OA
ENDBRANCH  53  56
ENDBRANCH  25  49
BRANCH  37  60
ATOM     60  C   UNL A   1      44.847  33.329  29.653  1.00  0.00     0.023 A 
ATOM     61  C   UNL A   1      45.618  33.453  30.826  1.00  0.00     0.012 A 
ATOM     62  C   UNL A   1      44.691  34.444  28.806  1.00  0.00     0.148 A 
ATOM     63  C   UNL A   1      46.190  34.677  31.170  1.00  0.00     0.002 A 
ATOM     64  C   UNL A   1      45.309  35.646  29.129  1.00  0.00     0.091 A 
ATOM     65  F   UNL A   1      43.934  34.313  27.707  1.00  0.00    -0.205 F 
ATOM     66  C   UNL A   1      46.046  35.769  30.317  1.00  0.00     0.022 A 
BRANCH  64  67
ATOM     67  S   UNL A   1      45.258  37.071  28.036  1.00  0.00     0.127 S 
ATOM     68  O   UNL A   1      43.830  37.384  28.021  1.00  0.00    -0.237 OA
ATOM     69  O   UNL A   1      46.088  38.041  28.750  1.00  0.00    -0.237 OA
ATOM     70  O   UNL A   1      45.816  36.620  26.768  1.00  0.00    -0.744 OA
ENDBRANCH  64  67
ENDBRANCH  37  60
ENDBRANCH  11  12
ENDBRANCH   4   6
ENDBRANCH   1   2
BRANCH   1  71
ATOM     71  C   UNL A   1      35.599  22.594  22.965  1.00  0.00     0.042 C 
BRANCH  71  72
ATOM     72  C   UNL A   1      34.238  23.238  23.162  1.00  0.00     0.117 C 
BRANCH  72  73
ATOM     73  N   UNL A   1      34.029  24.435  22.363  1.00  0.00    -0.355 N 
ATOM     74  C   UNL A   1      33.393  25.608  22.660  1.00  0.00     0.228 C 
ATOM     75  H   UNL A   1      34.408  24.393  21.456  1.00  0.00     0.163 HD
ATOM     76  O   UNL A   1      33.588  26.557  21.892  1.00  0.00    -0.274 OA
BRANCH  74  77
ATOM     77  C   UNL A   1      32.476  25.777  23.890  1.00  0.00     0.120 C 
BRANCH  77  78
ATOM     78  C   UNL A   1      33.344  25.914  25.194  1.00  0.00     0.066 C 
BRANCH  78  79
ATOM     79  C   UNL A   1      33.064  27.206  25.992  1.00  0.00    -0.039 A 
ATOM     80  C   UNL A   1      33.920  28.312  25.834  1.00  0.00     0.004 A 
ATOM     81  C   UNL A   1      31.963  27.369  26.848  1.00  0.00     0.004 A 
ATOM     82  C   UNL A   1      33.646  29.542  26.438  1.00  0.00     0.000 A 
ATOM     83  C   UNL A   1      31.735  28.575  27.521  1.00  0.00     0.000 A 
ATOM     84  C   UNL A   1      32.560  29.670  27.293  1.00  0.00     0.000 A 
ENDBRANCH  78  79
BRANCH  78  85
ATOM     85  C   UNL A   1      33.352  24.644  26.087  1.00  0.00    -0.039 A 
ATOM     86  C   UNL A   1      34.520  24.024  26.559  1.00  0.00     0.004 A 
ATOM     87  C   UNL A   1      32.129  24.063  26.470  1.00  0.00     0.004 A 
ATOM     88  C   UNL A   1      34.471  22.823  27.280  1.00  0.00     0.000 A 
ATOM     89  C   UNL A   1      32.075  22.895  27.238  1.00  0.00     0.000 A 
ATOM     90  C   UNL A   1      33.248  22.256  27.617  1.00  0.00     0.000 A 
ENDBRANCH  78  85
ENDBRANCH  77  78
BRANCH  77  91
ATOM     91  C   UNL A   1      31.364  26.798  23.567  1.00  0.00    -0.035 A 
ATOM     92  C   UNL A   1      31.579  28.029  22.929  1.00  0.00     0.004 A 
ATOM     93  C   UNL A   1      30.029  26.448  23.842  1.00  0.00     0.004 A 
ATOM     94  C   UNL A   1      30.523  28.868  22.562  1.00  0.00     0.000 A 
ATOM     95  C   UNL A   1      28.968  27.288  23.480  1.00  0.00     0.000 A 
ATOM     96  C   UNL A   1      29.214  28.496  22.837  1.00  0.00     0.000 A 
ENDBRANCH  77  91
ENDBRANCH  74  77
ENDBRANCH  72  73
ENDBRANCH  71  72
ENDBRANCH   1  71
TORSDOF 17
ENDMDL
MODEL 3
REMARK VINA RESULT:     -12.5      1.080      2.425
REMARK SMILES O=C(NCCCNC(=O)[C@H](c1ccccc1)C(c1ccccc1)c1ccccc1)c1ccc(-c2c3nc(c(-c4cccc(S(=O)(=O)[O-])c4F)c4ccc([nH]4)c(-c4cccc(S(=O)(=O)[O-])c4F)c4nc(c(-c5cccc(S(=O)(=O)[O-])c5F)c5ccc2[nH]5)C=C4)C=C3)cc1
REMARK SMILES IDX 4 1 3 2 1 3 2 4 30 6 31 7 92 8 32 9 91 10 33 11 34 12 35 13
REMARK SMILES IDX 85 14 36 15 90 16 84 17 86 18 37 19 89 20 83 21 82 22 38 24
REMARK SMILES IDX 70 25 50 26 69 27 51 28 54 29 68 30 87 31 52 32 53 33 67 35
REMARK SMILES IDX 88 36 55 37 39 38 40 39 48 40 41 41 43 42 49 43 42 44 44 45
REMARK SMILES IDX 45 46 46 47 47 48 71 49 72 50 80 51 73 52 75 53 81 54 74 55
REMARK SMILES IDX 76 56 77 57 78 58 79 59 56 60 57 61 65 62 58 63 60 64 66 65
REMARK SMILES IDX 59 66 61 67 62 68 63 69 64 70 5 71 6 72 7 73 8 74 9 76 10 77
REMARK SMILES IDX 17 78 18 79 19 80 23 81 20 82 22 83 21 84 24 85 25 86 29 87
REMARK SMILES IDX 26 88 28 89 27 90 11 91 12 92 16 93 13 94 15 95 14 96
REMARK H PARENT 3 5 86 23 54 34 7 75
REMARK Flexibility Score: inf
ROOT
ATOM      1  C   UNL A   1      32.479  29.369  25.975  1.00  0.00     0.118 C 
ENDROOT
BRANCH   1   2
ATOM      2  N   UNL A   1      32.266  30.792  26.197  1.00  0.00    -0.352 N 
ATOM      3  O   UNL A   1      32.456  32.776  27.238  1.00  0.00    -0.269 OA
ATOM      4  C   UNL A   1      32.944  31.677  27.009  1.00  0.00     0.251 C 
ATOM      5  H   UNL A   1      31.520  31.184  25.689  1.00  0.00     0.163 HD
BRANCH   4   6
ATOM      6  C   UNL A   1      34.235  31.288  27.624  1.00  0.00     0.039 A 
ATOM      7  C   UNL A   1      34.484  29.963  27.979  1.00  0.00     0.014 A 
ATOM      8  C   UNL A   1      35.219  32.257  27.838  1.00  0.00     0.014 A 
ATOM      9  C   UNL A   1      35.605  29.646  28.735  1.00  0.00     0.010 A 
ATOM     10  C   UNL A   1      36.411  31.908  28.484  1.00  0.00     0.010 A 
ATOM     11  C   UNL A   1      36.594  30.610  28.985  1.00  0.00    -0.014 A 
BRANCH  11  12
ATOM     12  C   UNL A   1      37.822  30.208  29.723  1.00  0.00     0.031 A 
ATOM     13  C   UNL A   1      38.063  30.646  31.143  1.00  0.00     0.074 A 
ATOM     14  C   UNL A   1      38.718  29.413  29.103  1.00  0.00     0.049 A 
ATOM     15  N   UNL A   1      39.057  30.342  31.939  1.00  0.00    -0.248 NA
ATOM     16  C   UNL A   1      37.073  31.550  31.749  1.00  0.00     0.031 C 
ATOM     17  C   UNL A   1      38.617  28.953  27.714  1.00  0.00     0.029 A 
ATOM     18  N   UNL A   1      39.880  28.841  29.553  1.00  0.00    -0.354 N 
ATOM     19  C   UNL A   1      38.845  31.056  33.113  1.00  0.00     0.074 A 
ATOM     20  C   UNL A   1      37.626  31.812  32.926  1.00  0.00     0.031 C 
ATOM     21  C   UNL A   1      39.640  28.131  27.444  1.00  0.00     0.029 A 
ATOM     22  C   UNL A   1      40.508  28.058  28.612  1.00  0.00     0.049 A 
ATOM     23  H   UNL A   1      40.232  28.976  30.463  1.00  0.00     0.167 HD
ATOM     24  C   UNL A   1      39.589  31.071  34.244  1.00  0.00     0.034 A 
ATOM     25  C   UNL A   1      41.661  27.365  28.673  1.00  0.00     0.034 A 
ATOM     26  C   UNL A   1      40.778  30.282  34.440  1.00  0.00     0.049 A 
ATOM     27  C   UNL A   1      42.445  27.376  29.952  1.00  0.00     0.074 A 
ATOM     28  C   UNL A   1      41.561  30.172  35.576  1.00  0.00     0.029 A 
ATOM     29  N   UNL A   1      41.361  29.474  33.475  1.00  0.00    -0.354 N 
ATOM     30  N   UNL A   1      42.159  27.961  31.089  1.00  0.00    -0.248 NA
ATOM     31  C   UNL A   1      43.697  26.608  29.965  1.00  0.00     0.031 C 
ATOM     32  C   UNL A   1      42.634  29.321  35.289  1.00  0.00     0.029 A 
ATOM     33  C   UNL A   1      42.499  28.871  33.985  1.00  0.00     0.049 A 
ATOM     34  H   UNL A   1      41.016  29.347  32.561  1.00  0.00     0.167 HD
ATOM     35  C   UNL A   1      43.175  27.601  31.966  1.00  0.00     0.074 A 
ATOM     36  C   UNL A   1      44.072  26.731  31.230  1.00  0.00     0.031 C 
ATOM     37  C   UNL A   1      43.354  27.966  33.259  1.00  0.00     0.034 A 
BRANCH  24  38
ATOM     38  C   UNL A   1      39.134  31.961  35.376  1.00  0.00     0.023 A 
ATOM     39  C   UNL A   1      38.218  31.475  36.330  1.00  0.00     0.012 A 
ATOM     40  C   UNL A   1      39.660  33.260  35.525  1.00  0.00     0.148 A 
ATOM     41  C   UNL A   1      37.802  32.279  37.392  1.00  0.00     0.002 A 
ATOM     42  C   UNL A   1      39.276  34.039  36.611  1.00  0.00     0.091 A 
ATOM     43  F   UNL A   1      40.516  33.716  34.599  1.00  0.00    -0.205 F 
ATOM     44  C   UNL A   1      38.338  33.556  37.538  1.00  0.00     0.022 A 
BRANCH  42  45
ATOM     45  S   UNL A   1      39.975  35.665  36.929  1.00  0.00     0.127 S 
ATOM     46  O   UNL A   1      41.402  35.358  37.023  1.00  0.00    -0.237 OA
ATOM     47  O   UNL A   1      39.589  36.406  35.728  1.00  0.00    -0.237 OA
ATOM     48  O   UNL A   1      39.351  36.135  38.156  1.00  0.00    -0.744 OA
ENDBRANCH  42  45
ENDBRANCH  24  38
BRANCH  25  49
ATOM     49  C   UNL A   1      42.104  26.560  27.500  1.00  0.00     0.023 A 
ATOM     50  C   UNL A   1      42.868  27.174  26.490  1.00  0.00     0.012 A 
ATOM     51  C   UNL A   1      41.811  25.186  27.402  1.00  0.00     0.148 A 
ATOM     52  C   UNL A   1      43.311  26.440  25.389  1.00  0.00     0.002 A 
ATOM     53  C   UNL A   1      42.305  24.448  26.335  1.00  0.00     0.091 A 
ATOM     54  F   UNL A   1      41.072  24.624  28.370  1.00  0.00    -0.205 F 
ATOM     55  C   UNL A   1      43.040  25.076  25.318  1.00  0.00     0.022 A 
BRANCH  53  56
ATOM     56  S   UNL A   1      42.124  22.665  26.232  1.00  0.00     0.127 S 
ATOM     57  O   UNL A   1      42.819  22.225  27.440  1.00  0.00    -0.237 OA
ATOM     58  O   UNL A   1      40.670  22.506  26.266  1.00  0.00    -0.237 OA
ATOM     59  O   UNL A   1      42.742  22.278  24.972  1.00  0.00    -0.744 OA
ENDBRANCH  53  56
ENDBRANCH  25  49
BRANCH  37  60
ATOM     60  C   UNL A   1      44.537  27.383  33.985  1.00  0.00     0.023 A 
ATOM     61  C   UNL A   1      45.784  28.039  33.948  1.00  0.00     0.012 A 
ATOM     62  C   UNL A   1      44.395  26.210  34.752  1.00  0.00     0.148 A 
ATOM     63  C   UNL A   1      46.880  27.512  34.630  1.00  0.00     0.002 A 
ATOM     64  C   UNL A   1      45.478  25.721  35.471  1.00  0.00     0.091 A 
ATOM     65  F   UNL A   1      43.207  25.587  34.755  1.00  0.00    -0.205 F 
ATOM     66  C   UNL A   1      46.725  26.362  35.401  1.00  0.00     0.022 A 
BRANCH  64  67
ATOM     67  S   UNL A   1      45.337  24.304  36.567  1.00  0.00     0.127 S 
ATOM     68  O   UNL A   1      44.324  24.762  37.517  1.00  0.00    -0.237 OA
ATOM     69  O   UNL A   1      44.887  23.250  35.657  1.00  0.00    -0.237 OA
ATOM     70  O   UNL A   1      46.668  24.094  37.119  1.00  0.00    -0.744 OA
ENDBRANCH  64  67
ENDBRANCH  37  60
ENDBRANCH  11  12
ENDBRANCH   4   6
ENDBRANCH   1   2
BRANCH   1  71
ATOM     71  C   UNL A   1      33.132  29.094  24.633  1.00  0.00     0.042 C 
BRANCH  71  72
ATOM     72  C   UNL A   1      34.026  27.867  24.632  1.00  0.00     0.117 C 
BRANCH  72  73
ATOM     73  N   UNL A   1      34.126  27.209  23.338  1.00  0.00    -0.355 N 
ATOM     74  C   UNL A   1      33.838  25.927  22.964  1.00  0.00     0.228 C 
ATOM     75  H   UNL A   1      34.457  27.784  22.612  1.00  0.00     0.163 HD
ATOM     76  O   UNL A   1      33.765  25.705  21.749  1.00  0.00    -0.274 OA
BRANCH  74  77
ATOM     77  C   UNL A   1      33.603  24.789  23.979  1.00  0.00     0.120 C 
BRANCH  77  78
ATOM     78  C   UNL A   1      32.254  24.047  23.652  1.00  0.00     0.066 C 
BRANCH  78  79
ATOM     79  C   UNL A   1      32.353  22.509  23.756  1.00  0.00    -0.039 A 
ATOM     80  C   UNL A   1      32.588  21.917  25.011  1.00  0.00     0.004 A 
ATOM     81  C   UNL A   1      32.178  21.643  22.665  1.00  0.00     0.004 A 
ATOM     82  C   UNL A   1      32.568  20.530  25.181  1.00  0.00     0.000 A 
ATOM     83  C   UNL A   1      32.243  20.253  22.820  1.00  0.00     0.000 A 
ATOM     84  C   UNL A   1      32.409  19.697  24.082  1.00  0.00     0.000 A 
ENDBRANCH  78  79
BRANCH  78  85
ATOM     85  C   UNL A   1      31.019  24.623  24.394  1.00  0.00    -0.039 A 
ATOM     86  C   UNL A   1      30.142  25.570  23.839  1.00  0.00     0.004 A 
ATOM     87  C   UNL A   1      30.729  24.182  25.698  1.00  0.00     0.004 A 
ATOM     88  C   UNL A   1      29.099  26.129  24.589  1.00  0.00     0.000 A 
ATOM     89  C   UNL A   1      29.654  24.696  26.430  1.00  0.00     0.000 A 
ATOM     90  C   UNL A   1      28.856  25.695  25.887  1.00  0.00     0.000 A 
ENDBRANCH  78  85
ENDBRANCH  77  78
BRANCH  77  91
ATOM     91  C   UNL A   1      34.914  23.998  24.180  1.00  0.00    -0.035 A 
ATOM     92  C   UNL A   1      35.540  23.235  23.183  1.00  0.00     0.004 A 
ATOM     93  C   UNL A   1      35.586  24.113  25.411  1.00  0.00     0.004 A 
ATOM     94  C   UNL A   1      36.782  22.627  23.386  1.00  0.00     0.000 A 
ATOM     95  C   UNL A   1      36.829  23.503  25.620  1.00  0.00     0.000 A 
ATOM     96  C   UNL A   1      37.430  22.762  24.607  1.00  0.00     0.000 A 
ENDBRANCH  77  91
ENDBRANCH  74  77
ENDBRANCH  72  73
ENDBRANCH  71  72
ENDBRANCH   1  71
TORSDOF 17
ENDMDL
