MODEL 1
REMARK VINA RESULT:     -11.5      0.000      0.000
REMARK SMILES C[C@@H]1CC[C@H]([N@@H+](CC(=O)NCCCNC(=O)c2ccc(-c3c4nc(c(-c5cccc(S(=O)(=O)[O-])c5F)c5ccc([nH]5)c(-c5cccc(S(=O)(=O)[O-])c5F)c5nc(c(-c6cccc(S(=O)(=O)[O-])c6F)c6ccc3[nH]6)C=C5)C=C4)cc2)CC(F)(F)F)C[C@@H]1C
REMARK SMILES IDX 12 1 11 2 10 3 8 4 9 5 7 7 6 8 5 10 1 11 2 12 3 13 86 14
REMARK SMILES IDX 4 15 85 16 87 17 80 18 81 19 82 20 83 21 84 22 13 23 14 24
REMARK SMILES IDX 15 25 16 27 17 28 18 29 79 30 19 31 78 32 20 33 21 34 22 35
REMARK SMILES IDX 72 36 23 37 77 38 71 39 73 40 24 41 76 42 70 43 69 44 25 46
REMARK SMILES IDX 57 47 37 48 56 49 38 50 41 51 55 52 74 53 39 54 40 55 54 57
REMARK SMILES IDX 75 58 42 59 26 60 27 61 35 62 28 63 30 64 36 65 29 66 31 67
REMARK SMILES IDX 32 68 33 69 34 70 58 71 59 72 67 73 60 74 62 75 68 76 61 77
REMARK SMILES IDX 63 78 64 79 65 80 66 81 43 82 44 83 52 84 45 85 47 86 53 87
REMARK SMILES IDX 46 88 48 89 49 90 50 91 51 92
REMARK H PARENT 10 6 6 9 14 26 73 45 41 56
REMARK Flexibility Score: inf
ROOT
ATOM      1  C   UNL A   1      33.012  29.128  24.268  1.00  0.00     0.042 C 
ENDROOT
BRANCH   1   2
ATOM      2  C   UNL A   1      33.806  28.088  23.437  1.00  0.00     0.118 C 
BRANCH   2   3
ATOM      3  N   UNL A   1      33.176  27.452  22.284  1.00  0.00    -0.351 N 
ATOM      4  C   UNL A   1      32.765  26.158  22.048  1.00  0.00     0.275 C 
ATOM      5  O   UNL A   1      31.835  26.024  21.245  1.00  0.00    -0.269 OA
ATOM      6  H   UNL A   1      33.013  28.065  21.531  1.00  0.00     0.163 HD
BRANCH   4   7
ATOM      7  C   UNL A   1      33.444  24.907  22.672  1.00  0.00     0.364 C 
BRANCH   7   8
ATOM      8  N   UNL A   1      33.208  24.695  24.137  1.00  0.00    -0.317 N 
ATOM      9  H   UNL A   1      33.511  25.565  24.576  1.00  0.00     0.349 HD
BRANCH   8  10
ATOM     10  C   UNL A   1      34.073  23.657  24.682  1.00  0.00     0.184 C 
ATOM     11  C   UNL A   1      37.268  21.322  24.553  1.00  0.00     0.008 C 
ATOM     12  C   UNL A   1      36.168  21.754  25.515  1.00  0.00    -0.011 C 
ATOM     13  C   UNL A   1      34.766  21.276  25.029  1.00  0.00     0.010 C 
ATOM     14  C   UNL A   1      36.209  23.267  25.795  1.00  0.00    -0.006 C 
ATOM     15  C   UNL A   1      34.005  22.244  24.090  1.00  0.00     0.065 C 
ATOM     16  C   UNL A   1      35.542  24.061  24.702  1.00  0.00     0.068 C 
ATOM     17  C   UNL A   1      37.550  23.893  26.143  1.00  0.00     0.008 C 
ENDBRANCH   8  10
BRANCH   8  18
ATOM     18  C   UNL A   1      31.796  24.704  24.611  1.00  0.00     0.379 C 
BRANCH  18  19
ATOM     19  C   UNL A   1      31.094  25.801  25.463  1.00  0.00     0.438 C 
ATOM     20  F   UNL A   1      31.871  26.320  26.434  1.00  0.00    -0.165 F 
ATOM     21  F   UNL A   1      30.764  26.846  24.655  1.00  0.00    -0.165 F 
ATOM     22  F   UNL A   1      29.946  25.369  26.017  1.00  0.00    -0.165 F 
ENDBRANCH  18  19
ENDBRANCH   8  18
ENDBRANCH   7   8
ENDBRANCH   4   7
ENDBRANCH   2   3
ENDBRANCH   1   2
BRANCH   1  23
ATOM     23  C   UNL A   1      33.296  29.424  25.757  1.00  0.00     0.118 C 
BRANCH  23  24
ATOM     24  N   UNL A   1      32.786  30.637  26.348  1.00  0.00    -0.352 N 
ATOM     25  C   UNL A   1      33.483  31.454  27.229  1.00  0.00     0.251 C 
ATOM     26  H   UNL A   1      31.871  30.907  26.108  1.00  0.00     0.163 HD
ATOM     27  O   UNL A   1      32.998  32.527  27.576  1.00  0.00    -0.269 OA
BRANCH  25  28
ATOM     28  C   UNL A   1      34.810  31.045  27.784  1.00  0.00     0.039 A 
ATOM     29  C   UNL A   1      34.968  29.764  28.315  1.00  0.00     0.014 A 
ATOM     30  C   UNL A   1      35.861  31.955  27.913  1.00  0.00     0.014 A 
ATOM     31  C   UNL A   1      36.176  29.394  28.942  1.00  0.00     0.010 A 
ATOM     32  C   UNL A   1      37.092  31.564  28.486  1.00  0.00     0.010 A 
ATOM     33  C   UNL A   1      37.267  30.280  29.030  1.00  0.00    -0.014 A 
BRANCH  33  34
ATOM     34  C   UNL A   1      38.551  29.851  29.695  1.00  0.00     0.031 A 
ATOM     35  C   UNL A   1      38.970  30.383  31.053  1.00  0.00     0.074 A 
ATOM     36  C   UNL A   1      39.374  28.968  29.087  1.00  0.00     0.049 A 
ATOM     37  N   UNL A   1      40.000  30.043  31.794  1.00  0.00    -0.248 NA
ATOM     38  C   UNL A   1      38.135  31.433  31.652  1.00  0.00     0.031 C 
ATOM     39  C   UNL A   1      39.169  28.408  27.751  1.00  0.00     0.029 A 
ATOM     40  N   UNL A   1      40.554  28.390  29.506  1.00  0.00    -0.354 N 
ATOM     41  C   UNL A   1      39.949  30.848  32.931  1.00  0.00     0.074 A 
ATOM     42  C   UNL A   1      38.800  31.715  32.764  1.00  0.00     0.031 C 
ATOM     43  C   UNL A   1      40.172  27.560  27.468  1.00  0.00     0.029 A 
ATOM     44  C   UNL A   1      41.111  27.526  28.589  1.00  0.00     0.049 A 
ATOM     45  H   UNL A   1      40.962  28.578  30.383  1.00  0.00     0.167 HD
ATOM     46  C   UNL A   1      40.753  30.856  34.025  1.00  0.00     0.034 A 
ATOM     47  C   UNL A   1      42.239  26.786  28.630  1.00  0.00     0.034 A 
ATOM     48  C   UNL A   1      41.883  29.982  34.226  1.00  0.00     0.049 A 
ATOM     49  C   UNL A   1      43.107  26.794  29.863  1.00  0.00     0.074 A 
ATOM     50  C   UNL A   1      42.695  29.869  35.344  1.00  0.00     0.029 A 
ATOM     51  N   UNL A   1      42.376  29.087  33.292  1.00  0.00    -0.354 N 
ATOM     52  N   UNL A   1      42.930  27.434  30.992  1.00  0.00    -0.248 NA
ATOM     53  C   UNL A   1      44.309  25.943  29.842  1.00  0.00     0.031 C 
ATOM     54  C   UNL A   1      43.697  28.930  35.074  1.00  0.00     0.029 A 
ATOM     55  C   UNL A   1      43.488  28.431  33.800  1.00  0.00     0.049 A 
ATOM     56  H   UNL A   1      41.994  28.938  32.397  1.00  0.00     0.167 HD
ATOM     57  C   UNL A   1      43.974  27.037  31.824  1.00  0.00     0.074 A 
ATOM     58  C   UNL A   1      44.766  26.082  31.079  1.00  0.00     0.031 C 
ATOM     59  C   UNL A   1      44.253  27.440  33.088  1.00  0.00     0.034 A 
BRANCH  46  60
ATOM     60  C   UNL A   1      40.415  31.813  35.145  1.00  0.00     0.023 A 
ATOM     61  C   UNL A   1      41.134  33.021  35.265  1.00  0.00     0.012 A 
ATOM     62  C   UNL A   1      39.333  31.568  36.015  1.00  0.00     0.148 A 
ATOM     63  C   UNL A   1      40.810  33.948  36.255  1.00  0.00     0.002 A 
ATOM     64  C   UNL A   1      38.988  32.518  36.972  1.00  0.00     0.091 A 
ATOM     65  F   UNL A   1      38.661  30.414  35.893  1.00  0.00    -0.205 F 
ATOM     66  C   UNL A   1      39.733  33.702  37.101  1.00  0.00     0.022 A 
BRANCH  64  67
ATOM     67  S   UNL A   1      37.565  32.337  38.056  1.00  0.00     0.127 S 
ATOM     68  O   UNL A   1      36.539  33.077  37.322  1.00  0.00    -0.237 OA
ATOM     69  O   UNL A   1      37.373  30.887  38.075  1.00  0.00    -0.237 OA
ATOM     70  O   UNL A   1      37.958  32.914  39.333  1.00  0.00    -0.744 OA
ENDBRANCH  64  67
ENDBRANCH  46  60
BRANCH  47  71
ATOM     71  C   UNL A   1      42.600  25.912  27.472  1.00  0.00     0.023 A 
ATOM     72  C   UNL A   1      43.422  26.421  26.445  1.00  0.00     0.012 A 
ATOM     73  C   UNL A   1      42.141  24.584  27.387  1.00  0.00     0.148 A 
ATOM     74  C   UNL A   1      43.750  25.634  25.340  1.00  0.00     0.002 A 
ATOM     75  C   UNL A   1      42.521  23.787  26.315  1.00  0.00     0.091 A 
ATOM     76  F   UNL A   1      41.346  24.125  28.364  1.00  0.00    -0.205 F 
ATOM     77  C   UNL A   1      43.310  24.315  25.280  1.00  0.00     0.022 A 
BRANCH  75  78
ATOM     78  S   UNL A   1      42.116  22.039  26.226  1.00  0.00     0.127 S 
ATOM     79  O   UNL A   1      42.938  21.599  25.099  1.00  0.00    -0.237 OA
ATOM     80  O   UNL A   1      42.565  21.561  27.536  1.00  0.00    -0.237 OA
ATOM     81  O   UNL A   1      40.679  21.977  26.025  1.00  0.00    -0.744 OA
ENDBRANCH  75  78
ENDBRANCH  47  71
BRANCH  59  82
ATOM     82  C   UNL A   1      45.446  26.829  33.784  1.00  0.00     0.023 A 
ATOM     83  C   UNL A   1      46.697  27.479  33.742  1.00  0.00     0.012 A 
ATOM     84  C   UNL A   1      45.313  25.645  34.538  1.00  0.00     0.148 A 
ATOM     85  C   UNL A   1      47.800  26.944  34.410  1.00  0.00     0.002 A 
ATOM     86  C   UNL A   1      46.404  25.144  35.240  1.00  0.00     0.091 A 
ATOM     87  F   UNL A   1      44.123  25.028  34.553  1.00  0.00    -0.205 F 
ATOM     88  C   UNL A   1      47.651  25.785  35.167  1.00  0.00     0.022 A 
BRANCH  86  89
ATOM     89  S   UNL A   1      46.287  23.709  36.316  1.00  0.00     0.127 S 
ATOM     90  O   UNL A   1      45.243  24.124  37.252  1.00  0.00    -0.237 OA
ATOM     91  O   UNL A   1      45.885  22.654  35.385  1.00  0.00    -0.237 OA
ATOM     92  O   UNL A   1      47.611  23.532  36.896  1.00  0.00    -0.744 OA
ENDBRANCH  86  89
ENDBRANCH  59  82
ENDBRANCH  33  34
ENDBRANCH  25  28
ENDBRANCH  23  24
ENDBRANCH   1  23
TORSDOF 17
ENDMDL
MODEL 2
REMARK VINA RESULT:     -11.4      1.762      2.163
REMARK SMILES C[C@@H]1CC[C@H]([N@@H+](CC(=O)NCCCNC(=O)c2ccc(-c3c4nc(c(-c5cccc(S(=O)(=O)[O-])c5F)c5ccc([nH]5)c(-c5cccc(S(=O)(=O)[O-])c5F)c5nc(c(-c6cccc(S(=O)(=O)[O-])c6F)c6ccc3[nH]6)C=C5)C=C4)cc2)CC(F)(F)F)C[C@@H]1C
REMARK SMILES IDX 12 1 11 2 10 3 8 4 9 5 7 7 6 8 5 10 1 11 2 12 3 13 86 14
REMARK SMILES IDX 4 15 85 16 87 17 80 18 81 19 82 20 83 21 84 22 13 23 14 24
REMARK SMILES IDX 15 25 16 27 17 28 18 29 79 30 19 31 78 32 20 33 21 34 22 35
REMARK SMILES IDX 72 36 23 37 77 38 71 39 73 40 24 41 76 42 70 43 69 44 25 46
REMARK SMILES IDX 57 47 37 48 56 49 38 50 41 51 55 52 74 53 39 54 40 55 54 57
REMARK SMILES IDX 75 58 42 59 26 60 27 61 35 62 28 63 30 64 36 65 29 66 31 67
REMARK SMILES IDX 32 68 33 69 34 70 58 71 59 72 67 73 60 74 62 75 68 76 61 77
REMARK SMILES IDX 63 78 64 79 65 80 66 81 43 82 44 83 52 84 45 85 47 86 53 87
REMARK SMILES IDX 46 88 48 89 49 90 50 91 51 92
REMARK H PARENT 10 6 6 9 14 26 73 45 41 56
REMARK Flexibility Score: inf
ROOT
ATOM      1  C   UNL A   1      32.640  28.709  23.753  1.00  0.00     0.042 C 
ENDROOT
BRANCH   1   2
ATOM      2  C   UNL A   1      31.272  27.983  23.813  1.00  0.00     0.118 C 
BRANCH   2   3
ATOM      3  N   UNL A   1      30.749  27.534  25.100  1.00  0.00    -0.351 N 
ATOM      4  C   UNL A   1      31.312  26.810  26.128  1.00  0.00     0.275 C 
ATOM      5  O   UNL A   1      30.848  27.021  27.255  1.00  0.00    -0.269 OA
ATOM      6  H   UNL A   1      29.815  27.798  25.264  1.00  0.00     0.163 HD
BRANCH   4   7
ATOM      7  C   UNL A   1      32.414  25.733  25.928  1.00  0.00     0.364 C 
BRANCH   7   8
ATOM      8  N   UNL A   1      31.960  24.306  26.013  1.00  0.00    -0.317 N 
ATOM      9  H   UNL A   1      31.398  24.265  26.864  1.00  0.00     0.349 HD
BRANCH   8  10
ATOM     10  C   UNL A   1      33.075  23.394  26.233  1.00  0.00     0.184 C 
ATOM     11  C   UNL A   1      35.892  20.919  24.964  1.00  0.00     0.008 C 
ATOM     12  C   UNL A   1      35.454  21.650  26.227  1.00  0.00    -0.011 C 
ATOM     13  C   UNL A   1      34.064  21.148  26.723  1.00  0.00     0.010 C 
ATOM     14  C   UNL A   1      35.499  23.179  26.053  1.00  0.00    -0.006 C 
ATOM     15  C   UNL A   1      32.830  21.884  26.148  1.00  0.00     0.065 C 
ATOM     16  C   UNL A   1      34.276  23.701  25.346  1.00  0.00     0.068 C 
ATOM     17  C   UNL A   1      36.749  23.792  25.443  1.00  0.00     0.008 C 
ENDBRANCH   8  10
BRANCH   8  18
ATOM     18  C   UNL A   1      30.914  23.862  25.051  1.00  0.00     0.379 C 
BRANCH  18  19
ATOM     19  C   UNL A   1      31.034  23.773  23.501  1.00  0.00     0.438 C 
ATOM     20  F   UNL A   1      31.302  22.534  23.044  1.00  0.00    -0.165 F 
ATOM     21  F   UNL A   1      29.842  24.123  22.944  1.00  0.00    -0.165 F 
ATOM     22  F   UNL A   1      31.953  24.622  23.005  1.00  0.00    -0.165 F 
ENDBRANCH  18  19
ENDBRANCH   8  18
ENDBRANCH   7   8
ENDBRANCH   4   7
ENDBRANCH   2   3
ENDBRANCH   1   2
BRANCH   1  23
ATOM     23  C   UNL A   1      33.271  29.439  24.960  1.00  0.00     0.118 C 
BRANCH  23  24
ATOM     24  N   UNL A   1      32.503  30.437  25.664  1.00  0.00    -0.352 N 
ATOM     25  C   UNL A   1      32.954  31.177  26.749  1.00  0.00     0.251 C 
ATOM     26  H   UNL A   1      31.586  30.606  25.349  1.00  0.00     0.163 HD
ATOM     27  O   UNL A   1      32.260  32.086  27.195  1.00  0.00    -0.269 OA
BRANCH  25  28
ATOM     28  C   UNL A   1      34.265  30.877  27.403  1.00  0.00     0.039 A 
ATOM     29  C   UNL A   1      34.529  29.582  27.853  1.00  0.00     0.014 A 
ATOM     30  C   UNL A   1      35.181  31.888  27.703  1.00  0.00     0.014 A 
ATOM     31  C   UNL A   1      35.710  29.302  28.569  1.00  0.00     0.010 A 
ATOM     32  C   UNL A   1      36.393  31.593  28.367  1.00  0.00     0.010 A 
ATOM     33  C   UNL A   1      36.673  30.296  28.831  1.00  0.00    -0.014 A 
BRANCH  33  34
ATOM     34  C   UNL A   1      37.933  29.962  29.588  1.00  0.00     0.031 A 
ATOM     35  C   UNL A   1      38.200  30.501  30.982  1.00  0.00     0.074 A 
ATOM     36  C   UNL A   1      38.871  29.161  29.036  1.00  0.00     0.049 A 
ATOM     37  N   UNL A   1      39.196  30.234  31.797  1.00  0.00    -0.248 NA
ATOM     38  C   UNL A   1      37.237  31.468  31.527  1.00  0.00     0.031 C 
ATOM     39  C   UNL A   1      38.817  28.611  27.681  1.00  0.00     0.029 A 
ATOM     40  N   UNL A   1      40.060  28.675  29.539  1.00  0.00    -0.354 N 
ATOM     41  C   UNL A   1      38.990  31.010  32.936  1.00  0.00     0.074 A 
ATOM     42  C   UNL A   1      37.789  31.782  32.691  1.00  0.00     0.031 C 
ATOM     43  C   UNL A   1      39.906  27.854  27.467  1.00  0.00     0.029 A 
ATOM     44  C   UNL A   1      40.756  27.877  28.657  1.00  0.00     0.049 A 
ATOM     45  H   UNL A   1      40.383  28.880  30.447  1.00  0.00     0.167 HD
ATOM     46  C   UNL A   1      39.705  31.064  34.089  1.00  0.00     0.034 A 
ATOM     47  C   UNL A   1      41.936  27.232  28.777  1.00  0.00     0.034 A 
ATOM     48  C   UNL A   1      40.886  30.284  34.367  1.00  0.00     0.049 A 
ATOM     49  C   UNL A   1      42.703  27.289  30.074  1.00  0.00     0.074 A 
ATOM     50  C   UNL A   1      41.616  30.217  35.543  1.00  0.00     0.029 A 
ATOM     51  N   UNL A   1      41.522  29.449  33.463  1.00  0.00    -0.354 N 
ATOM     52  N   UNL A   1      42.387  27.891  31.194  1.00  0.00    -0.248 NA
ATOM     53  C   UNL A   1      43.970  26.541  30.136  1.00  0.00     0.031 C 
ATOM     54  C   UNL A   1      42.710  29.369  35.341  1.00  0.00     0.029 A 
ATOM     55  C   UNL A   1      42.643  28.879  34.048  1.00  0.00     0.049 A 
ATOM     56  H   UNL A   1      41.223  29.286  32.539  1.00  0.00     0.167 HD
ATOM     57  C   UNL A   1      43.393  27.566  32.100  1.00  0.00     0.074 A 
ATOM     58  C   UNL A   1      44.317  26.694  31.406  1.00  0.00     0.031 C 
ATOM     59  C   UNL A   1      43.540  27.968  33.387  1.00  0.00     0.034 A 
BRANCH  46  60
ATOM     60  C   UNL A   1      39.203  31.969  35.191  1.00  0.00     0.023 A 
ATOM     61  C   UNL A   1      38.267  31.474  36.122  1.00  0.00     0.012 A 
ATOM     62  C   UNL A   1      39.723  33.269  35.364  1.00  0.00     0.148 A 
ATOM     63  C   UNL A   1      37.824  32.267  37.180  1.00  0.00     0.002 A 
ATOM     64  C   UNL A   1      39.310  34.039  36.448  1.00  0.00     0.091 A 
ATOM     65  F   UNL A   1      40.609  33.728  34.469  1.00  0.00    -0.205 F 
ATOM     66  C   UNL A   1      38.353  33.544  37.349  1.00  0.00     0.022 A 
BRANCH  64  67
ATOM     67  S   UNL A   1      39.991  35.664  36.804  1.00  0.00     0.127 S 
ATOM     68  O   UNL A   1      41.420  35.370  36.901  1.00  0.00    -0.237 OA
ATOM     69  O   UNL A   1      39.606  36.428  35.617  1.00  0.00    -0.237 OA
ATOM     70  O   UNL A   1      39.358  36.102  38.040  1.00  0.00    -0.744 OA
ENDBRANCH  64  67
ENDBRANCH  46  60
BRANCH  47  71
ATOM     71  C   UNL A   1      42.457  26.414  27.640  1.00  0.00     0.023 A 
ATOM     72  C   UNL A   1      43.363  26.989  26.725  1.00  0.00     0.012 A 
ATOM     73  C   UNL A   1      42.065  25.073  27.465  1.00  0.00     0.148 A 
ATOM     74  C   UNL A   1      43.841  26.253  25.639  1.00  0.00     0.002 A 
ATOM     75  C   UNL A   1      42.593  24.328  26.418  1.00  0.00     0.091 A 
ATOM     76  F   UNL A   1      41.190  24.550  28.336  1.00  0.00    -0.205 F 
ATOM     77  C   UNL A   1      43.466  24.920  25.493  1.00  0.00     0.022 A 
BRANCH  75  78
ATOM     78  S   UNL A   1      42.273  22.570  26.234  1.00  0.00     0.127 S 
ATOM     79  O   UNL A   1      40.812  22.539  26.152  1.00  0.00    -0.237 OA
ATOM     80  O   UNL A   1      42.964  22.270  24.976  1.00  0.00    -0.237 OA
ATOM     81  O   UNL A   1      42.856  21.937  27.403  1.00  0.00    -0.744 OA
ENDBRANCH  75  78
ENDBRANCH  47  71
BRANCH  59  82
ATOM     82  C   UNL A   1      44.723  27.444  34.165  1.00  0.00     0.023 A 
ATOM     83  C   UNL A   1      45.944  28.149  34.153  1.00  0.00     0.012 A 
ATOM     84  C   UNL A   1      44.606  26.290  34.967  1.00  0.00     0.148 A 
ATOM     85  C   UNL A   1      47.036  27.697  34.896  1.00  0.00     0.002 A 
ATOM     86  C   UNL A   1      45.683  25.872  35.742  1.00  0.00     0.091 A 
ATOM     87  F   UNL A   1      43.445  25.619  34.954  1.00  0.00    -0.205 F 
ATOM     88  C   UNL A   1      46.902  26.566  35.698  1.00  0.00     0.022 A 
BRANCH  86  89
ATOM     89  S   UNL A   1      45.576  24.482  36.876  1.00  0.00     0.127 S 
ATOM     90  O   UNL A   1      45.188  23.394  35.980  1.00  0.00    -0.237 OA
ATOM     91  O   UNL A   1      46.944  24.392  37.388  1.00  0.00    -0.237 OA
ATOM     92  O   UNL A   1      44.581  24.853  37.874  1.00  0.00    -0.744 OA
ENDBRANCH  86  89
ENDBRANCH  59  82
ENDBRANCH  33  34
ENDBRANCH  25  28
ENDBRANCH  23  24
ENDBRANCH   1  23
TORSDOF 17
ENDMDL
MODEL 3
REMARK VINA RESULT:     -11.3      5.579      8.497
REMARK SMILES C[C@@H]1CC[C@H]([N@@H+](CC(=O)NCCCNC(=O)c2ccc(-c3c4nc(c(-c5cccc(S(=O)(=O)[O-])c5F)c5ccc([nH]5)c(-c5cccc(S(=O)(=O)[O-])c5F)c5nc(c(-c6cccc(S(=O)(=O)[O-])c6F)c6ccc3[nH]6)C=C5)C=C4)cc2)CC(F)(F)F)C[C@@H]1C
REMARK SMILES IDX 12 1 11 2 10 3 8 4 9 5 7 7 6 8 5 10 1 11 2 12 3 13 86 14
REMARK SMILES IDX 4 15 85 16 87 17 80 18 81 19 82 20 83 21 84 22 13 23 14 24
REMARK SMILES IDX 15 25 16 27 17 28 18 29 79 30 19 31 78 32 20 33 21 34 22 35
REMARK SMILES IDX 72 36 23 37 77 38 71 39 73 40 24 41 76 42 70 43 69 44 25 46
REMARK SMILES IDX 57 47 37 48 56 49 38 50 41 51 55 52 74 53 39 54 40 55 54 57
REMARK SMILES IDX 75 58 42 59 26 60 27 61 35 62 28 63 30 64 36 65 29 66 31 67
REMARK SMILES IDX 32 68 33 69 34 70 58 71 59 72 67 73 60 74 62 75 68 76 61 77
REMARK SMILES IDX 63 78 64 79 65 80 66 81 43 82 44 83 52 84 45 85 47 86 53 87
REMARK SMILES IDX 46 88 48 89 49 90 50 91 51 92
REMARK H PARENT 10 6 6 9 14 26 73 45 41 56
REMARK Flexibility Score: inf
ROOT
ATOM      1  C   UNL A   1      37.788  19.644  24.779  1.00  0.00     0.042 C 
ENDROOT
BRANCH   1   2
ATOM      2  C   UNL A   1      36.278  19.938  24.969  1.00  0.00     0.118 C 
BRANCH   2   3
ATOM      3  N   UNL A   1      35.837  21.304  25.234  1.00  0.00    -0.351 N 
ATOM      4  C   UNL A   1      34.990  21.838  26.181  1.00  0.00     0.275 C 
ATOM      5  O   UNL A   1      35.202  23.015  26.494  1.00  0.00    -0.269 OA
ATOM      6  H   UNL A   1      36.215  21.971  24.617  1.00  0.00     0.163 HD
BRANCH   4   7
ATOM      7  C   UNL A   1      33.787  21.072  26.797  1.00  0.00     0.364 C 
BRANCH   7   8
ATOM      8  N   UNL A   1      32.518  21.092  25.998  1.00  0.00    -0.317 N 
ATOM      9  H   UNL A   1      31.778  20.949  26.686  1.00  0.00     0.349 HD
BRANCH   8  10
ATOM     10  C   UNL A   1      32.432  19.957  25.088  1.00  0.00     0.184 C 
ATOM     11  C   UNL A   1      34.023  16.950  23.063  1.00  0.00     0.008 C 
ATOM     12  C   UNL A   1      32.661  17.511  23.456  1.00  0.00    -0.011 C 
ATOM     13  C   UNL A   1      32.417  18.910  22.814  1.00  0.00     0.010 C 
ATOM     14  C   UNL A   1      32.459  17.520  24.981  1.00  0.00    -0.006 C 
ATOM     15  C   UNL A   1      32.898  20.130  23.637  1.00  0.00     0.065 C 
ATOM     16  C   UNL A   1      33.118  18.709  25.630  1.00  0.00     0.068 C 
ATOM     17  C   UNL A   1      32.798  16.256  25.755  1.00  0.00     0.008 C 
ENDBRANCH   8  10
BRANCH   8  18
ATOM     18  C   UNL A   1      32.062  22.408  25.472  1.00  0.00     0.379 C 
BRANCH  18  19
ATOM     19  C   UNL A   1      30.877  23.273  25.992  1.00  0.00     0.438 C 
ATOM     20  F   UNL A   1      30.287  24.021  25.039  1.00  0.00    -0.165 F 
ATOM     21  F   UNL A   1      29.905  22.450  26.471  1.00  0.00    -0.165 F 
ATOM     22  F   UNL A   1      31.234  24.078  27.010  1.00  0.00    -0.165 F 
ENDBRANCH  18  19
ENDBRANCH   8  18
ENDBRANCH   7   8
ENDBRANCH   4   7
ENDBRANCH   2   3
ENDBRANCH   1   2
BRANCH   1  23
ATOM     23  C   UNL A   1      38.863  19.990  25.833  1.00  0.00     0.118 C 
BRANCH  23  24
ATOM     24  N   UNL A   1      40.023  19.143  25.967  1.00  0.00    -0.352 N 
ATOM     25  C   UNL A   1      41.264  19.553  26.437  1.00  0.00     0.251 C 
ATOM     26  H   UNL A   1      39.926  18.200  25.705  1.00  0.00     0.163 HD
ATOM     27  O   UNL A   1      42.147  18.721  26.625  1.00  0.00    -0.269 OA
BRANCH  25  28
ATOM     28  C   UNL A   1      41.558  20.995  26.700  1.00  0.00     0.039 A 
ATOM     29  C   UNL A   1      41.667  21.882  25.627  1.00  0.00     0.014 A 
ATOM     30  C   UNL A   1      41.866  21.457  27.981  1.00  0.00     0.014 A 
ATOM     31  C   UNL A   1      42.051  23.221  25.844  1.00  0.00     0.010 A 
ATOM     32  C   UNL A   1      42.190  22.814  28.204  1.00  0.00     0.010 A 
ATOM     33  C   UNL A   1      42.309  23.719  27.136  1.00  0.00    -0.014 A 
BRANCH  33  34
ATOM     34  C   UNL A   1      42.705  25.160  27.336  1.00  0.00     0.031 A 
ATOM     35  C   UNL A   1      41.770  26.169  27.976  1.00  0.00     0.074 A 
ATOM     36  C   UNL A   1      43.924  25.595  26.945  1.00  0.00     0.049 A 
ATOM     37  N   UNL A   1      41.997  27.423  28.297  1.00  0.00    -0.248 NA
ATOM     38  C   UNL A   1      40.405  25.721  28.286  1.00  0.00     0.031 C 
ATOM     39  C   UNL A   1      44.924  24.786  26.249  1.00  0.00     0.029 A 
ATOM     40  N   UNL A   1      44.529  26.829  27.067  1.00  0.00    -0.354 N 
ATOM     41  C   UNL A   1      40.806  27.916  28.825  1.00  0.00     0.074 A 
ATOM     42  C   UNL A   1      39.849  26.831  28.752  1.00  0.00     0.031 C 
ATOM     43  C   UNL A   1      46.018  25.532  26.022  1.00  0.00     0.029 A 
ATOM     44  C   UNL A   1      45.798  26.884  26.532  1.00  0.00     0.049 A 
ATOM     45  H   UNL A   1      44.094  27.601  27.496  1.00  0.00     0.167 HD
ATOM     46  C   UNL A   1      40.529  29.138  29.350  1.00  0.00     0.034 A 
ATOM     47  C   UNL A   1      46.691  27.894  26.456  1.00  0.00     0.034 A 
ATOM     48  C   UNL A   1      41.474  30.222  29.460  1.00  0.00     0.049 A 
ATOM     49  C   UNL A   1      46.371  29.237  27.064  1.00  0.00     0.074 A 
ATOM     50  C   UNL A   1      41.296  31.460  30.058  1.00  0.00     0.029 A 
ATOM     51  N   UNL A   1      42.763  30.213  28.954  1.00  0.00    -0.354 N 
ATOM     52  N   UNL A   1      45.299  29.614  27.714  1.00  0.00    -0.248 NA
ATOM     53  C   UNL A   1      47.404  30.281  26.960  1.00  0.00     0.031 C 
ATOM     54  C   UNL A   1      42.464  32.211  29.884  1.00  0.00     0.029 A 
ATOM     55  C   UNL A   1      43.384  31.427  29.209  1.00  0.00     0.049 A 
ATOM     56  H   UNL A   1      43.177  29.456  28.481  1.00  0.00     0.167 HD
ATOM     57  C   UNL A   1      45.542  30.921  28.128  1.00  0.00     0.074 A 
ATOM     58  C   UNL A   1      46.874  31.264  27.676  1.00  0.00     0.031 C 
ATOM     59  C   UNL A   1      44.727  31.762  28.811  1.00  0.00     0.034 A 
BRANCH  46  60
ATOM     60  C   UNL A   1      39.145  29.371  29.909  1.00  0.00     0.023 A 
ATOM     61  C   UNL A   1      38.856  28.974  31.231  1.00  0.00     0.012 A 
ATOM     62  C   UNL A   1      38.163  30.063  29.169  1.00  0.00     0.148 A 
ATOM     63  C   UNL A   1      37.604  29.223  31.793  1.00  0.00     0.002 A 
ATOM     64  C   UNL A   1      36.932  30.347  29.752  1.00  0.00     0.091 A 
ATOM     65  F   UNL A   1      38.450  30.431  27.912  1.00  0.00    -0.205 F 
ATOM     66  C   UNL A   1      36.647  29.916  31.058  1.00  0.00     0.022 A 
BRANCH  64  67
ATOM     67  S   UNL A   1      35.660  31.309  28.922  1.00  0.00     0.127 S 
ATOM     68  O   UNL A   1      34.958  30.276  28.161  1.00  0.00    -0.237 OA
ATOM     69  O   UNL A   1      34.902  31.855  30.048  1.00  0.00    -0.237 OA
ATOM     70  O   UNL A   1      36.364  32.303  28.125  1.00  0.00    -0.744 OA
ENDBRANCH  64  67
ENDBRANCH  46  60
BRANCH  47  71
ATOM     71  C   UNL A   1      48.023  27.665  25.817  1.00  0.00     0.023 A 
ATOM     72  C   UNL A   1      49.139  27.363  26.624  1.00  0.00     0.012 A 
ATOM     73  C   UNL A   1      48.186  27.738  24.421  1.00  0.00     0.148 A 
ATOM     74  C   UNL A   1      50.399  27.172  26.054  1.00  0.00     0.002 A 
ATOM     75  C   UNL A   1      49.430  27.486  23.855  1.00  0.00     0.091 A 
ATOM     76  F   UNL A   1      47.117  28.043  23.672  1.00  0.00    -0.205 F 
ATOM     77  C   UNL A   1      50.542  27.223  24.670  1.00  0.00     0.022 A 
BRANCH  75  78
ATOM     78  S   UNL A   1      49.675  27.394  22.078  1.00  0.00     0.127 S 
ATOM     79  O   UNL A   1      51.059  26.926  21.992  1.00  0.00    -0.237 OA
ATOM     80  O   UNL A   1      48.667  26.404  21.687  1.00  0.00    -0.237 OA
ATOM     81  O   UNL A   1      49.427  28.733  21.574  1.00  0.00    -0.744 OA
ENDBRANCH  75  78
ENDBRANCH  47  71
BRANCH  59  82
ATOM     82  C   UNL A   1      45.250  33.135  29.159  1.00  0.00     0.023 A 
ATOM     83  C   UNL A   1      45.897  33.351  30.393  1.00  0.00     0.012 A 
ATOM     84  C   UNL A   1      45.162  34.196  28.236  1.00  0.00     0.148 A 
ATOM     85  C   UNL A   1      46.418  34.606  30.714  1.00  0.00     0.002 A 
ATOM     86  C   UNL A   1      45.724  35.431  28.542  1.00  0.00     0.091 A 
ATOM     87  F   UNL A   1      44.526  33.981  27.074  1.00  0.00    -0.205 F 
ATOM     88  C   UNL A   1      46.341  35.641  29.785  1.00  0.00     0.022 A 
BRANCH  86  89
ATOM     89  S   UNL A   1      45.757  36.796  27.374  1.00  0.00     0.127 S 
ATOM     90  O   UNL A   1      46.856  37.608  27.895  1.00  0.00    -0.237 OA
ATOM     91  O   UNL A   1      46.047  36.117  26.110  1.00  0.00    -0.237 OA
ATOM     92  O   UNL A   1      44.440  37.413  27.440  1.00  0.00    -0.744 OA
ENDBRANCH  86  89
ENDBRANCH  59  82
ENDBRANCH  33  34
ENDBRANCH  25  28
ENDBRANCH  23  24
ENDBRANCH   1  23
TORSDOF 17
ENDMDL
