MODEL 1
REMARK VINA RESULT:     -12.4      0.000      0.000
REMARK SMILES C[C@@H](C(=O)NCCCNC(=O)c1ccc(-c2c3nc(c(-c4cccc(S(=O)(=O)[O-])c4F)c4ccc([nH]4)c(-c4cccc(S(=O)(=O)[O-])c4F)c4nc(c(-c5cccc(S(=O)(=O)[O-])c5F)c5ccc2[nH]5)C=C4)C=C3)cc1)N(C)c1ccc(C(N)=O)nn1
REMARK SMILES IDX 7 1 6 2 5 3 3 4 4 5 2 7 1 8 75 9 76 10 77 11 78 12 85 13
REMARK SMILES IDX 79 14 84 15 80 16 81 17 82 18 83 19 8 22 9 23 10 24 11 26
REMARK SMILES IDX 12 27 13 28 74 29 14 30 73 31 15 32 16 33 17 34 67 35 18 36
REMARK SMILES IDX 72 37 66 38 68 39 19 40 71 41 65 42 64 43 20 45 52 46 32 47
REMARK SMILES IDX 51 48 33 49 36 50 50 51 69 52 34 53 35 54 49 56 70 57 37 58
REMARK SMILES IDX 21 59 22 60 30 61 23 62 25 63 31 64 24 65 26 66 27 67 28 68
REMARK SMILES IDX 29 69 53 70 54 71 62 72 55 73 57 74 63 75 56 76 58 77 59 78
REMARK SMILES IDX 60 79 61 80 38 81 39 82 47 83 40 84 42 85 48 86 41 87 43 88
REMARK SMILES IDX 44 89 45 90 46 91
REMARK H PARENT 5 6 82 20 82 21 9 25 68 44 36 55
REMARK Flexibility Score: inf
ROOT
ATOM      1  C   UNL A   1      36.261  21.787  25.940  1.00  0.00     0.042 C 
ENDROOT
BRANCH   1   2
ATOM      2  C   UNL A   1      35.541  23.133  25.975  1.00  0.00     0.117 C 
BRANCH   2   3
ATOM      3  N   UNL A   1      34.117  22.985  26.208  1.00  0.00    -0.354 N 
ATOM      4  C   UNL A   1      33.133  22.445  25.426  1.00  0.00     0.242 C 
ATOM      5  O   UNL A   1      32.005  22.421  25.927  1.00  0.00    -0.273 OA
ATOM      6  H   UNL A   1      33.806  23.331  27.076  1.00  0.00     0.163 HD
BRANCH   4   7
ATOM      7  C   UNL A   1      33.472  21.827  24.036  1.00  0.00     0.169 C 
ATOM      8  C   UNL A   1      33.724  22.854  22.935  1.00  0.00     0.042 C 
BRANCH   7   9
ATOM      9  N   UNL A   1      32.484  20.793  23.602  1.00  0.00    -0.346 N 
ATOM     10  C   UNL A   1      31.869  20.989  22.293  1.00  0.00     0.146 C 
BRANCH   9  11
ATOM     11  C   UNL A   1      32.606  19.452  23.981  1.00  0.00     0.151 A 
ATOM     12  C   UNL A   1      32.997  18.462  23.085  1.00  0.00     0.051 A 
ATOM     13  N   UNL A   1      32.398  19.087  25.273  1.00  0.00    -0.132 NA
ATOM     14  C   UNL A   1      33.116  17.130  23.487  1.00  0.00     0.040 A 
ATOM     15  N   UNL A   1      32.495  17.771  25.693  1.00  0.00    -0.143 NA
ATOM     16  C   UNL A   1      32.841  16.821  24.800  1.00  0.00     0.150 A 
BRANCH  16  17
ATOM     17  C   UNL A   1      32.941  15.419  25.291  1.00  0.00     0.269 C 
ATOM     18  N   UNL A   1      31.764  14.807  25.630  1.00  0.00    -0.364 N 
ATOM     19  O   UNL A   1      34.012  14.831  25.393  1.00  0.00    -0.268 OA
ATOM     20  H   UNL A   1      30.913  15.293  25.542  1.00  0.00     0.160 HD
ATOM     21  H   UNL A   1      31.769  13.880  25.961  1.00  0.00     0.160 HD
ENDBRANCH  16  17
ENDBRANCH   9  11
ENDBRANCH   7   9
ENDBRANCH   4   7
ENDBRANCH   2   3
ENDBRANCH   1   2
BRANCH   1  22
ATOM     22  C   UNL A   1      37.507  21.766  25.053  1.00  0.00     0.118 C 
BRANCH  22  23
ATOM     23  N   UNL A   1      38.483  20.771  25.479  1.00  0.00    -0.352 N 
ATOM     24  C   UNL A   1      39.670  20.922  26.155  1.00  0.00     0.251 C 
ATOM     25  H   UNL A   1      38.256  19.842  25.246  1.00  0.00     0.163 HD
ATOM     26  O   UNL A   1      40.438  19.966  26.242  1.00  0.00    -0.269 OA
BRANCH  24  27
ATOM     27  C   UNL A   1      40.041  22.222  26.756  1.00  0.00     0.039 A 
ATOM     28  C   UNL A   1      40.926  22.235  27.838  1.00  0.00     0.014 A 
ATOM     29  C   UNL A   1      39.512  23.422  26.274  1.00  0.00     0.014 A 
ATOM     30  C   UNL A   1      41.354  23.454  28.373  1.00  0.00     0.010 A 
ATOM     31  C   UNL A   1      39.986  24.638  26.767  1.00  0.00     0.010 A 
ATOM     32  C   UNL A   1      40.929  24.667  27.807  1.00  0.00    -0.014 A 
BRANCH  32  33
ATOM     33  C   UNL A   1      41.526  25.964  28.221  1.00  0.00     0.031 A 
ATOM     34  C   UNL A   1      40.690  27.028  28.878  1.00  0.00     0.074 A 
ATOM     35  C   UNL A   1      42.809  26.225  27.891  1.00  0.00     0.049 A 
ATOM     36  N   UNL A   1      41.029  28.245  29.215  1.00  0.00    -0.248 NA
ATOM     37  C   UNL A   1      39.289  26.690  29.181  1.00  0.00     0.031 C 
ATOM     38  C   UNL A   1      43.703  25.302  27.185  1.00  0.00     0.029 A 
ATOM     39  N   UNL A   1      43.572  27.354  28.064  1.00  0.00    -0.354 N 
ATOM     40  C   UNL A   1      39.879  28.835  29.728  1.00  0.00     0.074 A 
ATOM     41  C   UNL A   1      38.829  27.842  29.656  1.00  0.00     0.031 C 
ATOM     42  C   UNL A   1      44.883  25.906  26.972  1.00  0.00     0.029 A 
ATOM     43  C   UNL A   1      44.818  27.271  27.482  1.00  0.00     0.049 A 
ATOM     44  H   UNL A   1      43.259  28.146  28.557  1.00  0.00     0.167 HD
ATOM     45  C   UNL A   1      39.720  30.085  30.224  1.00  0.00     0.034 A 
ATOM     46  C   UNL A   1      45.788  28.196  27.343  1.00  0.00     0.034 A 
ATOM     47  C   UNL A   1      40.776  31.055  30.331  1.00  0.00     0.049 A 
ATOM     48  C   UNL A   1      45.578  29.571  27.917  1.00  0.00     0.074 A 
ATOM     49  C   UNL A   1      40.735  32.301  30.935  1.00  0.00     0.029 A 
ATOM     50  N   UNL A   1      42.047  30.910  29.802  1.00  0.00    -0.354 N 
ATOM     51  N   UNL A   1      44.550  30.039  28.581  1.00  0.00    -0.248 NA
ATOM     52  C   UNL A   1      46.672  30.540  27.746  1.00  0.00     0.031 C 
ATOM     53  C   UNL A   1      41.967  32.927  30.729  1.00  0.00     0.029 A 
ATOM     54  C   UNL A   1      42.787  32.057  30.030  1.00  0.00     0.049 A 
ATOM     55  H   UNL A   1      42.376  30.109  29.333  1.00  0.00     0.167 HD
ATOM     56  C   UNL A   1      44.881  31.344  28.926  1.00  0.00     0.074 A 
ATOM     57  C   UNL A   1      46.221  31.582  28.430  1.00  0.00     0.031 C 
ATOM     58  C   UNL A   1      44.136  32.271  29.576  1.00  0.00     0.034 A 
BRANCH  45  59
ATOM     59  C   UNL A   1      38.360  30.489  30.730  1.00  0.00     0.023 A 
ATOM     60  C   UNL A   1      38.018  30.254  32.076  1.00  0.00     0.012 A 
ATOM     61  C   UNL A   1      37.482  31.221  29.907  1.00  0.00     0.148 A 
ATOM     62  C   UNL A   1      36.813  30.730  32.593  1.00  0.00     0.002 A 
ATOM     63  C   UNL A   1      36.304  31.729  30.440  1.00  0.00     0.091 A 
ATOM     64  F   UNL A   1      37.824  31.420  28.626  1.00  0.00    -0.205 F 
ATOM     65  C   UNL A   1      35.965  31.479  31.781  1.00  0.00     0.022 A 
BRANCH  63  66
ATOM     66  S   UNL A   1      35.184  32.776  29.504  1.00  0.00     0.127 S 
ATOM     67  O   UNL A   1      34.202  33.142  30.525  1.00  0.00    -0.237 OA
ATOM     68  O   UNL A   1      36.063  33.867  29.086  1.00  0.00    -0.237 OA
ATOM     69  O   UNL A   1      34.670  31.951  28.420  1.00  0.00    -0.744 OA
ENDBRANCH  63  66
ENDBRANCH  45  59
BRANCH  46  70
ATOM     70  C   UNL A   1      47.056  27.860  26.632  1.00  0.00     0.023 A 
ATOM     71  C   UNL A   1      48.195  27.492  27.374  1.00  0.00     0.012 A 
ATOM     72  C   UNL A   1      47.143  27.915  25.227  1.00  0.00     0.148 A 
ATOM     73  C   UNL A   1      49.408  27.235  26.734  1.00  0.00     0.002 A 
ATOM     74  C   UNL A   1      48.336  27.595  24.592  1.00  0.00     0.091 A 
ATOM     75  F   UNL A   1      46.054  28.283  24.536  1.00  0.00    -0.205 F 
ATOM     76  C   UNL A   1      49.478  27.278  25.345  1.00  0.00     0.022 A 
BRANCH  74  77
ATOM     77  S   UNL A   1      48.467  27.485  22.805  1.00  0.00     0.127 S 
ATOM     78  O   UNL A   1      49.819  27.986  22.572  1.00  0.00    -0.237 OA
ATOM     79  O   UNL A   1      48.292  26.051  22.573  1.00  0.00    -0.237 OA
ATOM     80  O   UNL A   1      47.382  28.308  22.284  1.00  0.00    -0.744 OA
ENDBRANCH  74  77
ENDBRANCH  46  70
BRANCH  58  81
ATOM     81  C   UNL A   1      44.749  33.626  29.811  1.00  0.00     0.023 A 
ATOM     82  C   UNL A   1      45.492  33.861  30.985  1.00  0.00     0.012 A 
ATOM     83  C   UNL A   1      44.658  34.638  28.835  1.00  0.00     0.148 A 
ATOM     84  C   UNL A   1      46.111  35.092  31.196  1.00  0.00     0.002 A 
ATOM     85  C   UNL A   1      45.320  35.844  29.030  1.00  0.00     0.091 A 
ATOM     86  F   UNL A   1      43.934  34.398  27.732  1.00  0.00    -0.205 F 
ATOM     87  C   UNL A   1      46.036  36.078  30.215  1.00  0.00     0.022 A 
BRANCH  85  88
ATOM     88  S   UNL A   1      45.361  37.139  27.785  1.00  0.00     0.127 S 
ATOM     89  O   UNL A   1      46.432  37.999  28.286  1.00  0.00    -0.237 OA
ATOM     90  O   UNL A   1      45.693  36.390  26.573  1.00  0.00    -0.237 OA
ATOM     91  O   UNL A   1      44.034  37.740  27.783  1.00  0.00    -0.744 OA
ENDBRANCH  85  88
ENDBRANCH  58  81
ENDBRANCH  32  33
ENDBRANCH  24  27
ENDBRANCH  22  23
ENDBRANCH   1  22
TORSDOF 16
ENDMDL
MODEL 2
REMARK VINA RESULT:     -12.1      1.644      2.104
REMARK SMILES C[C@@H](C(=O)NCCCNC(=O)c1ccc(-c2c3nc(c(-c4cccc(S(=O)(=O)[O-])c4F)c4ccc([nH]4)c(-c4cccc(S(=O)(=O)[O-])c4F)c4nc(c(-c5cccc(S(=O)(=O)[O-])c5F)c5ccc2[nH]5)C=C4)C=C3)cc1)N(C)c1ccc(C(N)=O)nn1
REMARK SMILES IDX 7 1 6 2 5 3 3 4 4 5 2 7 1 8 75 9 76 10 77 11 78 12 85 13
REMARK SMILES IDX 79 14 84 15 80 16 81 17 82 18 83 19 8 22 9 23 10 24 11 26
REMARK SMILES IDX 12 27 13 28 74 29 14 30 73 31 15 32 16 33 17 34 67 35 18 36
REMARK SMILES IDX 72 37 66 38 68 39 19 40 71 41 65 42 64 43 20 45 52 46 32 47
REMARK SMILES IDX 51 48 33 49 36 50 50 51 69 52 34 53 35 54 49 56 70 57 37 58
REMARK SMILES IDX 21 59 22 60 30 61 23 62 25 63 31 64 24 65 26 66 27 67 28 68
REMARK SMILES IDX 29 69 53 70 54 71 62 72 55 73 57 74 63 75 56 76 58 77 59 78
REMARK SMILES IDX 60 79 61 80 38 81 39 82 47 83 40 84 42 85 48 86 41 87 43 88
REMARK SMILES IDX 44 89 45 90 46 91
REMARK H PARENT 5 6 82 20 82 21 9 25 68 44 36 55
REMARK Flexibility Score: inf
ROOT
ATOM      1  C   UNL A   1      36.101  21.174  25.653  1.00  0.00     0.042 C 
ENDROOT
BRANCH   1   2
ATOM      2  C   UNL A   1      35.743  22.531  26.254  1.00  0.00     0.117 C 
BRANCH   2   3
ATOM      3  N   UNL A   1      34.706  22.425  27.263  1.00  0.00    -0.354 N 
ATOM      4  C   UNL A   1      33.443  22.947  27.307  1.00  0.00     0.242 C 
ATOM      5  O   UNL A   1      32.771  22.638  28.296  1.00  0.00    -0.273 OA
ATOM      6  H   UNL A   1      34.954  21.886  28.049  1.00  0.00     0.163 HD
BRANCH   4   7
ATOM      7  C   UNL A   1      32.893  23.799  26.124  1.00  0.00     0.169 C 
ATOM      8  C   UNL A   1      32.466  25.213  26.510  1.00  0.00     0.042 C 
BRANCH   7   9
ATOM      9  N   UNL A   1      31.825  23.099  25.349  1.00  0.00    -0.346 N 
ATOM     10  C   UNL A   1      30.868  23.947  24.644  1.00  0.00     0.146 C 
BRANCH   9  11
ATOM     11  C   UNL A   1      32.048  21.860  24.739  1.00  0.00     0.151 A 
ATOM     12  C   UNL A   1      32.257  21.738  23.368  1.00  0.00     0.051 A 
ATOM     13  N   UNL A   1      32.126  20.733  25.492  1.00  0.00    -0.132 NA
ATOM     14  C   UNL A   1      32.483  20.491  22.781  1.00  0.00     0.040 A 
ATOM     15  N   UNL A   1      32.334  19.483  24.931  1.00  0.00    -0.143 NA
ATOM     16  C   UNL A   1      32.499  19.382  23.596  1.00  0.00     0.150 A 
BRANCH  16  17
ATOM     17  C   UNL A   1      32.726  18.023  23.032  1.00  0.00     0.269 C 
ATOM     18  N   UNL A   1      33.500  17.175  23.778  1.00  0.00    -0.364 N 
ATOM     19  O   UNL A   1      32.252  17.668  21.958  1.00  0.00    -0.268 OA
ATOM     20  H   UNL A   1      33.872  17.476  24.638  1.00  0.00     0.160 HD
ATOM     21  H   UNL A   1      33.683  16.264  23.454  1.00  0.00     0.160 HD
ENDBRANCH  16  17
ENDBRANCH   9  11
ENDBRANCH   7   9
ENDBRANCH   4   7
ENDBRANCH   2   3
ENDBRANCH   1   2
BRANCH   1  22
ATOM     22  C   UNL A   1      37.412  21.164  24.866  1.00  0.00     0.118 C 
BRANCH  22  23
ATOM     23  N   UNL A   1      38.352  20.162  25.353  1.00  0.00    -0.352 N 
ATOM     24  C   UNL A   1      39.532  20.310  26.041  1.00  0.00     0.251 C 
ATOM     25  H   UNL A   1      38.102  19.230  25.158  1.00  0.00     0.163 HD
ATOM     26  O   UNL A   1      40.270  19.338  26.184  1.00  0.00    -0.269 OA
BRANCH  24  27
ATOM     27  C   UNL A   1      39.931  21.626  26.589  1.00  0.00     0.039 A 
ATOM     28  C   UNL A   1      40.847  21.664  27.645  1.00  0.00     0.014 A 
ATOM     29  C   UNL A   1      39.400  22.814  26.082  1.00  0.00     0.014 A 
ATOM     30  C   UNL A   1      41.301  22.896  28.128  1.00  0.00     0.010 A 
ATOM     31  C   UNL A   1      39.899  24.040  26.521  1.00  0.00     0.010 A 
ATOM     32  C   UNL A   1      40.871  24.094  27.534  1.00  0.00    -0.014 A 
BRANCH  32  33
ATOM     33  C   UNL A   1      41.492  25.398  27.888  1.00  0.00     0.031 A 
ATOM     34  C   UNL A   1      40.691  26.480  28.559  1.00  0.00     0.074 A 
ATOM     35  C   UNL A   1      42.758  25.645  27.491  1.00  0.00     0.049 A 
ATOM     36  N   UNL A   1      41.049  27.703  28.851  1.00  0.00    -0.248 NA
ATOM     37  C   UNL A   1      39.305  26.156  28.937  1.00  0.00     0.031 C 
ATOM     38  C   UNL A   1      43.614  24.703  26.765  1.00  0.00     0.029 A 
ATOM     39  N   UNL A   1      43.532  26.775  27.601  1.00  0.00    -0.354 N 
ATOM     40  C   UNL A   1      39.928  28.309  29.405  1.00  0.00     0.074 A 
ATOM     41  C   UNL A   1      38.872  27.320  29.406  1.00  0.00     0.031 C 
ATOM     42  C   UNL A   1      44.784  25.297  26.482  1.00  0.00     0.029 A 
ATOM     43  C   UNL A   1      44.748  26.673  26.963  1.00  0.00     0.049 A 
ATOM     44  H   UNL A   1      43.245  27.580  28.090  1.00  0.00     0.167 HD
ATOM     45  C   UNL A   1      39.796  29.571  29.878  1.00  0.00     0.034 A 
ATOM     46  C   UNL A   1      45.713  27.591  26.756  1.00  0.00     0.034 A 
ATOM     47  C   UNL A   1      40.859  30.539  29.913  1.00  0.00     0.049 A 
ATOM     48  C   UNL A   1      45.536  28.980  27.306  1.00  0.00     0.074 A 
ATOM     49  C   UNL A   1      40.851  31.799  30.488  1.00  0.00     0.029 A 
ATOM     50  N   UNL A   1      42.102  30.376  29.327  1.00  0.00    -0.354 N 
ATOM     51  N   UNL A   1      44.542  29.467  28.008  1.00  0.00    -0.248 NA
ATOM     52  C   UNL A   1      46.622  29.940  27.061  1.00  0.00     0.031 C 
ATOM     53  C   UNL A   1      42.074  32.416  30.209  1.00  0.00     0.029 A 
ATOM     54  C   UNL A   1      42.857  31.526  29.492  1.00  0.00     0.049 A 
ATOM     55  H   UNL A   1      42.406  29.563  28.861  1.00  0.00     0.167 HD
ATOM     56  C   UNL A   1      44.893  30.778  28.306  1.00  0.00     0.074 A 
ATOM     57  C   UNL A   1      46.208  30.999  27.742  1.00  0.00     0.031 C 
ATOM     58  C   UNL A   1      44.183  31.723  28.969  1.00  0.00     0.034 A 
BRANCH  45  59
ATOM     59  C   UNL A   1      38.464  29.993  30.440  1.00  0.00     0.023 A 
ATOM     60  C   UNL A   1      38.171  29.758  31.797  1.00  0.00     0.012 A 
ATOM     61  C   UNL A   1      37.563  30.740  29.655  1.00  0.00     0.148 A 
ATOM     62  C   UNL A   1      36.995  30.250  32.364  1.00  0.00     0.002 A 
ATOM     63  C   UNL A   1      36.415  31.263  30.235  1.00  0.00     0.091 A 
ATOM     64  F   UNL A   1      37.857  30.938  28.361  1.00  0.00    -0.205 F 
ATOM     65  C   UNL A   1      36.127  31.013  31.587  1.00  0.00     0.022 A 
BRANCH  63  66
ATOM     66  S   UNL A   1      35.273  32.329  29.348  1.00  0.00     0.127 S 
ATOM     67  O   UNL A   1      34.763  31.422  28.321  1.00  0.00    -0.237 OA
ATOM     68  O   UNL A   1      34.307  32.676  30.390  1.00  0.00    -0.237 OA
ATOM     69  O   UNL A   1      36.066  33.445  28.849  1.00  0.00    -0.744 OA
ENDBRANCH  63  66
ENDBRANCH  45  59
BRANCH  46  70
ATOM     70  C   UNL A   1      46.945  27.233  25.993  1.00  0.00     0.023 A 
ATOM     71  C   UNL A   1      47.009  27.492  24.610  1.00  0.00     0.012 A 
ATOM     72  C   UNL A   1      48.046  26.625  26.627  1.00  0.00     0.148 A 
ATOM     73  C   UNL A   1      48.124  27.107  23.866  1.00  0.00     0.002 A 
ATOM     74  C   UNL A   1      49.180  26.303  25.892  1.00  0.00     0.091 A 
ATOM     75  F   UNL A   1      47.963  26.370  27.941  1.00  0.00    -0.205 F 
ATOM     76  C   UNL A   1      49.212  26.522  24.506  1.00  0.00     0.022 A 
BRANCH  74  77
ATOM     77  S   UNL A   1      50.676  25.682  26.667  1.00  0.00     0.127 S 
ATOM     78  O   UNL A   1      50.200  24.450  27.291  1.00  0.00    -0.237 OA
ATOM     79  O   UNL A   1      51.559  25.489  25.516  1.00  0.00    -0.237 OA
ATOM     80  O   UNL A   1      51.108  26.734  27.578  1.00  0.00    -0.744 OA
ENDBRANCH  74  77
ENDBRANCH  46  70
BRANCH  58  81
ATOM     81  C   UNL A   1      44.810  33.080  29.143  1.00  0.00     0.023 A 
ATOM     82  C   UNL A   1      45.563  33.358  30.302  1.00  0.00     0.012 A 
ATOM     83  C   UNL A   1      44.723  34.051  28.126  1.00  0.00     0.148 A 
ATOM     84  C   UNL A   1      46.196  34.590  30.457  1.00  0.00     0.002 A 
ATOM     85  C   UNL A   1      45.399  35.258  28.265  1.00  0.00     0.091 A 
ATOM     86  F   UNL A   1      43.991  33.772  27.037  1.00  0.00    -0.205 F 
ATOM     87  C   UNL A   1      46.124  35.534  29.435  1.00  0.00     0.022 A 
BRANCH  85  88
ATOM     88  S   UNL A   1      45.444  36.498  26.966  1.00  0.00     0.127 S 
ATOM     89  O   UNL A   1      46.430  37.442  27.491  1.00  0.00    -0.237 OA
ATOM     90  O   UNL A   1      45.896  35.720  25.813  1.00  0.00    -0.237 OA
ATOM     91  O   UNL A   1      44.088  37.018  26.855  1.00  0.00    -0.744 OA
ENDBRANCH  85  88
ENDBRANCH  58  81
ENDBRANCH  32  33
ENDBRANCH  24  27
ENDBRANCH  22  23
ENDBRANCH   1  22
TORSDOF 16
ENDMDL
MODEL 3
REMARK VINA RESULT:     -12.0      2.345      2.984
REMARK SMILES C[C@@H](C(=O)NCCCNC(=O)c1ccc(-c2c3nc(c(-c4cccc(S(=O)(=O)[O-])c4F)c4ccc([nH]4)c(-c4cccc(S(=O)(=O)[O-])c4F)c4nc(c(-c5cccc(S(=O)(=O)[O-])c5F)c5ccc2[nH]5)C=C4)C=C3)cc1)N(C)c1ccc(C(N)=O)nn1
REMARK SMILES IDX 7 1 6 2 5 3 3 4 4 5 2 7 1 8 75 9 76 10 77 11 78 12 85 13
REMARK SMILES IDX 79 14 84 15 80 16 81 17 82 18 83 19 8 22 9 23 10 24 11 26
REMARK SMILES IDX 12 27 13 28 74 29 14 30 73 31 15 32 16 33 17 34 67 35 18 36
REMARK SMILES IDX 72 37 66 38 68 39 19 40 71 41 65 42 64 43 20 45 52 46 32 47
REMARK SMILES IDX 51 48 33 49 36 50 50 51 69 52 34 53 35 54 49 56 70 57 37 58
REMARK SMILES IDX 21 59 22 60 30 61 23 62 25 63 31 64 24 65 26 66 27 67 28 68
REMARK SMILES IDX 29 69 53 70 54 71 62 72 55 73 57 74 63 75 56 76 58 77 59 78
REMARK SMILES IDX 60 79 61 80 38 81 39 82 47 83 40 84 42 85 48 86 41 87 43 88
REMARK SMILES IDX 44 89 45 90 46 91
REMARK H PARENT 5 6 82 20 82 21 9 25 68 44 36 55
REMARK Flexibility Score: inf
ROOT
ATOM      1  C   UNL A   1      38.478  19.690  24.986  1.00  0.00     0.042 C 
ENDROOT
BRANCH   1   2
ATOM      2  C   UNL A   1      37.616  20.910  24.673  1.00  0.00     0.117 C 
BRANCH   2   3
ATOM      3  N   UNL A   1      36.701  21.224  25.753  1.00  0.00    -0.354 N 
ATOM      4  C   UNL A   1      35.366  21.524  25.738  1.00  0.00     0.242 C 
ATOM      5  O   UNL A   1      34.846  21.703  26.843  1.00  0.00    -0.273 OA
ATOM      6  H   UNL A   1      37.109  21.222  26.649  1.00  0.00     0.163 HD
BRANCH   4   7
ATOM      7  C   UNL A   1      34.570  21.538  24.399  1.00  0.00     0.169 C 
ATOM      8  C   UNL A   1      34.372  22.928  23.799  1.00  0.00     0.042 C 
BRANCH   7   9
ATOM      9  N   UNL A   1      33.279  20.789  24.480  1.00  0.00    -0.346 N 
ATOM     10  C   UNL A   1      32.177  21.302  23.672  1.00  0.00     0.146 C 
BRANCH   9  11
ATOM     11  C   UNL A   1      33.241  19.407  24.688  1.00  0.00     0.151 A 
ATOM     12  C   UNL A   1      34.267  18.566  24.268  1.00  0.00     0.051 A 
ATOM     13  N   UNL A   1      32.208  18.849  25.372  1.00  0.00    -0.132 NA
ATOM     14  C   UNL A   1      34.209  17.189  24.490  1.00  0.00     0.040 A 
ATOM     15  N   UNL A   1      32.120  17.483  25.592  1.00  0.00    -0.143 NA
ATOM     16  C   UNL A   1      33.109  16.682  25.145  1.00  0.00     0.150 A 
BRANCH  16  17
ATOM     17  C   UNL A   1      32.981  15.222  25.406  1.00  0.00     0.269 C 
ATOM     18  N   UNL A   1      31.720  14.758  25.668  1.00  0.00    -0.364 N 
ATOM     19  O   UNL A   1      33.945  14.464  25.392  1.00  0.00    -0.268 OA
ATOM     20  H   UNL A   1      30.958  15.380  25.675  1.00  0.00     0.160 HD
ATOM     21  H   UNL A   1      31.577  13.801  25.849  1.00  0.00     0.160 HD
ENDBRANCH  16  17
ENDBRANCH   9  11
ENDBRANCH   7   9
ENDBRANCH   4   7
ENDBRANCH   2   3
ENDBRANCH   1   2
BRANCH   1  22
ATOM     22  C   UNL A   1      39.386  19.861  26.205  1.00  0.00     0.118 C 
BRANCH  22  23
ATOM     23  N   UNL A   1      40.669  19.187  26.048  1.00  0.00    -0.352 N 
ATOM     24  C   UNL A   1      41.946  19.695  26.040  1.00  0.00     0.251 C 
ATOM     25  H   UNL A   1      40.612  18.211  25.931  1.00  0.00     0.163 HD
ATOM     26  O   UNL A   1      42.878  18.971  25.697  1.00  0.00    -0.269 OA
BRANCH  24  27
ATOM     27  C   UNL A   1      42.205  21.103  26.416  1.00  0.00     0.039 A 
ATOM     28  C   UNL A   1      42.375  21.417  27.767  1.00  0.00     0.014 A 
ATOM     29  C   UNL A   1      42.266  22.112  25.451  1.00  0.00     0.014 A 
ATOM     30  C   UNL A   1      42.700  22.724  28.142  1.00  0.00     0.010 A 
ATOM     31  C   UNL A   1      42.650  23.401  25.819  1.00  0.00     0.010 A 
ATOM     32  C   UNL A   1      42.893  23.716  27.166  1.00  0.00    -0.014 A 
BRANCH  32  33
ATOM     33  C   UNL A   1      43.437  25.054  27.521  1.00  0.00     0.031 A 
ATOM     34  C   UNL A   1      42.540  26.142  28.045  1.00  0.00     0.074 A 
ATOM     35  C   UNL A   1      44.733  25.321  27.253  1.00  0.00     0.049 A 
ATOM     36  N   UNL A   1      42.833  27.387  28.313  1.00  0.00    -0.248 NA
ATOM     37  C   UNL A   1      41.130  25.793  28.284  1.00  0.00     0.031 C 
ATOM     38  C   UNL A   1      45.688  24.372  26.674  1.00  0.00     0.029 A 
ATOM     39  N   UNL A   1      45.461  26.478  27.391  1.00  0.00    -0.354 N 
ATOM     40  C   UNL A   1      41.642  27.984  28.709  1.00  0.00     0.074 A 
ATOM     41  C   UNL A   1      40.618  26.964  28.644  1.00  0.00     0.031 C 
ATOM     42  C   UNL A   1      46.867  24.987  26.491  1.00  0.00     0.029 A 
ATOM     43  C   UNL A   1      46.743  26.383  26.896  1.00  0.00     0.049 A 
ATOM     44  H   UNL A   1      45.102  27.295  27.804  1.00  0.00     0.167 HD
ATOM     45  C   UNL A   1      41.426  29.262  29.102  1.00  0.00     0.034 A 
ATOM     46  C   UNL A   1      47.702  27.319  26.750  1.00  0.00     0.034 A 
ATOM     47  C   UNL A   1      42.455  30.263  29.204  1.00  0.00     0.049 A 
ATOM     48  C   UNL A   1      47.429  28.727  27.208  1.00  0.00     0.074 A 
ATOM     49  C   UNL A   1      42.351  31.547  29.712  1.00  0.00     0.029 A 
ATOM     50  N   UNL A   1      43.759  30.111  28.767  1.00  0.00    -0.354 N 
ATOM     51  N   UNL A   1      46.352  29.215  27.771  1.00  0.00    -0.248 NA
ATOM     52  C   UNL A   1      48.512  29.706  27.035  1.00  0.00     0.031 C 
ATOM     53  C   UNL A   1      43.581  32.187  29.537  1.00  0.00     0.029 A 
ATOM     54  C   UNL A   1      44.461  31.289  28.957  1.00  0.00     0.049 A 
ATOM     55  H   UNL A   1      44.133  29.286  28.379  1.00  0.00     0.167 HD
ATOM     56  C   UNL A   1      46.635  30.549  28.040  1.00  0.00     0.074 A 
ATOM     57  C   UNL A   1      47.999  30.783  27.613  1.00  0.00     0.031 C 
ATOM     58  C   UNL A   1      45.832  31.502  28.573  1.00  0.00     0.034 A 
BRANCH  45  59
ATOM     59  C   UNL A   1      40.030  29.669  29.492  1.00  0.00     0.023 A 
ATOM     60  C   UNL A   1      39.106  30.039  28.496  1.00  0.00     0.012 A 
ATOM     61  C   UNL A   1      39.601  29.552  30.829  1.00  0.00     0.148 A 
ATOM     62  C   UNL A   1      37.776  30.301  28.826  1.00  0.00     0.002 A 
ATOM     63  C   UNL A   1      38.266  29.772  31.144  1.00  0.00     0.091 A 
ATOM     64  F   UNL A   1      40.503  29.212  31.761  1.00  0.00    -0.205 F 
ATOM     65  C   UNL A   1      37.354  30.152  30.146  1.00  0.00     0.022 A 
BRANCH  63  66
ATOM     66  S   UNL A   1      37.602  29.526  32.796  1.00  0.00     0.127 S 
ATOM     67  O   UNL A   1      36.231  30.010  32.636  1.00  0.00    -0.237 OA
ATOM     68  O   UNL A   1      37.722  28.078  32.961  1.00  0.00    -0.237 OA
ATOM     69  O   UNL A   1      38.437  30.318  33.689  1.00  0.00    -0.744 OA
ENDBRANCH  63  66
ENDBRANCH  45  59
BRANCH  46  70
ATOM     70  C   UNL A   1      49.019  26.963  26.146  1.00  0.00     0.023 A 
ATOM     71  C   UNL A   1      49.971  26.263  26.912  1.00  0.00     0.012 A 
ATOM     72  C   UNL A   1      49.338  27.327  24.823  1.00  0.00     0.148 A 
ATOM     73  C   UNL A   1      51.232  25.976  26.389  1.00  0.00     0.002 A 
ATOM     74  C   UNL A   1      50.572  26.981  24.287  1.00  0.00     0.091 A 
ATOM     75  F   UNL A   1      48.428  28.008  24.112  1.00  0.00    -0.205 F 
ATOM     76  C   UNL A   1      51.530  26.326  25.076  1.00  0.00     0.022 A 
BRANCH  74  77
ATOM     77  S   UNL A   1      50.977  27.268  22.561  1.00  0.00     0.127 S 
ATOM     78  O   UNL A   1      49.896  26.563  21.878  1.00  0.00    -0.237 OA
ATOM     79  O   UNL A   1      50.916  28.727  22.470  1.00  0.00    -0.237 OA
ATOM     80  O   UNL A   1      52.314  26.717  22.379  1.00  0.00    -0.744 OA
ENDBRANCH  74  77
ENDBRANCH  46  70
BRANCH  58  81
ATOM     81  C   UNL A   1      46.401  32.884  28.747  1.00  0.00     0.023 A 
ATOM     82  C   UNL A   1      46.237  33.840  27.724  1.00  0.00     0.012 A 
ATOM     83  C   UNL A   1      47.026  33.262  29.952  1.00  0.00     0.148 A 
ATOM     84  C   UNL A   1      46.710  35.141  27.888  1.00  0.00     0.002 A 
ATOM     85  C   UNL A   1      47.449  34.574  30.128  1.00  0.00     0.091 A 
ATOM     86  F   UNL A   1      47.184  32.333  30.907  1.00  0.00    -0.205 F 
ATOM     87  C   UNL A   1      47.304  35.511  29.092  1.00  0.00     0.022 A 
BRANCH  85  88
ATOM     88  S   UNL A   1      48.140  35.170  31.675  1.00  0.00     0.127 S 
ATOM     89  O   UNL A   1      48.211  36.610  31.434  1.00  0.00    -0.237 OA
ATOM     90  O   UNL A   1      47.123  34.762  32.644  1.00  0.00    -0.237 OA
ATOM     91  O   UNL A   1      49.426  34.504  31.827  1.00  0.00    -0.744 OA
ENDBRANCH  85  88
ENDBRANCH  58  81
ENDBRANCH  32  33
ENDBRANCH  24  27
ENDBRANCH  22  23
ENDBRANCH   1  22
TORSDOF 16
ENDMDL
