MODEL 1
REMARK VINA RESULT:     -13.7      0.000      0.000
REMARK SMILES O=C(NCCCNC(=O)[C@H](c1c[nH]c2cc(F)ccc12)[NH+]1CC[NH+](CC(=O)N2CCOCC2)CC1)c1ccc(-c2c3nc(c(-c4cccc(S(=O)(=O)[O-])c4F)c4ccc([nH]4)c(-c4cccc(S(=O)(=O)[O-])c4F)c4nc(c(-c5cccc(S(=O)(=O)[O-])c5F)c5ccc2[nH]5)C=C4)C=C3)cc1
REMARK SMILES IDX 5 1 4 2 3 3 1 4 2 5 36 7 37 8 98 9 38 10 97 11 39 12 40 13
REMARK SMILES IDX 41 14 91 15 42 16 96 17 90 18 92 19 43 20 95 21 89 22 88 23
REMARK SMILES IDX 44 25 76 26 56 27 75 28 57 29 60 30 74 31 93 32 58 33 59 34
REMARK SMILES IDX 73 36 94 37 61 38 45 39 46 40 54 41 47 42 49 43 55 44 48 45
REMARK SMILES IDX 50 46 51 47 52 48 53 49 77 50 78 51 86 52 79 53 81 54 87 55
REMARK SMILES IDX 80 56 82 57 83 58 84 59 85 60 62 61 63 62 71 63 64 64 66 65
REMARK SMILES IDX 72 66 65 67 67 68 68 69 69 70 70 71 6 72 7 73 8 74 9 76
REMARK SMILES IDX 10 77 21 78 22 79 35 80 23 82 34 83 24 84 25 86 26 87 27 88
REMARK SMILES IDX 28 89 29 90 33 91 30 92 32 93 31 94 11 95 12 96 20 97 13 98
REMARK SMILES IDX 14 99 19 100 15 102 18 103 16 104 17 105
REMARK H PARENT 3 6 92 24 60 35 7 75 21 81 24 85 13 101
REMARK Flexibility Score: inf
ROOT
ATOM      1  C   UNL A   1      36.374  22.013  25.967  1.00  0.00     0.042 C 
ENDROOT
BRANCH   1   2
ATOM      2  C   UNL A   1      37.595  21.816  25.096  1.00  0.00     0.118 C 
BRANCH   2   3
ATOM      3  N   UNL A   1      38.529  20.831  25.620  1.00  0.00    -0.352 N 
ATOM      4  O   UNL A   1      40.408  19.993  26.517  1.00  0.00    -0.269 OA
ATOM      5  C   UNL A   1      39.708  20.979  26.322  1.00  0.00     0.251 C 
ATOM      6  H   UNL A   1      38.276  19.897  25.443  1.00  0.00     0.163 HD
BRANCH   5   7
ATOM      7  C   UNL A   1      40.160  22.314  26.795  1.00  0.00     0.039 A 
ATOM      8  C   UNL A   1      39.683  23.489  26.220  1.00  0.00     0.014 A 
ATOM      9  C   UNL A   1      41.067  22.399  27.857  1.00  0.00     0.014 A 
ATOM     10  C   UNL A   1      40.279  24.707  26.522  1.00  0.00     0.010 A 
ATOM     11  C   UNL A   1      41.555  23.647  28.268  1.00  0.00     0.010 A 
ATOM     12  C   UNL A   1      41.209  24.812  27.566  1.00  0.00    -0.014 A 
BRANCH  12  13
ATOM     13  C   UNL A   1      41.743  26.155  27.924  1.00  0.00     0.031 A 
ATOM     14  C   UNL A   1      43.136  26.579  27.533  1.00  0.00     0.074 A 
ATOM     15  C   UNL A   1      40.947  27.016  28.593  1.00  0.00     0.049 A 
ATOM     16  N   UNL A   1      43.729  27.730  27.728  1.00  0.00    -0.248 NA
ATOM     17  C   UNL A   1      43.977  25.587  26.846  1.00  0.00     0.031 C 
ATOM     18  C   UNL A   1      39.591  26.716  29.066  1.00  0.00     0.029 A 
ATOM     19  N   UNL A   1      41.148  28.316  28.983  1.00  0.00    -0.354 N 
ATOM     20  C   UNL A   1      45.024  27.584  27.243  1.00  0.00     0.074 A 
ATOM     21  C   UNL A   1      45.133  26.231  26.745  1.00  0.00     0.031 C 
ATOM     22  C   UNL A   1      39.067  27.810  29.633  1.00  0.00     0.029 A 
ATOM     23  C   UNL A   1      40.068  28.868  29.635  1.00  0.00     0.049 A 
ATOM     24  H   UNL A   1      41.984  28.807  28.814  1.00  0.00     0.167 HD
ATOM     25  C   UNL A   1      46.027  28.496  27.207  1.00  0.00     0.034 A 
ATOM     26  C   UNL A   1      39.902  30.082  30.192  1.00  0.00     0.034 A 
ATOM     27  C   UNL A   1      45.904  29.853  27.674  1.00  0.00     0.049 A 
ATOM     28  C   UNL A   1      41.024  31.076  30.115  1.00  0.00     0.074 A 
ATOM     29  C   UNL A   1      46.842  30.871  27.614  1.00  0.00     0.029 A 
ATOM     30  N   UNL A   1      44.785  30.381  28.299  1.00  0.00    -0.354 N 
ATOM     31  N   UNL A   1      42.195  30.954  29.541  1.00  0.00    -0.248 NA
ATOM     32  C   UNL A   1      40.789  32.386  30.735  1.00  0.00     0.031 C 
ATOM     33  C   UNL A   1      46.303  32.001  28.238  1.00  0.00     0.029 A 
ATOM     34  C   UNL A   1      45.012  31.703  28.641  1.00  0.00     0.049 A 
ATOM     35  H   UNL A   1      43.951  29.887  28.474  1.00  0.00     0.167 HD
ATOM     36  C   UNL A   1      42.823  32.184  29.695  1.00  0.00     0.074 A 
ATOM     37  C   UNL A   1      41.890  33.042  30.398  1.00  0.00     0.031 C 
ATOM     38  C   UNL A   1      44.061  32.565  29.297  1.00  0.00     0.034 A 
BRANCH  25  39
ATOM     39  C   UNL A   1      47.355  28.063  26.634  1.00  0.00     0.023 A 
ATOM     40  C   UNL A   1      48.409  27.693  27.494  1.00  0.00     0.012 A 
ATOM     41  C   UNL A   1      47.535  27.960  25.240  1.00  0.00     0.148 A 
ATOM     42  C   UNL A   1      49.632  27.266  26.977  1.00  0.00     0.002 A 
ATOM     43  C   UNL A   1      48.741  27.486  24.733  1.00  0.00     0.091 A 
ATOM     44  F   UNL A   1      46.529  28.331  24.436  1.00  0.00    -0.205 F 
ATOM     45  C   UNL A   1      49.794  27.152  25.599  1.00  0.00     0.022 A 
BRANCH  43  46
ATOM     46  S   UNL A   1      49.016  27.223  22.977  1.00  0.00     0.127 S 
ATOM     47  O   UNL A   1      50.472  27.103  22.922  1.00  0.00    -0.237 OA
ATOM     48  O   UNL A   1      48.293  25.973  22.738  1.00  0.00    -0.237 OA
ATOM     49  O   UNL A   1      48.458  28.386  22.303  1.00  0.00    -0.744 OA
ENDBRANCH  43  46
ENDBRANCH  25  39
BRANCH  26  50
ATOM     50  C   UNL A   1      38.606  30.436  30.836  1.00  0.00     0.023 A 
ATOM     51  C   UNL A   1      38.377  30.076  32.179  1.00  0.00     0.012 A 
ATOM     52  C   UNL A   1      37.611  31.145  30.135  1.00  0.00     0.148 A 
ATOM     53  C   UNL A   1      37.166  30.385  32.800  1.00  0.00     0.002 A 
ATOM     54  C   UNL A   1      36.434  31.503  30.778  1.00  0.00     0.091 A 
ATOM     55  F   UNL A   1      37.846  31.470  28.857  1.00  0.00    -0.205 F 
ATOM     56  C   UNL A   1      36.200  31.107  32.105  1.00  0.00     0.022 A 
BRANCH  54  57
ATOM     57  S   UNL A   1      35.194  32.548  30.007  1.00  0.00     0.127 S 
ATOM     58  O   UNL A   1      34.247  32.745  31.102  1.00  0.00    -0.237 OA
ATOM     59  O   UNL A   1      35.978  33.729  29.648  1.00  0.00    -0.237 OA
ATOM     60  O   UNL A   1      34.694  31.789  28.868  1.00  0.00    -0.744 OA
ENDBRANCH  54  57
ENDBRANCH  26  50
BRANCH  38  61
ATOM     61  C   UNL A   1      44.462  33.995  29.550  1.00  0.00     0.023 A 
ATOM     62  C   UNL A   1      45.046  34.365  30.777  1.00  0.00     0.012 A 
ATOM     63  C   UNL A   1      44.297  34.967  28.542  1.00  0.00     0.148 A 
ATOM     64  C   UNL A   1      45.418  35.689  31.014  1.00  0.00     0.002 A 
ATOM     65  C   UNL A   1      44.724  36.269  28.764  1.00  0.00     0.091 A 
ATOM     66  F   UNL A   1      43.720  34.600  27.388  1.00  0.00    -0.205 F 
ATOM     67  C   UNL A   1      45.268  36.637  30.004  1.00  0.00     0.022 A 
BRANCH  65  68
ATOM     68  S   UNL A   1      44.662  37.528  27.485  1.00  0.00     0.127 S 
ATOM     69  O   UNL A   1      44.997  38.735  28.237  1.00  0.00    -0.237 OA
ATOM     70  O   UNL A   1      45.701  37.079  26.557  1.00  0.00    -0.237 OA
ATOM     71  O   UNL A   1      43.311  37.483  26.942  1.00  0.00    -0.744 OA
ENDBRANCH  65  68
ENDBRANCH  38  61
ENDBRANCH  12  13
ENDBRANCH   5   7
ENDBRANCH   2   3
ENDBRANCH   1   2
BRANCH   1  72
ATOM     72  C   UNL A   1      35.509  23.215  25.643  1.00  0.00     0.118 C 
BRANCH  72  73
ATOM     73  N   UNL A   1      35.364  23.591  24.254  1.00  0.00    -0.351 N 
ATOM     74  C   UNL A   1      34.195  23.855  23.579  1.00  0.00     0.283 C 
ATOM     75  H   UNL A   1      36.196  23.665  23.733  1.00  0.00     0.163 HD
ATOM     76  O   UNL A   1      34.316  24.441  22.492  1.00  0.00    -0.268 OA
BRANCH  74  77
ATOM     77  C   UNL A   1      32.786  23.326  24.045  1.00  0.00     0.308 C 
BRANCH  77  78
ATOM     78  N   UNL A   1      31.759  24.374  23.963  1.00  0.00    -0.312 N 
ATOM     79  C   UNL A   1      30.767  24.531  25.022  1.00  0.00     0.325 C 
ATOM     80  C   UNL A   1      32.126  25.577  23.239  1.00  0.00     0.325 C 
ATOM     81  H   UNL A   1      31.144  23.870  23.325  1.00  0.00     0.349 HD
ATOM     82  C   UNL A   1      30.406  25.982  25.478  1.00  0.00     0.325 C 
ATOM     83  C   UNL A   1      31.917  26.941  23.894  1.00  0.00     0.325 C 
ATOM     84  N   UNL A   1      30.627  27.088  24.540  1.00  0.00    -0.318 N 
ATOM     85  H   UNL A   1      30.653  27.930  25.114  1.00  0.00     0.348 HD
BRANCH  84  86
ATOM     86  C   UNL A   1      29.511  27.464  23.652  1.00  0.00     0.364 C 
BRANCH  86  87
ATOM     87  C   UNL A   1      29.770  28.497  22.545  1.00  0.00     0.277 C 
ATOM     88  O   UNL A   1      30.546  28.216  21.623  1.00  0.00    -0.268 OA
ATOM     89  N   UNL A   1      29.029  29.688  22.527  1.00  0.00    -0.333 N 
ATOM     90  C   UNL A   1      28.597  30.421  23.726  1.00  0.00     0.148 C 
ATOM     91  C   UNL A   1      29.120  30.495  21.303  1.00  0.00     0.148 C 
ATOM     92  C   UNL A   1      27.583  31.540  23.494  1.00  0.00     0.181 C 
ATOM     93  C   UNL A   1      28.018  31.552  21.197  1.00  0.00     0.181 C 
ATOM     94  O   UNL A   1      27.973  32.356  22.384  1.00  0.00    -0.378 OA
ENDBRANCH  86  87
ENDBRANCH  84  86
ENDBRANCH  77  78
BRANCH  77  95
ATOM     95  C   UNL A   1      32.405  22.015  23.370  1.00  0.00     0.044 A 
ATOM     96  C   UNL A   1      31.841  21.770  22.127  1.00  0.00     0.094 A 
ATOM     97  C   UNL A   1      32.531  20.709  23.973  1.00  0.00     0.009 A 
ATOM     98  N   UNL A   1      31.865  20.429  21.870  1.00  0.00    -0.361 N 
ATOM     99  C   UNL A   1      32.221  19.752  23.002  1.00  0.00     0.049 A 
ATOM    100  C   UNL A   1      32.873  20.255  25.265  1.00  0.00     0.014 A 
ATOM    101  H   UNL A   1      31.656  20.013  21.002  1.00  0.00     0.166 HD
ATOM    102  C   UNL A   1      32.273  18.376  23.235  1.00  0.00     0.065 A 
ATOM    103  C   UNL A   1      32.875  18.881  25.533  1.00  0.00     0.040 A 
ATOM    104  C   UNL A   1      32.591  17.970  24.525  1.00  0.00     0.125 A 
ATOM    105  F   UNL A   1      32.607  16.659  24.804  1.00  0.00    -0.207 F 
ENDBRANCH  77  95
ENDBRANCH  74  77
ENDBRANCH  72  73
ENDBRANCH   1  72
TORSDOF 17
ENDMDL
MODEL 2
REMARK VINA RESULT:     -13.3      5.037     10.693
REMARK SMILES O=C(NCCCNC(=O)[C@H](c1c[nH]c2cc(F)ccc12)[NH+]1CC[NH+](CC(=O)N2CCOCC2)CC1)c1ccc(-c2c3nc(c(-c4cccc(S(=O)(=O)[O-])c4F)c4ccc([nH]4)c(-c4cccc(S(=O)(=O)[O-])c4F)c4nc(c(-c5cccc(S(=O)(=O)[O-])c5F)c5ccc2[nH]5)C=C4)C=C3)cc1
REMARK SMILES IDX 5 1 4 2 3 3 1 4 2 5 36 7 37 8 98 9 38 10 97 11 39 12 40 13
REMARK SMILES IDX 41 14 91 15 42 16 96 17 90 18 92 19 43 20 95 21 89 22 88 23
REMARK SMILES IDX 44 25 76 26 56 27 75 28 57 29 60 30 74 31 93 32 58 33 59 34
REMARK SMILES IDX 73 36 94 37 61 38 45 39 46 40 54 41 47 42 49 43 55 44 48 45
REMARK SMILES IDX 50 46 51 47 52 48 53 49 77 50 78 51 86 52 79 53 81 54 87 55
REMARK SMILES IDX 80 56 82 57 83 58 84 59 85 60 62 61 63 62 71 63 64 64 66 65
REMARK SMILES IDX 72 66 65 67 67 68 68 69 69 70 70 71 6 72 7 73 8 74 9 76
REMARK SMILES IDX 10 77 21 78 22 79 35 80 23 82 34 83 24 84 25 86 26 87 27 88
REMARK SMILES IDX 28 89 29 90 33 91 30 92 32 93 31 94 11 95 12 96 20 97 13 98
REMARK SMILES IDX 14 99 19 100 15 102 18 103 16 104 17 105
REMARK H PARENT 3 6 92 24 60 35 7 75 21 81 24 85 13 101
REMARK Flexibility Score: inf
ROOT
ATOM      1  C   UNL A   1      31.784  29.770  26.569  1.00  0.00     0.042 C 
ENDROOT
BRANCH   1   2
ATOM      2  C   UNL A   1      33.077  30.536  26.399  1.00  0.00     0.118 C 
BRANCH   2   3
ATOM      3  N   UNL A   1      33.003  31.911  26.871  1.00  0.00    -0.352 N 
ATOM      4  O   UNL A   1      33.440  33.727  28.115  1.00  0.00    -0.269 OA
ATOM      5  C   UNL A   1      33.803  32.616  27.748  1.00  0.00     0.251 C 
ATOM      6  H   UNL A   1      32.251  32.427  26.502  1.00  0.00     0.163 HD
BRANCH   5   7
ATOM      7  C   UNL A   1      35.060  32.031  28.284  1.00  0.00     0.039 A 
ATOM      8  C   UNL A   1      35.109  30.723  28.757  1.00  0.00     0.014 A 
ATOM      9  C   UNL A   1      36.228  32.800  28.295  1.00  0.00     0.014 A 
ATOM     10  C   UNL A   1      36.223  30.273  29.453  1.00  0.00     0.010 A 
ATOM     11  C   UNL A   1      37.404  32.287  28.861  1.00  0.00     0.010 A 
ATOM     12  C   UNL A   1      37.398  31.037  29.498  1.00  0.00    -0.014 A 
BRANCH  12  13
ATOM     13  C   UNL A   1      38.603  30.469  30.165  1.00  0.00     0.031 A 
ATOM     14  C   UNL A   1      38.973  30.846  31.577  1.00  0.00     0.074 A 
ATOM     15  C   UNL A   1      39.361  29.578  29.492  1.00  0.00     0.049 A 
ATOM     16  N   UNL A   1      39.961  30.402  32.313  1.00  0.00    -0.248 NA
ATOM     17  C   UNL A   1      38.139  31.854  32.249  1.00  0.00     0.031 C 
ATOM     18  C   UNL A   1      39.136  29.157  28.105  1.00  0.00     0.029 A 
ATOM     19  N   UNL A   1      40.464  28.857  29.875  1.00  0.00    -0.354 N 
ATOM     20  C   UNL A   1      39.904  31.114  33.505  1.00  0.00     0.074 A 
ATOM     21  C   UNL A   1      38.784  32.022  33.396  1.00  0.00     0.031 C 
ATOM     22  C   UNL A   1      40.034  28.220  27.773  1.00  0.00     0.029 A 
ATOM     23  C   UNL A   1      40.946  28.024  28.892  1.00  0.00     0.049 A 
ATOM     24  H   UNL A   1      40.871  28.929  30.769  1.00  0.00     0.167 HD
ATOM     25  C   UNL A   1      40.705  31.015  34.595  1.00  0.00     0.034 A 
ATOM     26  C   UNL A   1      42.014  27.204  28.877  1.00  0.00     0.034 A 
ATOM     27  C   UNL A   1      41.799  30.086  34.713  1.00  0.00     0.049 A 
ATOM     28  C   UNL A   1      42.867  27.100  30.107  1.00  0.00     0.074 A 
ATOM     29  C   UNL A   1      42.623  29.862  35.804  1.00  0.00     0.029 A 
ATOM     30  N   UNL A   1      42.236  29.240  33.706  1.00  0.00    -0.354 N 
ATOM     31  N   UNL A   1      42.719  27.694  31.266  1.00  0.00    -0.248 NA
ATOM     32  C   UNL A   1      44.018  26.191  30.038  1.00  0.00     0.031 C 
ATOM     33  C   UNL A   1      43.580  28.908  35.443  1.00  0.00     0.029 A 
ATOM     34  C   UNL A   1      43.323  28.501  34.144  1.00  0.00     0.049 A 
ATOM     35  H   UNL A   1      41.832  29.173  32.811  1.00  0.00     0.167 HD
ATOM     36  C   UNL A   1      43.731  27.199  32.078  1.00  0.00     0.074 A 
ATOM     37  C   UNL A   1      44.473  26.241  31.282  1.00  0.00     0.031 C 
ATOM     38  C   UNL A   1      44.024  27.514  33.363  1.00  0.00     0.034 A 
BRANCH  25  39
ATOM     39  C   UNL A   1      40.427  31.931  35.762  1.00  0.00     0.023 A 
ATOM     40  C   UNL A   1      41.281  33.021  36.025  1.00  0.00     0.012 A 
ATOM     41  C   UNL A   1      39.279  31.749  36.560  1.00  0.00     0.148 A 
ATOM     42  C   UNL A   1      41.020  33.891  37.084  1.00  0.00     0.002 A 
ATOM     43  C   UNL A   1      38.998  32.649  37.583  1.00  0.00     0.091 A 
ATOM     44  F   UNL A   1      38.485  30.698  36.308  1.00  0.00    -0.205 F 
ATOM     45  C   UNL A   1      39.875  33.711  37.855  1.00  0.00     0.022 A 
BRANCH  43  46
ATOM     46  S   UNL A   1      37.504  32.552  38.575  1.00  0.00     0.127 S 
ATOM     47  O   UNL A   1      36.501  33.072  37.648  1.00  0.00    -0.237 OA
ATOM     48  O   UNL A   1      37.403  31.116  38.838  1.00  0.00    -0.237 OA
ATOM     49  O   UNL A   1      37.750  33.370  39.755  1.00  0.00    -0.744 OA
ENDBRANCH  43  46
ENDBRANCH  25  39
BRANCH  26  50
ATOM     50  C   UNL A   1      42.311  26.389  27.665  1.00  0.00     0.023 A 
ATOM     51  C   UNL A   1      42.996  26.977  26.583  1.00  0.00     0.012 A 
ATOM     52  C   UNL A   1      41.941  25.032  27.590  1.00  0.00     0.148 A 
ATOM     53  C   UNL A   1      43.274  26.236  25.433  1.00  0.00     0.002 A 
ATOM     54  C   UNL A   1      42.276  24.285  26.468  1.00  0.00     0.091 A 
ATOM     55  F   UNL A   1      41.284  24.495  28.626  1.00  0.00    -0.205 F 
ATOM     56  C   UNL A   1      42.925  24.890  25.380  1.00  0.00     0.022 A 
BRANCH  54  57
ATOM     57  S   UNL A   1      41.988  22.516  26.367  1.00  0.00     0.127 S 
ATOM     58  O   UNL A   1      40.529  22.451  26.363  1.00  0.00    -0.237 OA
ATOM     59  O   UNL A   1      42.626  22.181  25.094  1.00  0.00    -0.237 OA
ATOM     60  O   UNL A   1      42.643  21.943  27.537  1.00  0.00    -0.744 OA
ENDBRANCH  54  57
ENDBRANCH  26  50
BRANCH  38  61
ATOM     61  C   UNL A   1      45.158  26.770  34.019  1.00  0.00     0.023 A 
ATOM     62  C   UNL A   1      46.473  27.272  33.953  1.00  0.00     0.012 A 
ATOM     63  C   UNL A   1      44.905  25.589  34.744  1.00  0.00     0.148 A 
ATOM     64  C   UNL A   1      47.525  26.583  34.559  1.00  0.00     0.002 A 
ATOM     65  C   UNL A   1      45.947  24.942  35.394  1.00  0.00     0.091 A 
ATOM     66  F   UNL A   1      43.650  25.115  34.778  1.00  0.00    -0.205 F 
ATOM     67  C   UNL A   1      47.259  25.427  35.290  1.00  0.00     0.022 A 
BRANCH  65  68
ATOM     68  S   UNL A   1      45.680  23.506  36.439  1.00  0.00     0.127 S 
ATOM     69  O   UNL A   1      44.901  24.076  37.536  1.00  0.00    -0.237 OA
ATOM     70  O   UNL A   1      44.928  22.615  35.555  1.00  0.00    -0.237 OA
ATOM     71  O   UNL A   1      47.004  23.019  36.799  1.00  0.00    -0.744 OA
ENDBRANCH  65  68
ENDBRANCH  38  61
ENDBRANCH  12  13
ENDBRANCH   5   7
ENDBRANCH   2   3
ENDBRANCH   1   2
BRANCH   1  72
ATOM     72  C   UNL A   1      31.628  28.525  25.718  1.00  0.00     0.118 C 
BRANCH  72  73
ATOM     73  N   UNL A   1      32.609  28.286  24.683  1.00  0.00    -0.351 N 
ATOM     74  C   UNL A   1      32.475  27.478  23.578  1.00  0.00     0.283 C 
ATOM     75  H   UNL A   1      33.469  28.754  24.780  1.00  0.00     0.163 HD
ATOM     76  O   UNL A   1      33.309  27.646  22.676  1.00  0.00    -0.268 OA
BRANCH  74  77
ATOM     77  C   UNL A   1      31.438  26.294  23.489  1.00  0.00     0.308 C 
BRANCH  77  78
ATOM     78  N   UNL A   1      31.704  25.264  24.503  1.00  0.00    -0.312 N 
ATOM     79  C   UNL A   1      30.885  25.172  25.708  1.00  0.00     0.325 C 
ATOM     80  C   UNL A   1      32.284  24.023  24.022  1.00  0.00     0.325 C 
ATOM     81  H   UNL A   1      32.481  25.753  24.948  1.00  0.00     0.349 HD
ATOM     82  C   UNL A   1      30.466  23.751  26.203  1.00  0.00     0.325 C 
ATOM     83  C   UNL A   1      31.641  22.694  24.409  1.00  0.00     0.325 C 
ATOM     84  N   UNL A   1      31.290  22.601  25.813  1.00  0.00    -0.318 N 
ATOM     85  H   UNL A   1      30.693  21.784  25.939  1.00  0.00     0.348 HD
BRANCH  84  86
ATOM     86  C   UNL A   1      32.387  22.210  26.718  1.00  0.00     0.364 C 
BRANCH  86  87
ATOM     87  C   UNL A   1      33.507  21.313  26.168  1.00  0.00     0.277 C 
ATOM     88  O   UNL A   1      33.283  20.111  25.979  1.00  0.00    -0.268 OA
ATOM     89  N   UNL A   1      34.721  21.893  25.768  1.00  0.00    -0.333 N 
ATOM     90  C   UNL A   1      35.356  23.041  26.433  1.00  0.00     0.148 C 
ATOM     91  C   UNL A   1      35.631  21.036  24.998  1.00  0.00     0.148 C 
ATOM     92  C   UNL A   1      36.527  23.678  25.687  1.00  0.00     0.181 C 
ATOM     93  C   UNL A   1      36.732  21.822  24.281  1.00  0.00     0.181 C 
ATOM     94  O   UNL A   1      37.426  22.675  25.202  1.00  0.00    -0.378 OA
ENDBRANCH  86  87
ENDBRANCH  84  86
ENDBRANCH  77  78
BRANCH  77  95
ATOM     95  C   UNL A   1      29.997  26.784  23.450  1.00  0.00     0.044 A 
ATOM     96  C   UNL A   1      28.824  26.174  23.868  1.00  0.00     0.094 A 
ATOM     97  C   UNL A   1      29.567  28.041  22.886  1.00  0.00     0.009 A 
ATOM     98  N   UNL A   1      27.797  27.072  23.819  1.00  0.00    -0.361 N 
ATOM     99  C   UNL A   1      28.207  28.199  23.165  1.00  0.00     0.049 A 
ATOM    100  C   UNL A   1      30.216  29.058  22.151  1.00  0.00     0.014 A 
ATOM    101  H   UNL A   1      26.899  26.929  24.196  1.00  0.00     0.166 HD
ATOM    102  C   UNL A   1      27.471  29.326  22.790  1.00  0.00     0.065 A 
ATOM    103  C   UNL A   1      29.481  30.168  21.719  1.00  0.00     0.040 A 
ATOM    104  C   UNL A   1      28.139  30.293  22.050  1.00  0.00     0.125 A 
ATOM    105  F   UNL A   1      27.458  31.369  21.630  1.00  0.00    -0.207 F 
ENDBRANCH  77  95
ENDBRANCH  74  77
ENDBRANCH  72  73
ENDBRANCH   1  72
TORSDOF 17
ENDMDL
MODEL 3
REMARK VINA RESULT:     -13.3      1.580      2.041
REMARK SMILES O=C(NCCCNC(=O)[C@H](c1c[nH]c2cc(F)ccc12)[NH+]1CC[NH+](CC(=O)N2CCOCC2)CC1)c1ccc(-c2c3nc(c(-c4cccc(S(=O)(=O)[O-])c4F)c4ccc([nH]4)c(-c4cccc(S(=O)(=O)[O-])c4F)c4nc(c(-c5cccc(S(=O)(=O)[O-])c5F)c5ccc2[nH]5)C=C4)C=C3)cc1
REMARK SMILES IDX 5 1 4 2 3 3 1 4 2 5 36 7 37 8 98 9 38 10 97 11 39 12 40 13
REMARK SMILES IDX 41 14 91 15 42 16 96 17 90 18 92 19 43 20 95 21 89 22 88 23
REMARK SMILES IDX 44 25 76 26 56 27 75 28 57 29 60 30 74 31 93 32 58 33 59 34
REMARK SMILES IDX 73 36 94 37 61 38 45 39 46 40 54 41 47 42 49 43 55 44 48 45
REMARK SMILES IDX 50 46 51 47 52 48 53 49 77 50 78 51 86 52 79 53 81 54 87 55
REMARK SMILES IDX 80 56 82 57 83 58 84 59 85 60 62 61 63 62 71 63 64 64 66 65
REMARK SMILES IDX 72 66 65 67 67 68 68 69 69 70 70 71 6 72 7 73 8 74 9 76
REMARK SMILES IDX 10 77 21 78 22 79 35 80 23 82 34 83 24 84 25 86 26 87 27 88
REMARK SMILES IDX 28 89 29 90 33 91 30 92 32 93 31 94 11 95 12 96 20 97 13 98
REMARK SMILES IDX 14 99 19 100 15 102 18 103 16 104 17 105
REMARK H PARENT 3 6 92 24 60 35 7 75 21 81 24 85 13 101
REMARK Flexibility Score: inf
ROOT
ATOM      1  C   UNL A   1      36.843  21.770  25.725  1.00  0.00     0.042 C 
ENDROOT
BRANCH   1   2
ATOM      2  C   UNL A   1      38.148  21.455  25.027  1.00  0.00     0.118 C 
BRANCH   2   3
ATOM      3  N   UNL A   1      38.982  20.512  25.757  1.00  0.00    -0.352 N 
ATOM      4  O   UNL A   1      40.704  19.741  26.974  1.00  0.00    -0.269 OA
ATOM      5  C   UNL A   1      40.056  20.712  26.602  1.00  0.00     0.251 C 
ATOM      6  H   UNL A   1      38.739  19.568  25.625  1.00  0.00     0.163 HD
BRANCH   5   7
ATOM      7  C   UNL A   1      40.462  22.079  27.020  1.00  0.00     0.039 A 
ATOM      8  C   UNL A   1      39.932  23.213  26.411  1.00  0.00     0.014 A 
ATOM      9  C   UNL A   1      41.380  22.236  28.064  1.00  0.00     0.014 A 
ATOM     10  C   UNL A   1      40.485  24.463  26.660  1.00  0.00     0.010 A 
ATOM     11  C   UNL A   1      41.826  23.516  28.423  1.00  0.00     0.010 A 
ATOM     12  C   UNL A   1      41.425  24.641  27.686  1.00  0.00    -0.014 A 
BRANCH  12  13
ATOM     13  C   UNL A   1      41.912  26.015  27.988  1.00  0.00     0.031 A 
ATOM     14  C   UNL A   1      43.282  26.477  27.561  1.00  0.00     0.074 A 
ATOM     15  C   UNL A   1      41.092  26.869  28.636  1.00  0.00     0.049 A 
ATOM     16  N   UNL A   1      43.833  27.656  27.707  1.00  0.00    -0.248 NA
ATOM     17  C   UNL A   1      44.152  25.494  26.898  1.00  0.00     0.031 C 
ATOM     18  C   UNL A   1      39.755  26.536  29.139  1.00  0.00     0.029 A 
ATOM     19  N   UNL A   1      41.248  28.189  28.977  1.00  0.00    -0.354 N 
ATOM     20  C   UNL A   1      45.126  27.542  27.209  1.00  0.00     0.074 A 
ATOM     21  C   UNL A   1      45.281  26.177  26.758  1.00  0.00     0.031 C 
ATOM     22  C   UNL A   1      39.196  27.629  29.674  1.00  0.00     0.029 A 
ATOM     23  C   UNL A   1      40.157  28.723  29.624  1.00  0.00     0.049 A 
ATOM     24  H   UNL A   1      42.062  28.705  28.778  1.00  0.00     0.167 HD
ATOM     25  C   UNL A   1      46.093  28.489  27.126  1.00  0.00     0.034 A 
ATOM     26  C   UNL A   1      39.951  29.950  30.139  1.00  0.00     0.034 A 
ATOM     27  C   UNL A   1      45.924  29.857  27.545  1.00  0.00     0.049 A 
ATOM     28  C   UNL A   1      41.033  30.982  30.010  1.00  0.00     0.074 A 
ATOM     29  C   UNL A   1      46.821  30.906  27.435  1.00  0.00     0.029 A 
ATOM     30  N   UNL A   1      44.795  30.364  28.167  1.00  0.00    -0.354 N 
ATOM     31  N   UNL A   1      42.201  30.884  29.425  1.00  0.00    -0.248 NA
ATOM     32  C   UNL A   1      40.756  32.304  30.587  1.00  0.00     0.031 C 
ATOM     33  C   UNL A   1      46.248  32.037  28.026  1.00  0.00     0.029 A 
ATOM     34  C   UNL A   1      44.975  31.706  28.458  1.00  0.00     0.049 A 
ATOM     35  H   UNL A   1      43.982  29.846  28.372  1.00  0.00     0.167 HD
ATOM     36  C   UNL A   1      42.783  32.141  29.525  1.00  0.00     0.074 A 
ATOM     37  C   UNL A   1      41.827  32.989  30.211  1.00  0.00     0.031 C 
ATOM     38  C   UNL A   1      43.999  32.555  29.096  1.00  0.00     0.034 A 
BRANCH  25  39
ATOM     39  C   UNL A   1      47.429  28.087  26.550  1.00  0.00     0.023 A 
ATOM     40  C   UNL A   1      48.506  27.781  27.407  1.00  0.00     0.012 A 
ATOM     41  C   UNL A   1      47.597  27.947  25.157  1.00  0.00     0.148 A 
ATOM     42  C   UNL A   1      49.737  27.382  26.888  1.00  0.00     0.002 A 
ATOM     43  C   UNL A   1      48.813  27.501  24.649  1.00  0.00     0.091 A 
ATOM     44  F   UNL A   1      46.569  28.257  24.354  1.00  0.00    -0.205 F 
ATOM     45  C   UNL A   1      49.887  27.232  25.512  1.00  0.00     0.022 A 
BRANCH  43  46
ATOM     46  S   UNL A   1      49.078  27.193  22.899  1.00  0.00     0.127 S 
ATOM     47  O   UNL A   1      48.294  25.976  22.693  1.00  0.00    -0.237 OA
ATOM     48  O   UNL A   1      48.508  28.394  22.287  1.00  0.00    -0.237 OA
ATOM     49  O   UNL A   1      50.516  27.048  22.729  1.00  0.00    -0.744 OA
ENDBRANCH  43  46
ENDBRANCH  25  39
BRANCH  26  50
ATOM     50  C   UNL A   1      38.651  30.277  30.789  1.00  0.00     0.023 A 
ATOM     51  C   UNL A   1      38.408  29.852  32.111  1.00  0.00     0.012 A 
ATOM     52  C   UNL A   1      37.665  31.025  30.115  1.00  0.00     0.148 A 
ATOM     53  C   UNL A   1      37.194  30.136  32.736  1.00  0.00     0.002 A 
ATOM     54  C   UNL A   1      36.484  31.357  30.766  1.00  0.00     0.091 A 
ATOM     55  F   UNL A   1      37.913  31.412  28.857  1.00  0.00    -0.205 F 
ATOM     56  C   UNL A   1      36.237  30.896  32.069  1.00  0.00     0.022 A 
BRANCH  54  57
ATOM     57  S   UNL A   1      35.256  32.444  30.037  1.00  0.00     0.127 S 
ATOM     58  O   UNL A   1      34.747  31.625  28.939  1.00  0.00    -0.237 OA
ATOM     59  O   UNL A   1      34.325  32.634  31.149  1.00  0.00    -0.237 OA
ATOM     60  O   UNL A   1      35.978  33.648  29.644  1.00  0.00    -0.744 OA
ENDBRANCH  54  57
ENDBRANCH  26  50
BRANCH  38  61
ATOM     61  C   UNL A   1      44.349  34.007  29.292  1.00  0.00     0.023 A 
ATOM     62  C   UNL A   1      44.032  34.956  28.300  1.00  0.00     0.012 A 
ATOM     63  C   UNL A   1      44.957  34.435  30.489  1.00  0.00     0.148 A 
ATOM     64  C   UNL A   1      44.356  36.302  28.478  1.00  0.00     0.002 A 
ATOM     65  C   UNL A   1      45.222  35.784  30.684  1.00  0.00     0.091 A 
ATOM     66  F   UNL A   1      45.270  33.514  31.412  1.00  0.00    -0.205 F 
ATOM     67  C   UNL A   1      44.939  36.716  29.674  1.00  0.00     0.022 A 
BRANCH  65  68
ATOM     68  S   UNL A   1      45.877  36.417  32.231  1.00  0.00     0.127 S 
ATOM     69  O   UNL A   1      45.936  37.853  31.965  1.00  0.00    -0.237 OA
ATOM     70  O   UNL A   1      44.847  36.016  33.191  1.00  0.00    -0.237 OA
ATOM     71  O   UNL A   1      47.163  35.762  32.421  1.00  0.00    -0.744 OA
ENDBRANCH  65  68
ENDBRANCH  38  61
ENDBRANCH  12  13
ENDBRANCH   5   7
ENDBRANCH   2   3
ENDBRANCH   1   2
BRANCH   1  72
ATOM     72  C   UNL A   1      36.151  23.051  25.300  1.00  0.00     0.118 C 
BRANCH  72  73
ATOM     73  N   UNL A   1      35.717  23.162  23.925  1.00  0.00    -0.351 N 
ATOM     74  C   UNL A   1      34.431  23.064  23.446  1.00  0.00     0.283 C 
ATOM     75  H   UNL A   1      36.421  23.326  23.257  1.00  0.00     0.163 HD
ATOM     76  O   UNL A   1      34.247  23.482  22.293  1.00  0.00    -0.268 OA
BRANCH  74  77
ATOM     77  C   UNL A   1      33.271  22.331  24.220  1.00  0.00     0.308 C 
BRANCH  77  78
ATOM     78  N   UNL A   1      32.235  23.274  24.663  1.00  0.00    -0.312 N 
ATOM     79  C   UNL A   1      30.998  22.793  25.271  1.00  0.00     0.325 C 
ATOM     80  C   UNL A   1      32.696  24.582  25.090  1.00  0.00     0.325 C 
ATOM     81  H   UNL A   1      31.836  23.433  23.738  1.00  0.00     0.349 HD
ATOM     82  C   UNL A   1      30.441  23.565  26.510  1.00  0.00     0.325 C 
ATOM     83  C   UNL A   1      32.242  25.135  26.438  1.00  0.00     0.325 C 
ATOM     84  N   UNL A   1      30.823  24.970  26.691  1.00  0.00    -0.318 N 
ATOM     85  H   UNL A   1      30.648  25.175  27.674  1.00  0.00     0.348 HD
BRANCH  84  86
ATOM     86  C   UNL A   1      29.948  25.998  26.095  1.00  0.00     0.364 C 
BRANCH  86  87
ATOM     87  C   UNL A   1      30.007  26.221  24.576  1.00  0.00     0.277 C 
ATOM     88  O   UNL A   1      29.404  25.444  23.826  1.00  0.00    -0.268 OA
ATOM     89  N   UNL A   1      30.633  27.371  24.072  1.00  0.00    -0.333 N 
ATOM     90  C   UNL A   1      31.827  27.997  24.660  1.00  0.00     0.148 C 
ATOM     91  C   UNL A   1      30.411  27.666  22.651  1.00  0.00     0.148 C 
ATOM     92  C   UNL A   1      32.189  29.379  24.120  1.00  0.00     0.181 C 
ATOM     93  C   UNL A   1      30.790  29.099  22.268  1.00  0.00     0.181 C 
ATOM     94  O   UNL A   1      32.128  29.397  22.689  1.00  0.00    -0.378 OA
ENDBRANCH  86  87
ENDBRANCH  84  86
ENDBRANCH  77  78
BRANCH  77  95
ATOM     95  C   UNL A   1      32.741  21.120  23.464  1.00  0.00     0.044 A 
ATOM     96  C   UNL A   1      31.946  21.040  22.331  1.00  0.00     0.094 A 
ATOM     97  C   UNL A   1      32.955  19.746  23.852  1.00  0.00     0.009 A 
ATOM     98  N   UNL A   1      31.892  19.746  21.899  1.00  0.00    -0.361 N 
ATOM     99  C   UNL A   1      32.446  18.926  22.841  1.00  0.00     0.049 A 
ATOM    100  C   UNL A   1      33.529  19.125  24.982  1.00  0.00     0.014 A 
ATOM    101  H   UNL A   1      31.513  19.450  21.040  1.00  0.00     0.166 HD
ATOM    102  C   UNL A   1      32.513  17.532  22.874  1.00  0.00     0.065 A 
ATOM    103  C   UNL A   1      33.555  17.727  25.060  1.00  0.00     0.040 A 
ATOM    104  C   UNL A   1      33.065  16.958  24.013  1.00  0.00     0.125 A 
ATOM    105  F   UNL A   1      33.107  15.621  24.108  1.00  0.00    -0.207 F 
ENDBRANCH  77  95
ENDBRANCH  74  77
ENDBRANCH  72  73
ENDBRANCH   1  72
TORSDOF 17
ENDMDL
