MODEL 1
REMARK VINA RESULT:     -12.6      0.000      0.000
REMARK SMILES O=C(Cn1nc(-c2cccs2)ccc1=O)N[C@H](Cc1ccccc1)C(=O)NCCCNC(=O)c1ccc(-c2c3nc(c(-c4cccc(S(=O)(=O)[O-])c4F)c4ccc([nH]4)c(-c4cccc(S(=O)(=O)[O-])c4F)c4nc(c(-c5cccc(S(=O)(=O)[O-])c5F)c5ccc2[nH]5)C=C4)C=C3)cc1
REMARK SMILES IDX 28 1 27 2 25 3 26 4 17 6 16 7 1 8 2 9 3 11 4 12 5 13 14 14
REMARK SMILES IDX 6 15 13 16 15 17 12 18 7 19 8 20 11 21 9 22 10 23 18 24
REMARK SMILES IDX 19 25 20 26 24 27 21 28 23 29 22 30 29 31 30 32 31 33 32 34
REMARK SMILES IDX 33 36 34 37 35 38 96 39 36 40 95 41 37 42 38 43 39 44 89 45
REMARK SMILES IDX 40 46 94 47 88 48 90 49 41 50 93 51 87 52 86 53 42 55 74 56
REMARK SMILES IDX 54 57 73 58 55 59 58 60 72 61 91 62 56 63 57 64 71 66 92 67
REMARK SMILES IDX 59 68 43 69 44 70 52 71 45 72 47 73 53 74 46 75 48 76 49 77
REMARK SMILES IDX 50 78 51 79 75 80 76 81 84 82 77 83 79 84 85 85 78 86 80 87
REMARK SMILES IDX 81 88 82 89 83 90 60 91 61 92 69 93 62 94 64 95 70 96 63 97
REMARK SMILES IDX 65 98 66 99 67 100 68 101
REMARK H PARENT 27 5 16 10 31 35 90 54 58 65
REMARK Flexibility Score: inf
ROOT
ATOM      1  C   UNL A   1      31.962  28.406  27.073  1.00  0.00     0.117 C 
ENDROOT
BRANCH   1   2
ATOM      2  N   UNL A   1      32.683  28.041  25.863  1.00  0.00    -0.354 N 
ATOM      3  C   UNL A   1      32.235  27.479  24.701  1.00  0.00     0.242 C 
ATOM      4  O   UNL A   1      33.052  27.349  23.784  1.00  0.00    -0.273 OA
ATOM      5  H   UNL A   1      33.649  28.230  25.885  1.00  0.00     0.163 HD
BRANCH   3   6
ATOM      6  C   UNL A   1      30.766  27.040  24.524  1.00  0.00     0.175 C 
BRANCH   6   7
ATOM      7  N   UNL A   1      30.762  25.597  24.829  1.00  0.00    -0.342 N 
ATOM      8  O   UNL A   1      31.088  24.647  22.771  1.00  0.00    -0.273 OA
ATOM      9  C   UNL A   1      31.028  24.546  23.994  1.00  0.00     0.242 C 
ATOM     10  H   UNL A   1      30.538  25.358  25.758  1.00  0.00     0.164 HD
BRANCH   9  11
ATOM     11  C   UNL A   1      31.131  23.175  24.670  1.00  0.00     0.248 C 
BRANCH  11  12
ATOM     12  N   UNL A   1      32.200  22.864  25.624  1.00  0.00    -0.220 N 
ATOM     13  N   UNL A   1      33.411  22.362  25.175  1.00  0.00    -0.168 NA
ATOM     14  C   UNL A   1      31.886  23.016  26.971  1.00  0.00     0.267 A 
ATOM     15  C   UNL A   1      34.271  21.945  26.058  1.00  0.00     0.101 A 
ATOM     16  C   UNL A   1      32.900  22.554  27.936  1.00  0.00     0.075 A 
ATOM     17  O   UNL A   1      30.838  23.492  27.398  1.00  0.00    -0.268 OA
ATOM     18  C   UNL A   1      34.045  22.018  27.519  1.00  0.00     0.037 A 
BRANCH  15  19
ATOM     19  C   UNL A   1      35.537  21.406  25.596  1.00  0.00     0.054 A 
ATOM     20  C   UNL A   1      35.797  20.146  25.091  1.00  0.00     0.022 A 
ATOM     21  S   UNL A   1      36.968  22.349  25.679  1.00  0.00    -0.142 S 
ATOM     22  C   UNL A   1      37.165  19.979  24.721  1.00  0.00     0.012 A 
ATOM     23  C   UNL A   1      37.914  21.102  24.992  1.00  0.00     0.065 A 
ENDBRANCH  15  19
ENDBRANCH  11  12
ENDBRANCH   9  11
ENDBRANCH   6   7
BRANCH   6  24
ATOM     24  C   UNL A   1      30.167  27.509  23.182  1.00  0.00     0.070 C 
BRANCH  24  25
ATOM     25  C   UNL A   1      29.349  28.789  23.241  1.00  0.00    -0.045 A 
ATOM     26  C   UNL A   1      27.985  28.818  22.920  1.00  0.00     0.004 A 
ATOM     27  C   UNL A   1      29.953  29.974  23.692  1.00  0.00     0.004 A 
ATOM     28  C   UNL A   1      27.255  30.007  23.017  1.00  0.00     0.000 A 
ATOM     29  C   UNL A   1      29.220  31.158  23.799  1.00  0.00     0.000 A 
ATOM     30  C   UNL A   1      27.871  31.175  23.456  1.00  0.00     0.000 A 
ENDBRANCH  24  25
ENDBRANCH   6  24
ENDBRANCH   3   6
ENDBRANCH   1   2
BRANCH   1  31
ATOM     31  C   UNL A   1      31.468  29.841  27.050  1.00  0.00     0.042 C 
BRANCH  31  32
ATOM     32  C   UNL A   1      32.370  30.776  26.262  1.00  0.00     0.118 C 
BRANCH  32  33
ATOM     33  N   UNL A   1      32.254  32.167  26.687  1.00  0.00    -0.352 N 
ATOM     34  C   UNL A   1      33.056  32.920  27.516  1.00  0.00     0.251 C 
ATOM     35  H   UNL A   1      31.476  32.646  26.320  1.00  0.00     0.163 HD
ATOM     36  O   UNL A   1      32.670  34.021  27.888  1.00  0.00    -0.269 OA
BRANCH  34  37
ATOM     37  C   UNL A   1      34.358  32.385  27.978  1.00  0.00     0.039 A 
ATOM     38  C   UNL A   1      34.487  31.046  28.342  1.00  0.00     0.014 A 
ATOM     39  C   UNL A   1      35.464  33.236  28.059  1.00  0.00     0.014 A 
ATOM     40  C   UNL A   1      35.640  30.614  28.988  1.00  0.00     0.010 A 
ATOM     41  C   UNL A   1      36.666  32.767  28.603  1.00  0.00     0.010 A 
ATOM     42  C   UNL A   1      36.746  31.469  29.127  1.00  0.00    -0.014 A 
BRANCH  42  43
ATOM     43  C   UNL A   1      37.967  30.969  29.814  1.00  0.00     0.031 A 
ATOM     44  C   UNL A   1      38.272  31.358  31.238  1.00  0.00     0.074 A 
ATOM     45  C   UNL A   1      38.783  30.115  29.162  1.00  0.00     0.049 A 
ATOM     46  N   UNL A   1      39.287  31.002  31.984  1.00  0.00    -0.248 NA
ATOM     47  C   UNL A   1      37.326  32.261  31.914  1.00  0.00     0.031 C 
ATOM     48  C   UNL A   1      38.604  29.672  27.778  1.00  0.00     0.029 A 
ATOM     49  N   UNL A   1      39.908  29.451  29.580  1.00  0.00    -0.354 N 
ATOM     50  C   UNL A   1      39.132  31.674  33.190  1.00  0.00     0.074 A 
ATOM     51  C   UNL A   1      37.921  32.458  33.083  1.00  0.00     0.031 C 
ATOM     52  C   UNL A   1      39.548  28.768  27.479  1.00  0.00     0.029 A 
ATOM     53  C   UNL A   1      40.438  28.615  28.625  1.00  0.00     0.049 A 
ATOM     54  H   UNL A   1      40.300  29.563  30.476  1.00  0.00     0.167 HD
ATOM     55  C   UNL A   1      39.915  31.627  34.293  1.00  0.00     0.034 A 
ATOM     56  C   UNL A   1      41.522  27.817  28.657  1.00  0.00     0.034 A 
ATOM     57  C   UNL A   1      41.078  30.793  34.427  1.00  0.00     0.049 A 
ATOM     58  C   UNL A   1      42.359  27.766  29.901  1.00  0.00     0.074 A 
ATOM     59  C   UNL A   1      41.906  30.648  35.527  1.00  0.00     0.029 A 
ATOM     60  N   UNL A   1      41.574  29.958  33.439  1.00  0.00    -0.354 N 
ATOM     61  N   UNL A   1      42.159  28.367  31.047  1.00  0.00    -0.248 NA
ATOM     62  C   UNL A   1      43.562  26.925  29.861  1.00  0.00     0.031 C 
ATOM     63  C   UNL A   1      42.903  29.723  35.204  1.00  0.00     0.029 A 
ATOM     64  C   UNL A   1      42.693  29.291  33.904  1.00  0.00     0.049 A 
ATOM     65  H   UNL A   1      41.186  29.853  32.540  1.00  0.00     0.167 HD
ATOM     66  C   UNL A   1      43.205  27.974  31.869  1.00  0.00     0.074 A 
ATOM     67  C   UNL A   1      44.027  27.063  31.097  1.00  0.00     0.031 C 
ATOM     68  C   UNL A   1      43.473  28.352  33.141  1.00  0.00     0.034 A 
BRANCH  55  69
ATOM     69  C   UNL A   1      39.522  32.462  35.480  1.00  0.00     0.023 A 
ATOM     70  C   UNL A   1      38.815  31.863  36.541  1.00  0.00     0.012 A 
ATOM     71  C   UNL A   1      39.950  33.800  35.596  1.00  0.00     0.148 A 
ATOM     72  C   UNL A   1      38.532  32.586  37.699  1.00  0.00     0.002 A 
ATOM     73  C   UNL A   1      39.689  34.504  36.765  1.00  0.00     0.091 A 
ATOM     74  F   UNL A   1      40.611  34.350  34.568  1.00  0.00    -0.205 F 
ATOM     75  C   UNL A   1      38.978  33.900  37.816  1.00  0.00     0.022 A 
BRANCH  73  76
ATOM     76  S   UNL A   1      40.267  36.183  37.043  1.00  0.00     0.127 S 
ATOM     77  O   UNL A   1      39.448  36.592  38.183  1.00  0.00    -0.237 OA
ATOM     78  O   UNL A   1      41.681  35.974  37.351  1.00  0.00    -0.237 OA
ATOM     79  O   UNL A   1      40.011  36.908  35.805  1.00  0.00    -0.744 OA
ENDBRANCH  73  76
ENDBRANCH  55  69
BRANCH  56  80
ATOM     80  C   UNL A   1      41.837  26.972  27.473  1.00  0.00     0.023 A 
ATOM     81  C   UNL A   1      42.433  27.568  26.345  1.00  0.00     0.012 A 
ATOM     82  C   UNL A   1      41.637  25.579  27.498  1.00  0.00     0.148 A 
ATOM     83  C   UNL A   1      42.824  26.786  25.258  1.00  0.00     0.002 A 
ATOM     84  C   UNL A   1      42.073  24.802  26.432  1.00  0.00     0.091 A 
ATOM     85  F   UNL A   1      41.062  25.041  28.583  1.00  0.00    -0.205 F 
ATOM     86  C   UNL A   1      42.657  25.405  25.307  1.00  0.00     0.022 A 
BRANCH  84  87
ATOM     87  S   UNL A   1      42.015  23.007  26.458  1.00  0.00     0.127 S 
ATOM     88  O   UNL A   1      42.559  22.673  25.144  1.00  0.00    -0.237 OA
ATOM     89  O   UNL A   1      42.893  22.696  27.586  1.00  0.00    -0.237 OA
ATOM     90  O   UNL A   1      40.617  22.658  26.665  1.00  0.00    -0.744 OA
ENDBRANCH  84  87
ENDBRANCH  56  80
BRANCH  68  91
ATOM     91  C   UNL A   1      44.700  27.788  33.798  1.00  0.00     0.023 A 
ATOM     92  C   UNL A   1      45.905  28.514  33.739  1.00  0.00     0.012 A 
ATOM     93  C   UNL A   1      44.631  26.610  34.566  1.00  0.00     0.148 A 
ATOM     94  C   UNL A   1      47.030  28.069  34.430  1.00  0.00     0.002 A 
ATOM     95  C   UNL A   1      45.747  26.190  35.278  1.00  0.00     0.091 A 
ATOM     96  F   UNL A   1      43.473  25.934  34.594  1.00  0.00    -0.205 F 
ATOM     97  C   UNL A   1      46.949  26.917  35.208  1.00  0.00     0.022 A 
BRANCH  95  98
ATOM     98  S   UNL A   1      45.720  24.759  36.363  1.00  0.00     0.127 S 
ATOM     99  O   UNL A   1      45.411  23.681  35.426  1.00  0.00    -0.237 OA
ATOM    100  O   UNL A   1      47.086  24.742  36.886  1.00  0.00    -0.237 OA
ATOM    101  O   UNL A   1      44.693  25.029  37.361  1.00  0.00    -0.744 OA
ENDBRANCH  95  98
ENDBRANCH  68  91
ENDBRANCH  42  43
ENDBRANCH  34  37
ENDBRANCH  32  33
ENDBRANCH  31  32
ENDBRANCH   1  31
TORSDOF 19
ENDMDL
MODEL 2
REMARK VINA RESULT:     -12.5      4.597     10.368
REMARK SMILES O=C(Cn1nc(-c2cccs2)ccc1=O)N[C@H](Cc1ccccc1)C(=O)NCCCNC(=O)c1ccc(-c2c3nc(c(-c4cccc(S(=O)(=O)[O-])c4F)c4ccc([nH]4)c(-c4cccc(S(=O)(=O)[O-])c4F)c4nc(c(-c5cccc(S(=O)(=O)[O-])c5F)c5ccc2[nH]5)C=C4)C=C3)cc1
REMARK SMILES IDX 28 1 27 2 25 3 26 4 17 6 16 7 1 8 2 9 3 11 4 12 5 13 14 14
REMARK SMILES IDX 6 15 13 16 15 17 12 18 7 19 8 20 11 21 9 22 10 23 18 24
REMARK SMILES IDX 19 25 20 26 24 27 21 28 23 29 22 30 29 31 30 32 31 33 32 34
REMARK SMILES IDX 33 36 34 37 35 38 96 39 36 40 95 41 37 42 38 43 39 44 89 45
REMARK SMILES IDX 40 46 94 47 88 48 90 49 41 50 93 51 87 52 86 53 42 55 74 56
REMARK SMILES IDX 54 57 73 58 55 59 58 60 72 61 91 62 56 63 57 64 71 66 92 67
REMARK SMILES IDX 59 68 43 69 44 70 52 71 45 72 47 73 53 74 46 75 48 76 49 77
REMARK SMILES IDX 50 78 51 79 75 80 76 81 84 82 77 83 79 84 85 85 78 86 80 87
REMARK SMILES IDX 81 88 82 89 83 90 60 91 61 92 69 93 62 94 64 95 70 96 63 97
REMARK SMILES IDX 65 98 66 99 67 100 68 101
REMARK H PARENT 27 5 16 10 31 35 90 54 58 65
REMARK Flexibility Score: inf
ROOT
ATOM      1  C   UNL A   1      34.567  23.117  26.738  1.00  0.00     0.117 C 
ENDROOT
BRANCH   1   2
ATOM      2  N   UNL A   1      33.126  22.914  26.737  1.00  0.00    -0.354 N 
ATOM      3  C   UNL A   1      32.289  22.514  25.734  1.00  0.00     0.242 C 
ATOM      4  O   UNL A   1      31.101  22.338  26.025  1.00  0.00    -0.273 OA
ATOM      5  H   UNL A   1      32.683  23.094  27.598  1.00  0.00     0.163 HD
BRANCH   3   6
ATOM      6  C   UNL A   1      32.799  22.271  24.298  1.00  0.00     0.175 C 
BRANCH   6   7
ATOM      7  N   UNL A   1      32.814  23.606  23.670  1.00  0.00    -0.342 N 
ATOM      8  O   UNL A   1      30.599  23.975  23.221  1.00  0.00    -0.273 OA
ATOM      9  C   UNL A   1      31.754  24.386  23.296  1.00  0.00     0.242 C 
ATOM     10  H   UNL A   1      33.706  23.986  23.496  1.00  0.00     0.164 HD
BRANCH   9  11
ATOM     11  C   UNL A   1      32.106  25.809  22.848  1.00  0.00     0.248 C 
BRANCH  11  12
ATOM     12  N   UNL A   1      31.793  26.978  23.675  1.00  0.00    -0.220 N 
ATOM     13  N   UNL A   1      30.846  27.897  23.252  1.00  0.00    -0.168 NA
ATOM     14  C   UNL A   1      32.556  27.139  24.828  1.00  0.00     0.267 A 
ATOM     15  C   UNL A   1      30.714  29.001  23.929  1.00  0.00     0.101 A 
ATOM     16  C   UNL A   1      32.354  28.393  25.576  1.00  0.00     0.075 A 
ATOM     17  O   UNL A   1      33.375  26.326  25.247  1.00  0.00    -0.268 OA
ATOM     18  C   UNL A   1      31.489  29.311  25.151  1.00  0.00     0.037 A 
BRANCH  15  19
ATOM     19  C   UNL A   1      29.733  29.975  23.486  1.00  0.00     0.054 A 
ATOM     20  C   UNL A   1      29.412  31.189  24.064  1.00  0.00     0.022 A 
ATOM     21  S   UNL A   1      28.761  29.669  22.106  1.00  0.00    -0.142 S 
ATOM     22  C   UNL A   1      28.404  31.889  23.336  1.00  0.00     0.012 A 
ATOM     23  C   UNL A   1      27.960  31.172  22.249  1.00  0.00     0.065 A 
ENDBRANCH  15  19
ENDBRANCH  11  12
ENDBRANCH   9  11
ENDBRANCH   6   7
BRANCH   6  24
ATOM     24  C   UNL A   1      32.040  21.133  23.586  1.00  0.00     0.070 C 
BRANCH  24  25
ATOM     25  C   UNL A   1      32.710  19.770  23.631  1.00  0.00    -0.045 A 
ATOM     26  C   UNL A   1      32.284  18.701  22.832  1.00  0.00     0.004 A 
ATOM     27  C   UNL A   1      33.836  19.580  24.450  1.00  0.00     0.004 A 
ATOM     28  C   UNL A   1      32.944  17.469  22.874  1.00  0.00     0.000 A 
ATOM     29  C   UNL A   1      34.502  18.353  24.484  1.00  0.00     0.000 A 
ATOM     30  C   UNL A   1      34.053  17.296  23.699  1.00  0.00     0.000 A 
ENDBRANCH  24  25
ENDBRANCH   6  24
ENDBRANCH   3   6
ENDBRANCH   1   2
BRANCH   1  31
ATOM     31  C   UNL A   1      35.337  21.837  26.464  1.00  0.00     0.042 C 
BRANCH  31  32
ATOM     32  C   UNL A   1      36.415  21.998  25.405  1.00  0.00     0.118 C 
BRANCH  32  33
ATOM     33  N   UNL A   1      37.440  20.962  25.478  1.00  0.00    -0.352 N 
ATOM     34  C   UNL A   1      38.764  21.037  25.850  1.00  0.00     0.251 C 
ATOM     35  H   UNL A   1      37.135  20.062  25.221  1.00  0.00     0.163 HD
ATOM     36  O   UNL A   1      39.498  20.075  25.660  1.00  0.00    -0.269 OA
BRANCH  34  37
ATOM     37  C   UNL A   1      39.301  22.285  26.442  1.00  0.00     0.039 A 
ATOM     38  C   UNL A   1      38.786  23.526  26.071  1.00  0.00     0.014 A 
ATOM     39  C   UNL A   1      40.341  22.215  27.373  1.00  0.00     0.014 A 
ATOM     40  C   UNL A   1      39.446  24.689  26.454  1.00  0.00     0.010 A 
ATOM     41  C   UNL A   1      40.929  23.392  27.850  1.00  0.00     0.010 A 
ATOM     42  C   UNL A   1      40.526  24.638  27.348  1.00  0.00    -0.014 A 
BRANCH  42  43
ATOM     43  C   UNL A   1      41.201  25.904  27.744  1.00  0.00     0.031 A 
ATOM     44  C   UNL A   1      42.603  26.214  27.284  1.00  0.00     0.074 A 
ATOM     45  C   UNL A   1      40.523  26.805  28.483  1.00  0.00     0.049 A 
ATOM     46  N   UNL A   1      43.329  27.274  27.531  1.00  0.00    -0.248 NA
ATOM     47  C   UNL A   1      43.282  25.211  26.446  1.00  0.00     0.031 C 
ATOM     48  C   UNL A   1      39.166  26.619  29.000  1.00  0.00     0.029 A 
ATOM     49  N   UNL A   1      40.869  28.063  28.908  1.00  0.00    -0.354 N 
ATOM     50  C   UNL A   1      44.560  27.046  26.928  1.00  0.00     0.074 A 
ATOM     51  C   UNL A   1      44.486  25.747  26.296  1.00  0.00     0.031 C 
ATOM     52  C   UNL A   1      38.772  27.740  29.622  1.00  0.00     0.029 A 
ATOM     53  C   UNL A   1      39.870  28.701  29.605  1.00  0.00     0.049 A 
ATOM     54  H   UNL A   1      41.749  28.469  28.732  1.00  0.00     0.167 HD
ATOM     55  C   UNL A   1      45.646  27.853  26.886  1.00  0.00     0.034 A 
ATOM     56  C   UNL A   1      39.836  29.919  30.179  1.00  0.00     0.034 A 
ATOM     57  C   UNL A   1      45.697  29.174  27.451  1.00  0.00     0.049 A 
ATOM     58  C   UNL A   1      41.045  30.802  30.097  1.00  0.00     0.074 A 
ATOM     59  C   UNL A   1      46.743  30.080  27.416  1.00  0.00     0.029 A 
ATOM     60  N   UNL A   1      44.662  29.782  28.141  1.00  0.00    -0.354 N 
ATOM     61  N   UNL A   1      42.176  30.585  29.472  1.00  0.00    -0.248 NA
ATOM     62  C   UNL A   1      40.974  32.095  30.789  1.00  0.00     0.031 C 
ATOM     63  C   UNL A   1      46.339  31.239  28.086  1.00  0.00     0.029 A 
ATOM     64  C   UNL A   1      45.040  31.053  28.535  1.00  0.00     0.049 A 
ATOM     65  H   UNL A   1      43.786  29.371  28.325  1.00  0.00     0.167 HD
ATOM     66  C   UNL A   1      42.951  31.716  29.689  1.00  0.00     0.074 A 
ATOM     67  C   UNL A   1      42.151  32.628  30.484  1.00  0.00     0.031 C 
ATOM     68  C   UNL A   1      44.218  31.966  29.285  1.00  0.00     0.034 A 
BRANCH  55  69
ATOM     69  C   UNL A   1      46.869  27.362  26.161  1.00  0.00     0.023 A 
ATOM     70  C   UNL A   1      47.043  27.692  24.803  1.00  0.00     0.012 A 
ATOM     71  C   UNL A   1      47.892  26.680  26.849  1.00  0.00     0.148 A 
ATOM     72  C   UNL A   1      48.216  27.342  24.135  1.00  0.00     0.002 A 
ATOM     73  C   UNL A   1      49.070  26.361  26.184  1.00  0.00     0.091 A 
ATOM     74  F   UNL A   1      47.696  26.368  28.138  1.00  0.00    -0.205 F 
ATOM     75  C   UNL A   1      49.232  26.688  24.827  1.00  0.00     0.022 A 
BRANCH  73  76
ATOM     76  S   UNL A   1      50.464  25.569  26.995  1.00  0.00     0.127 S 
ATOM     77  O   UNL A   1      51.380  25.365  25.874  1.00  0.00    -0.237 OA
ATOM     78  O   UNL A   1      50.886  26.593  27.950  1.00  0.00    -0.237 OA
ATOM     79  O   UNL A   1      49.942  24.349  27.597  1.00  0.00    -0.744 OA
ENDBRANCH  73  76
ENDBRANCH  55  69
BRANCH  56  80
ATOM     80  C   UNL A   1      38.583  30.375  30.839  1.00  0.00     0.023 A 
ATOM     81  C   UNL A   1      38.453  30.233  32.234  1.00  0.00     0.012 A 
ATOM     82  C   UNL A   1      37.571  31.028  30.111  1.00  0.00     0.148 A 
ATOM     83  C   UNL A   1      37.331  30.735  32.893  1.00  0.00     0.002 A 
ATOM     84  C   UNL A   1      36.479  31.567  30.780  1.00  0.00     0.091 A 
ATOM     85  F   UNL A   1      37.720  31.143  28.784  1.00  0.00    -0.205 F 
ATOM     86  C   UNL A   1      36.353  31.413  32.170  1.00  0.00     0.022 A 
BRANCH  84  87
ATOM     87  S   UNL A   1      35.235  32.564  29.954  1.00  0.00     0.127 S 
ATOM     88  O   UNL A   1      34.291  32.821  31.038  1.00  0.00    -0.237 OA
ATOM     89  O   UNL A   1      36.017  33.725  29.529  1.00  0.00    -0.237 OA
ATOM     90  O   UNL A   1      34.730  31.743  28.863  1.00  0.00    -0.744 OA
ENDBRANCH  84  87
ENDBRANCH  56  80
BRANCH  68  91
ATOM     91  C   UNL A   1      44.837  33.276  29.681  1.00  0.00     0.023 A 
ATOM     92  C   UNL A   1      45.639  33.333  30.838  1.00  0.00     0.012 A 
ATOM     93  C   UNL A   1      44.722  34.409  28.854  1.00  0.00     0.148 A 
ATOM     94  C   UNL A   1      46.313  34.507  31.170  1.00  0.00     0.002 A 
ATOM     95  C   UNL A   1      45.422  35.565  29.174  1.00  0.00     0.091 A 
ATOM     96  F   UNL A   1      43.943  34.328  27.765  1.00  0.00    -0.205 F 
ATOM     97  C   UNL A   1      46.215  35.617  30.334  1.00  0.00     0.022 A 
BRANCH  95  98
ATOM     98  S   UNL A   1      45.418  37.022  28.124  1.00  0.00     0.127 S 
ATOM     99  O   UNL A   1      44.019  37.441  28.204  1.00  0.00    -0.237 OA
ATOM    100  O   UNL A   1      46.360  37.903  28.812  1.00  0.00    -0.237 OA
ATOM    101  O   UNL A   1      45.857  36.572  26.809  1.00  0.00    -0.744 OA
ENDBRANCH  95  98
ENDBRANCH  68  91
ENDBRANCH  42  43
ENDBRANCH  34  37
ENDBRANCH  32  33
ENDBRANCH  31  32
ENDBRANCH   1  31
TORSDOF 19
ENDMDL
MODEL 3
REMARK VINA RESULT:     -12.4      2.078      2.656
REMARK SMILES O=C(Cn1nc(-c2cccs2)ccc1=O)N[C@H](Cc1ccccc1)C(=O)NCCCNC(=O)c1ccc(-c2c3nc(c(-c4cccc(S(=O)(=O)[O-])c4F)c4ccc([nH]4)c(-c4cccc(S(=O)(=O)[O-])c4F)c4nc(c(-c5cccc(S(=O)(=O)[O-])c5F)c5ccc2[nH]5)C=C4)C=C3)cc1
REMARK SMILES IDX 28 1 27 2 25 3 26 4 17 6 16 7 1 8 2 9 3 11 4 12 5 13 14 14
REMARK SMILES IDX 6 15 13 16 15 17 12 18 7 19 8 20 11 21 9 22 10 23 18 24
REMARK SMILES IDX 19 25 20 26 24 27 21 28 23 29 22 30 29 31 30 32 31 33 32 34
REMARK SMILES IDX 33 36 34 37 35 38 96 39 36 40 95 41 37 42 38 43 39 44 89 45
REMARK SMILES IDX 40 46 94 47 88 48 90 49 41 50 93 51 87 52 86 53 42 55 74 56
REMARK SMILES IDX 54 57 73 58 55 59 58 60 72 61 91 62 56 63 57 64 71 66 92 67
REMARK SMILES IDX 59 68 43 69 44 70 52 71 45 72 47 73 53 74 46 75 48 76 49 77
REMARK SMILES IDX 50 78 51 79 75 80 76 81 84 82 77 83 79 84 85 85 78 86 80 87
REMARK SMILES IDX 81 88 82 89 83 90 60 91 61 92 69 93 62 94 64 95 70 96 63 97
REMARK SMILES IDX 65 98 66 99 67 100 68 101
REMARK H PARENT 27 5 16 10 31 35 90 54 58 65
REMARK Flexibility Score: inf
ROOT
ATOM      1  C   UNL A   1      31.954  30.052  26.646  1.00  0.00     0.117 C 
ENDROOT
BRANCH   1   2
ATOM      2  N   UNL A   1      32.957  29.551  25.718  1.00  0.00    -0.354 N 
ATOM      3  C   UNL A   1      32.813  28.845  24.557  1.00  0.00     0.242 C 
ATOM      4  O   UNL A   1      33.837  28.613  23.906  1.00  0.00    -0.273 OA
ATOM      5  H   UNL A   1      33.887  29.752  25.967  1.00  0.00     0.163 HD
BRANCH   3   6
ATOM      6  C   UNL A   1      31.432  28.371  24.058  1.00  0.00     0.175 C 
BRANCH   6   7
ATOM      7  N   UNL A   1      31.451  26.905  24.227  1.00  0.00    -0.342 N 
ATOM      8  O   UNL A   1      29.231  26.356  24.106  1.00  0.00    -0.273 OA
ATOM      9  C   UNL A   1      30.413  26.020  24.127  1.00  0.00     0.242 C 
ATOM     10  H   UNL A   1      32.328  26.512  24.440  1.00  0.00     0.164 HD
BRANCH   9  11
ATOM     11  C   UNL A   1      30.801  24.539  24.166  1.00  0.00     0.248 C 
BRANCH  11  12
ATOM     12  N   UNL A   1      31.703  24.005  25.191  1.00  0.00    -0.220 N 
ATOM     13  N   UNL A   1      32.993  23.626  24.857  1.00  0.00    -0.168 NA
ATOM     14  C   UNL A   1      31.156  23.825  26.459  1.00  0.00     0.267 A 
ATOM     15  C   UNL A   1      33.706  23.006  25.752  1.00  0.00     0.101 A 
ATOM     16  C   UNL A   1      32.009  23.142  27.449  1.00  0.00     0.075 A 
ATOM     17  O   UNL A   1      30.031  24.183  26.795  1.00  0.00    -0.268 OA
ATOM     18  C   UNL A   1      33.230  22.722  27.125  1.00  0.00     0.037 A 
BRANCH  15  19
ATOM     19  C   UNL A   1      35.054  22.595  25.406  1.00  0.00     0.054 A 
ATOM     20  C   UNL A   1      35.468  21.397  24.855  1.00  0.00     0.022 A 
ATOM     21  S   UNL A   1      36.387  23.630  25.712  1.00  0.00    -0.142 S 
ATOM     22  C   UNL A   1      36.877  21.355  24.635  1.00  0.00     0.012 A 
ATOM     23  C   UNL A   1      37.499  22.507  25.061  1.00  0.00     0.065 A 
ENDBRANCH  15  19
ENDBRANCH  11  12
ENDBRANCH   9  11
ENDBRANCH   6   7
BRANCH   6  24
ATOM     24  C   UNL A   1      31.074  28.946  22.674  1.00  0.00     0.070 C 
BRANCH  24  25
ATOM     25  C   UNL A   1      29.938  29.957  22.658  1.00  0.00    -0.045 A 
ATOM     26  C   UNL A   1      29.182  30.213  21.506  1.00  0.00     0.004 A 
ATOM     27  C   UNL A   1      29.584  30.617  23.846  1.00  0.00     0.004 A 
ATOM     28  C   UNL A   1      28.124  31.126  21.535  1.00  0.00     0.000 A 
ATOM     29  C   UNL A   1      28.519  31.520  23.878  1.00  0.00     0.000 A 
ATOM     30  C   UNL A   1      27.792  31.778  22.720  1.00  0.00     0.000 A 
ENDBRANCH  24  25
ENDBRANCH   6  24
ENDBRANCH   3   6
ENDBRANCH   1   2
BRANCH   1  31
ATOM     31  C   UNL A   1      31.827  31.565  26.608  1.00  0.00     0.042 C 
BRANCH  31  32
ATOM     32  C   UNL A   1      32.983  32.283  27.284  1.00  0.00     0.118 C 
BRANCH  32  33
ATOM     33  N   UNL A   1      32.675  33.671  27.610  1.00  0.00    -0.352 N 
ATOM     34  C   UNL A   1      33.178  34.493  28.595  1.00  0.00     0.251 C 
ATOM     35  H   UNL A   1      31.997  34.090  27.032  1.00  0.00     0.163 HD
ATOM     36  O   UNL A   1      32.642  35.573  28.810  1.00  0.00    -0.269 OA
BRANCH  34  37
ATOM     37  C   UNL A   1      34.337  34.056  29.407  1.00  0.00     0.039 A 
ATOM     38  C   UNL A   1      35.636  34.395  29.033  1.00  0.00     0.014 A 
ATOM     39  C   UNL A   1      34.125  33.286  30.555  1.00  0.00     0.014 A 
ATOM     40  C   UNL A   1      36.717  33.792  29.665  1.00  0.00     0.010 A 
ATOM     41  C   UNL A   1      35.219  32.774  31.262  1.00  0.00     0.010 A 
ATOM     42  C   UNL A   1      36.524  32.973  30.789  1.00  0.00    -0.014 A 
BRANCH  42  43
ATOM     43  C   UNL A   1      37.705  32.352  31.447  1.00  0.00     0.031 A 
ATOM     44  C   UNL A   1      38.135  32.772  32.829  1.00  0.00     0.074 A 
ATOM     45  C   UNL A   1      38.365  31.363  30.811  1.00  0.00     0.049 A 
ATOM     46  N   UNL A   1      39.133  32.324  33.547  1.00  0.00    -0.248 NA
ATOM     47  C   UNL A   1      37.353  33.828  33.494  1.00  0.00     0.031 C 
ATOM     48  C   UNL A   1      38.055  30.873  29.466  1.00  0.00     0.029 A 
ATOM     49  N   UNL A   1      39.414  30.577  31.215  1.00  0.00    -0.354 N 
ATOM     50  C   UNL A   1      39.132  33.074  34.717  1.00  0.00     0.074 A 
ATOM     51  C   UNL A   1      38.031  34.006  34.619  1.00  0.00     0.031 C 
ATOM     52  C   UNL A   1      38.855  29.837  29.178  1.00  0.00     0.029 A 
ATOM     53  C   UNL A   1      39.777  29.628  30.289  1.00  0.00     0.049 A 
ATOM     54  H   UNL A   1      39.865  30.683  32.084  1.00  0.00     0.167 HD
ATOM     55  C   UNL A   1      39.961  32.981  35.783  1.00  0.00     0.034 A 
ATOM     56  C   UNL A   1      40.748  28.695  30.318  1.00  0.00     0.034 A 
ATOM     57  C   UNL A   1      41.011  32.008  35.913  1.00  0.00     0.049 A 
ATOM     58  C   UNL A   1      41.637  28.599  31.522  1.00  0.00     0.074 A 
ATOM     59  C   UNL A   1      41.871  31.813  36.980  1.00  0.00     0.029 A 
ATOM     60  N   UNL A   1      41.338  31.062  34.955  1.00  0.00    -0.354 N 
ATOM     61  N   UNL A   1      41.580  29.282  32.638  1.00  0.00    -0.248 NA
ATOM     62  C   UNL A   1      42.716  27.603  31.477  1.00  0.00     0.031 C 
ATOM     63  C   UNL A   1      42.719  30.747  36.667  1.00  0.00     0.029 A 
ATOM     64  C   UNL A   1      42.384  30.278  35.406  1.00  0.00     0.049 A 
ATOM     65  H   UNL A   1      40.893  30.963  34.083  1.00  0.00     0.167 HD
ATOM     66  C   UNL A   1      42.609  28.797  33.433  1.00  0.00     0.074 A 
ATOM     67  C   UNL A   1      43.261  27.744  32.679  1.00  0.00     0.031 C 
ATOM     68  C   UNL A   1      42.993  29.203  34.666  1.00  0.00     0.034 A 
BRANCH  55  69
ATOM     69  C   UNL A   1      39.746  33.924  36.935  1.00  0.00     0.023 A 
ATOM     70  C   UNL A   1      40.071  35.286  36.781  1.00  0.00     0.012 A 
ATOM     71  C   UNL A   1      39.118  33.487  38.119  1.00  0.00     0.148 A 
ATOM     72  C   UNL A   1      39.783  36.200  37.793  1.00  0.00     0.002 A 
ATOM     73  C   UNL A   1      38.808  34.410  39.110  1.00  0.00     0.091 A 
ATOM     74  F   UNL A   1      38.829  32.185  38.244  1.00  0.00    -0.205 F 
ATOM     75  C   UNL A   1      39.142  35.766  38.951  1.00  0.00     0.022 A 
BRANCH  73  76
ATOM     76  S   UNL A   1      37.934  33.967  40.616  1.00  0.00     0.127 S 
ATOM     77  O   UNL A   1      38.926  33.140  41.301  1.00  0.00    -0.237 OA
ATOM     78  O   UNL A   1      37.699  35.274  41.231  1.00  0.00    -0.237 OA
ATOM     79  O   UNL A   1      36.729  33.266  40.193  1.00  0.00    -0.744 OA
ENDBRANCH  73  76
ENDBRANCH  55  69
BRANCH  56  80
ATOM     80  C   UNL A   1      40.885  27.754  29.174  1.00  0.00     0.023 A 
ATOM     81  C   UNL A   1      40.073  26.605  29.129  1.00  0.00     0.012 A 
ATOM     82  C   UNL A   1      41.741  28.039  28.093  1.00  0.00     0.148 A 
ATOM     83  C   UNL A   1      40.113  25.754  28.025  1.00  0.00     0.002 A 
ATOM     84  C   UNL A   1      41.741  27.213  26.976  1.00  0.00     0.091 A 
ATOM     85  F   UNL A   1      42.508  29.137  28.166  1.00  0.00    -0.205 F 
ATOM     86  C   UNL A   1      40.935  26.064  26.945  1.00  0.00     0.022 A 
BRANCH  84  87
ATOM     87  S   UNL A   1      42.670  27.599  25.488  1.00  0.00     0.127 S 
ATOM     88  O   UNL A   1      44.030  27.711  26.007  1.00  0.00    -0.237 OA
ATOM     89  O   UNL A   1      42.419  26.416  24.665  1.00  0.00    -0.237 OA
ATOM     90  O   UNL A   1      42.093  28.831  24.969  1.00  0.00    -0.744 OA
ENDBRANCH  84  87
ENDBRANCH  56  80
BRANCH  68  91
ATOM     91  C   UNL A   1      44.168  28.516  35.298  1.00  0.00     0.023 A 
ATOM     92  C   UNL A   1      45.470  28.916  34.939  1.00  0.00     0.012 A 
ATOM     93  C   UNL A   1      43.986  27.567  36.321  1.00  0.00     0.148 A 
ATOM     94  C   UNL A   1      46.578  28.372  35.588  1.00  0.00     0.002 A 
ATOM     95  C   UNL A   1      45.093  27.054  36.985  1.00  0.00     0.091 A 
ATOM     96  F   UNL A   1      42.735  27.198  36.634  1.00  0.00    -0.205 F 
ATOM     97  C   UNL A   1      46.390  27.453  36.617  1.00  0.00     0.022 A 
BRANCH  95  98
ATOM     98  S   UNL A   1      44.950  25.919  38.370  1.00  0.00     0.127 S 
ATOM     99  O   UNL A   1      43.788  26.457  39.076  1.00  0.00    -0.237 OA
ATOM    100  O   UNL A   1      44.721  24.640  37.700  1.00  0.00    -0.237 OA
ATOM    101  O   UNL A   1      46.212  26.007  39.095  1.00  0.00    -0.744 OA
ENDBRANCH  95  98
ENDBRANCH  68  91
ENDBRANCH  42  43
ENDBRANCH  34  37
ENDBRANCH  32  33
ENDBRANCH  31  32
ENDBRANCH   1  31
TORSDOF 19
ENDMDL
