MODEL 1
REMARK VINA RESULT:     -12.7      0.000      0.000
REMARK SMILES O=C(CS[C@H](C(=O)Nc1ccc(C(F)(F)F)cc1)c1ccccc1)NCCCNC(=O)c1ccc(-c2c3nc(c(-c4cccc(S(=O)(=O)[O-])c4F)c4ccc([nH]4)c(-c4cccc(S(=O)(=O)[O-])c4F)c4nc(c(-c5cccc(S(=O)(=O)[O-])c5F)c5ccc2[nH]5)C=C4)C=C3)cc1
REMARK SMILES IDX 26 1 25 2 1 3 2 4 3 6 4 7 5 8 19 9 20 10 24 11 21 12 23 13
REMARK SMILES IDX 22 14 6 15 7 16 8 17 9 19 10 20 18 21 11 22 17 23 12 24
REMARK SMILES IDX 13 25 14 26 15 27 16 28 27 29 28 30 29 31 30 32 31 34 32 35
REMARK SMILES IDX 33 36 94 37 34 38 93 39 35 40 36 41 37 42 87 43 38 44 92 45
REMARK SMILES IDX 86 46 88 47 39 48 91 49 85 50 84 51 40 53 72 54 52 55 71 56
REMARK SMILES IDX 53 57 56 58 70 59 89 60 54 61 55 62 69 64 90 65 57 66 41 67
REMARK SMILES IDX 42 68 50 69 43 70 45 71 51 72 44 73 46 74 47 75 48 76 49 77
REMARK SMILES IDX 73 78 74 79 82 80 75 81 77 82 83 83 76 84 78 85 79 86 80 87
REMARK SMILES IDX 81 88 58 89 59 90 67 91 60 92 62 93 68 94 61 95 63 96 64 97
REMARK SMILES IDX 65 98 66 99
REMARK H PARENT 25 5 8 18 29 33 88 52 56 63
REMARK Flexibility Score: inf
ROOT
ATOM      1  C   UNL A   1      34.762  20.541  25.069  1.00  0.00     0.117 C 
ENDROOT
BRANCH   1   2
ATOM      2  N   UNL A   1      34.016  21.026  23.918  1.00  0.00    -0.355 N 
ATOM      3  O   UNL A   1      32.000  20.410  24.818  1.00  0.00    -0.274 OA
ATOM      4  C   UNL A   1      32.630  20.957  23.915  1.00  0.00     0.230 C 
ATOM      5  H   UNL A   1      34.493  21.401  23.142  1.00  0.00     0.163 HD
BRANCH   4   6
ATOM      6  C   UNL A   1      31.941  21.662  22.763  1.00  0.00     0.170 C 
BRANCH   6   7
ATOM      7  S   UNL A   1      32.999  22.943  21.967  1.00  0.00    -0.134 SA
BRANCH   7   8
ATOM      8  C   UNL A   1      32.237  24.598  22.444  1.00  0.00     0.166 C 
BRANCH   8   9
ATOM      9  C   UNL A   1      31.976  24.700  23.948  1.00  0.00    -0.026 A 
ATOM     10  C   UNL A   1      33.045  24.673  24.865  1.00  0.00     0.005 A 
ATOM     11  C   UNL A   1      30.697  24.834  24.504  1.00  0.00     0.005 A 
ATOM     12  C   UNL A   1      32.820  24.634  26.251  1.00  0.00     0.000 A 
ATOM     13  C   UNL A   1      30.459  24.781  25.881  1.00  0.00     0.000 A 
ATOM     14  C   UNL A   1      31.523  24.647  26.757  1.00  0.00     0.000 A 
ENDBRANCH   8   9
BRANCH   8  15
ATOM     15  C   UNL A   1      32.794  25.779  21.577  1.00  0.00     0.242 C 
ATOM     16  O   UNL A   1      33.234  25.581  20.434  1.00  0.00    -0.273 OA
ATOM     17  N   UNL A   1      32.590  27.108  21.830  1.00  0.00    -0.325 N 
ATOM     18  H   UNL A   1      32.488  27.651  21.015  1.00  0.00     0.169 HD
BRANCH  17  19
ATOM     19  C   UNL A   1      32.497  27.850  23.005  1.00  0.00     0.041 A 
ATOM     20  C   UNL A   1      31.265  28.395  23.376  1.00  0.00     0.027 A 
ATOM     21  C   UNL A   1      33.606  28.126  23.780  1.00  0.00     0.027 A 
ATOM     22  C   UNL A   1      31.122  29.033  24.616  1.00  0.00     0.015 A 
ATOM     23  C   UNL A   1      33.461  28.723  25.028  1.00  0.00     0.015 A 
ATOM     24  C   UNL A   1      32.214  29.141  25.487  1.00  0.00     0.056 A 
BRANCH  24  25
ATOM     25  C   UNL A   1      32.077  29.679  26.888  1.00  0.00     0.416 C 
ATOM     26  F   UNL A   1      33.269  29.820  27.526  1.00  0.00    -0.166 F 
ATOM     27  F   UNL A   1      31.487  30.908  26.913  1.00  0.00    -0.166 F 
ATOM     28  F   UNL A   1      31.302  28.896  27.692  1.00  0.00    -0.166 F 
ENDBRANCH  24  25
ENDBRANCH  17  19
ENDBRANCH   8  15
ENDBRANCH   7   8
ENDBRANCH   6   7
ENDBRANCH   4   6
ENDBRANCH   1   2
BRANCH   1  29
ATOM     29  C   UNL A   1      35.823  21.483  25.623  1.00  0.00     0.042 C 
BRANCH  29  30
ATOM     30  C   UNL A   1      37.097  21.648  24.805  1.00  0.00     0.118 C 
BRANCH  30  31
ATOM     31  N   UNL A   1      38.193  20.775  25.193  1.00  0.00    -0.352 N 
ATOM     32  C   UNL A   1      39.299  21.036  25.976  1.00  0.00     0.251 C 
ATOM     33  H   UNL A   1      38.138  19.856  24.842  1.00  0.00     0.163 HD
ATOM     34  O   UNL A   1      40.156  20.160  26.090  1.00  0.00    -0.269 OA
BRANCH  32  35
ATOM     35  C   UNL A   1      39.510  22.349  26.647  1.00  0.00     0.039 A 
ATOM     36  C   UNL A   1      40.472  22.408  27.662  1.00  0.00     0.014 A 
ATOM     37  C   UNL A   1      38.842  23.519  26.280  1.00  0.00     0.014 A 
ATOM     38  C   UNL A   1      40.885  23.642  28.167  1.00  0.00     0.010 A 
ATOM     39  C   UNL A   1      39.324  24.758  26.706  1.00  0.00     0.010 A 
ATOM     40  C   UNL A   1      40.387  24.831  27.614  1.00  0.00    -0.014 A 
BRANCH  40  41
ATOM     41  C   UNL A   1      41.073  26.125  27.877  1.00  0.00     0.031 A 
ATOM     42  C   UNL A   1      42.477  26.377  27.414  1.00  0.00     0.074 A 
ATOM     43  C   UNL A   1      40.432  27.048  28.626  1.00  0.00     0.049 A 
ATOM     44  N   UNL A   1      43.212  27.449  27.568  1.00  0.00    -0.248 NA
ATOM     45  C   UNL A   1      43.158  25.280  26.708  1.00  0.00     0.031 C 
ATOM     46  C   UNL A   1      39.101  26.877  29.219  1.00  0.00     0.029 A 
ATOM     47  N   UNL A   1      40.810  28.303  29.032  1.00  0.00    -0.354 N 
ATOM     48  C   UNL A   1      44.445  27.151  27.003  1.00  0.00     0.074 A 
ATOM     49  C   UNL A   1      44.372  25.784  26.532  1.00  0.00     0.031 C 
ATOM     50  C   UNL A   1      38.766  27.990  29.888  1.00  0.00     0.029 A 
ATOM     51  C   UNL A   1      39.868  28.940  29.810  1.00  0.00     0.049 A 
ATOM     52  H   UNL A   1      41.674  28.709  28.791  1.00  0.00     0.167 HD
ATOM     53  C   UNL A   1      45.530  27.952  26.867  1.00  0.00     0.034 A 
ATOM     54  C   UNL A   1      39.888  30.151  30.399  1.00  0.00     0.034 A 
ATOM     55  C   UNL A   1      45.587  29.316  27.325  1.00  0.00     0.049 A 
ATOM     56  C   UNL A   1      41.089  31.031  30.196  1.00  0.00     0.074 A 
ATOM     57  C   UNL A   1      46.610  30.234  27.170  1.00  0.00     0.029 A 
ATOM     58  N   UNL A   1      44.584  29.954  28.042  1.00  0.00    -0.354 N 
ATOM     59  N   UNL A   1      42.185  30.788  29.519  1.00  0.00    -0.248 NA
ATOM     60  C   UNL A   1      41.042  32.368  30.806  1.00  0.00     0.031 C 
ATOM     61  C   UNL A   1      46.241  31.415  27.822  1.00  0.00     0.029 A 
ATOM     62  C   UNL A   1      44.970  31.249  28.346  1.00  0.00     0.049 A 
ATOM     63  H   UNL A   1      43.726  29.546  28.297  1.00  0.00     0.167 HD
ATOM     64  C   UNL A   1      42.941  31.951  29.587  1.00  0.00     0.074 A 
ATOM     65  C   UNL A   1      42.165  32.906  30.354  1.00  0.00     0.031 C 
ATOM     66  C   UNL A   1      44.169  32.203  29.073  1.00  0.00     0.034 A 
BRANCH  53  67
ATOM     67  C   UNL A   1      46.734  27.383  26.160  1.00  0.00     0.023 A 
ATOM     68  C   UNL A   1      46.857  27.528  24.763  1.00  0.00     0.012 A 
ATOM     69  C   UNL A   1      47.767  26.750  26.880  1.00  0.00     0.148 A 
ATOM     70  C   UNL A   1      47.965  27.018  24.088  1.00  0.00     0.002 A 
ATOM     71  C   UNL A   1      48.891  26.286  26.207  1.00  0.00     0.091 A 
ATOM     72  F   UNL A   1      47.626  26.605  28.205  1.00  0.00    -0.205 F 
ATOM     73  C   UNL A   1      48.986  26.407  24.810  1.00  0.00     0.022 A 
BRANCH  71  74
ATOM     74  S   UNL A   1      50.295  25.551  27.053  1.00  0.00     0.127 S 
ATOM     75  O   UNL A   1      49.705  24.321  27.585  1.00  0.00    -0.237 OA
ATOM     76  O   UNL A   1      51.242  25.347  25.956  1.00  0.00    -0.237 OA
ATOM     77  O   UNL A   1      50.717  26.521  28.050  1.00  0.00    -0.744 OA
ENDBRANCH  71  74
ENDBRANCH  53  67
BRANCH  54  78
ATOM     78  C   UNL A   1      38.710  30.624  31.182  1.00  0.00     0.023 A 
ATOM     79  C   UNL A   1      38.699  30.472  32.583  1.00  0.00     0.012 A 
ATOM     80  C   UNL A   1      37.614  31.241  30.551  1.00  0.00     0.148 A 
ATOM     81  C   UNL A   1      37.601  30.890  33.336  1.00  0.00     0.002 A 
ATOM     82  C   UNL A   1      36.548  31.708  31.313  1.00  0.00     0.091 A 
ATOM     83  F   UNL A   1      37.639  31.370  29.217  1.00  0.00    -0.205 F 
ATOM     84  C   UNL A   1      36.531  31.517  32.703  1.00  0.00     0.022 A 
BRANCH  82  85
ATOM     85  S   UNL A   1      35.191  32.642  30.598  1.00  0.00     0.127 S 
ATOM     86  O   UNL A   1      34.258  32.721  31.721  1.00  0.00    -0.237 OA
ATOM     87  O   UNL A   1      35.844  33.904  30.249  1.00  0.00    -0.237 OA
ATOM     88  O   UNL A   1      34.738  31.865  29.453  1.00  0.00    -0.744 OA
ENDBRANCH  82  85
ENDBRANCH  54  78
BRANCH  66  89
ATOM     89  C   UNL A   1      44.738  33.583  29.281  1.00  0.00     0.023 A 
ATOM     90  C   UNL A   1      45.461  33.881  30.453  1.00  0.00     0.012 A 
ATOM     91  C   UNL A   1      44.597  34.569  28.285  1.00  0.00     0.148 A 
ATOM     92  C   UNL A   1      45.999  35.152  30.649  1.00  0.00     0.002 A 
ATOM     93  C   UNL A   1      45.184  35.816  28.462  1.00  0.00     0.091 A 
ATOM     94  F   UNL A   1      43.888  34.272  27.187  1.00  0.00    -0.205 F 
ATOM     95  C   UNL A   1      45.872  36.115  29.650  1.00  0.00     0.022 A 
BRANCH  93  96
ATOM     96  S   UNL A   1      45.158  37.079  27.187  1.00  0.00     0.127 S 
ATOM     97  O   UNL A   1      45.779  38.210  27.874  1.00  0.00    -0.237 OA
ATOM     98  O   UNL A   1      45.979  36.477  26.137  1.00  0.00    -0.237 OA
ATOM     99  O   UNL A   1      43.757  37.258  26.828  1.00  0.00    -0.744 OA
ENDBRANCH  93  96
ENDBRANCH  66  89
ENDBRANCH  40  41
ENDBRANCH  32  35
ENDBRANCH  30  31
ENDBRANCH  29  30
ENDBRANCH   1  29
TORSDOF 19
ENDMDL
MODEL 2
REMARK VINA RESULT:     -12.3      1.574      2.008
REMARK SMILES O=C(CS[C@H](C(=O)Nc1ccc(C(F)(F)F)cc1)c1ccccc1)NCCCNC(=O)c1ccc(-c2c3nc(c(-c4cccc(S(=O)(=O)[O-])c4F)c4ccc([nH]4)c(-c4cccc(S(=O)(=O)[O-])c4F)c4nc(c(-c5cccc(S(=O)(=O)[O-])c5F)c5ccc2[nH]5)C=C4)C=C3)cc1
REMARK SMILES IDX 26 1 25 2 1 3 2 4 3 6 4 7 5 8 19 9 20 10 24 11 21 12 23 13
REMARK SMILES IDX 22 14 6 15 7 16 8 17 9 19 10 20 18 21 11 22 17 23 12 24
REMARK SMILES IDX 13 25 14 26 15 27 16 28 27 29 28 30 29 31 30 32 31 34 32 35
REMARK SMILES IDX 33 36 94 37 34 38 93 39 35 40 36 41 37 42 87 43 38 44 92 45
REMARK SMILES IDX 86 46 88 47 39 48 91 49 85 50 84 51 40 53 72 54 52 55 71 56
REMARK SMILES IDX 53 57 56 58 70 59 89 60 54 61 55 62 69 64 90 65 57 66 41 67
REMARK SMILES IDX 42 68 50 69 43 70 45 71 51 72 44 73 46 74 47 75 48 76 49 77
REMARK SMILES IDX 73 78 74 79 82 80 75 81 77 82 83 83 76 84 78 85 79 86 80 87
REMARK SMILES IDX 81 88 58 89 59 90 67 91 60 92 62 93 68 94 61 95 63 96 64 97
REMARK SMILES IDX 65 98 66 99
REMARK H PARENT 25 5 8 18 29 33 88 52 56 63
REMARK Flexibility Score: inf
ROOT
ATOM      1  C   UNL A   1      34.781  20.656  25.275  1.00  0.00     0.117 C 
ENDROOT
BRANCH   1   2
ATOM      2  N   UNL A   1      33.549  21.325  24.886  1.00  0.00    -0.355 N 
ATOM      3  O   UNL A   1      33.004  21.834  27.054  1.00  0.00    -0.274 OA
ATOM      4  C   UNL A   1      32.755  21.924  25.853  1.00  0.00     0.230 C 
ATOM      5  H   UNL A   1      33.278  21.350  23.940  1.00  0.00     0.163 HD
BRANCH   4   6
ATOM      6  C   UNL A   1      31.602  22.759  25.329  1.00  0.00     0.170 C 
BRANCH   6   7
ATOM      7  S   UNL A   1      31.440  22.692  23.495  1.00  0.00    -0.134 SA
BRANCH   7   8
ATOM      8  C   UNL A   1      32.161  24.312  22.863  1.00  0.00     0.166 C 
BRANCH   8   9
ATOM      9  C   UNL A   1      31.161  25.466  22.962  1.00  0.00    -0.026 A 
ATOM     10  C   UNL A   1      31.326  26.627  22.181  1.00  0.00     0.005 A 
ATOM     11  C   UNL A   1      30.039  25.447  23.801  1.00  0.00     0.005 A 
ATOM     12  C   UNL A   1      30.496  27.748  22.352  1.00  0.00     0.000 A 
ATOM     13  C   UNL A   1      29.216  26.561  23.990  1.00  0.00     0.000 A 
ATOM     14  C   UNL A   1      29.465  27.728  23.287  1.00  0.00     0.000 A 
ENDBRANCH   8   9
BRANCH   8  15
ATOM     15  C   UNL A   1      33.685  24.454  23.200  1.00  0.00     0.242 C 
ATOM     16  O   UNL A   1      34.506  23.603  22.821  1.00  0.00    -0.273 OA
ATOM     17  N   UNL A   1      34.293  25.597  23.644  1.00  0.00    -0.325 N 
ATOM     18  H   UNL A   1      35.206  25.717  23.295  1.00  0.00     0.169 HD
BRANCH  17  19
ATOM     19  C   UNL A   1      33.883  26.626  24.489  1.00  0.00     0.041 A 
ATOM     20  C   UNL A   1      33.936  27.947  24.036  1.00  0.00     0.027 A 
ATOM     21  C   UNL A   1      33.493  26.385  25.791  1.00  0.00     0.027 A 
ATOM     22  C   UNL A   1      33.409  28.982  24.821  1.00  0.00     0.015 A 
ATOM     23  C   UNL A   1      32.932  27.402  26.557  1.00  0.00     0.015 A 
ATOM     24  C   UNL A   1      32.836  28.703  26.069  1.00  0.00     0.056 A 
BRANCH  24  25
ATOM     25  C   UNL A   1      32.122  29.753  26.880  1.00  0.00     0.416 C 
ATOM     26  F   UNL A   1      32.945  30.431  27.722  1.00  0.00    -0.166 F 
ATOM     27  F   UNL A   1      31.525  30.694  26.093  1.00  0.00    -0.166 F 
ATOM     28  F   UNL A   1      31.117  29.246  27.651  1.00  0.00    -0.166 F 
ENDBRANCH  24  25
ENDBRANCH  17  19
ENDBRANCH   8  15
ENDBRANCH   7   8
ENDBRANCH   6   7
ENDBRANCH   4   6
ENDBRANCH   1   2
BRANCH   1  29
ATOM     29  C   UNL A   1      35.946  21.563  25.645  1.00  0.00     0.042 C 
BRANCH  29  30
ATOM     30  C   UNL A   1      37.147  21.563  24.708  1.00  0.00     0.118 C 
BRANCH  30  31
ATOM     31  N   UNL A   1      38.239  20.691  25.109  1.00  0.00    -0.352 N 
ATOM     32  C   UNL A   1      39.340  20.954  25.899  1.00  0.00     0.251 C 
ATOM     33  H   UNL A   1      38.185  19.770  24.763  1.00  0.00     0.163 HD
ATOM     34  O   UNL A   1      40.194  20.077  26.025  1.00  0.00    -0.269 OA
BRANCH  32  35
ATOM     35  C   UNL A   1      39.547  22.270  26.566  1.00  0.00     0.039 A 
ATOM     36  C   UNL A   1      40.474  22.323  27.613  1.00  0.00     0.014 A 
ATOM     37  C   UNL A   1      38.911  23.446  26.165  1.00  0.00     0.014 A 
ATOM     38  C   UNL A   1      40.889  23.556  28.122  1.00  0.00     0.010 A 
ATOM     39  C   UNL A   1      39.397  24.682  26.596  1.00  0.00     0.010 A 
ATOM     40  C   UNL A   1      40.429  24.747  27.540  1.00  0.00    -0.014 A 
BRANCH  40  41
ATOM     41  C   UNL A   1      41.125  26.033  27.815  1.00  0.00     0.031 A 
ATOM     42  C   UNL A   1      42.526  26.283  27.342  1.00  0.00     0.074 A 
ATOM     43  C   UNL A   1      40.497  26.948  28.584  1.00  0.00     0.049 A 
ATOM     44  N   UNL A   1      43.269  27.348  27.505  1.00  0.00    -0.248 NA
ATOM     45  C   UNL A   1      43.193  25.193  26.614  1.00  0.00     0.031 C 
ATOM     46  C   UNL A   1      39.171  26.776  29.188  1.00  0.00     0.029 A 
ATOM     47  N   UNL A   1      40.886  28.195  29.006  1.00  0.00    -0.354 N 
ATOM     48  C   UNL A   1      44.495  27.052  26.923  1.00  0.00     0.074 A 
ATOM     49  C   UNL A   1      44.408  25.692  26.433  1.00  0.00     0.031 C 
ATOM     50  C   UNL A   1      38.849  27.881  29.877  1.00  0.00     0.029 A 
ATOM     51  C   UNL A   1      39.957  28.826  29.802  1.00  0.00     0.049 A 
ATOM     52  H   UNL A   1      41.751  28.600  28.762  1.00  0.00     0.167 HD
ATOM     53  C   UNL A   1      45.583  27.848  26.788  1.00  0.00     0.034 A 
ATOM     54  C   UNL A   1      39.990  30.028  30.409  1.00  0.00     0.034 A 
ATOM     55  C   UNL A   1      45.653  29.204  27.266  1.00  0.00     0.049 A 
ATOM     56  C   UNL A   1      41.194  30.903  30.207  1.00  0.00     0.074 A 
ATOM     57  C   UNL A   1      46.680  30.118  27.114  1.00  0.00     0.029 A 
ATOM     58  N   UNL A   1      44.661  29.838  28.002  1.00  0.00    -0.354 N 
ATOM     59  N   UNL A   1      42.282  30.665  29.515  1.00  0.00    -0.248 NA
ATOM     60  C   UNL A   1      41.161  32.231  30.837  1.00  0.00     0.031 C 
ATOM     61  C   UNL A   1      46.325  31.292  27.787  1.00  0.00     0.029 A 
ATOM     62  C   UNL A   1      45.057  31.126  28.322  1.00  0.00     0.049 A 
ATOM     63  H   UNL A   1      43.803  29.431  28.260  1.00  0.00     0.167 HD
ATOM     64  C   UNL A   1      43.045  31.821  29.593  1.00  0.00     0.074 A 
ATOM     65  C   UNL A   1      42.284  32.770  30.381  1.00  0.00     0.031 C 
ATOM     66  C   UNL A   1      44.270  32.074  29.070  1.00  0.00     0.034 A 
BRANCH  53  67
ATOM     67  C   UNL A   1      46.776  27.283  26.061  1.00  0.00     0.023 A 
ATOM     68  C   UNL A   1      47.602  26.337  26.704  1.00  0.00     0.012 A 
ATOM     69  C   UNL A   1      47.055  27.647  24.728  1.00  0.00     0.148 A 
ATOM     70  C   UNL A   1      48.707  25.794  26.050  1.00  0.00     0.002 A 
ATOM     71  C   UNL A   1      48.130  27.066  24.066  1.00  0.00     0.091 A 
ATOM     72  F   UNL A   1      46.271  28.560  24.138  1.00  0.00    -0.205 F 
ATOM     73  C   UNL A   1      48.965  26.150  24.729  1.00  0.00     0.022 A 
BRANCH  71  74
ATOM     74  S   UNL A   1      48.503  27.400  22.341  1.00  0.00     0.127 S 
ATOM     75  O   UNL A   1      47.292  28.100  21.910  1.00  0.00    -0.237 OA
ATOM     76  O   UNL A   1      49.693  28.247  22.443  1.00  0.00    -0.237 OA
ATOM     77  O   UNL A   1      48.728  26.105  21.720  1.00  0.00    -0.744 OA
ENDBRANCH  71  74
ENDBRANCH  53  67
BRANCH  54  78
ATOM     78  C   UNL A   1      38.823  30.496  31.211  1.00  0.00     0.023 A 
ATOM     79  C   UNL A   1      38.801  30.275  32.602  1.00  0.00     0.012 A 
ATOM     80  C   UNL A   1      37.748  31.176  30.608  1.00  0.00     0.148 A 
ATOM     81  C   UNL A   1      37.713  30.688  33.372  1.00  0.00     0.002 A 
ATOM     82  C   UNL A   1      36.693  31.636  31.388  1.00  0.00     0.091 A 
ATOM     83  F   UNL A   1      37.783  31.370  29.282  1.00  0.00    -0.205 F 
ATOM     84  C   UNL A   1      36.664  31.377  32.767  1.00  0.00     0.022 A 
BRANCH  82  85
ATOM     85  S   UNL A   1      35.367  32.643  30.716  1.00  0.00     0.127 S 
ATOM     86  O   UNL A   1      36.040  33.923  30.505  1.00  0.00    -0.237 OA
ATOM     87  O   UNL A   1      35.026  31.916  29.493  1.00  0.00    -0.237 OA
ATOM     88  O   UNL A   1      34.319  32.639  31.727  1.00  0.00    -0.744 OA
ENDBRANCH  82  85
ENDBRANCH  54  78
BRANCH  66  89
ATOM     89  C   UNL A   1      44.850  33.447  29.293  1.00  0.00     0.023 A 
ATOM     90  C   UNL A   1      45.581  33.725  30.465  1.00  0.00     0.012 A 
ATOM     91  C   UNL A   1      44.710  34.447  28.310  1.00  0.00     0.148 A 
ATOM     92  C   UNL A   1      46.129  34.990  30.674  1.00  0.00     0.002 A 
ATOM     93  C   UNL A   1      45.306  35.687  28.500  1.00  0.00     0.091 A 
ATOM     94  F   UNL A   1      43.993  34.169  27.212  1.00  0.00    -0.205 F 
ATOM     95  C   UNL A   1      46.002  35.967  29.688  1.00  0.00     0.022 A 
BRANCH  93  96
ATOM     96  S   UNL A   1      45.282  36.967  27.242  1.00  0.00     0.127 S 
ATOM     97  O   UNL A   1      46.006  38.050  27.904  1.00  0.00    -0.237 OA
ATOM     98  O   UNL A   1      46.006  36.333  26.140  1.00  0.00    -0.237 OA
ATOM     99  O   UNL A   1      43.876  37.231  26.966  1.00  0.00    -0.744 OA
ENDBRANCH  93  96
ENDBRANCH  66  89
ENDBRANCH  40  41
ENDBRANCH  32  35
ENDBRANCH  30  31
ENDBRANCH  29  30
ENDBRANCH   1  29
TORSDOF 19
ENDMDL
MODEL 3
REMARK VINA RESULT:     -12.2      5.128     10.477
REMARK SMILES O=C(CS[C@H](C(=O)Nc1ccc(C(F)(F)F)cc1)c1ccccc1)NCCCNC(=O)c1ccc(-c2c3nc(c(-c4cccc(S(=O)(=O)[O-])c4F)c4ccc([nH]4)c(-c4cccc(S(=O)(=O)[O-])c4F)c4nc(c(-c5cccc(S(=O)(=O)[O-])c5F)c5ccc2[nH]5)C=C4)C=C3)cc1
REMARK SMILES IDX 26 1 25 2 1 3 2 4 3 6 4 7 5 8 19 9 20 10 24 11 21 12 23 13
REMARK SMILES IDX 22 14 6 15 7 16 8 17 9 19 10 20 18 21 11 22 17 23 12 24
REMARK SMILES IDX 13 25 14 26 15 27 16 28 27 29 28 30 29 31 30 32 31 34 32 35
REMARK SMILES IDX 33 36 94 37 34 38 93 39 35 40 36 41 37 42 87 43 38 44 92 45
REMARK SMILES IDX 86 46 88 47 39 48 91 49 85 50 84 51 40 53 72 54 52 55 71 56
REMARK SMILES IDX 53 57 56 58 70 59 89 60 54 61 55 62 69 64 90 65 57 66 41 67
REMARK SMILES IDX 42 68 50 69 43 70 45 71 51 72 44 73 46 74 47 75 48 76 49 77
REMARK SMILES IDX 73 78 74 79 82 80 75 81 77 82 83 83 76 84 78 85 79 86 80 87
REMARK SMILES IDX 81 88 58 89 59 90 67 91 60 92 62 93 68 94 61 95 63 96 64 97
REMARK SMILES IDX 65 98 66 99
REMARK H PARENT 25 5 8 18 29 33 88 52 56 63
REMARK Flexibility Score: inf
ROOT
ATOM      1  C   UNL A   1      30.674  30.268  24.437  1.00  0.00     0.117 C 
ENDROOT
BRANCH   1   2
ATOM      2  N   UNL A   1      31.862  29.463  24.197  1.00  0.00    -0.355 N 
ATOM      3  O   UNL A   1      31.101  27.741  25.504  1.00  0.00    -0.274 OA
ATOM      4  C   UNL A   1      31.954  28.190  24.740  1.00  0.00     0.230 C 
ATOM      5  H   UNL A   1      32.600  29.822  23.652  1.00  0.00     0.163 HD
BRANCH   4   6
ATOM      6  C   UNL A   1      33.136  27.363  24.273  1.00  0.00     0.170 C 
BRANCH   6   7
ATOM      7  S   UNL A   1      33.875  26.342  25.617  1.00  0.00    -0.134 SA
BRANCH   7   8
ATOM      8  C   UNL A   1      33.653  24.552  25.074  1.00  0.00     0.166 C 
BRANCH   8   9
ATOM      9  C   UNL A   1      34.992  23.852  24.833  1.00  0.00    -0.026 A 
ATOM     10  C   UNL A   1      35.317  23.347  23.559  1.00  0.00     0.005 A 
ATOM     11  C   UNL A   1      35.963  23.678  25.827  1.00  0.00     0.005 A 
ATOM     12  C   UNL A   1      36.480  22.588  23.348  1.00  0.00     0.000 A 
ATOM     13  C   UNL A   1      37.116  22.912  25.633  1.00  0.00     0.000 A 
ATOM     14  C   UNL A   1      37.360  22.336  24.397  1.00  0.00     0.000 A 
ENDBRANCH   8   9
BRANCH   8  15
ATOM     15  C   UNL A   1      32.430  23.868  25.776  1.00  0.00     0.242 C 
ATOM     16  O   UNL A   1      31.679  24.513  26.525  1.00  0.00    -0.273 OA
ATOM     17  N   UNL A   1      31.898  22.655  25.431  1.00  0.00    -0.325 N 
ATOM     18  H   UNL A   1      30.919  22.616  25.525  1.00  0.00     0.169 HD
BRANCH  17  19
ATOM     19  C   UNL A   1      32.460  21.466  24.974  1.00  0.00     0.041 A 
ATOM     20  C   UNL A   1      33.498  20.876  25.699  1.00  0.00     0.027 A 
ATOM     21  C   UNL A   1      32.070  20.889  23.782  1.00  0.00     0.027 A 
ATOM     22  C   UNL A   1      33.989  19.615  25.328  1.00  0.00     0.015 A 
ATOM     23  C   UNL A   1      32.526  19.621  23.432  1.00  0.00     0.015 A 
ATOM     24  C   UNL A   1      33.452  18.945  24.222  1.00  0.00     0.056 A 
BRANCH  24  25
ATOM     25  C   UNL A   1      33.836  17.530  23.873  1.00  0.00     0.416 C 
ATOM     26  F   UNL A   1      32.863  16.625  24.161  1.00  0.00    -0.166 F 
ATOM     27  F   UNL A   1      34.109  17.382  22.545  1.00  0.00    -0.166 F 
ATOM     28  F   UNL A   1      34.959  17.103  24.517  1.00  0.00    -0.166 F 
ENDBRANCH  24  25
ENDBRANCH  17  19
ENDBRANCH   8  15
ENDBRANCH   7   8
ENDBRANCH   6   7
ENDBRANCH   4   6
ENDBRANCH   1   2
BRANCH   1  29
ATOM     29  C   UNL A   1      30.702  31.149  25.679  1.00  0.00     0.042 C 
BRANCH  29  30
ATOM     30  C   UNL A   1      32.059  31.381  26.332  1.00  0.00     0.118 C 
BRANCH  30  31
ATOM     31  N   UNL A   1      32.207  32.665  26.998  1.00  0.00    -0.352 N 
ATOM     32  C   UNL A   1      33.246  33.149  27.768  1.00  0.00     0.251 C 
ATOM     33  H   UNL A   1      31.450  33.284  26.883  1.00  0.00     0.163 HD
ATOM     34  O   UNL A   1      33.108  34.242  28.318  1.00  0.00    -0.269 OA
BRANCH  32  35
ATOM     35  C   UNL A   1      34.502  32.379  27.989  1.00  0.00     0.039 A 
ATOM     36  C   UNL A   1      35.702  33.097  28.019  1.00  0.00     0.014 A 
ATOM     37  C   UNL A   1      34.532  31.002  28.219  1.00  0.00     0.014 A 
ATOM     38  C   UNL A   1      36.879  32.482  28.451  1.00  0.00     0.010 A 
ATOM     39  C   UNL A   1      35.679  30.410  28.749  1.00  0.00     0.010 A 
ATOM     40  C   UNL A   1      36.849  31.159  28.920  1.00  0.00    -0.014 A 
BRANCH  40  41
ATOM     41  C   UNL A   1      37.987  30.620  29.712  1.00  0.00     0.031 A 
ATOM     42  C   UNL A   1      38.241  31.062  31.123  1.00  0.00     0.074 A 
ATOM     43  C   UNL A   1      38.850  29.780  29.101  1.00  0.00     0.049 A 
ATOM     44  N   UNL A   1      39.192  30.688  31.941  1.00  0.00    -0.248 NA
ATOM     45  C   UNL A   1      37.331  32.072  31.683  1.00  0.00     0.031 C 
ATOM     46  C   UNL A   1      38.764  29.355  27.699  1.00  0.00     0.029 A 
ATOM     47  N   UNL A   1      39.974  29.143  29.565  1.00  0.00    -0.354 N 
ATOM     48  C   UNL A   1      39.010  31.430  33.101  1.00  0.00     0.074 A 
ATOM     49  C   UNL A   1      37.879  32.302  32.869  1.00  0.00     0.031 C 
ATOM     50  C   UNL A   1      39.773  28.513  27.427  1.00  0.00     0.029 A 
ATOM     51  C   UNL A   1      40.601  28.366  28.617  1.00  0.00     0.049 A 
ATOM     52  H   UNL A   1      40.300  29.234  30.489  1.00  0.00     0.167 HD
ATOM     53  C   UNL A   1      39.707  31.371  34.262  1.00  0.00     0.034 A 
ATOM     54  C   UNL A   1      41.721  27.621  28.692  1.00  0.00     0.034 A 
ATOM     55  C   UNL A   1      40.822  30.488  34.488  1.00  0.00     0.049 A 
ATOM     56  C   UNL A   1      42.449  27.544  30.004  1.00  0.00     0.074 A 
ATOM     57  C   UNL A   1      41.547  30.298  35.650  1.00  0.00     0.029 A 
ATOM     58  N   UNL A   1      41.383  29.657  33.528  1.00  0.00    -0.354 N 
ATOM     59  N   UNL A   1      42.165  28.133  31.140  1.00  0.00    -0.248 NA
ATOM     60  C   UNL A   1      43.630  26.671  30.057  1.00  0.00     0.031 C 
ATOM     61  C   UNL A   1      42.568  29.379  35.384  1.00  0.00     0.029 A 
ATOM     62  C   UNL A   1      42.453  28.962  34.068  1.00  0.00     0.049 A 
ATOM     63  H   UNL A   1      41.068  29.574  32.599  1.00  0.00     0.167 HD
ATOM     64  C   UNL A   1      43.105  27.673  32.053  1.00  0.00     0.074 A 
ATOM     65  C   UNL A   1      43.954  26.739  31.340  1.00  0.00     0.031 C 
ATOM     66  C   UNL A   1      43.261  28.003  33.358  1.00  0.00     0.034 A 
BRANCH  53  67
ATOM     67  C   UNL A   1      39.260  32.262  35.392  1.00  0.00     0.023 A 
ATOM     68  C   UNL A   1      38.327  31.780  36.334  1.00  0.00     0.012 A 
ATOM     69  C   UNL A   1      39.795  33.556  35.552  1.00  0.00     0.148 A 
ATOM     70  C   UNL A   1      37.904  32.583  37.392  1.00  0.00     0.002 A 
ATOM     71  C   UNL A   1      39.404  34.333  36.636  1.00  0.00     0.091 A 
ATOM     72  F   UNL A   1      40.666  34.005  34.638  1.00  0.00    -0.205 F 
ATOM     73  C   UNL A   1      38.450  33.854  37.550  1.00  0.00     0.022 A 
BRANCH  71  74
ATOM     74  S   UNL A   1      40.103  35.953  36.971  1.00  0.00     0.127 S 
ATOM     75  O   UNL A   1      41.526  35.636  37.105  1.00  0.00    -0.237 OA
ATOM     76  O   UNL A   1      39.756  36.694  35.757  1.00  0.00    -0.237 OA
ATOM     77  O   UNL A   1      39.455  36.429  38.182  1.00  0.00    -0.744 OA
ENDBRANCH  71  74
ENDBRANCH  53  67
BRANCH  54  78
ATOM     78  C   UNL A   1      42.184  26.841  27.508  1.00  0.00     0.023 A 
ATOM     79  C   UNL A   1      42.933  27.483  26.502  1.00  0.00     0.012 A 
ATOM     80  C   UNL A   1      41.905  25.467  27.383  1.00  0.00     0.148 A 
ATOM     81  C   UNL A   1      43.363  26.780  25.375  1.00  0.00     0.002 A 
ATOM     82  C   UNL A   1      42.385  24.758  26.287  1.00  0.00     0.091 A 
ATOM     83  F   UNL A   1      41.184  24.876  28.346  1.00  0.00    -0.205 F 
ATOM     84  C   UNL A   1      43.098  25.416  25.272  1.00  0.00     0.022 A 
BRANCH  82  85
ATOM     85  S   UNL A   1      42.204  22.978  26.137  1.00  0.00     0.127 S 
ATOM     86  O   UNL A   1      42.816  22.723  24.835  1.00  0.00    -0.237 OA
ATOM     87  O   UNL A   1      42.974  22.499  27.286  1.00  0.00    -0.237 OA
ATOM     88  O   UNL A   1      40.773  22.719  26.226  1.00  0.00    -0.744 OA
ENDBRANCH  82  85
ENDBRANCH  54  78
BRANCH  66  89
ATOM     89  C   UNL A   1      44.365  27.315  34.120  1.00  0.00     0.023 A 
ATOM     90  C   UNL A   1      45.625  27.931  34.251  1.00  0.00     0.012 A 
ATOM     91  C   UNL A   1      44.131  26.077  34.750  1.00  0.00     0.148 A 
ATOM     92  C   UNL A   1      46.648  27.306  34.962  1.00  0.00     0.002 A 
ATOM     93  C   UNL A   1      45.138  25.486  35.504  1.00  0.00     0.091 A 
ATOM     94  F   UNL A   1      42.932  25.497  34.595  1.00  0.00    -0.205 F 
ATOM     95  C   UNL A   1      46.402  26.091  35.598  1.00  0.00     0.022 A 
BRANCH  93  96
ATOM     96  S   UNL A   1      44.877  23.976  36.439  1.00  0.00     0.127 S 
ATOM     97  O   UNL A   1      44.525  24.499  37.758  1.00  0.00    -0.237 OA
ATOM     98  O   UNL A   1      43.770  23.350  35.715  1.00  0.00    -0.237 OA
ATOM     99  O   UNL A   1      46.133  23.241  36.372  1.00  0.00    -0.744 OA
ENDBRANCH  93  96
ENDBRANCH  66  89
ENDBRANCH  40  41
ENDBRANCH  32  35
ENDBRANCH  30  31
ENDBRANCH  29  30
ENDBRANCH   1  29
TORSDOF 19
ENDMDL
