MODEL 1
REMARK VINA RESULT:     -11.8      0.000      0.000
REMARK SMILES CC[NH2+][C@]1(C(=O)NCCCNC(=O)c2ccc(-c3c4nc(c(-c5cccc(S(=O)(=O)[O-])c5F)c5ccc([nH]5)c(-c5cccc(S(=O)(=O)[O-])c5F)c5nc(c(-c6cccc(S(=O)(=O)[O-])c6F)c6ccc3[nH]6)C=C5)C=C4)cc2)CCC[C@H]1CC[N@H+]1CCC[C@@H](CC)C1
REMARK SMILES IDX 8 1 7 2 5 3 6 4 4 6 77 7 80 8 78 9 79 10 3 11 2 14 1 15
REMARK SMILES IDX 81 16 82 17 83 18 84 19 90 20 85 22 87 23 86 24 88 25 89 26
REMARK SMILES IDX 9 27 10 28 11 29 12 30 13 32 14 33 15 34 76 35 16 36 75 37
REMARK SMILES IDX 17 38 18 39 19 40 69 41 20 42 74 43 68 44 70 45 21 46 73 47
REMARK SMILES IDX 67 48 66 49 22 51 54 52 34 53 53 54 35 55 38 56 52 57 71 58
REMARK SMILES IDX 36 59 37 60 51 62 72 63 39 64 23 65 24 66 32 67 25 68 27 69
REMARK SMILES IDX 33 70 26 71 28 72 29 73 30 74 31 75 55 76 56 77 64 78 57 79
REMARK SMILES IDX 59 80 65 81 58 82 60 83 61 84 62 85 63 86 40 87 41 88 49 89
REMARK SMILES IDX 42 90 44 91 50 92 43 93 45 94 46 95 47 96 48 97
REMARK H PARENT 7 5 3 12 3 13 83 21 11 31 70 50 38 61
REMARK Flexibility Score: inf
ROOT
ATOM      1  C   UNL A   1      32.410  27.228  26.532  1.00  0.00     0.118 C 
ENDROOT
BRANCH   1   2
ATOM      2  N   UNL A   1      31.518  26.143  26.879  1.00  0.00    -0.351 N 
ATOM      3  C   UNL A   1      31.500  24.843  26.417  1.00  0.00     0.281 C 
ATOM      4  O   UNL A   1      30.906  24.045  27.162  1.00  0.00    -0.268 OA
ATOM      5  H   UNL A   1      30.822  26.366  27.539  1.00  0.00     0.163 HD
BRANCH   3   6
ATOM      6  C   UNL A   1      32.109  24.334  25.040  1.00  0.00     0.178 C 
ATOM      7  C   UNL A   1      31.091  23.356  24.335  1.00  0.00     0.079 C 
ATOM      8  C   UNL A   1      32.217  25.394  23.883  1.00  0.00     0.066 C 
ATOM      9  C   UNL A   1      31.506  23.312  22.849  1.00  0.00     0.008 C 
ATOM     10  C   UNL A   1      32.463  24.492  22.649  1.00  0.00     0.011 C 
BRANCH   6  11
ATOM     11  N   UNL A   1      33.280  23.407  25.274  1.00  0.00    -0.334 N 
ATOM     12  H   UNL A   1      33.095  22.913  26.147  1.00  0.00     0.347 HD
ATOM     13  H   UNL A   1      33.313  22.851  24.418  1.00  0.00     0.347 HD
BRANCH  11  14
ATOM     14  C   UNL A   1      34.626  23.945  25.374  1.00  0.00     0.257 C 
ATOM     15  C   UNL A   1      35.426  23.188  26.432  1.00  0.00     0.071 C 
ENDBRANCH  11  14
ENDBRANCH   6  11
BRANCH   8  16
ATOM     16  C   UNL A   1      30.934  26.218  23.497  1.00  0.00     0.072 C 
BRANCH  16  17
ATOM     17  C   UNL A   1      31.077  27.411  22.569  1.00  0.00     0.262 C 
BRANCH  17  18
ATOM     18  N   UNL A   1      29.797  28.086  22.358  1.00  0.00    -0.335 N 
ATOM     19  C   UNL A   1      28.824  27.774  23.424  1.00  0.00     0.262 C 
ATOM     20  C   UNL A   1      30.038  29.528  22.322  1.00  0.00     0.265 C 
ATOM     21  H   UNL A   1      29.401  27.759  21.478  1.00  0.00     0.348 HD
ATOM     22  C   UNL A   1      27.485  28.473  23.179  1.00  0.00     0.062 C 
ATOM     23  C   UNL A   1      28.751  30.270  22.003  1.00  0.00     0.044 C 
ATOM     24  C   UNL A   1      27.662  29.981  23.034  1.00  0.00     0.015 C 
BRANCH  23  25
ATOM     25  C   UNL A   1      28.954  31.769  21.792  1.00  0.00     0.006 C 
ATOM     26  C   UNL A   1      28.369  32.734  22.819  1.00  0.00     0.004 C 
ENDBRANCH  23  25
ENDBRANCH  17  18
ENDBRANCH  16  17
ENDBRANCH   8  16
ENDBRANCH   3   6
ENDBRANCH   1   2
BRANCH   1  27
ATOM     27  C   UNL A   1      32.008  28.712  26.707  1.00  0.00     0.042 C 
BRANCH  27  28
ATOM     28  C   UNL A   1      32.525  29.778  25.736  1.00  0.00     0.118 C 
BRANCH  28  29
ATOM     29  N   UNL A   1      32.585  31.120  26.341  1.00  0.00    -0.352 N 
ATOM     30  C   UNL A   1      33.357  31.790  27.264  1.00  0.00     0.251 C 
ATOM     31  H   UNL A   1      31.875  31.701  25.986  1.00  0.00     0.163 HD
ATOM     32  O   UNL A   1      32.962  32.913  27.591  1.00  0.00    -0.269 OA
BRANCH  30  33
ATOM     33  C   UNL A   1      34.600  31.295  27.919  1.00  0.00     0.039 A 
ATOM     34  C   UNL A   1      35.658  32.196  28.097  1.00  0.00     0.014 A 
ATOM     35  C   UNL A   1      34.857  29.958  28.191  1.00  0.00     0.014 A 
ATOM     36  C   UNL A   1      36.908  31.778  28.609  1.00  0.00     0.010 A 
ATOM     37  C   UNL A   1      36.084  29.561  28.798  1.00  0.00     0.010 A 
ATOM     38  C   UNL A   1      37.144  30.456  29.035  1.00  0.00    -0.014 A 
BRANCH  38  39
ATOM     39  C   UNL A   1      38.464  30.083  29.705  1.00  0.00     0.031 A 
ATOM     40  C   UNL A   1      38.888  30.580  31.087  1.00  0.00     0.074 A 
ATOM     41  C   UNL A   1      39.366  29.288  29.071  1.00  0.00     0.049 A 
ATOM     42  N   UNL A   1      39.940  30.237  31.804  1.00  0.00    -0.248 NA
ATOM     43  C   UNL A   1      38.075  31.622  31.727  1.00  0.00     0.031 C 
ATOM     44  C   UNL A   1      39.276  28.831  27.683  1.00  0.00     0.029 A 
ATOM     45  N   UNL A   1      40.546  28.714  29.516  1.00  0.00    -0.354 N 
ATOM     46  C   UNL A   1      39.942  31.058  32.931  1.00  0.00     0.074 A 
ATOM     47  C   UNL A   1      38.811  31.948  32.781  1.00  0.00     0.031 C 
ATOM     48  C   UNL A   1      40.298  28.002  27.415  1.00  0.00     0.029 A 
ATOM     49  C   UNL A   1      41.145  27.876  28.598  1.00  0.00     0.049 A 
ATOM     50  H   UNL A   1      40.923  28.889  30.408  1.00  0.00     0.167 HD
ATOM     51  C   UNL A   1      40.754  31.057  34.022  1.00  0.00     0.034 A 
ATOM     52  C   UNL A   1      42.229  27.070  28.680  1.00  0.00     0.034 A 
ATOM     53  C   UNL A   1      41.817  30.116  34.274  1.00  0.00     0.049 A 
ATOM     54  C   UNL A   1      43.015  26.953  29.961  1.00  0.00     0.074 A 
ATOM     55  C   UNL A   1      42.562  29.950  35.433  1.00  0.00     0.029 A 
ATOM     56  N   UNL A   1      42.288  29.182  33.370  1.00  0.00    -0.354 N 
ATOM     57  N   UNL A   1      42.825  27.560  31.105  1.00  0.00    -0.248 NA
ATOM     58  C   UNL A   1      44.142  26.001  29.973  1.00  0.00     0.031 C 
ATOM     59  C   UNL A   1      43.484  28.917  35.227  1.00  0.00     0.029 A 
ATOM     60  C   UNL A   1      43.309  28.437  33.943  1.00  0.00     0.049 A 
ATOM     61  H   UNL A   1      41.948  29.063  32.453  1.00  0.00     0.167 HD
ATOM     62  C   UNL A   1      43.783  27.043  31.976  1.00  0.00     0.074 A 
ATOM     63  C   UNL A   1      44.532  26.050  31.240  1.00  0.00     0.031 C 
ATOM     64  C   UNL A   1      44.027  27.391  33.263  1.00  0.00     0.034 A 
BRANCH  51  65
ATOM     65  C   UNL A   1      40.455  32.054  35.121  1.00  0.00     0.023 A 
ATOM     66  C   UNL A   1      41.187  33.259  35.165  1.00  0.00     0.012 A 
ATOM     67  C   UNL A   1      39.409  31.849  36.042  1.00  0.00     0.148 A 
ATOM     68  C   UNL A   1      40.917  34.222  36.136  1.00  0.00     0.002 A 
ATOM     69  C   UNL A   1      39.116  32.836  36.981  1.00  0.00     0.091 A 
ATOM     70  F   UNL A   1      38.722  30.698  35.993  1.00  0.00    -0.205 F 
ATOM     71  C   UNL A   1      39.878  34.014  37.038  1.00  0.00     0.022 A 
BRANCH  69  72
ATOM     72  S   UNL A   1      37.737  32.702  38.126  1.00  0.00     0.127 S 
ATOM     73  O   UNL A   1      38.093  33.696  39.137  1.00  0.00    -0.237 OA
ATOM     74  O   UNL A   1      36.595  33.070  37.287  1.00  0.00    -0.237 OA
ATOM     75  O   UNL A   1      37.729  31.317  38.577  1.00  0.00    -0.744 OA
ENDBRANCH  69  72
ENDBRANCH  51  65
BRANCH  52  76
ATOM     76  C   UNL A   1      42.588  26.191  27.526  1.00  0.00     0.023 A 
ATOM     77  C   UNL A   1      43.390  26.715  26.491  1.00  0.00     0.012 A 
ATOM     78  C   UNL A   1      42.145  24.858  27.442  1.00  0.00     0.148 A 
ATOM     79  C   UNL A   1      43.718  25.939  25.379  1.00  0.00     0.002 A 
ATOM     80  C   UNL A   1      42.520  24.073  26.357  1.00  0.00     0.091 A 
ATOM     81  F   UNL A   1      41.365  24.385  28.424  1.00  0.00    -0.205 F 
ATOM     82  C   UNL A   1      43.291  24.616  25.316  1.00  0.00     0.022 A 
BRANCH  80  83
ATOM     83  S   UNL A   1      42.126  22.324  26.254  1.00  0.00     0.127 S 
ATOM     84  O   UNL A   1      40.668  22.351  26.152  1.00  0.00    -0.237 OA
ATOM     85  O   UNL A   1      42.822  21.927  25.030  1.00  0.00    -0.237 OA
ATOM     86  O   UNL A   1      42.667  21.730  27.469  1.00  0.00    -0.744 OA
ENDBRANCH  80  83
ENDBRANCH  52  76
BRANCH  64  87
ATOM     87  C   UNL A   1      45.136  26.679  34.000  1.00  0.00     0.023 A 
ATOM     88  C   UNL A   1      46.458  27.157  33.902  1.00  0.00     0.012 A 
ATOM     89  C   UNL A   1      44.868  25.575  34.835  1.00  0.00     0.148 A 
ATOM     90  C   UNL A   1      47.498  26.532  34.594  1.00  0.00     0.002 A 
ATOM     91  C   UNL A   1      45.903  24.982  35.554  1.00  0.00     0.091 A 
ATOM     92  F   UNL A   1      43.611  25.111  34.905  1.00  0.00    -0.205 F 
ATOM     93  C   UNL A   1      47.219  25.452  35.427  1.00  0.00     0.022 A 
BRANCH  91  94
ATOM     94  S   UNL A   1      45.608  23.640  36.715  1.00  0.00     0.127 S 
ATOM     95  O   UNL A   1      44.879  22.680  35.888  1.00  0.00    -0.237 OA
ATOM     96  O   UNL A   1      46.965  23.225  37.075  1.00  0.00    -0.237 OA
ATOM     97  O   UNL A   1      44.856  24.233  37.813  1.00  0.00    -0.744 OA
ENDBRANCH  91  94
ENDBRANCH  64  87
ENDBRANCH  38  39
ENDBRANCH  30  33
ENDBRANCH  28  29
ENDBRANCH  27  28
ENDBRANCH   1  27
TORSDOF 19
ENDMDL
MODEL 2
REMARK VINA RESULT:     -11.7      5.238     10.553
REMARK SMILES CC[NH2+][C@]1(C(=O)NCCCNC(=O)c2ccc(-c3c4nc(c(-c5cccc(S(=O)(=O)[O-])c5F)c5ccc([nH]5)c(-c5cccc(S(=O)(=O)[O-])c5F)c5nc(c(-c6cccc(S(=O)(=O)[O-])c6F)c6ccc3[nH]6)C=C5)C=C4)cc2)CCC[C@H]1CC[N@H+]1CCC[C@@H](CC)C1
REMARK SMILES IDX 8 1 7 2 5 3 6 4 4 6 77 7 80 8 78 9 79 10 3 11 2 14 1 15
REMARK SMILES IDX 81 16 82 17 83 18 84 19 90 20 85 22 87 23 86 24 88 25 89 26
REMARK SMILES IDX 9 27 10 28 11 29 12 30 13 32 14 33 15 34 76 35 16 36 75 37
REMARK SMILES IDX 17 38 18 39 19 40 69 41 20 42 74 43 68 44 70 45 21 46 73 47
REMARK SMILES IDX 67 48 66 49 22 51 54 52 34 53 53 54 35 55 38 56 52 57 71 58
REMARK SMILES IDX 36 59 37 60 51 62 72 63 39 64 23 65 24 66 32 67 25 68 27 69
REMARK SMILES IDX 33 70 26 71 28 72 29 73 30 74 31 75 55 76 56 77 64 78 57 79
REMARK SMILES IDX 59 80 65 81 58 82 60 83 61 84 62 85 63 86 40 87 41 88 49 89
REMARK SMILES IDX 42 90 44 91 50 92 43 93 45 94 46 95 47 96 48 97
REMARK H PARENT 7 5 3 12 3 13 83 21 11 31 70 50 38 61
REMARK Flexibility Score: inf
ROOT
ATOM      1  C   UNL A   1      35.330  23.679  23.651  1.00  0.00     0.118 C 
ENDROOT
BRANCH   1   2
ATOM      2  N   UNL A   1      34.181  23.773  22.778  1.00  0.00    -0.351 N 
ATOM      3  C   UNL A   1      33.000  24.464  22.957  1.00  0.00     0.281 C 
ATOM      4  O   UNL A   1      32.379  24.694  21.905  1.00  0.00    -0.268 OA
ATOM      5  H   UNL A   1      34.250  23.270  21.934  1.00  0.00     0.163 HD
BRANCH   3   6
ATOM      6  C   UNL A   1      32.385  24.915  24.351  1.00  0.00     0.178 C 
ATOM      7  C   UNL A   1      30.822  25.076  24.218  1.00  0.00     0.079 C 
ATOM      8  C   UNL A   1      32.388  23.842  25.502  1.00  0.00     0.066 C 
ATOM      9  C   UNL A   1      30.265  25.016  25.657  1.00  0.00     0.008 C 
ATOM     10  C   UNL A   1      31.406  24.468  26.522  1.00  0.00     0.011 C 
BRANCH   6  11
ATOM     11  N   UNL A   1      32.790  26.331  24.692  1.00  0.00    -0.334 N 
ATOM     12  H   UNL A   1      33.066  26.776  23.817  1.00  0.00     0.347 HD
ATOM     13  H   UNL A   1      31.968  26.702  25.168  1.00  0.00     0.347 HD
BRANCH  11  14
ATOM     14  C   UNL A   1      33.864  26.573  25.642  1.00  0.00     0.257 C 
ATOM     15  C   UNL A   1      33.514  27.747  26.554  1.00  0.00     0.071 C 
ENDBRANCH  11  14
ENDBRANCH   6  11
BRANCH   8  16
ATOM     16  C   UNL A   1      31.773  22.425  25.208  1.00  0.00     0.072 C 
BRANCH  16  17
ATOM     17  C   UNL A   1      32.478  21.191  25.742  1.00  0.00     0.262 C 
BRANCH  17  18
ATOM     18  N   UNL A   1      32.208  20.015  24.916  1.00  0.00    -0.335 N 
ATOM     19  C   UNL A   1      32.564  20.239  23.500  1.00  0.00     0.262 C 
ATOM     20  C   UNL A   1      32.983  18.893  25.444  1.00  0.00     0.265 C 
ATOM     21  H   UNL A   1      31.209  19.818  24.951  1.00  0.00     0.348 HD
ATOM     22  C   UNL A   1      32.258  19.006  22.646  1.00  0.00     0.062 C 
ATOM     23  C   UNL A   1      32.657  17.621  24.679  1.00  0.00     0.044 C 
ATOM     24  C   UNL A   1      32.958  17.765  23.189  1.00  0.00     0.015 C 
BRANCH  23  25
ATOM     25  C   UNL A   1      33.309  16.375  25.275  1.00  0.00     0.006 C 
ATOM     26  C   UNL A   1      34.793  16.134  25.012  1.00  0.00     0.004 C 
ENDBRANCH  23  25
ENDBRANCH  17  18
ENDBRANCH  16  17
ENDBRANCH   8  16
ENDBRANCH   3   6
ENDBRANCH   1   2
BRANCH   1  27
ATOM     27  C   UNL A   1      36.096  22.351  23.862  1.00  0.00     0.042 C 
BRANCH  27  28
ATOM     28  C   UNL A   1      36.126  21.681  25.240  1.00  0.00     0.118 C 
BRANCH  28  29
ATOM     29  N   UNL A   1      37.351  20.897  25.467  1.00  0.00    -0.352 N 
ATOM     30  C   UNL A   1      38.659  21.128  25.833  1.00  0.00     0.251 C 
ATOM     31  H   UNL A   1      37.191  19.938  25.315  1.00  0.00     0.163 HD
ATOM     32  O   UNL A   1      39.421  20.159  25.771  1.00  0.00    -0.269 OA
BRANCH  30  33
ATOM     33  C   UNL A   1      39.249  22.423  26.273  1.00  0.00     0.039 A 
ATOM     34  C   UNL A   1      40.376  22.387  27.105  1.00  0.00     0.014 A 
ATOM     35  C   UNL A   1      38.649  23.659  26.076  1.00  0.00     0.014 A 
ATOM     36  C   UNL A   1      40.927  23.568  27.655  1.00  0.00     0.010 A 
ATOM     37  C   UNL A   1      39.265  24.852  26.551  1.00  0.00     0.010 A 
ATOM     38  C   UNL A   1      40.427  24.848  27.346  1.00  0.00    -0.014 A 
BRANCH  38  39
ATOM     39  C   UNL A   1      41.137  26.101  27.855  1.00  0.00     0.031 A 
ATOM     40  C   UNL A   1      42.588  26.450  27.524  1.00  0.00     0.074 A 
ATOM     41  C   UNL A   1      40.501  26.976  28.677  1.00  0.00     0.049 A 
ATOM     42  N   UNL A   1      43.261  27.547  27.810  1.00  0.00    -0.248 NA
ATOM     43  C   UNL A   1      43.404  25.440  26.837  1.00  0.00     0.031 C 
ATOM     44  C   UNL A   1      39.181  26.779  29.278  1.00  0.00     0.029 A 
ATOM     45  N   UNL A   1      40.880  28.221  29.151  1.00  0.00    -0.354 N 
ATOM     46  C   UNL A   1      44.576  27.329  27.398  1.00  0.00     0.074 A 
ATOM     47  C   UNL A   1      44.616  25.978  26.884  1.00  0.00     0.031 C 
ATOM     48  C   UNL A   1      38.833  27.876  29.970  1.00  0.00     0.029 A 
ATOM     49  C   UNL A   1      39.910  28.861  29.894  1.00  0.00     0.049 A 
ATOM     50  H   UNL A   1      41.765  28.615  28.973  1.00  0.00     0.167 HD
ATOM     51  C   UNL A   1      45.647  28.167  27.385  1.00  0.00     0.034 A 
ATOM     52  C   UNL A   1      39.853  30.098  30.437  1.00  0.00     0.034 A 
ATOM     53  C   UNL A   1      45.629  29.555  27.775  1.00  0.00     0.049 A 
ATOM     54  C   UNL A   1      40.987  31.076  30.260  1.00  0.00     0.074 A 
ATOM     55  C   UNL A   1      46.630  30.504  27.623  1.00  0.00     0.029 A 
ATOM     56  N   UNL A   1      44.569  30.200  28.384  1.00  0.00    -0.354 N 
ATOM     57  N   UNL A   1      42.123  30.919  29.631  1.00  0.00    -0.248 NA
ATOM     58  C   UNL A   1      40.808  32.423  30.834  1.00  0.00     0.031 C 
ATOM     59  C   UNL A   1      46.174  31.721  28.144  1.00  0.00     0.029 A 
ATOM     60  C   UNL A   1      44.888  31.531  28.614  1.00  0.00     0.049 A 
ATOM     61  H   UNL A   1      43.712  29.777  28.621  1.00  0.00     0.167 HD
ATOM     62  C   UNL A   1      42.776  32.148  29.706  1.00  0.00     0.074 A 
ATOM     63  C   UNL A   1      41.897  33.051  30.413  1.00  0.00     0.031 C 
ATOM     64  C   UNL A   1      44.009  32.477  29.249  1.00  0.00     0.034 A 
BRANCH  51  65
ATOM     65  C   UNL A   1      46.944  27.640  26.813  1.00  0.00     0.023 A 
ATOM     66  C   UNL A   1      47.852  26.985  27.671  1.00  0.00     0.012 A 
ATOM     67  C   UNL A   1      47.227  27.706  25.434  1.00  0.00     0.148 A 
ATOM     68  C   UNL A   1      49.041  26.449  27.179  1.00  0.00     0.002 A 
ATOM     69  C   UNL A   1      48.395  27.129  24.942  1.00  0.00     0.091 A 
ATOM     70  F   UNL A   1      46.359  28.334  24.627  1.00  0.00    -0.205 F 
ATOM     71  C   UNL A   1      49.308  26.514  25.815  1.00  0.00     0.022 A 
BRANCH  69  72
ATOM     72  S   UNL A   1      48.785  27.079  23.188  1.00  0.00     0.127 S 
ATOM     73  O   UNL A   1      48.074  28.256  22.693  1.00  0.00    -0.237 OA
ATOM     74  O   UNL A   1      50.244  27.205  23.186  1.00  0.00    -0.237 OA
ATOM     75  O   UNL A   1      48.293  25.795  22.709  1.00  0.00    -0.744 OA
ENDBRANCH  69  72
ENDBRANCH  51  65
BRANCH  52  76
ATOM     76  C   UNL A   1      38.604  30.551  31.122  1.00  0.00     0.023 A 
ATOM     77  C   UNL A   1      38.454  30.304  32.502  1.00  0.00     0.012 A 
ATOM     78  C   UNL A   1      37.576  31.213  30.428  1.00  0.00     0.148 A 
ATOM     79  C   UNL A   1      37.288  30.678  33.172  1.00  0.00     0.002 A 
ATOM     80  C   UNL A   1      36.439  31.632  31.112  1.00  0.00     0.091 A 
ATOM     81  F   UNL A   1      37.727  31.420  29.112  1.00  0.00    -0.205 F 
ATOM     82  C   UNL A   1      36.286  31.350  32.480  1.00  0.00     0.022 A 
BRANCH  80  83
ATOM     83  S   UNL A   1      35.155  32.617  30.332  1.00  0.00     0.127 S 
ATOM     84  O   UNL A   1      34.194  32.773  31.421  1.00  0.00    -0.237 OA
ATOM     85  O   UNL A   1      35.883  33.834  29.973  1.00  0.00    -0.237 OA
ATOM     86  O   UNL A   1      34.702  31.833  29.192  1.00  0.00    -0.744 OA
ENDBRANCH  80  83
ENDBRANCH  52  76
BRANCH  64  87
ATOM     87  C   UNL A   1      44.498  33.890  29.459  1.00  0.00     0.023 A 
ATOM     88  C   UNL A   1      45.064  34.254  30.698  1.00  0.00     0.012 A 
ATOM     89  C   UNL A   1      44.455  34.842  28.421  1.00  0.00     0.148 A 
ATOM     90  C   UNL A   1      45.547  35.547  30.910  1.00  0.00     0.002 A 
ATOM     91  C   UNL A   1      44.975  36.117  28.625  1.00  0.00     0.091 A 
ATOM     92  F   UNL A   1      43.893  34.494  27.253  1.00  0.00    -0.205 F 
ATOM     93  C   UNL A   1      45.512  36.475  29.871  1.00  0.00     0.022 A 
BRANCH  91  94
ATOM     94  S   UNL A   1      45.043  37.340  27.309  1.00  0.00     0.127 S 
ATOM     95  O   UNL A   1      43.639  37.440  26.916  1.00  0.00    -0.237 OA
ATOM     96  O   UNL A   1      45.568  38.521  27.996  1.00  0.00    -0.237 OA
ATOM     97  O   UNL A   1      45.945  36.784  26.307  1.00  0.00    -0.744 OA
ENDBRANCH  91  94
ENDBRANCH  64  87
ENDBRANCH  38  39
ENDBRANCH  30  33
ENDBRANCH  28  29
ENDBRANCH  27  28
ENDBRANCH   1  27
TORSDOF 19
ENDMDL
MODEL 3
REMARK VINA RESULT:     -11.6      1.629      4.153
REMARK SMILES CC[NH2+][C@]1(C(=O)NCCCNC(=O)c2ccc(-c3c4nc(c(-c5cccc(S(=O)(=O)[O-])c5F)c5ccc([nH]5)c(-c5cccc(S(=O)(=O)[O-])c5F)c5nc(c(-c6cccc(S(=O)(=O)[O-])c6F)c6ccc3[nH]6)C=C5)C=C4)cc2)CCC[C@H]1CC[N@H+]1CCC[C@@H](CC)C1
REMARK SMILES IDX 8 1 7 2 5 3 6 4 4 6 77 7 80 8 78 9 79 10 3 11 2 14 1 15
REMARK SMILES IDX 81 16 82 17 83 18 84 19 90 20 85 22 87 23 86 24 88 25 89 26
REMARK SMILES IDX 9 27 10 28 11 29 12 30 13 32 14 33 15 34 76 35 16 36 75 37
REMARK SMILES IDX 17 38 18 39 19 40 69 41 20 42 74 43 68 44 70 45 21 46 73 47
REMARK SMILES IDX 67 48 66 49 22 51 54 52 34 53 53 54 35 55 38 56 52 57 71 58
REMARK SMILES IDX 36 59 37 60 51 62 72 63 39 64 23 65 24 66 32 67 25 68 27 69
REMARK SMILES IDX 33 70 26 71 28 72 29 73 30 74 31 75 55 76 56 77 64 78 57 79
REMARK SMILES IDX 59 80 65 81 58 82 60 83 61 84 62 85 63 86 40 87 41 88 49 89
REMARK SMILES IDX 42 90 44 91 50 92 43 93 45 94 46 95 47 96 48 97
REMARK H PARENT 7 5 3 12 3 13 83 21 11 31 70 50 38 61
REMARK Flexibility Score: inf
ROOT
ATOM      1  C   UNL A   1      33.668  28.163  24.607  1.00  0.00     0.118 C 
ENDROOT
BRANCH   1   2
ATOM      2  N   UNL A   1      34.020  27.464  23.390  1.00  0.00    -0.351 N 
ATOM      3  C   UNL A   1      33.361  26.433  22.751  1.00  0.00     0.281 C 
ATOM      4  O   UNL A   1      33.656  26.306  21.551  1.00  0.00    -0.268 OA
ATOM      5  H   UNL A   1      34.850  27.767  22.955  1.00  0.00     0.163 HD
BRANCH   3   6
ATOM      6  C   UNL A   1      32.344  25.416  23.426  1.00  0.00     0.178 C 
ATOM      7  C   UNL A   1      32.453  24.007  22.725  1.00  0.00     0.079 C 
ATOM      8  C   UNL A   1      32.683  24.948  24.889  1.00  0.00     0.066 C 
ATOM      9  C   UNL A   1      31.844  22.992  23.715  1.00  0.00     0.008 C 
ATOM     10  C   UNL A   1      31.747  23.727  25.057  1.00  0.00     0.011 C 
BRANCH   6  11
ATOM     11  N   UNL A   1      30.913  25.784  23.106  1.00  0.00    -0.334 N 
ATOM     12  H   UNL A   1      30.894  26.065  22.125  1.00  0.00     0.347 HD
ATOM     13  H   UNL A   1      30.392  24.946  23.363  1.00  0.00     0.347 HD
BRANCH  11  14
ATOM     14  C   UNL A   1      30.247  26.836  23.856  1.00  0.00     0.257 C 
ATOM     15  C   UNL A   1      28.740  26.589  23.897  1.00  0.00     0.071 C 
ENDBRANCH  11  14
ENDBRANCH   6  11
BRANCH   8  16
ATOM     16  C   UNL A   1      34.115  24.367  25.179  1.00  0.00     0.072 C 
BRANCH  16  17
ATOM     17  C   UNL A   1      34.243  23.096  26.000  1.00  0.00     0.262 C 
BRANCH  17  18
ATOM     18  N   UNL A   1      34.910  22.034  25.250  1.00  0.00    -0.335 N 
ATOM     19  C   UNL A   1      36.307  21.839  25.687  1.00  0.00     0.262 C 
ATOM     20  C   UNL A   1      34.160  20.793  25.443  1.00  0.00     0.265 C 
ATOM     21  H   UNL A   1      34.933  22.298  24.266  1.00  0.00     0.348 HD
ATOM     22  C   UNL A   1      36.996  20.737  24.880  1.00  0.00     0.062 C 
ATOM     23  C   UNL A   1      34.757  19.679  24.599  1.00  0.00     0.044 C 
ATOM     24  C   UNL A   1      36.221  19.426  24.952  1.00  0.00     0.015 C 
BRANCH  23  25
ATOM     25  C   UNL A   1      33.933  18.394  24.625  1.00  0.00     0.006 C 
ATOM     26  C   UNL A   1      32.479  18.451  24.165  1.00  0.00     0.004 C 
ENDBRANCH  23  25
ENDBRANCH  17  18
ENDBRANCH  16  17
ENDBRANCH   8  16
ENDBRANCH   3   6
ENDBRANCH   1   2
BRANCH   1  27
ATOM     27  C   UNL A   1      32.713  29.380  24.609  1.00  0.00     0.042 C 
BRANCH  27  28
ATOM     28  C   UNL A   1      31.839  29.681  25.831  1.00  0.00     0.118 C 
BRANCH  28  29
ATOM     29  N   UNL A   1      31.951  31.079  26.282  1.00  0.00    -0.352 N 
ATOM     30  C   UNL A   1      32.766  31.823  27.105  1.00  0.00     0.251 C 
ATOM     31  H   UNL A   1      31.246  31.637  25.884  1.00  0.00     0.163 HD
ATOM     32  O   UNL A   1      32.410  32.986  27.317  1.00  0.00    -0.269 OA
BRANCH  30  33
ATOM     33  C   UNL A   1      34.014  31.368  27.779  1.00  0.00     0.039 A 
ATOM     34  C   UNL A   1      34.979  32.330  28.104  1.00  0.00     0.014 A 
ATOM     35  C   UNL A   1      34.374  30.036  27.932  1.00  0.00     0.014 A 
ATOM     36  C   UNL A   1      36.235  31.966  28.642  1.00  0.00     0.010 A 
ATOM     37  C   UNL A   1      35.600  29.681  28.566  1.00  0.00     0.010 A 
ATOM     38  C   UNL A   1      36.565  30.631  28.949  1.00  0.00    -0.014 A 
BRANCH  38  39
ATOM     39  C   UNL A   1      37.879  30.301  29.654  1.00  0.00     0.031 A 
ATOM     40  C   UNL A   1      38.220  30.751  31.074  1.00  0.00     0.074 A 
ATOM     41  C   UNL A   1      38.850  29.592  29.020  1.00  0.00     0.049 A 
ATOM     42  N   UNL A   1      39.263  30.434  31.816  1.00  0.00    -0.248 NA
ATOM     43  C   UNL A   1      37.323  31.711  31.730  1.00  0.00     0.031 C 
ATOM     44  C   UNL A   1      38.840  29.202  27.609  1.00  0.00     0.029 A 
ATOM     45  N   UNL A   1      40.044  29.065  29.484  1.00  0.00    -0.354 N 
ATOM     46  C   UNL A   1      39.173  31.195  32.981  1.00  0.00     0.074 A 
ATOM     47  C   UNL A   1      37.999  32.025  32.828  1.00  0.00     0.031 C 
ATOM     48  C   UNL A   1      39.918  28.447  27.343  1.00  0.00     0.029 A 
ATOM     49  C   UNL A   1      40.726  28.310  28.552  1.00  0.00     0.049 A 
ATOM     50  H   UNL A   1      40.376  29.216  30.398  1.00  0.00     0.167 HD
ATOM     51  C   UNL A   1      39.942  31.186  34.103  1.00  0.00     0.034 A 
ATOM     52  C   UNL A   1      41.852  27.565  28.639  1.00  0.00     0.034 A 
ATOM     53  C   UNL A   1      41.049  30.296  34.351  1.00  0.00     0.049 A 
ATOM     54  C   UNL A   1      42.594  27.429  29.944  1.00  0.00     0.074 A 
ATOM     55  C   UNL A   1      41.758  30.115  35.530  1.00  0.00     0.029 A 
ATOM     56  N   UNL A   1      41.608  29.438  33.424  1.00  0.00    -0.354 N 
ATOM     57  N   UNL A   1      42.326  27.965  31.107  1.00  0.00    -0.248 NA
ATOM     58  C   UNL A   1      43.775  26.544  29.956  1.00  0.00     0.031 C 
ATOM     59  C   UNL A   1      42.747  29.148  35.313  1.00  0.00     0.029 A 
ATOM     60  C   UNL A   1      42.650  28.724  34.000  1.00  0.00     0.049 A 
ATOM     61  H   UNL A   1      41.311  29.345  32.489  1.00  0.00     0.167 HD
ATOM     62  C   UNL A   1      43.279  27.461  31.990  1.00  0.00     0.074 A 
ATOM     63  C   UNL A   1      44.113  26.551  31.238  1.00  0.00     0.031 C 
ATOM     64  C   UNL A   1      43.454  27.756  33.301  1.00  0.00     0.034 A 
BRANCH  51  65
ATOM     65  C   UNL A   1      39.544  32.107  35.235  1.00  0.00     0.023 A 
ATOM     66  C   UNL A   1      39.924  33.464  35.175  1.00  0.00     0.012 A 
ATOM     67  C   UNL A   1      38.731  31.666  36.298  1.00  0.00     0.148 A 
ATOM     68  C   UNL A   1      39.544  34.356  36.177  1.00  0.00     0.002 A 
ATOM     69  C   UNL A   1      38.318  32.572  37.271  1.00  0.00     0.091 A 
ATOM     70  F   UNL A   1      38.379  30.372  36.346  1.00  0.00    -0.205 F 
ATOM     71  C   UNL A   1      38.736  33.912  37.219  1.00  0.00     0.022 A 
BRANCH  69  72
ATOM     72  S   UNL A   1      37.200  32.119  38.604  1.00  0.00     0.127 S 
ATOM     73  O   UNL A   1      37.885  32.678  39.768  1.00  0.00    -0.237 OA
ATOM     74  O   UNL A   1      35.968  32.815  38.230  1.00  0.00    -0.237 OA
ATOM     75  O   UNL A   1      37.105  30.666  38.563  1.00  0.00    -0.744 OA
ENDBRANCH  69  72
ENDBRANCH  51  65
BRANCH  52  76
ATOM     76  C   UNL A   1      42.305  26.767  27.459  1.00  0.00     0.023 A 
ATOM     77  C   UNL A   1      43.010  27.417  26.424  1.00  0.00     0.012 A 
ATOM     78  C   UNL A   1      42.047  25.388  27.352  1.00  0.00     0.148 A 
ATOM     79  C   UNL A   1      43.419  26.716  25.290  1.00  0.00     0.002 A 
ATOM     80  C   UNL A   1      42.505  24.684  26.242  1.00  0.00     0.091 A 
ATOM     81  F   UNL A   1      41.358  24.792  28.335  1.00  0.00    -0.205 F 
ATOM     82  C   UNL A   1      43.176  25.350  25.203  1.00  0.00     0.022 A 
BRANCH  80  83
ATOM     83  S   UNL A   1      42.352  22.900  26.106  1.00  0.00     0.127 S 
ATOM     84  O   UNL A   1      42.892  22.654  24.771  1.00  0.00    -0.237 OA
ATOM     85  O   UNL A   1      43.197  22.438  27.207  1.00  0.00    -0.237 OA
ATOM     86  O   UNL A   1      40.934  22.617  26.280  1.00  0.00    -0.744 OA
ENDBRANCH  80  83
ENDBRANCH  52  76
BRANCH  64  87
ATOM     87  C   UNL A   1      44.574  27.073  34.047  1.00  0.00     0.023 A 
ATOM     88  C   UNL A   1      45.857  27.658  34.068  1.00  0.00     0.012 A 
ATOM     89  C   UNL A   1      44.352  25.887  34.776  1.00  0.00     0.148 A 
ATOM     90  C   UNL A   1      46.904  27.059  34.772  1.00  0.00     0.002 A 
ATOM     91  C   UNL A   1      45.390  25.318  35.509  1.00  0.00     0.091 A 
ATOM     92  F   UNL A   1      43.135  25.324  34.732  1.00  0.00    -0.205 F 
ATOM     93  C   UNL A   1      46.668  25.896  35.500  1.00  0.00     0.022 A 
BRANCH  91  94
ATOM     94  S   UNL A   1      45.142  23.866  36.541  1.00  0.00     0.127 S 
ATOM     95  O   UNL A   1      44.447  24.431  37.696  1.00  0.00    -0.237 OA
ATOM     96  O   UNL A   1      44.312  23.008  35.693  1.00  0.00    -0.237 OA
ATOM     97  O   UNL A   1      46.475  23.338  36.797  1.00  0.00    -0.744 OA
ENDBRANCH  91  94
ENDBRANCH  64  87
ENDBRANCH  38  39
ENDBRANCH  30  33
ENDBRANCH  28  29
ENDBRANCH  27  28
ENDBRANCH   1  27
TORSDOF 19
ENDMDL
