MODEL 1
REMARK VINA RESULT:     -12.1      0.000      0.000
REMARK SMILES CC[C@H](C)Nc1ncnc(N2CCC(C(=O)NCCCNC(=O)c3ccc(-c4c5nc(c(-c6cccc(S(=O)(=O)[O-])c6F)c6ccc([nH]6)c(-c6cccc(S(=O)(=O)[O-])c6F)c6nc(c(-c7cccc(S(=O)(=O)[O-])c7F)c7ccc4[nH]7)C=C6)C=C5)cc3)CC2)c1[N+](=O)[O-]
REMARK SMILES IDX 18 1 17 2 15 3 16 4 14 6 11 7 12 8 88 9 13 10 87 11 10 12
REMARK SMILES IDX 6 13 7 14 89 15 8 16 9 17 5 18 3 20 4 21 2 22 1 23 90 24
REMARK SMILES IDX 91 25 92 26 19 27 20 28 21 29 22 30 23 32 24 33 25 34 86 35
REMARK SMILES IDX 26 36 85 37 27 38 28 39 29 40 79 41 30 42 84 43 78 44 80 45
REMARK SMILES IDX 31 46 83 47 77 48 76 49 32 51 64 52 44 53 63 54 45 55 48 56
REMARK SMILES IDX 62 57 81 58 46 59 47 60 61 62 82 63 49 64 33 65 34 66 42 67
REMARK SMILES IDX 35 68 37 69 43 70 36 71 38 72 39 73 40 74 41 75 65 76 66 77
REMARK SMILES IDX 74 78 67 79 69 80 75 81 68 82 70 83 71 84 72 85 73 86 50 87
REMARK SMILES IDX 51 88 59 89 52 90 54 91 60 92 53 93 55 94 56 95 57 96 58 97
REMARK H PARENT 17 5 5 19 21 31 80 50 48 61
REMARK Flexibility Score: inf
ROOT
ATOM      1  C   UNL A   1      33.869  21.396  25.805  1.00  0.00     0.117 C 
ENDROOT
BRANCH   1   2
ATOM      2  N   UNL A   1      33.597  22.121  24.568  1.00  0.00    -0.356 N 
ATOM      3  C   UNL A   1      33.279  23.427  24.348  1.00  0.00     0.223 C 
ATOM      4  O   UNL A   1      33.119  23.797  23.183  1.00  0.00    -0.275 OA
ATOM      5  H   UNL A   1      33.654  21.571  23.753  1.00  0.00     0.163 HD
BRANCH   3   6
ATOM      6  C   UNL A   1      33.164  24.421  25.495  1.00  0.00     0.082 C 
ATOM      7  N   UNL A   1      32.293  27.061  26.001  1.00  0.00    -0.351 N 
ATOM      8  C   UNL A   1      33.731  26.851  26.084  1.00  0.00     0.119 C 
ATOM      9  C   UNL A   1      31.449  26.011  26.540  1.00  0.00     0.119 C 
ATOM     10  C   UNL A   1      34.107  25.617  25.282  1.00  0.00     0.035 C 
ATOM     11  C   UNL A   1      31.681  24.731  25.758  1.00  0.00     0.035 C 
BRANCH   7  12
ATOM     12  C   UNL A   1      31.860  28.351  25.793  1.00  0.00     0.213 A 
ATOM     13  C   UNL A   1      30.825  30.138  24.570  1.00  0.00     0.211 A 
ATOM     14  N   UNL A   1      31.157  30.998  25.549  1.00  0.00    -0.213 NA
ATOM     15  C   UNL A   1      31.189  28.806  24.667  1.00  0.00     0.353 A 
ATOM     16  C   UNL A   1      31.772  30.490  26.628  1.00  0.00     0.227 A 
ATOM     17  N   UNL A   1      32.128  29.210  26.796  1.00  0.00    -0.212 NA
BRANCH  13  18
ATOM     18  N   UNL A   1      30.121  30.747  23.550  1.00  0.00    -0.362 N 
ATOM     19  H   UNL A   1      30.550  30.844  22.668  1.00  0.00     0.162 HD
BRANCH  18  20
ATOM     20  C   UNL A   1      28.761  31.252  23.734  1.00  0.00     0.077 C 
ATOM     21  C   UNL A   1      28.634  32.600  23.018  1.00  0.00     0.031 C 
BRANCH  20  22
ATOM     22  C   UNL A   1      27.759  30.234  23.166  1.00  0.00     0.021 C 
ATOM     23  C   UNL A   1      27.961  30.002  21.674  1.00  0.00     0.006 C 
ENDBRANCH  20  22
ENDBRANCH  18  20
ENDBRANCH  13  18
BRANCH  15  24
ATOM     24  N   UNL A   1      30.891  27.889  23.620  1.00  0.00     0.070 N 
ATOM     25  O   UNL A   1      31.655  27.869  22.642  1.00  0.00    -0.258 OA
ATOM     26  O   UNL A   1      29.868  27.198  23.737  1.00  0.00    -0.258 OA
ENDBRANCH  15  24
ENDBRANCH   7  12
ENDBRANCH   3   6
ENDBRANCH   1   2
BRANCH   1  27
ATOM     27  C   UNL A   1      35.109  21.911  26.522  1.00  0.00     0.042 C 
BRANCH  27  28
ATOM     28  C   UNL A   1      36.287  22.167  25.597  1.00  0.00     0.118 C 
BRANCH  28  29
ATOM     29  N   UNL A   1      37.211  21.040  25.536  1.00  0.00    -0.352 N 
ATOM     30  C   UNL A   1      38.559  21.007  25.805  1.00  0.00     0.251 C 
ATOM     31  H   UNL A   1      36.813  20.182  25.264  1.00  0.00     0.163 HD
ATOM     32  O   UNL A   1      39.218  20.008  25.531  1.00  0.00    -0.269 OA
BRANCH  30  33
ATOM     33  C   UNL A   1      39.209  22.188  26.406  1.00  0.00     0.039 A 
ATOM     34  C   UNL A   1      40.275  22.009  27.293  1.00  0.00     0.014 A 
ATOM     35  C   UNL A   1      38.785  23.474  26.063  1.00  0.00     0.014 A 
ATOM     36  C   UNL A   1      40.969  23.124  27.772  1.00  0.00     0.010 A 
ATOM     37  C   UNL A   1      39.528  24.573  26.471  1.00  0.00     0.010 A 
ATOM     38  C   UNL A   1      40.626  24.412  27.331  1.00  0.00    -0.014 A 
BRANCH  38  39
ATOM     39  C   UNL A   1      41.374  25.624  27.750  1.00  0.00     0.031 A 
ATOM     40  C   UNL A   1      40.646  26.714  28.492  1.00  0.00     0.074 A 
ATOM     41  C   UNL A   1      42.649  25.806  27.354  1.00  0.00     0.049 A 
ATOM     42  N   UNL A   1      41.034  27.932  28.763  1.00  0.00    -0.248 NA
ATOM     43  C   UNL A   1      39.283  26.400  28.957  1.00  0.00     0.031 C 
ATOM     44  C   UNL A   1      43.447  24.845  26.588  1.00  0.00     0.029 A 
ATOM     45  N   UNL A   1      43.488  26.883  27.505  1.00  0.00    -0.354 N 
ATOM     46  C   UNL A   1      39.951  28.543  29.383  1.00  0.00     0.074 A 
ATOM     47  C   UNL A   1      38.879  27.573  29.421  1.00  0.00     0.031 C 
ATOM     48  C   UNL A   1      44.653  25.378  26.332  1.00  0.00     0.029 A 
ATOM     49  C   UNL A   1      44.702  26.731  26.876  1.00  0.00     0.049 A 
ATOM     50  H   UNL A   1      43.243  27.688  28.017  1.00  0.00     0.167 HD
ATOM     51  C   UNL A   1      39.866  29.790  29.902  1.00  0.00     0.034 A 
ATOM     52  C   UNL A   1      45.730  27.593  26.738  1.00  0.00     0.034 A 
ATOM     53  C   UNL A   1      40.954  30.729  29.916  1.00  0.00     0.049 A 
ATOM     54  C   UNL A   1      45.618  28.964  27.353  1.00  0.00     0.074 A 
ATOM     55  C   UNL A   1      40.988  31.997  30.463  1.00  0.00     0.029 A 
ATOM     56  N   UNL A   1      42.204  30.492  29.368  1.00  0.00    -0.354 N 
ATOM     57  N   UNL A   1      44.623  29.486  28.030  1.00  0.00    -0.248 NA
ATOM     58  C   UNL A   1      46.780  29.855  27.213  1.00  0.00     0.031 C 
ATOM     59  C   UNL A   1      42.263  32.530  30.247  1.00  0.00     0.029 A 
ATOM     60  C   UNL A   1      43.024  31.585  29.577  1.00  0.00     0.049 A 
ATOM     61  H   UNL A   1      42.470  29.667  28.900  1.00  0.00     0.167 HD
ATOM     62  C   UNL A   1      45.058  30.741  28.439  1.00  0.00     0.074 A 
ATOM     63  C   UNL A   1      46.408  30.900  27.940  1.00  0.00     0.031 C 
ATOM     64  C   UNL A   1      44.395  31.685  29.150  1.00  0.00     0.034 A 
BRANCH  51  65
ATOM     65  C   UNL A   1      38.572  30.185  30.564  1.00  0.00     0.023 A 
ATOM     66  C   UNL A   1      38.352  29.831  31.911  1.00  0.00     0.012 A 
ATOM     67  C   UNL A   1      37.604  30.948  29.883  1.00  0.00     0.148 A 
ATOM     68  C   UNL A   1      37.176  30.201  32.561  1.00  0.00     0.002 A 
ATOM     69  C   UNL A   1      36.453  31.351  30.550  1.00  0.00     0.091 A 
ATOM     70  F   UNL A   1      37.822  31.258  28.597  1.00  0.00    -0.205 F 
ATOM     71  C   UNL A   1      36.233  30.969  31.885  1.00  0.00     0.022 A 
BRANCH  69  72
ATOM     72  S   UNL A   1      35.213  32.407  29.795  1.00  0.00     0.127 S 
ATOM     73  O   UNL A   1      34.653  31.522  28.774  1.00  0.00    -0.237 OA
ATOM     74  O   UNL A   1      34.317  32.685  30.918  1.00  0.00    -0.237 OA
ATOM     75  O   UNL A   1      35.929  33.569  29.288  1.00  0.00    -0.744 OA
ENDBRANCH  69  72
ENDBRANCH  51  65
BRANCH  52  76
ATOM     76  C   UNL A   1      46.981  27.170  26.046  1.00  0.00     0.023 A 
ATOM     77  C   UNL A   1      47.918  26.386  26.750  1.00  0.00     0.012 A 
ATOM     78  C   UNL A   1      47.252  27.523  24.711  1.00  0.00     0.148 A 
ATOM     79  C   UNL A   1      49.115  25.995  26.151  1.00  0.00     0.002 A 
ATOM     80  C   UNL A   1      48.424  27.085  24.102  1.00  0.00     0.091 A 
ATOM     81  F   UNL A   1      46.360  28.282  24.060  1.00  0.00    -0.205 F 
ATOM     82  C   UNL A   1      49.365  26.337  24.825  1.00  0.00     0.022 A 
BRANCH  80  83
ATOM     83  S   UNL A   1      48.760  27.372  22.360  1.00  0.00     0.127 S 
ATOM     84  O   UNL A   1      50.177  27.725  22.381  1.00  0.00    -0.237 OA
ATOM     85  O   UNL A   1      48.459  26.067  21.770  1.00  0.00    -0.237 OA
ATOM     86  O   UNL A   1      47.843  28.431  21.959  1.00  0.00    -0.744 OA
ENDBRANCH  80  83
ENDBRANCH  52  76
BRANCH  64  87
ATOM     87  C   UNL A   1      45.129  32.949  29.504  1.00  0.00     0.023 A 
ATOM     88  C   UNL A   1      45.900  33.006  30.681  1.00  0.00     0.012 A 
ATOM     89  C   UNL A   1      45.142  34.038  28.610  1.00  0.00     0.148 A 
ATOM     90  C   UNL A   1      46.664  34.137  30.970  1.00  0.00     0.002 A 
ATOM     91  C   UNL A   1      45.939  35.142  28.882  1.00  0.00     0.091 A 
ATOM     92  F   UNL A   1      44.385  33.966  27.505  1.00  0.00    -0.205 F 
ATOM     93  C   UNL A   1      46.693  35.197  30.066  1.00  0.00     0.022 A 
BRANCH  91  94
ATOM     94  S   UNL A   1      46.117  36.511  27.733  1.00  0.00     0.127 S 
ATOM     95  O   UNL A   1      44.729  36.752  27.340  1.00  0.00    -0.237 OA
ATOM     96  O   UNL A   1      46.701  37.551  28.580  1.00  0.00    -0.237 OA
ATOM     97  O   UNL A   1      46.991  36.034  26.670  1.00  0.00    -0.744 OA
ENDBRANCH  91  94
ENDBRANCH  64  87
ENDBRANCH  38  39
ENDBRANCH  30  33
ENDBRANCH  28  29
ENDBRANCH  27  28
ENDBRANCH   1  27
TORSDOF 18
ENDMDL
MODEL 2
REMARK VINA RESULT:     -12.0      5.208     10.384
REMARK SMILES CC[C@H](C)Nc1ncnc(N2CCC(C(=O)NCCCNC(=O)c3ccc(-c4c5nc(c(-c6cccc(S(=O)(=O)[O-])c6F)c6ccc([nH]6)c(-c6cccc(S(=O)(=O)[O-])c6F)c6nc(c(-c7cccc(S(=O)(=O)[O-])c7F)c7ccc4[nH]7)C=C6)C=C5)cc3)CC2)c1[N+](=O)[O-]
REMARK SMILES IDX 18 1 17 2 15 3 16 4 14 6 11 7 12 8 88 9 13 10 87 11 10 12
REMARK SMILES IDX 6 13 7 14 89 15 8 16 9 17 5 18 3 20 4 21 2 22 1 23 90 24
REMARK SMILES IDX 91 25 92 26 19 27 20 28 21 29 22 30 23 32 24 33 25 34 86 35
REMARK SMILES IDX 26 36 85 37 27 38 28 39 29 40 79 41 30 42 84 43 78 44 80 45
REMARK SMILES IDX 31 46 83 47 77 48 76 49 32 51 64 52 44 53 63 54 45 55 48 56
REMARK SMILES IDX 62 57 81 58 46 59 47 60 61 62 82 63 49 64 33 65 34 66 42 67
REMARK SMILES IDX 35 68 37 69 43 70 36 71 38 72 39 73 40 74 41 75 65 76 66 77
REMARK SMILES IDX 74 78 67 79 69 80 75 81 68 82 70 83 71 84 72 85 73 86 50 87
REMARK SMILES IDX 51 88 59 89 52 90 54 91 60 92 53 93 55 94 56 95 57 96 58 97
REMARK H PARENT 17 5 5 19 21 31 80 50 48 61
REMARK Flexibility Score: inf
ROOT
ATOM      1  C   UNL A   1      31.214  28.762  24.601  1.00  0.00     0.117 C 
ENDROOT
BRANCH   1   2
ATOM      2  N   UNL A   1      30.554  27.488  24.337  1.00  0.00    -0.356 N 
ATOM      3  C   UNL A   1      31.067  26.250  24.091  1.00  0.00     0.223 C 
ATOM      4  O   UNL A   1      30.277  25.318  23.919  1.00  0.00    -0.275 OA
ATOM      5  H   UNL A   1      29.571  27.530  24.337  1.00  0.00     0.163 HD
BRANCH   3   6
ATOM      6  C   UNL A   1      32.568  26.001  24.069  1.00  0.00     0.082 C 
ATOM      7  N   UNL A   1      34.419  23.874  24.253  1.00  0.00    -0.351 N 
ATOM      8  C   UNL A   1      34.401  24.786  25.387  1.00  0.00     0.119 C 
ATOM      9  C   UNL A   1      34.281  24.469  22.937  1.00  0.00     0.119 C 
ATOM     10  C   UNL A   1      33.062  25.502  25.437  1.00  0.00     0.035 C 
ATOM     11  C   UNL A   1      32.930  25.155  22.837  1.00  0.00     0.035 C 
BRANCH   7  12
ATOM     12  C   UNL A   1      34.943  22.620  24.467  1.00  0.00     0.213 A 
ATOM     13  C   UNL A   1      34.859  20.270  24.950  1.00  0.00     0.211 A 
ATOM     14  N   UNL A   1      36.203  20.223  24.948  1.00  0.00    -0.213 NA
ATOM     15  C   UNL A   1      34.209  21.473  24.731  1.00  0.00     0.353 A 
ATOM     16  C   UNL A   1      36.855  21.358  24.650  1.00  0.00     0.227 A 
ATOM     17  N   UNL A   1      36.287  22.545  24.402  1.00  0.00    -0.212 NA
BRANCH  13  18
ATOM     18  N   UNL A   1      34.289  19.034  25.181  1.00  0.00    -0.362 N 
ATOM     19  H   UNL A   1      33.984  18.814  26.092  1.00  0.00     0.162 HD
BRANCH  18  20
ATOM     20  C   UNL A   1      34.123  18.041  24.121  1.00  0.00     0.077 C 
ATOM     21  C   UNL A   1      34.720  16.711  24.591  1.00  0.00     0.031 C 
BRANCH  20  22
ATOM     22  C   UNL A   1      32.628  17.886  23.798  1.00  0.00     0.021 C 
ATOM     23  C   UNL A   1      32.331  18.129  22.324  1.00  0.00     0.006 C 
ENDBRANCH  20  22
ENDBRANCH  18  20
ENDBRANCH  13  18
BRANCH  15  24
ATOM     24  N   UNL A   1      32.789  21.554  24.778  1.00  0.00     0.070 N 
ATOM     25  O   UNL A   1      32.270  21.883  25.857  1.00  0.00    -0.258 OA
ATOM     26  O   UNL A   1      32.163  21.255  23.750  1.00  0.00    -0.258 OA
ENDBRANCH  15  24
ENDBRANCH   7  12
ENDBRANCH   3   6
ENDBRANCH   1   2
BRANCH   1  27
ATOM     27  C   UNL A   1      31.645  28.905  26.054  1.00  0.00     0.042 C 
BRANCH  27  28
ATOM     28  C   UNL A   1      32.886  29.762  26.242  1.00  0.00     0.118 C 
BRANCH  28  29
ATOM     29  N   UNL A   1      32.571  31.159  26.516  1.00  0.00    -0.352 N 
ATOM     30  C   UNL A   1      33.249  32.065  27.296  1.00  0.00     0.251 C 
ATOM     31  H   UNL A   1      31.757  31.502  26.080  1.00  0.00     0.163 HD
ATOM     32  O   UNL A   1      32.744  33.153  27.559  1.00  0.00    -0.269 OA
BRANCH  30  33
ATOM     33  C   UNL A   1      34.578  31.711  27.833  1.00  0.00     0.039 A 
ATOM     34  C   UNL A   1      35.581  32.684  27.883  1.00  0.00     0.014 A 
ATOM     35  C   UNL A   1      34.819  30.423  28.318  1.00  0.00     0.014 A 
ATOM     36  C   UNL A   1      36.800  32.387  28.498  1.00  0.00     0.010 A 
ATOM     37  C   UNL A   1      35.997  30.158  29.003  1.00  0.00     0.010 A 
ATOM     38  C   UNL A   1      37.002  31.134  29.099  1.00  0.00    -0.014 A 
BRANCH  38  39
ATOM     39  C   UNL A   1      38.249  30.789  29.827  1.00  0.00     0.031 A 
ATOM     40  C   UNL A   1      39.202  29.795  29.218  1.00  0.00     0.074 A 
ATOM     41  C   UNL A   1      38.457  31.255  31.075  1.00  0.00     0.049 A 
ATOM     42  N   UNL A   1      40.226  29.191  29.760  1.00  0.00    -0.248 NA
ATOM     43  C   UNL A   1      38.943  29.401  27.822  1.00  0.00     0.031 C 
ATOM     44  C   UNL A   1      37.581  32.183  31.793  1.00  0.00     0.029 A 
ATOM     45  N   UNL A   1      39.453  30.975  31.979  1.00  0.00    -0.354 N 
ATOM     46  C   UNL A   1      40.701  28.314  28.793  1.00  0.00     0.074 A 
ATOM     47  C   UNL A   1      39.835  28.440  27.642  1.00  0.00     0.031 C 
ATOM     48  C   UNL A   1      38.075  32.392  33.025  1.00  0.00     0.029 A 
ATOM     49  C   UNL A   1      39.275  31.581  33.202  1.00  0.00     0.049 A 
ATOM     50  H   UNL A   1      40.223  30.398  31.771  1.00  0.00     0.167 HD
ATOM     51  C   UNL A   1      41.780  27.498  28.847  1.00  0.00     0.034 A 
ATOM     52  C   UNL A   1      39.989  31.477  34.341  1.00  0.00     0.034 A 
ATOM     53  C   UNL A   1      42.671  27.421  29.971  1.00  0.00     0.049 A 
ATOM     54  C   UNL A   1      41.202  30.584  34.362  1.00  0.00     0.074 A 
ATOM     55  C   UNL A   1      43.821  26.666  30.107  1.00  0.00     0.029 A 
ATOM     56  N   UNL A   1      42.517  28.137  31.148  1.00  0.00    -0.354 N 
ATOM     57  N   UNL A   1      41.697  29.843  33.400  1.00  0.00    -0.248 NA
ATOM     58  C   UNL A   1      41.974  30.536  35.613  1.00  0.00     0.031 C 
ATOM     59  C   UNL A   1      44.366  26.927  31.368  1.00  0.00     0.029 A 
ATOM     60  C   UNL A   1      43.561  27.854  32.010  1.00  0.00     0.049 A 
ATOM     61  H   UNL A   1      41.776  28.756  31.340  1.00  0.00     0.167 HD
ATOM     62  C   UNL A   1      42.862  29.283  33.912  1.00  0.00     0.074 A 
ATOM     63  C   UNL A   1      43.004  29.775  35.266  1.00  0.00     0.031 C 
ATOM     64  C   UNL A   1      43.729  28.426  33.320  1.00  0.00     0.034 A 
BRANCH  51  65
ATOM     65  C   UNL A   1      42.096  26.675  27.626  1.00  0.00     0.023 A 
ATOM     66  C   UNL A   1      42.749  27.286  26.535  1.00  0.00     0.012 A 
ATOM     67  C   UNL A   1      41.805  25.298  27.575  1.00  0.00     0.148 A 
ATOM     68  C   UNL A   1      43.077  26.548  25.399  1.00  0.00     0.002 A 
ATOM     69  C   UNL A   1      42.174  24.559  26.456  1.00  0.00     0.091 A 
ATOM     70  F   UNL A   1      41.166  24.740  28.612  1.00  0.00    -0.205 F 
ATOM     71  C   UNL A   1      42.800  25.185  25.364  1.00  0.00     0.022 A 
BRANCH  69  72
ATOM     72  S   UNL A   1      41.933  22.783  26.344  1.00  0.00     0.127 S 
ATOM     73  O   UNL A   1      42.591  22.476  25.074  1.00  0.00    -0.237 OA
ATOM     74  O   UNL A   1      42.640  22.300  27.530  1.00  0.00    -0.237 OA
ATOM     75  O   UNL A   1      40.492  22.571  26.367  1.00  0.00    -0.744 OA
ENDBRANCH  69  72
ENDBRANCH  51  65
BRANCH  52  76
ATOM     76  C   UNL A   1      39.621  32.287  35.538  1.00  0.00     0.023 A 
ATOM     77  C   UNL A   1      38.758  31.727  36.502  1.00  0.00     0.012 A 
ATOM     78  C   UNL A   1      40.114  33.590  35.737  1.00  0.00     0.148 A 
ATOM     79  C   UNL A   1      38.364  32.462  37.620  1.00  0.00     0.002 A 
ATOM     80  C   UNL A   1      39.759  34.298  36.881  1.00  0.00     0.091 A 
ATOM     81  F   UNL A   1      40.920  34.116  34.804  1.00  0.00    -0.205 F 
ATOM     82  C   UNL A   1      38.871  33.744  37.814  1.00  0.00     0.022 A 
BRANCH  80  83
ATOM     83  S   UNL A   1      40.470  35.903  37.270  1.00  0.00     0.127 S 
ATOM     84  O   UNL A   1      41.898  35.647  37.107  1.00  0.00    -0.237 OA
ATOM     85  O   UNL A   1      39.876  36.759  36.243  1.00  0.00    -0.237 OA
ATOM     86  O   UNL A   1      40.023  36.204  38.624  1.00  0.00    -0.744 OA
ENDBRANCH  80  83
ENDBRANCH  52  76
BRANCH  64  87
ATOM     87  C   UNL A   1      44.953  28.013  34.092  1.00  0.00     0.023 A 
ATOM     88  C   UNL A   1      46.113  28.810  34.047  1.00  0.00     0.012 A 
ATOM     89  C   UNL A   1      44.908  26.895  34.949  1.00  0.00     0.148 A 
ATOM     90  C   UNL A   1      47.218  28.491  34.834  1.00  0.00     0.002 A 
ATOM     91  C   UNL A   1      45.997  26.610  35.763  1.00  0.00     0.091 A 
ATOM     92  F   UNL A   1      43.799  26.142  34.960  1.00  0.00    -0.205 F 
ATOM     93  C   UNL A   1      47.156  27.401  35.700  1.00  0.00     0.022 A 
BRANCH  91  94
ATOM     94  S   UNL A   1      45.973  25.287  36.978  1.00  0.00     0.127 S 
ATOM     95  O   UNL A   1      44.730  25.567  37.698  1.00  0.00    -0.237 OA
ATOM     96  O   UNL A   1      45.933  24.093  36.134  1.00  0.00    -0.237 OA
ATOM     97  O   UNL A   1      47.192  25.437  37.761  1.00  0.00    -0.744 OA
ENDBRANCH  91  94
ENDBRANCH  64  87
ENDBRANCH  38  39
ENDBRANCH  30  33
ENDBRANCH  28  29
ENDBRANCH  27  28
ENDBRANCH   1  27
TORSDOF 18
ENDMDL
MODEL 3
REMARK VINA RESULT:     -11.7      5.191      8.522
REMARK SMILES CC[C@H](C)Nc1ncnc(N2CCC(C(=O)NCCCNC(=O)c3ccc(-c4c5nc(c(-c6cccc(S(=O)(=O)[O-])c6F)c6ccc([nH]6)c(-c6cccc(S(=O)(=O)[O-])c6F)c6nc(c(-c7cccc(S(=O)(=O)[O-])c7F)c7ccc4[nH]7)C=C6)C=C5)cc3)CC2)c1[N+](=O)[O-]
REMARK SMILES IDX 18 1 17 2 15 3 16 4 14 6 11 7 12 8 88 9 13 10 87 11 10 12
REMARK SMILES IDX 6 13 7 14 89 15 8 16 9 17 5 18 3 20 4 21 2 22 1 23 90 24
REMARK SMILES IDX 91 25 92 26 19 27 20 28 21 29 22 30 23 32 24 33 25 34 86 35
REMARK SMILES IDX 26 36 85 37 27 38 28 39 29 40 79 41 30 42 84 43 78 44 80 45
REMARK SMILES IDX 31 46 83 47 77 48 76 49 32 51 64 52 44 53 63 54 45 55 48 56
REMARK SMILES IDX 62 57 81 58 46 59 47 60 61 62 82 63 49 64 33 65 34 66 42 67
REMARK SMILES IDX 35 68 37 69 43 70 36 71 38 72 39 73 40 74 41 75 65 76 66 77
REMARK SMILES IDX 74 78 67 79 69 80 75 81 68 82 70 83 71 84 72 85 73 86 50 87
REMARK SMILES IDX 51 88 59 89 52 90 54 91 60 92 53 93 55 94 56 95 57 96 58 97
REMARK H PARENT 17 5 5 19 21 31 80 50 48 61
REMARK Flexibility Score: inf
ROOT
ATOM      1  C   UNL A   1      32.093  29.661  25.024  1.00  0.00     0.117 C 
ENDROOT
BRANCH   1   2
ATOM      2  N   UNL A   1      31.152  28.585  24.727  1.00  0.00    -0.356 N 
ATOM      3  C   UNL A   1      31.363  27.279  24.399  1.00  0.00     0.223 C 
ATOM      4  O   UNL A   1      30.377  26.561  24.216  1.00  0.00    -0.275 OA
ATOM      5  H   UNL A   1      30.205  28.848  24.772  1.00  0.00     0.163 HD
BRANCH   3   6
ATOM      6  C   UNL A   1      32.766  26.701  24.300  1.00  0.00     0.082 C 
ATOM      7  N   UNL A   1      34.098  24.209  24.368  1.00  0.00    -0.351 N 
ATOM      8  C   UNL A   1      34.337  25.077  25.512  1.00  0.00     0.119 C 
ATOM      9  C   UNL A   1      34.036  24.849  23.067  1.00  0.00     0.119 C 
ATOM     10  C   UNL A   1      33.198  26.073  25.636  1.00  0.00     0.035 C 
ATOM     11  C   UNL A   1      32.872  25.822  23.042  1.00  0.00     0.035 C 
BRANCH   7  12
ATOM     12  C   UNL A   1      34.334  22.865  24.542  1.00  0.00     0.213 A 
ATOM     13  C   UNL A   1      33.751  20.539  24.651  1.00  0.00     0.211 A 
ATOM     14  N   UNL A   1      35.010  20.241  25.015  1.00  0.00    -0.213 NA
ATOM     15  C   UNL A   1      33.388  21.857  24.430  1.00  0.00     0.353 A 
ATOM     16  C   UNL A   1      35.887  21.255  25.070  1.00  0.00     0.227 A 
ATOM     17  N   UNL A   1      35.609  22.545  24.843  1.00  0.00    -0.212 NA
BRANCH  13  18
ATOM     18  N   UNL A   1      32.954  19.416  24.540  1.00  0.00    -0.362 N 
ATOM     19  H   UNL A   1      31.984  19.532  24.413  1.00  0.00     0.162 HD
BRANCH  18  20
ATOM     20  C   UNL A   1      33.502  18.062  24.606  1.00  0.00     0.077 C 
ATOM     21  C   UNL A   1      32.614  17.214  25.521  1.00  0.00     0.031 C 
BRANCH  20  22
ATOM     22  C   UNL A   1      33.556  17.466  23.190  1.00  0.00     0.021 C 
ATOM     23  C   UNL A   1      32.415  17.967  22.313  1.00  0.00     0.006 C 
ENDBRANCH  20  22
ENDBRANCH  18  20
ENDBRANCH  13  18
BRANCH  15  24
ATOM     24  N   UNL A   1      32.048  22.199  24.092  1.00  0.00     0.070 N 
ATOM     25  O   UNL A   1      31.304  22.575  25.012  1.00  0.00    -0.258 OA
ATOM     26  O   UNL A   1      31.702  22.063  22.909  1.00  0.00    -0.258 OA
ENDBRANCH  15  24
ENDBRANCH   7  12
ENDBRANCH   3   6
ENDBRANCH   1   2
BRANCH   1  27
ATOM     27  C   UNL A   1      31.609  30.564  26.149  1.00  0.00     0.042 C 
BRANCH  27  28
ATOM     28  C   UNL A   1      32.698  30.950  27.136  1.00  0.00     0.118 C 
BRANCH  28  29
ATOM     29  N   UNL A   1      32.910  32.391  27.207  1.00  0.00    -0.352 N 
ATOM     30  C   UNL A   1      33.943  33.089  27.787  1.00  0.00     0.251 C 
ATOM     31  H   UNL A   1      32.215  32.941  26.779  1.00  0.00     0.163 HD
ATOM     32  O   UNL A   1      33.871  34.309  27.909  1.00  0.00    -0.269 OA
BRANCH  30  33
ATOM     33  C   UNL A   1      35.126  32.359  28.282  1.00  0.00     0.039 A 
ATOM     34  C   UNL A   1      36.357  33.017  28.360  1.00  0.00     0.014 A 
ATOM     35  C   UNL A   1      35.008  31.031  28.700  1.00  0.00     0.014 A 
ATOM     36  C   UNL A   1      37.452  32.367  28.937  1.00  0.00     0.010 A 
ATOM     37  C   UNL A   1      36.072  30.419  29.350  1.00  0.00     0.010 A 
ATOM     38  C   UNL A   1      37.306  31.078  29.474  1.00  0.00    -0.014 A 
BRANCH  38  39
ATOM     39  C   UNL A   1      38.414  30.369  30.162  1.00  0.00     0.031 A 
ATOM     40  C   UNL A   1      38.792  30.780  31.560  1.00  0.00     0.074 A 
ATOM     41  C   UNL A   1      39.159  29.466  29.494  1.00  0.00     0.049 A 
ATOM     42  N   UNL A   1      39.845  30.456  32.262  1.00  0.00    -0.248 NA
ATOM     43  C   UNL A   1      37.877  31.712  32.244  1.00  0.00     0.031 C 
ATOM     44  C   UNL A   1      38.925  29.021  28.118  1.00  0.00     0.029 A 
ATOM     45  N   UNL A   1      40.294  28.789  29.870  1.00  0.00    -0.354 N 
ATOM     46  C   UNL A   1      39.746  31.178  33.445  1.00  0.00     0.074 A 
ATOM     47  C   UNL A   1      38.547  31.982  33.354  1.00  0.00     0.031 C 
ATOM     48  C   UNL A   1      39.887  28.152  27.765  1.00  0.00     0.029 A 
ATOM     49  C   UNL A   1      40.830  28.010  28.870  1.00  0.00     0.049 A 
ATOM     50  H   UNL A   1      40.686  28.854  30.771  1.00  0.00     0.167 HD
ATOM     51  C   UNL A   1      40.563  31.153  34.524  1.00  0.00     0.034 A 
ATOM     52  C   UNL A   1      41.964  27.280  28.843  1.00  0.00     0.034 A 
ATOM     53  C   UNL A   1      41.720  30.308  34.632  1.00  0.00     0.049 A 
ATOM     54  C   UNL A   1      42.838  27.247  30.069  1.00  0.00     0.074 A 
ATOM     55  C   UNL A   1      42.585  30.167  35.702  1.00  0.00     0.029 A 
ATOM     56  N   UNL A   1      42.163  29.449  33.639  1.00  0.00    -0.354 N 
ATOM     57  N   UNL A   1      42.670  27.855  31.219  1.00  0.00    -0.248 NA
ATOM     58  C   UNL A   1      44.042  26.404  30.008  1.00  0.00     0.031 C 
ATOM     59  C   UNL A   1      43.554  29.220  35.356  1.00  0.00     0.029 A 
ATOM     60  C   UNL A   1      43.281  28.762  34.076  1.00  0.00     0.049 A 
ATOM     61  H   UNL A   1      41.744  29.342  32.755  1.00  0.00     0.167 HD
ATOM     62  C   UNL A   1      43.714  27.429  32.032  1.00  0.00     0.074 A 
ATOM     63  C   UNL A   1      44.507  26.506  31.246  1.00  0.00     0.031 C 
ATOM     64  C   UNL A   1      44.002  27.781  33.308  1.00  0.00     0.034 A 
BRANCH  51  65
ATOM     65  C   UNL A   1      40.193  32.014  35.702  1.00  0.00     0.023 A 
ATOM     66  C   UNL A   1      40.935  33.185  35.959  1.00  0.00     0.012 A 
ATOM     67  C   UNL A   1      39.085  31.705  36.516  1.00  0.00     0.148 A 
ATOM     68  C   UNL A   1      40.604  34.017  37.027  1.00  0.00     0.002 A 
ATOM     69  C   UNL A   1      38.734  32.562  37.553  1.00  0.00     0.091 A 
ATOM     70  F   UNL A   1      38.404  30.578  36.268  1.00  0.00    -0.205 F 
ATOM     71  C   UNL A   1      39.499  33.711  37.816  1.00  0.00     0.022 A 
BRANCH  69  72
ATOM     72  S   UNL A   1      37.284  32.301  38.578  1.00  0.00     0.127 S 
ATOM     73  O   UNL A   1      37.224  30.841  38.639  1.00  0.00    -0.237 OA
ATOM     74  O   UNL A   1      37.671  32.948  39.832  1.00  0.00    -0.237 OA
ATOM     75  O   UNL A   1      36.178  32.943  37.881  1.00  0.00    -0.744 OA
ENDBRANCH  69  72
ENDBRANCH  51  65
BRANCH  52  76
ATOM     76  C   UNL A   1      42.308  26.467  27.642  1.00  0.00     0.023 A 
ATOM     77  C   UNL A   1      43.033  27.069  26.594  1.00  0.00     0.012 A 
ATOM     78  C   UNL A   1      41.936  25.114  27.525  1.00  0.00     0.148 A 
ATOM     79  C   UNL A   1      43.348  26.353  25.440  1.00  0.00     0.002 A 
ATOM     80  C   UNL A   1      42.300  24.390  26.394  1.00  0.00     0.091 A 
ATOM     81  F   UNL A   1      41.233  24.559  28.522  1.00  0.00    -0.205 F 
ATOM     82  C   UNL A   1      42.989  25.011  25.343  1.00  0.00     0.022 A 
BRANCH  80  83
ATOM     83  S   UNL A   1      41.989  22.625  26.249  1.00  0.00     0.127 S 
ATOM     84  O   UNL A   1      42.674  22.302  25.001  1.00  0.00    -0.237 OA
ATOM     85  O   UNL A   1      42.628  22.101  27.457  1.00  0.00    -0.237 OA
ATOM     86  O   UNL A   1      40.539  22.489  26.237  1.00  0.00    -0.744 OA
ENDBRANCH  80  83
ENDBRANCH  52  76
BRANCH  64  87
ATOM     87  C   UNL A   1      45.177  27.120  33.977  1.00  0.00     0.023 A 
ATOM     88  C   UNL A   1      46.447  27.725  33.920  1.00  0.00     0.012 A 
ATOM     89  C   UNL A   1      44.991  25.960  34.755  1.00  0.00     0.148 A 
ATOM     90  C   UNL A   1      47.521  27.175  34.618  1.00  0.00     0.002 A 
ATOM     91  C   UNL A   1      46.055  25.444  35.482  1.00  0.00     0.091 A 
ATOM     92  F   UNL A   1      43.776  25.394  34.778  1.00  0.00    -0.205 F 
ATOM     93  C   UNL A   1      47.323  26.044  35.408  1.00  0.00     0.022 A 
BRANCH  91  94
ATOM     94  S   UNL A   1      45.874  24.051  36.602  1.00  0.00     0.127 S 
ATOM     95  O   UNL A   1      45.130  23.100  35.776  1.00  0.00    -0.237 OA
ATOM     96  O   UNL A   1      47.265  23.677  36.859  1.00  0.00    -0.237 OA
ATOM     97  O   UNL A   1      45.157  24.559  37.764  1.00  0.00    -0.744 OA
ENDBRANCH  91  94
ENDBRANCH  64  87
ENDBRANCH  38  39
ENDBRANCH  30  33
ENDBRANCH  28  29
ENDBRANCH  27  28
ENDBRANCH   1  27
TORSDOF 18
ENDMDL
