MODEL 1
REMARK VINA RESULT:     -12.0      0.000      0.000
REMARK SMILES CC(C)N1C[C@H](C(=O)N[C@@H]2C=C[C@@H](C(=O)NCCCNC(=O)c3ccc(-c4c5nc(c(-c6cccc(S(=O)(=O)[O-])c6F)c6ccc([nH]6)c(-c6cccc(S(=O)(=O)[O-])c6F)c6nc(c(-c7cccc(S(=O)(=O)[O-])c7F)c7ccc4[nH]7)C=C6)C=C5)cc3)C2)CC1=O
REMARK SMILES IDX 18 1 17 2 16 3 14 4 15 5 13 7 10 8 11 9 86 10 12 11 9 12
REMARK SMILES IDX 7 13 8 14 6 16 4 17 5 18 88 19 87 20 89 21 2 22 1 23 3 24
REMARK SMILES IDX 19 25 20 26 21 27 22 29 23 30 24 31 85 32 25 33 84 34 26 35
REMARK SMILES IDX 27 36 28 37 78 38 29 39 83 40 77 41 79 42 30 43 82 44 76 45
REMARK SMILES IDX 75 46 31 48 63 49 43 50 62 51 44 52 47 53 61 54 80 55 45 56
REMARK SMILES IDX 46 57 60 59 81 60 48 61 32 62 33 63 41 64 34 65 36 66 42 67
REMARK SMILES IDX 35 68 37 69 38 70 39 71 40 72 64 73 65 74 73 75 66 76 68 77
REMARK SMILES IDX 74 78 67 79 69 80 70 81 71 82 72 83 49 84 50 85 58 86 51 87
REMARK SMILES IDX 53 88 59 89 52 90 54 91 55 92 56 93 57 94
REMARK H PARENT 16 6 9 15 20 28 79 47 47 58
REMARK Flexibility Score: inf
ROOT
ATOM      1  C   UNL A   1      31.597  31.955  26.552  1.00  0.00     0.042 C 
ENDROOT
BRANCH   1   2
ATOM      2  C   UNL A   1      31.756  30.474  26.243  1.00  0.00     0.117 C 
BRANCH   2   3
ATOM      3  N   UNL A   1      33.025  29.944  26.708  1.00  0.00    -0.356 N 
ATOM      4  C   UNL A   1      33.633  28.745  26.497  1.00  0.00     0.227 C 
ATOM      5  O   UNL A   1      34.764  28.598  26.973  1.00  0.00    -0.274 OA
ATOM      6  H   UNL A   1      33.536  30.561  27.278  1.00  0.00     0.163 HD
BRANCH   4   7
ATOM      7  C   UNL A   1      32.992  27.617  25.684  1.00  0.00     0.103 C 
ATOM      8  C   UNL A   1      33.194  25.159  25.822  1.00  0.00     0.106 C 
ATOM      9  C   UNL A   1      31.943  25.671  26.462  1.00  0.00    -0.006 C 
ATOM     10  C   UNL A   1      33.914  26.438  25.352  1.00  0.00     0.047 C 
ATOM     11  C   UNL A   1      31.827  27.000  26.387  1.00  0.00    -0.016 C 
BRANCH   8  12
ATOM     12  N   UNL A   1      32.825  24.298  24.719  1.00  0.00    -0.350 N 
ATOM     13  C   UNL A   1      32.907  22.941  24.597  1.00  0.00     0.225 C 
ATOM     14  O   UNL A   1      32.560  22.436  23.529  1.00  0.00    -0.275 OA
ATOM     15  H   UNL A   1      32.458  24.765  23.933  1.00  0.00     0.164 HD
BRANCH  13  16
ATOM     16  C   UNL A   1      33.339  22.106  25.793  1.00  0.00     0.107 C 
ATOM     17  N   UNL A   1      33.659  19.878  25.113  1.00  0.00    -0.339 N 
ATOM     18  C   UNL A   1      32.676  20.744  25.712  1.00  0.00     0.133 C 
ATOM     19  C   UNL A   1      34.932  20.427  25.168  1.00  0.00     0.223 C 
ATOM     20  C   UNL A   1      34.837  21.797  25.792  1.00  0.00     0.115 C 
ATOM     21  O   UNL A   1      35.970  19.877  24.827  1.00  0.00    -0.275 OA
BRANCH  17  22
ATOM     22  C   UNL A   1      33.372  18.548  24.570  1.00  0.00     0.078 C 
ATOM     23  C   UNL A   1      32.667  17.613  25.558  1.00  0.00     0.031 C 
ATOM     24  C   UNL A   1      32.536  18.656  23.292  1.00  0.00     0.031 C 
ENDBRANCH  17  22
ENDBRANCH  13  16
ENDBRANCH   8  12
ENDBRANCH   4   7
ENDBRANCH   2   3
ENDBRANCH   1   2
BRANCH   1  25
ATOM     25  C   UNL A   1      32.762  32.541  27.337  1.00  0.00     0.118 C 
BRANCH  25  26
ATOM     26  N   UNL A   1      32.567  33.951  27.651  1.00  0.00    -0.352 N 
ATOM     27  C   UNL A   1      33.145  34.728  28.625  1.00  0.00     0.251 C 
ATOM     28  H   UNL A   1      31.920  34.419  27.075  1.00  0.00     0.163 HD
ATOM     29  O   UNL A   1      32.685  35.844  28.855  1.00  0.00    -0.269 OA
BRANCH  27  30
ATOM     30  C   UNL A   1      34.299  34.224  29.401  1.00  0.00     0.039 A 
ATOM     31  C   UNL A   1      34.062  33.458  30.544  1.00  0.00     0.014 A 
ATOM     32  C   UNL A   1      35.609  34.517  29.014  1.00  0.00     0.014 A 
ATOM     33  C   UNL A   1      35.139  32.932  31.261  1.00  0.00     0.010 A 
ATOM     34  C   UNL A   1      36.677  33.915  29.671  1.00  0.00     0.010 A 
ATOM     35  C   UNL A   1      36.456  33.124  30.808  1.00  0.00    -0.014 A 
BRANCH  35  36
ATOM     36  C   UNL A   1      37.610  32.500  31.503  1.00  0.00     0.031 A 
ATOM     37  C   UNL A   1      38.350  31.351  30.871  1.00  0.00     0.074 A 
ATOM     38  C   UNL A   1      37.941  32.912  32.743  1.00  0.00     0.049 A 
ATOM     39  N   UNL A   1      39.344  30.649  31.349  1.00  0.00    -0.248 NA
ATOM     40  C   UNL A   1      37.897  30.917  29.539  1.00  0.00     0.031 C 
ATOM     41  C   UNL A   1      37.253  33.963  33.497  1.00  0.00     0.029 A 
ATOM     42  N   UNL A   1      38.922  32.480  33.600  1.00  0.00    -0.354 N 
ATOM     43  C   UNL A   1      39.611  29.671  30.398  1.00  0.00     0.074 A 
ATOM     44  C   UNL A   1      38.649  29.845  29.332  1.00  0.00     0.031 C 
ATOM     45  C   UNL A   1      37.839  34.101  34.696  1.00  0.00     0.029 A 
ATOM     46  C   UNL A   1      38.918  33.124  34.815  1.00  0.00     0.049 A 
ATOM     47  H   UNL A   1      39.569  31.774  33.367  1.00  0.00     0.167 HD
ATOM     48  C   UNL A   1      40.585  28.730  30.397  1.00  0.00     0.034 A 
ATOM     49  C   UNL A   1      39.685  32.942  35.907  1.00  0.00     0.034 A 
ATOM     50  C   UNL A   1      41.560  28.579  31.444  1.00  0.00     0.049 A 
ATOM     51  C   UNL A   1      40.773  31.905  35.872  1.00  0.00     0.074 A 
ATOM     52  C   UNL A   1      42.639  27.715  31.495  1.00  0.00     0.029 A 
ATOM     53  N   UNL A   1      41.565  29.297  32.629  1.00  0.00    -0.354 N 
ATOM     54  N   UNL A   1      41.110  31.095  34.898  1.00  0.00    -0.248 NA
ATOM     55  C   UNL A   1      41.612  31.780  37.073  1.00  0.00     0.031 C 
ATOM     56  C   UNL A   1      43.275  27.883  32.730  1.00  0.00     0.029 A 
ATOM     57  C   UNL A   1      42.619  28.884  33.428  1.00  0.00     0.049 A 
ATOM     58  H   UNL A   1      40.917  29.998  32.868  1.00  0.00     0.167 HD
ATOM     59  C   UNL A   1      42.218  30.390  35.354  1.00  0.00     0.074 A 
ATOM     60  C   UNL A   1      42.508  30.886  36.684  1.00  0.00     0.031 C 
ATOM     61  C   UNL A   1      42.925  29.413  34.732  1.00  0.00     0.034 A 
BRANCH  48  62
ATOM     62  C   UNL A   1      40.668  27.810  29.204  1.00  0.00     0.023 A 
ATOM     63  C   UNL A   1      39.822  26.685  29.127  1.00  0.00     0.012 A 
ATOM     64  C   UNL A   1      41.547  28.086  28.138  1.00  0.00     0.148 A 
ATOM     65  C   UNL A   1      39.878  25.824  28.031  1.00  0.00     0.002 A 
ATOM     66  C   UNL A   1      41.562  27.252  27.026  1.00  0.00     0.091 A 
ATOM     67  F   UNL A   1      42.358  29.147  28.236  1.00  0.00    -0.205 F 
ATOM     68  C   UNL A   1      40.740  26.115  26.977  1.00  0.00     0.022 A 
BRANCH  66  69
ATOM     69  S   UNL A   1      42.576  27.583  25.580  1.00  0.00     0.127 S 
ATOM     70  O   UNL A   1      43.915  27.636  26.166  1.00  0.00    -0.237 OA
ATOM     71  O   UNL A   1      42.319  26.405  24.751  1.00  0.00    -0.237 OA
ATOM     72  O   UNL A   1      42.087  28.837  25.024  1.00  0.00    -0.744 OA
ENDBRANCH  66  69
ENDBRANCH  48  62
BRANCH  49  73
ATOM     73  C   UNL A   1      39.484  33.801  37.108  1.00  0.00     0.023 A 
ATOM     74  C   UNL A   1      39.921  35.140  37.087  1.00  0.00     0.012 A 
ATOM     75  C   UNL A   1      38.838  33.307  38.258  1.00  0.00     0.148 A 
ATOM     76  C   UNL A   1      39.750  35.962  38.202  1.00  0.00     0.002 A 
ATOM     77  C   UNL A   1      38.617  34.148  39.342  1.00  0.00     0.091 A 
ATOM     78  F   UNL A   1      38.436  32.029  38.261  1.00  0.00    -0.205 F 
ATOM     79  C   UNL A   1      39.090  35.470  39.324  1.00  0.00     0.022 A 
BRANCH  77  80
ATOM     80  S   UNL A   1      37.657  33.643  40.773  1.00  0.00     0.127 S 
ATOM     81  O   UNL A   1      38.557  32.687  41.414  1.00  0.00    -0.237 OA
ATOM     82  O   UNL A   1      37.492  34.911  41.485  1.00  0.00    -0.237 OA
ATOM     83  O   UNL A   1      36.420  33.089  40.242  1.00  0.00    -0.744 OA
ENDBRANCH  77  80
ENDBRANCH  49  73
BRANCH  61  84
ATOM     84  C   UNL A   1      44.111  28.838  35.461  1.00  0.00     0.023 A 
ATOM     85  C   UNL A   1      45.393  29.392  35.274  1.00  0.00     0.012 A 
ATOM     86  C   UNL A   1      43.941  27.789  36.386  1.00  0.00     0.148 A 
ATOM     87  C   UNL A   1      46.491  28.888  35.968  1.00  0.00     0.002 A 
ATOM     88  C   UNL A   1      45.030  27.329  37.115  1.00  0.00     0.091 A 
ATOM     89  F   UNL A   1      42.716  27.264  36.539  1.00  0.00    -0.205 F 
ATOM     90  C   UNL A   1      46.309  27.866  36.897  1.00  0.00     0.022 A 
BRANCH  88  91
ATOM     91  S   UNL A   1      44.873  26.086  38.403  1.00  0.00     0.127 S 
ATOM     92  O   UNL A   1      44.398  24.930  37.644  1.00  0.00    -0.237 OA
ATOM     93  O   UNL A   1      46.247  25.972  38.891  1.00  0.00    -0.237 OA
ATOM     94  O   UNL A   1      43.929  26.626  39.371  1.00  0.00    -0.744 OA
ENDBRANCH  88  91
ENDBRANCH  61  84
ENDBRANCH  35  36
ENDBRANCH  27  30
ENDBRANCH  25  26
ENDBRANCH   1  25
TORSDOF 16
ENDMDL
MODEL 2
REMARK VINA RESULT:     -11.9      2.540      8.226
REMARK SMILES CC(C)N1C[C@H](C(=O)N[C@@H]2C=C[C@@H](C(=O)NCCCNC(=O)c3ccc(-c4c5nc(c(-c6cccc(S(=O)(=O)[O-])c6F)c6ccc([nH]6)c(-c6cccc(S(=O)(=O)[O-])c6F)c6nc(c(-c7cccc(S(=O)(=O)[O-])c7F)c7ccc4[nH]7)C=C6)C=C5)cc3)C2)CC1=O
REMARK SMILES IDX 18 1 17 2 16 3 14 4 15 5 13 7 10 8 11 9 86 10 12 11 9 12
REMARK SMILES IDX 7 13 8 14 6 16 4 17 5 18 88 19 87 20 89 21 2 22 1 23 3 24
REMARK SMILES IDX 19 25 20 26 21 27 22 29 23 30 24 31 85 32 25 33 84 34 26 35
REMARK SMILES IDX 27 36 28 37 78 38 29 39 83 40 77 41 79 42 30 43 82 44 76 45
REMARK SMILES IDX 75 46 31 48 63 49 43 50 62 51 44 52 47 53 61 54 80 55 45 56
REMARK SMILES IDX 46 57 60 59 81 60 48 61 32 62 33 63 41 64 34 65 36 66 42 67
REMARK SMILES IDX 35 68 37 69 38 70 39 71 40 72 64 73 65 74 73 75 66 76 68 77
REMARK SMILES IDX 74 78 67 79 69 80 70 81 71 82 72 83 49 84 50 85 58 86 51 87
REMARK SMILES IDX 53 88 59 89 52 90 54 91 55 92 56 93 57 94
REMARK H PARENT 16 6 9 15 20 28 79 47 47 58
REMARK Flexibility Score: inf
ROOT
ATOM      1  C   UNL A   1      32.570  29.581  25.502  1.00  0.00     0.042 C 
ENDROOT
BRANCH   1   2
ATOM      2  C   UNL A   1      31.193  29.086  25.085  1.00  0.00     0.117 C 
BRANCH   2   3
ATOM      3  N   UNL A   1      30.792  29.594  23.786  1.00  0.00    -0.356 N 
ATOM      4  C   UNL A   1      30.745  29.003  22.561  1.00  0.00     0.227 C 
ATOM      5  O   UNL A   1      30.287  29.674  21.630  1.00  0.00    -0.274 OA
ATOM      6  H   UNL A   1      30.503  30.535  23.791  1.00  0.00     0.163 HD
BRANCH   4   7
ATOM      7  C   UNL A   1      31.198  27.561  22.315  1.00  0.00     0.103 C 
ATOM      8  C   UNL A   1      32.735  26.079  23.555  1.00  0.00     0.106 C 
ATOM      9  C   UNL A   1      31.297  25.783  23.837  1.00  0.00    -0.006 C 
ATOM     10  C   UNL A   1      32.680  27.280  22.592  1.00  0.00     0.047 C 
ATOM     11  C   UNL A   1      30.461  26.579  23.167  1.00  0.00    -0.016 C 
BRANCH   8  12
ATOM     12  N   UNL A   1      33.332  24.910  22.942  1.00  0.00    -0.350 N 
ATOM     13  C   UNL A   1      34.409  24.167  23.330  1.00  0.00     0.225 C 
ATOM     14  O   UNL A   1      34.750  23.227  22.612  1.00  0.00    -0.275 OA
ATOM     15  H   UNL A   1      32.891  24.604  22.117  1.00  0.00     0.164 HD
BRANCH  13  16
ATOM     16  C   UNL A   1      35.089  24.470  24.657  1.00  0.00     0.107 C 
ATOM     17  N   UNL A   1      34.812  22.642  26.110  1.00  0.00    -0.339 N 
ATOM     18  C   UNL A   1      34.237  23.922  25.787  1.00  0.00     0.133 C 
ATOM     19  C   UNL A   1      36.096  22.510  25.601  1.00  0.00     0.223 C 
ATOM     20  C   UNL A   1      36.431  23.753  24.816  1.00  0.00     0.115 C 
ATOM     21  O   UNL A   1      36.858  21.574  25.801  1.00  0.00    -0.275 OA
BRANCH  17  22
ATOM     22  C   UNL A   1      34.157  21.622  26.933  1.00  0.00     0.078 C 
ATOM     23  C   UNL A   1      33.223  22.195  28.004  1.00  0.00     0.031 C 
ATOM     24  C   UNL A   1      33.376  20.640  26.054  1.00  0.00     0.031 C 
ENDBRANCH  17  22
ENDBRANCH  13  16
ENDBRANCH   8  12
ENDBRANCH   4   7
ENDBRANCH   2   3
ENDBRANCH   1   2
BRANCH   1  25
ATOM     25  C   UNL A   1      32.621  30.107  26.930  1.00  0.00     0.118 C 
BRANCH  25  26
ATOM     26  N   UNL A   1      32.755  31.557  26.984  1.00  0.00    -0.352 N 
ATOM     27  C   UNL A   1      33.706  32.336  27.595  1.00  0.00     0.251 C 
ATOM     28  H   UNL A   1      32.052  32.057  26.506  1.00  0.00     0.163 HD
ATOM     29  O   UNL A   1      33.519  33.545  27.698  1.00  0.00    -0.269 OA
BRANCH  27  30
ATOM     30  C   UNL A   1      34.938  31.725  28.140  1.00  0.00     0.039 A 
ATOM     31  C   UNL A   1      36.091  32.507  28.247  1.00  0.00     0.014 A 
ATOM     32  C   UNL A   1      34.966  30.383  28.528  1.00  0.00     0.014 A 
ATOM     33  C   UNL A   1      37.248  31.960  28.805  1.00  0.00     0.010 A 
ATOM     34  C   UNL A   1      36.087  29.870  29.170  1.00  0.00     0.010 A 
ATOM     35  C   UNL A   1      37.245  30.648  29.307  1.00  0.00    -0.014 A 
BRANCH  35  36
ATOM     36  C   UNL A   1      38.437  30.077  29.984  1.00  0.00     0.031 A 
ATOM     37  C   UNL A   1      38.824  30.539  31.364  1.00  0.00     0.074 A 
ATOM     38  C   UNL A   1      39.222  29.203  29.323  1.00  0.00     0.049 A 
ATOM     39  N   UNL A   1      39.856  30.196  32.088  1.00  0.00    -0.248 NA
ATOM     40  C   UNL A   1      37.952  31.540  32.002  1.00  0.00     0.031 C 
ATOM     41  C   UNL A   1      38.999  28.734  27.954  1.00  0.00     0.029 A 
ATOM     42  N   UNL A   1      40.379  28.571  29.704  1.00  0.00    -0.354 N 
ATOM     43  C   UNL A   1      39.780  30.959  33.247  1.00  0.00     0.074 A 
ATOM     44  C   UNL A   1      38.621  31.814  33.113  1.00  0.00     0.031 C 
ATOM     45  C   UNL A   1      39.980  27.883  27.613  1.00  0.00     0.029 A 
ATOM     46  C   UNL A   1      40.922  27.775  28.723  1.00  0.00     0.049 A 
ATOM     47  H   UNL A   1      40.784  28.678  30.596  1.00  0.00     0.167 HD
ATOM     48  C   UNL A   1      40.583  30.934  34.337  1.00  0.00     0.034 A 
ATOM     49  C   UNL A   1      42.057  27.049  28.711  1.00  0.00     0.034 A 
ATOM     50  C   UNL A   1      41.717  30.060  34.480  1.00  0.00     0.049 A 
ATOM     51  C   UNL A   1      42.921  27.021  29.941  1.00  0.00     0.074 A 
ATOM     52  C   UNL A   1      42.542  29.897  35.579  1.00  0.00     0.029 A 
ATOM     53  N   UNL A   1      42.196  29.217  33.491  1.00  0.00    -0.354 N 
ATOM     54  N   UNL A   1      42.744  27.632  31.087  1.00  0.00    -0.248 NA
ATOM     55  C   UNL A   1      44.123  26.176  29.890  1.00  0.00     0.031 C 
ATOM     56  C   UNL A   1      43.544  28.980  35.240  1.00  0.00     0.029 A 
ATOM     57  C   UNL A   1      43.317  28.541  33.946  1.00  0.00     0.049 A 
ATOM     58  H   UNL A   1      41.799  29.112  32.597  1.00  0.00     0.167 HD
ATOM     59  C   UNL A   1      43.790  27.219  31.905  1.00  0.00     0.074 A 
ATOM     60  C   UNL A   1      44.583  26.288  31.128  1.00  0.00     0.031 C 
ATOM     61  C   UNL A   1      44.074  27.585  33.180  1.00  0.00     0.034 A 
BRANCH  48  62
ATOM     62  C   UNL A   1      40.241  31.855  35.481  1.00  0.00     0.023 A 
ATOM     63  C   UNL A   1      40.975  33.046  35.665  1.00  0.00     0.012 A 
ATOM     64  C   UNL A   1      39.164  31.569  36.342  1.00  0.00     0.148 A 
ATOM     65  C   UNL A   1      40.671  33.915  36.713  1.00  0.00     0.002 A 
ATOM     66  C   UNL A   1      38.835  32.465  37.354  1.00  0.00     0.091 A 
ATOM     67  F   UNL A   1      38.490  30.425  36.166  1.00  0.00    -0.205 F 
ATOM     68  C   UNL A   1      39.596  33.629  37.549  1.00  0.00     0.022 A 
BRANCH  66  69
ATOM     69  S   UNL A   1      37.419  32.231  38.433  1.00  0.00     0.127 S 
ATOM     70  O   UNL A   1      37.900  32.820  39.682  1.00  0.00    -0.237 OA
ATOM     71  O   UNL A   1      36.383  33.007  37.751  1.00  0.00    -0.237 OA
ATOM     72  O   UNL A   1      37.175  30.796  38.472  1.00  0.00    -0.744 OA
ENDBRANCH  66  69
ENDBRANCH  48  62
BRANCH  49  73
ATOM     73  C   UNL A   1      42.412  26.245  27.507  1.00  0.00     0.023 A 
ATOM     74  C   UNL A   1      43.151  26.842  26.466  1.00  0.00     0.012 A 
ATOM     75  C   UNL A   1      42.048  24.889  27.402  1.00  0.00     0.148 A 
ATOM     76  C   UNL A   1      43.490  26.111  25.326  1.00  0.00     0.002 A 
ATOM     77  C   UNL A   1      42.441  24.152  26.292  1.00  0.00     0.091 A 
ATOM     78  F   UNL A   1      41.341  24.343  28.400  1.00  0.00    -0.205 F 
ATOM     79  C   UNL A   1      43.144  24.765  25.244  1.00  0.00     0.022 A 
BRANCH  77  80
ATOM     80  S   UNL A   1      42.161  22.382  26.162  1.00  0.00     0.127 S 
ATOM     81  O   UNL A   1      42.749  21.895  27.407  1.00  0.00    -0.237 OA
ATOM     82  O   UNL A   1      40.700  22.315  26.100  1.00  0.00    -0.237 OA
ATOM     83  O   UNL A   1      42.833  21.966  24.939  1.00  0.00    -0.744 OA
ENDBRANCH  77  80
ENDBRANCH  49  73
BRANCH  61  84
ATOM     84  C   UNL A   1      45.270  26.950  33.839  1.00  0.00     0.023 A 
ATOM     85  C   UNL A   1      46.524  27.592  33.798  1.00  0.00     0.012 A 
ATOM     86  C   UNL A   1      45.134  25.747  34.560  1.00  0.00     0.148 A 
ATOM     87  C   UNL A   1      47.630  27.029  34.432  1.00  0.00     0.002 A 
ATOM     88  C   UNL A   1      46.228  25.221  35.236  1.00  0.00     0.091 A 
ATOM     89  F   UNL A   1      43.937  25.143  34.574  1.00  0.00    -0.205 F 
ATOM     90  C   UNL A   1      47.480  25.851  35.161  1.00  0.00     0.022 A 
BRANCH  88  91
ATOM     91  S   UNL A   1      46.106  23.764  36.280  1.00  0.00     0.127 S 
ATOM     92  O   UNL A   1      47.361  23.829  37.028  1.00  0.00    -0.237 OA
ATOM     93  O   UNL A   1      44.910  24.050  37.071  1.00  0.00    -0.237 OA
ATOM     94  O   UNL A   1      45.978  22.629  35.376  1.00  0.00    -0.744 OA
ENDBRANCH  88  91
ENDBRANCH  61  84
ENDBRANCH  35  36
ENDBRANCH  27  30
ENDBRANCH  25  26
ENDBRANCH   1  25
TORSDOF 16
ENDMDL
MODEL 3
REMARK VINA RESULT:     -11.5      1.883      7.898
REMARK SMILES CC(C)N1C[C@H](C(=O)N[C@@H]2C=C[C@@H](C(=O)NCCCNC(=O)c3ccc(-c4c5nc(c(-c6cccc(S(=O)(=O)[O-])c6F)c6ccc([nH]6)c(-c6cccc(S(=O)(=O)[O-])c6F)c6nc(c(-c7cccc(S(=O)(=O)[O-])c7F)c7ccc4[nH]7)C=C6)C=C5)cc3)C2)CC1=O
REMARK SMILES IDX 18 1 17 2 16 3 14 4 15 5 13 7 10 8 11 9 86 10 12 11 9 12
REMARK SMILES IDX 7 13 8 14 6 16 4 17 5 18 88 19 87 20 89 21 2 22 1 23 3 24
REMARK SMILES IDX 19 25 20 26 21 27 22 29 23 30 24 31 85 32 25 33 84 34 26 35
REMARK SMILES IDX 27 36 28 37 78 38 29 39 83 40 77 41 79 42 30 43 82 44 76 45
REMARK SMILES IDX 75 46 31 48 63 49 43 50 62 51 44 52 47 53 61 54 80 55 45 56
REMARK SMILES IDX 46 57 60 59 81 60 48 61 32 62 33 63 41 64 34 65 36 66 42 67
REMARK SMILES IDX 35 68 37 69 38 70 39 71 40 72 64 73 65 74 73 75 66 76 68 77
REMARK SMILES IDX 74 78 67 79 69 80 70 81 71 82 72 83 49 84 50 85 58 86 51 87
REMARK SMILES IDX 53 88 59 89 52 90 54 91 55 92 56 93 57 94
REMARK H PARENT 16 6 9 15 20 28 79 47 47 58
REMARK Flexibility Score: inf
ROOT
ATOM      1  C   UNL A   1      31.416  31.994  26.304  1.00  0.00     0.042 C 
ENDROOT
BRANCH   1   2
ATOM      2  C   UNL A   1      31.422  30.514  25.953  1.00  0.00     0.117 C 
BRANCH   2   3
ATOM      3  N   UNL A   1      30.838  30.250  24.651  1.00  0.00    -0.356 N 
ATOM      4  C   UNL A   1      31.156  29.346  23.685  1.00  0.00     0.227 C 
ATOM      5  O   UNL A   1      30.425  29.307  22.690  1.00  0.00    -0.274 OA
ATOM      6  H   UNL A   1      30.076  30.831  24.424  1.00  0.00     0.163 HD
BRANCH   4   7
ATOM      7  C   UNL A   1      32.338  28.380  23.806  1.00  0.00     0.103 C 
ATOM      8  C   UNL A   1      32.910  26.308  22.589  1.00  0.00     0.106 C 
ATOM      9  C   UNL A   1      33.679  27.494  22.100  1.00  0.00    -0.006 C 
ATOM     10  C   UNL A   1      31.988  26.893  23.678  1.00  0.00     0.047 C 
ATOM     11  C   UNL A   1      33.376  28.617  22.757  1.00  0.00    -0.016 C 
BRANCH   8  12
ATOM     12  N   UNL A   1      33.846  25.342  23.121  1.00  0.00    -0.350 N 
ATOM     13  C   UNL A   1      33.684  24.013  23.388  1.00  0.00     0.225 C 
ATOM     14  O   UNL A   1      34.632  23.403  23.880  1.00  0.00    -0.275 OA
ATOM     15  H   UNL A   1      34.742  25.699  23.323  1.00  0.00     0.164 HD
BRANCH  13  16
ATOM     16  C   UNL A   1      32.384  23.325  22.998  1.00  0.00     0.107 C 
ATOM     17  N   UNL A   1      32.291  21.205  24.009  1.00  0.00    -0.339 N 
ATOM     18  C   UNL A   1      32.653  21.848  22.773  1.00  0.00     0.133 C 
ATOM     19  C   UNL A   1      31.498  22.021  24.803  1.00  0.00     0.223 C 
ATOM     20  C   UNL A   1      31.338  23.352  24.113  1.00  0.00     0.115 C 
ATOM     21  O   UNL A   1      30.965  21.703  25.858  1.00  0.00    -0.275 OA
BRANCH  17  22
ATOM     22  C   UNL A   1      32.652  19.830  24.366  1.00  0.00     0.078 C 
ATOM     23  C   UNL A   1      32.385  18.810  23.255  1.00  0.00     0.031 C 
ATOM     24  C   UNL A   1      34.124  19.750  24.782  1.00  0.00     0.031 C 
ENDBRANCH  17  22
ENDBRANCH  13  16
ENDBRANCH   8  12
ENDBRANCH   4   7
ENDBRANCH   2   3
ENDBRANCH   1   2
BRANCH   1  25
ATOM     25  C   UNL A   1      32.596  32.419  27.167  1.00  0.00     0.118 C 
BRANCH  25  26
ATOM     26  N   UNL A   1      32.532  33.826  27.542  1.00  0.00    -0.352 N 
ATOM     27  C   UNL A   1      33.227  34.518  28.504  1.00  0.00     0.251 C 
ATOM     28  H   UNL A   1      31.889  34.365  27.025  1.00  0.00     0.163 HD
ATOM     29  O   UNL A   1      32.870  35.655  28.801  1.00  0.00    -0.269 OA
BRANCH  27  30
ATOM     30  C   UNL A   1      34.382  33.897  29.187  1.00  0.00     0.039 A 
ATOM     31  C   UNL A   1      34.148  33.016  30.246  1.00  0.00     0.014 A 
ATOM     32  C   UNL A   1      35.691  34.191  28.798  1.00  0.00     0.014 A 
ATOM     33  C   UNL A   1      35.226  32.383  30.870  1.00  0.00     0.010 A 
ATOM     34  C   UNL A   1      36.754  33.488  29.355  1.00  0.00     0.010 A 
ATOM     35  C   UNL A   1      36.536  32.584  30.403  1.00  0.00    -0.014 A 
BRANCH  35  36
ATOM     36  C   UNL A   1      37.686  31.853  30.994  1.00  0.00     0.031 A 
ATOM     37  C   UNL A   1      38.180  32.196  32.373  1.00  0.00     0.074 A 
ATOM     38  C   UNL A   1      38.341  30.936  30.254  1.00  0.00     0.049 A 
ATOM     39  N   UNL A   1      39.199  31.705  33.030  1.00  0.00    -0.248 NA
ATOM     40  C   UNL A   1      37.452  33.249  33.101  1.00  0.00     0.031 C 
ATOM     41  C   UNL A   1      38.010  30.567  28.876  1.00  0.00     0.029 A 
ATOM     42  N   UNL A   1      39.437  30.164  30.548  1.00  0.00    -0.354 N 
ATOM     43  C   UNL A   1      39.256  32.410  34.227  1.00  0.00     0.074 A 
ATOM     44  C   UNL A   1      38.193  33.390  34.190  1.00  0.00     0.031 C 
ATOM     45  C   UNL A   1      38.875  29.636  28.448  1.00  0.00     0.029 A 
ATOM     46  C   UNL A   1      39.847  29.367  29.504  1.00  0.00     0.049 A 
ATOM     47  H   UNL A   1      39.888  30.179  31.423  1.00  0.00     0.167 HD
ATOM     48  C   UNL A   1      40.098  32.239  35.274  1.00  0.00     0.034 A 
ATOM     49  C   UNL A   1      40.893  28.525  29.402  1.00  0.00     0.034 A 
ATOM     50  C   UNL A   1      41.133  31.243  35.320  1.00  0.00     0.049 A 
ATOM     51  C   UNL A   1      41.801  28.338  30.586  1.00  0.00     0.074 A 
ATOM     52  C   UNL A   1      41.981  30.932  36.369  1.00  0.00     0.029 A 
ATOM     53  N   UNL A   1      41.474  30.406  34.269  1.00  0.00    -0.354 N 
ATOM     54  N   UNL A   1      41.741  28.902  31.768  1.00  0.00    -0.248 NA
ATOM     55  C   UNL A   1      42.899  27.372  30.437  1.00  0.00     0.031 C 
ATOM     56  C   UNL A   1      42.861  29.933  35.938  1.00  0.00     0.029 A 
ATOM     57  C   UNL A   1      42.532  29.591  34.636  1.00  0.00     0.049 A 
ATOM     58  H   UNL A   1      41.030  30.393  33.391  1.00  0.00     0.167 HD
ATOM     59  C   UNL A   1      42.769  28.336  32.513  1.00  0.00     0.074 A 
ATOM     60  C   UNL A   1      43.421  27.368  31.655  1.00  0.00     0.031 C 
ATOM     61  C   UNL A   1      43.146  28.601  33.789  1.00  0.00     0.034 A 
BRANCH  48  62
ATOM     62  C   UNL A   1      39.907  33.130  36.477  1.00  0.00     0.023 A 
ATOM     63  C   UNL A   1      40.476  34.421  36.488  1.00  0.00     0.012 A 
ATOM     64  C   UNL A   1      39.128  32.710  37.572  1.00  0.00     0.148 A 
ATOM     65  C   UNL A   1      40.308  35.263  37.587  1.00  0.00     0.002 A 
ATOM     66  C   UNL A   1      38.924  33.573  38.642  1.00  0.00     0.091 A 
ATOM     67  F   UNL A   1      38.613  31.474  37.554  1.00  0.00    -0.205 F 
ATOM     68  C   UNL A   1      39.524  34.843  38.658  1.00  0.00     0.022 A 
BRANCH  66  69
ATOM     69  S   UNL A   1      37.864  33.160  40.032  1.00  0.00     0.127 S 
ATOM     70  O   UNL A   1      37.949  34.377  40.838  1.00  0.00    -0.237 OA
ATOM     71  O   UNL A   1      36.571  32.949  39.379  1.00  0.00    -0.237 OA
ATOM     72  O   UNL A   1      38.441  31.968  40.638  1.00  0.00    -0.744 OA
ENDBRANCH  66  69
ENDBRANCH  48  62
BRANCH  49  73
ATOM     73  C   UNL A   1      41.106  27.753  28.145  1.00  0.00     0.023 A 
ATOM     74  C   UNL A   1      41.678  28.390  27.026  1.00  0.00     0.012 A 
ATOM     75  C   UNL A   1      40.773  26.387  28.062  1.00  0.00     0.148 A 
ATOM     76  C   UNL A   1      41.881  27.690  25.836  1.00  0.00     0.002 A 
ATOM     77  C   UNL A   1      41.033  25.681  26.894  1.00  0.00     0.091 A 
ATOM     78  F   UNL A   1      40.224  25.802  29.136  1.00  0.00    -0.205 F 
ATOM     79  C   UNL A   1      41.569  26.335  25.773  1.00  0.00     0.022 A 
BRANCH  77  80
ATOM     80  S   UNL A   1      40.792  23.906  26.767  1.00  0.00     0.127 S 
ATOM     81  O   UNL A   1      41.709  23.557  25.684  1.00  0.00    -0.237 OA
ATOM     82  O   UNL A   1      41.203  23.453  28.096  1.00  0.00    -0.237 OA
ATOM     83  O   UNL A   1      39.376  23.720  26.480  1.00  0.00    -0.744 OA
ENDBRANCH  77  80
ENDBRANCH  49  73
BRANCH  61  84
ATOM     84  C   UNL A   1      44.292  27.806  34.358  1.00  0.00     0.023 A 
ATOM     85  C   UNL A   1      45.609  28.300  34.266  1.00  0.00     0.012 A 
ATOM     86  C   UNL A   1      44.053  26.600  35.047  1.00  0.00     0.148 A 
ATOM     87  C   UNL A   1      46.673  27.588  34.818  1.00  0.00     0.002 A 
ATOM     88  C   UNL A   1      45.111  25.925  35.642  1.00  0.00     0.091 A 
ATOM     89  F   UNL A   1      42.796  26.139  35.110  1.00  0.00    -0.205 F 
ATOM     90  C   UNL A   1      46.423  26.408  35.516  1.00  0.00     0.022 A 
BRANCH  88  91
ATOM     91  S   UNL A   1      44.874  24.453  36.644  1.00  0.00     0.127 S 
ATOM     92  O   UNL A   1      43.977  24.946  37.689  1.00  0.00    -0.237 OA
ATOM     93  O   UNL A   1      44.255  23.529  35.694  1.00  0.00    -0.237 OA
ATOM     94  O   UNL A   1      46.200  24.056  37.098  1.00  0.00    -0.744 OA
ENDBRANCH  88  91
ENDBRANCH  61  84
ENDBRANCH  35  36
ENDBRANCH  27  30
ENDBRANCH  25  26
ENDBRANCH   1  25
TORSDOF 16
ENDMDL
