MODEL 1
REMARK VINA RESULT:     -10.5      0.000      0.000
REMARK SMILES CCOc1cc2c(cc1/C=C1/C(=O)N(c3cccc(C(=O)NCCCNC(=O)c4ccc(-c5c6nc(c(-c7cccc(S(=O)(=O)[O-])c7F)c7ccc([nH]7)c(-c7cccc(S(=O)(=O)[O-])c7F)c7nc(c(-c8cccc(S(=O)(=O)[O-])c8F)c8ccc5[nH]8)C=C7)C=C6)cc4)c3)C(=S)N=C1O)OCO2
REMARK SMILES IDX 23 1 22 2 20 3 21 4 19 6 15 7 16 8 92 9 17 10 18 11 14 12
REMARK SMILES IDX 10 13 11 14 12 15 96 16 13 17 95 18 93 19 94 20 9 21 4 22
REMARK SMILES IDX 5 23 6 24 8 25 7 26 100 27 98 28 99 29 3 30 2 31 1 32 97 33
REMARK SMILES IDX 24 35 25 36 26 37 27 38 28 40 29 41 30 42 91 43 31 44 90 45
REMARK SMILES IDX 32 46 33 47 34 48 84 49 35 50 89 51 83 52 85 53 36 54 88 55
REMARK SMILES IDX 82 56 81 57 37 59 69 60 49 61 68 62 50 63 53 64 67 65 86 66
REMARK SMILES IDX 51 67 52 68 66 70 87 71 54 72 38 73 39 74 47 75 40 76 42 77
REMARK SMILES IDX 48 78 41 79 43 80 44 81 45 82 46 83 70 84 71 85 79 86 72 87
REMARK SMILES IDX 74 88 80 89 73 90 75 91 76 92 77 93 78 94 55 95 56 96 64 97
REMARK SMILES IDX 57 98 59 99 65 100 58 101 60 102 61 103 62 104 63 105
REMARK H PARENT 22 5 97 34 26 39 85 58 53 69
REMARK Flexibility Score: inf
ROOT
ATOM      1  C   UNL A   1      32.871  35.433  29.636  1.00  0.00     0.118 C 
ENDROOT
BRANCH   1   2
ATOM      2  N   UNL A   1      32.917  36.485  30.647  1.00  0.00    -0.352 N 
ATOM      3  C   UNL A   1      33.519  36.581  31.882  1.00  0.00     0.251 C 
ATOM      4  O   UNL A   1      33.380  37.631  32.511  1.00  0.00    -0.269 OA
ATOM      5  H   UNL A   1      32.413  37.292  30.393  1.00  0.00     0.163 HD
BRANCH   3   6
ATOM      6  C   UNL A   1      34.263  35.458  32.516  1.00  0.00     0.041 A 
ATOM      7  C   UNL A   1      36.366  34.377  33.056  1.00  0.00     0.052 A 
ATOM      8  C   UNL A   1      35.670  33.186  33.305  1.00  0.00     0.027 A 
ATOM      9  C   UNL A   1      35.617  35.536  32.840  1.00  0.00     0.040 A 
ATOM     10  C   UNL A   1      34.279  33.132  33.183  1.00  0.00     0.003 A 
ATOM     11  C   UNL A   1      33.585  34.253  32.733  1.00  0.00     0.014 A 
BRANCH   7  12
ATOM     12  N   UNL A   1      37.805  34.398  32.863  1.00  0.00    -0.251 N 
ATOM     13  C   UNL A   1      40.332  33.696  30.294  1.00  0.00     0.031 C 
ATOM     14  C   UNL A   1      39.800  34.172  31.447  1.00  0.00     0.103 C 
ATOM     15  C   UNL A   1      38.308  34.278  31.553  1.00  0.00     0.270 C 
ATOM     16  C   UNL A   1      40.489  34.639  32.644  1.00  0.00     0.226 C 
ATOM     17  O   UNL A   1      37.623  34.266  30.529  1.00  0.00    -0.268 OA
ATOM     18  N   UNL A   1      39.978  34.770  33.806  1.00  0.00    -0.184 NA
ATOM     19  C   UNL A   1      38.672  34.387  33.988  1.00  0.00     0.210 C 
ATOM     20  S   UNL A   1      38.248  33.873  35.554  1.00  0.00    -0.038 S 
BRANCH  13  21
ATOM     21  C   UNL A   1      41.759  33.542  29.915  1.00  0.00     0.021 A 
ATOM     22  C   UNL A   1      42.416  34.514  29.113  1.00  0.00     0.130 A 
ATOM     23  C   UNL A   1      43.812  34.546  29.007  1.00  0.00     0.097 A 
ATOM     24  C   UNL A   1      44.522  33.532  29.597  1.00  0.00     0.169 A 
ATOM     25  C   UNL A   1      42.516  32.451  30.372  1.00  0.00     0.062 A 
ATOM     26  C   UNL A   1      43.888  32.496  30.234  1.00  0.00     0.166 A 
ATOM     27  O   UNL A   1      45.875  33.421  29.632  1.00  0.00    -0.453 OA
ATOM     28  O   UNL A   1      44.767  31.594  30.746  1.00  0.00    -0.454 OA
ATOM     29  C   UNL A   1      46.022  32.229  30.433  1.00  0.00     0.468 C 
BRANCH  22  30
ATOM     30  O   UNL A   1      41.708  35.501  28.465  1.00  0.00    -0.493 OA
BRANCH  30  31
ATOM     31  C   UNL A   1      42.432  36.749  28.464  1.00  0.00     0.226 C 
ATOM     32  C   UNL A   1      42.113  37.619  27.253  1.00  0.00     0.049 C 
ENDBRANCH  30  31
ENDBRANCH  22  30
ENDBRANCH  13  21
BRANCH  16  33
ATOM     33  O   UNL A   1      41.757  35.029  32.522  1.00  0.00    -0.493 OA
ATOM     34  H   UNL A   1      42.166  35.032  31.679  1.00  0.00     0.295 HD
ENDBRANCH  16  33
ENDBRANCH   7  12
ENDBRANCH   3   6
ENDBRANCH   1   2
BRANCH   1  35
ATOM     35  C   UNL A   1      34.207  35.108  28.997  1.00  0.00     0.042 C 
BRANCH  35  36
ATOM     36  C   UNL A   1      34.742  33.726  29.312  1.00  0.00     0.118 C 
BRANCH  36  37
ATOM     37  N   UNL A   1      34.186  32.692  28.448  1.00  0.00    -0.352 N 
ATOM     38  C   UNL A   1      34.700  31.480  28.045  1.00  0.00     0.251 C 
ATOM     39  H   UNL A   1      33.291  32.895  28.091  1.00  0.00     0.163 HD
ATOM     40  O   UNL A   1      34.139  30.859  27.149  1.00  0.00    -0.269 OA
BRANCH  38  41
ATOM     41  C   UNL A   1      35.928  30.934  28.667  1.00  0.00     0.039 A 
ATOM     42  C   UNL A   1      35.822  29.865  29.562  1.00  0.00     0.014 A 
ATOM     43  C   UNL A   1      37.180  31.481  28.391  1.00  0.00     0.014 A 
ATOM     44  C   UNL A   1      36.977  29.301  30.111  1.00  0.00     0.010 A 
ATOM     45  C   UNL A   1      38.332  30.847  28.842  1.00  0.00     0.010 A 
ATOM     46  C   UNL A   1      38.246  29.760  29.721  1.00  0.00    -0.014 A 
BRANCH  46  47
ATOM     47  C   UNL A   1      39.496  29.129  30.220  1.00  0.00     0.031 A 
ATOM     48  C   UNL A   1      40.167  29.659  31.460  1.00  0.00     0.074 A 
ATOM     49  C   UNL A   1      40.079  28.148  29.503  1.00  0.00     0.049 A 
ATOM     50  N   UNL A   1      41.301  29.299  32.002  1.00  0.00    -0.248 NA
ATOM     51  C   UNL A   1      39.494  30.764  32.167  1.00  0.00     0.031 C 
ATOM     52  C   UNL A   1      39.572  27.605  28.240  1.00  0.00     0.029 A 
ATOM     53  N   UNL A   1      41.242  27.451  29.719  1.00  0.00    -0.354 N 
ATOM     54  C   UNL A   1      41.496  30.154  33.080  1.00  0.00     0.074 A 
ATOM     55  C   UNL A   1      40.386  31.080  33.093  1.00  0.00     0.031 C 
ATOM     56  C   UNL A   1      40.413  26.655  27.800  1.00  0.00     0.029 A 
ATOM     57  C   UNL A   1      41.536  26.547  28.723  1.00  0.00     0.049 A 
ATOM     58  H   UNL A   1      41.811  27.585  30.510  1.00  0.00     0.167 HD
ATOM     59  C   UNL A   1      42.493  30.152  33.998  1.00  0.00     0.034 A 
ATOM     60  C   UNL A   1      42.598  25.732  28.566  1.00  0.00     0.034 A 
ATOM     61  C   UNL A   1      43.571  29.202  34.007  1.00  0.00     0.049 A 
ATOM     62  C   UNL A   1      43.672  25.724  29.619  1.00  0.00     0.074 A 
ATOM     63  C   UNL A   1      44.579  29.055  34.943  1.00  0.00     0.029 A 
ATOM     64  N   UNL A   1      43.790  28.244  33.029  1.00  0.00    -0.354 N 
ATOM     65  N   UNL A   1      43.757  26.435  30.717  1.00  0.00    -0.248 NA
ATOM     66  C   UNL A   1      44.780  24.777  29.430  1.00  0.00     0.031 C 
ATOM     67  C   UNL A   1      45.426  28.029  34.512  1.00  0.00     0.029 A 
ATOM     68  C   UNL A   1      44.922  27.510  33.330  1.00  0.00     0.049 A 
ATOM     69  H   UNL A   1      43.221  28.107  32.236  1.00  0.00     0.167 HD
ATOM     70  C   UNL A   1      44.903  25.995  31.369  1.00  0.00     0.074 A 
ATOM     71  C   UNL A   1      45.468  24.941  30.551  1.00  0.00     0.031 C 
ATOM     72  C   UNL A   1      45.445  26.431  32.533  1.00  0.00     0.034 A 
BRANCH  59  73
ATOM     73  C   UNL A   1      42.438  31.183  35.096  1.00  0.00     0.023 A 
ATOM     74  C   UNL A   1      41.852  30.854  36.337  1.00  0.00     0.012 A 
ATOM     75  C   UNL A   1      43.015  32.456  34.924  1.00  0.00     0.148 A 
ATOM     76  C   UNL A   1      41.805  31.786  37.372  1.00  0.00     0.002 A 
ATOM     77  C   UNL A   1      43.010  33.363  35.977  1.00  0.00     0.091 A 
ATOM     78  F   UNL A   1      43.551  32.759  33.732  1.00  0.00    -0.205 F 
ATOM     79  C   UNL A   1      42.393  33.035  37.196  1.00  0.00     0.022 A 
BRANCH  77  80
ATOM     80  S   UNL A   1      43.814  34.966  35.882  1.00  0.00     0.127 S 
ATOM     81  O   UNL A   1      43.663  35.454  37.253  1.00  0.00    -0.237 OA
ATOM     82  O   UNL A   1      45.182  34.601  35.512  1.00  0.00    -0.237 OA
ATOM     83  O   UNL A   1      43.089  35.721  34.869  1.00  0.00    -0.744 OA
ENDBRANCH  77  80
ENDBRANCH  59  73
BRANCH  60  84
ATOM     84  C   UNL A   1      42.667  24.813  27.393  1.00  0.00     0.023 A 
ATOM     85  C   UNL A   1      43.301  25.245  26.211  1.00  0.00     0.012 A 
ATOM     86  C   UNL A   1      42.131  23.513  27.448  1.00  0.00     0.148 A 
ATOM     87  C   UNL A   1      43.365  24.413  25.093  1.00  0.00     0.002 A 
ATOM     88  C   UNL A   1      42.250  22.668  26.350  1.00  0.00     0.091 A 
ATOM     89  F   UNL A   1      41.524  23.122  28.578  1.00  0.00    -0.205 F 
ATOM     90  C   UNL A   1      42.850  23.123  25.166  1.00  0.00     0.022 A 
BRANCH  88  91
ATOM     91  S   UNL A   1      41.736  20.947  26.396  1.00  0.00     0.127 S 
ATOM     92  O   UNL A   1      42.102  20.563  27.756  1.00  0.00    -0.237 OA
ATOM     93  O   UNL A   1      40.297  21.058  26.151  1.00  0.00    -0.237 OA
ATOM     94  O   UNL A   1      42.477  20.287  25.330  1.00  0.00    -0.744 OA
ENDBRANCH  88  91
ENDBRANCH  60  84
BRANCH  72  95
ATOM     95  C   UNL A   1      46.691  25.741  33.025  1.00  0.00     0.023 A 
ATOM     96  C   UNL A   1      47.960  26.260  32.705  1.00  0.00     0.012 A 
ATOM     97  C   UNL A   1      46.595  24.619  33.872  1.00  0.00     0.148 A 
ATOM     98  C   UNL A   1      49.117  25.651  33.190  1.00  0.00     0.002 A 
ATOM     99  C   UNL A   1      47.749  24.050  34.395  1.00  0.00     0.091 A 
ATOM    100  F   UNL A   1      45.378  24.130  34.151  1.00  0.00    -0.205 F 
ATOM    101  C   UNL A   1      49.011  24.556  34.044  1.00  0.00     0.022 A 
BRANCH  99 102
ATOM    102  S   UNL A   1      47.707  22.702  35.581  1.00  0.00     0.127 S 
ATOM    103  O   UNL A   1      49.127  22.523  35.878  1.00  0.00    -0.237 OA
ATOM    104  O   UNL A   1      46.924  23.277  36.675  1.00  0.00    -0.237 OA
ATOM    105  O   UNL A   1      47.068  21.585  34.900  1.00  0.00    -0.744 OA
ENDBRANCH  99 102
ENDBRANCH  72  95
ENDBRANCH  46  47
ENDBRANCH  38  41
ENDBRANCH  36  37
ENDBRANCH  35  36
ENDBRANCH   1  35
TORSDOF 18
ENDMDL
MODEL 2
REMARK VINA RESULT:      -9.4      3.702      8.891
REMARK SMILES CCOc1cc2c(cc1/C=C1/C(=O)N(c3cccc(C(=O)NCCCNC(=O)c4ccc(-c5c6nc(c(-c7cccc(S(=O)(=O)[O-])c7F)c7ccc([nH]7)c(-c7cccc(S(=O)(=O)[O-])c7F)c7nc(c(-c8cccc(S(=O)(=O)[O-])c8F)c8ccc5[nH]8)C=C7)C=C6)cc4)c3)C(=S)N=C1O)OCO2
REMARK SMILES IDX 23 1 22 2 20 3 21 4 19 6 15 7 16 8 92 9 17 10 18 11 14 12
REMARK SMILES IDX 10 13 11 14 12 15 96 16 13 17 95 18 93 19 94 20 9 21 4 22
REMARK SMILES IDX 5 23 6 24 8 25 7 26 100 27 98 28 99 29 3 30 2 31 1 32 97 33
REMARK SMILES IDX 24 35 25 36 26 37 27 38 28 40 29 41 30 42 91 43 31 44 90 45
REMARK SMILES IDX 32 46 33 47 34 48 84 49 35 50 89 51 83 52 85 53 36 54 88 55
REMARK SMILES IDX 82 56 81 57 37 59 69 60 49 61 68 62 50 63 53 64 67 65 86 66
REMARK SMILES IDX 51 67 52 68 66 70 87 71 54 72 38 73 39 74 47 75 40 76 42 77
REMARK SMILES IDX 48 78 41 79 43 80 44 81 45 82 46 83 70 84 71 85 79 86 72 87
REMARK SMILES IDX 74 88 80 89 73 90 75 91 76 92 77 93 78 94 55 95 56 96 64 97
REMARK SMILES IDX 57 98 59 99 65 100 58 101 60 102 61 103 62 104 63 105
REMARK H PARENT 22 5 97 34 26 39 85 58 53 69
REMARK Flexibility Score: inf
ROOT
ATOM      1  C   UNL A   1      35.904  34.177  31.790  1.00  0.00     0.118 C 
ENDROOT
BRANCH   1   2
ATOM      2  N   UNL A   1      37.095  34.356  30.964  1.00  0.00    -0.352 N 
ATOM      3  C   UNL A   1      37.736  33.553  30.047  1.00  0.00     0.251 C 
ATOM      4  O   UNL A   1      38.740  34.001  29.491  1.00  0.00    -0.269 OA
ATOM      5  H   UNL A   1      37.529  35.230  31.090  1.00  0.00     0.163 HD
BRANCH   3   6
ATOM      6  C   UNL A   1      37.316  32.155  29.753  1.00  0.00     0.041 A 
ATOM      7  C   UNL A   1      37.894  29.836  29.335  1.00  0.00     0.052 A 
ATOM      8  C   UNL A   1      36.617  29.634  28.791  1.00  0.00     0.027 A 
ATOM      9  C   UNL A   1      38.145  31.056  29.969  1.00  0.00     0.040 A 
ATOM     10  C   UNL A   1      35.687  30.676  28.745  1.00  0.00     0.003 A 
ATOM     11  C   UNL A   1      36.059  31.949  29.173  1.00  0.00     0.014 A 
BRANCH   7  12
ATOM     12  N   UNL A   1      38.978  28.895  29.119  1.00  0.00    -0.251 N 
ATOM     13  C   UNL A   1      40.783  27.229  26.391  1.00  0.00     0.031 C 
ATOM     14  C   UNL A   1      40.514  27.669  27.644  1.00  0.00     0.103 C 
ATOM     15  C   UNL A   1      39.493  28.753  27.815  1.00  0.00     0.270 C 
ATOM     16  C   UNL A   1      41.110  27.246  28.907  1.00  0.00     0.226 C 
ATOM     17  O   UNL A   1      39.175  29.447  26.848  1.00  0.00    -0.268 OA
ATOM     18  N   UNL A   1      40.623  27.434  30.071  1.00  0.00    -0.184 NA
ATOM     19  C   UNL A   1      39.393  28.037  30.171  1.00  0.00     0.210 C 
ATOM     20  S   UNL A   1      38.465  27.633  31.539  1.00  0.00    -0.038 S 
BRANCH  13  21
ATOM     21  C   UNL A   1      41.775  26.217  25.947  1.00  0.00     0.021 A 
ATOM     22  C   UNL A   1      43.058  26.603  25.476  1.00  0.00     0.130 A 
ATOM     23  C   UNL A   1      44.097  25.672  25.349  1.00  0.00     0.097 A 
ATOM     24  C   UNL A   1      43.802  24.351  25.572  1.00  0.00     0.169 A 
ATOM     25  C   UNL A   1      41.489  24.844  26.017  1.00  0.00     0.062 A 
ATOM     26  C   UNL A   1      42.525  23.945  25.865  1.00  0.00     0.166 A 
ATOM     27  O   UNL A   1      44.685  23.320  25.535  1.00  0.00    -0.453 OA
ATOM     28  O   UNL A   1      42.442  22.601  26.044  1.00  0.00    -0.454 OA
ATOM     29  C   UNL A   1      43.827  22.223  25.916  1.00  0.00     0.468 C 
BRANCH  22  30
ATOM     30  O   UNL A   1      43.348  27.918  25.190  1.00  0.00    -0.493 OA
BRANCH  30  31
ATOM     31  C   UNL A   1      43.877  28.600  26.345  1.00  0.00     0.226 C 
ATOM     32  C   UNL A   1      43.110  29.873  26.685  1.00  0.00     0.049 C 
ENDBRANCH  30  31
ENDBRANCH  22  30
ENDBRANCH  13  21
BRANCH  16  33
ATOM     33  O   UNL A   1      42.306  26.661  28.867  1.00  0.00    -0.493 OA
ATOM     34  H   UNL A   1      43.005  26.989  29.397  1.00  0.00     0.295 HD
ENDBRANCH  16  33
ENDBRANCH   7  12
ENDBRANCH   3   6
ENDBRANCH   1   2
BRANCH   1  35
ATOM     35  C   UNL A   1      36.126  33.376  33.058  1.00  0.00     0.042 C 
BRANCH  35  36
ATOM     36  C   UNL A   1      36.927  34.090  34.128  1.00  0.00     0.118 C 
BRANCH  36  37
ATOM     37  N   UNL A   1      36.986  33.349  35.382  1.00  0.00    -0.352 N 
ATOM     38  C   UNL A   1      37.739  32.259  35.752  1.00  0.00     0.251 C 
ATOM     39  H   UNL A   1      36.383  33.686  36.085  1.00  0.00     0.163 HD
ATOM     40  O   UNL A   1      37.477  31.674  36.797  1.00  0.00    -0.269 OA
BRANCH  38  41
ATOM     41  C   UNL A   1      38.845  31.777  34.892  1.00  0.00     0.039 A 
ATOM     42  C   UNL A   1      38.556  30.924  33.822  1.00  0.00     0.014 A 
ATOM     43  C   UNL A   1      40.167  32.142  35.145  1.00  0.00     0.014 A 
ATOM     44  C   UNL A   1      39.581  30.509  32.968  1.00  0.00     0.010 A 
ATOM     45  C   UNL A   1      41.163  31.828  34.230  1.00  0.00     0.010 A 
ATOM     46  C   UNL A   1      40.888  30.993  33.139  1.00  0.00    -0.014 A 
BRANCH  46  47
ATOM     47  C   UNL A   1      41.984  30.640  32.199  1.00  0.00     0.031 A 
ATOM     48  C   UNL A   1      42.681  29.309  32.318  1.00  0.00     0.074 A 
ATOM     49  C   UNL A   1      42.419  31.552  31.307  1.00  0.00     0.049 A 
ATOM     50  N   UNL A   1      43.709  28.854  31.650  1.00  0.00    -0.248 NA
ATOM     51  C   UNL A   1      42.181  28.379  33.347  1.00  0.00     0.031 C 
ATOM     52  C   UNL A   1      41.882  32.907  31.152  1.00  0.00     0.029 A 
ATOM     53  N   UNL A   1      43.430  31.490  30.382  1.00  0.00    -0.354 N 
ATOM     54  C   UNL A   1      44.003  27.613  32.202  1.00  0.00     0.074 A 
ATOM     55  C   UNL A   1      43.072  27.401  33.288  1.00  0.00     0.031 C 
ATOM     56  C   UNL A   1      42.562  33.542  30.184  1.00  0.00     0.029 A 
ATOM     57  C   UNL A   1      43.606  32.659  29.678  1.00  0.00     0.049 A 
ATOM     58  H   UNL A   1      43.978  30.686  30.236  1.00  0.00     0.167 HD
ATOM     59  C   UNL A   1      44.941  26.713  31.821  1.00  0.00     0.034 A 
ATOM     60  C   UNL A   1      44.515  32.987  28.738  1.00  0.00     0.034 A 
ATOM     61  C   UNL A   1      45.835  26.909  30.712  1.00  0.00     0.049 A 
ATOM     62  C   UNL A   1      45.523  31.956  28.308  1.00  0.00     0.074 A 
ATOM     63  C   UNL A   1      46.758  26.023  30.187  1.00  0.00     0.029 A 
ATOM     64  N   UNL A   1      45.926  28.073  29.966  1.00  0.00    -0.354 N 
ATOM     65  N   UNL A   1      45.681  30.728  28.737  1.00  0.00    -0.248 NA
ATOM     66  C   UNL A   1      46.455  32.344  27.240  1.00  0.00     0.031 C 
ATOM     67  C   UNL A   1      47.431  26.666  29.142  1.00  0.00     0.029 A 
ATOM     68  C   UNL A   1      46.898  27.936  28.992  1.00  0.00     0.049 A 
ATOM     69  H   UNL A   1      45.378  28.880  30.109  1.00  0.00     0.167 HD
ATOM     70  C   UNL A   1      46.702  30.183  27.967  1.00  0.00     0.074 A 
ATOM     71  C   UNL A   1      47.110  31.211  27.031  1.00  0.00     0.031 C 
ATOM     72  C   UNL A   1      47.259  28.949  28.035  1.00  0.00     0.034 A 
BRANCH  59  73
ATOM     73  C   UNL A   1      45.018  25.414  32.582  1.00  0.00     0.023 A 
ATOM     74  C   UNL A   1      44.228  24.317  32.177  1.00  0.00     0.012 A 
ATOM     75  C   UNL A   1      45.911  25.259  33.660  1.00  0.00     0.148 A 
ATOM     76  C   UNL A   1      44.296  23.102  32.856  1.00  0.00     0.002 A 
ATOM     77  C   UNL A   1      46.010  24.030  34.300  1.00  0.00     0.091 A 
ATOM     78  F   UNL A   1      46.640  26.317  34.044  1.00  0.00    -0.205 F 
ATOM     79  C   UNL A   1      45.194  22.955  33.910  1.00  0.00     0.022 A 
BRANCH  77  80
ATOM     80  S   UNL A   1      47.194  23.710  35.613  1.00  0.00     0.127 S 
ATOM     81  O   UNL A   1      46.623  24.479  36.719  1.00  0.00    -0.237 OA
ATOM     82  O   UNL A   1      47.098  22.258  35.766  1.00  0.00    -0.237 OA
ATOM     83  O   UNL A   1      48.479  24.188  35.121  1.00  0.00    -0.744 OA
ENDBRANCH  77  80
ENDBRANCH  59  73
BRANCH  60  84
ATOM     84  C   UNL A   1      44.475  34.334  28.098  1.00  0.00     0.023 A 
ATOM     85  C   UNL A   1      43.630  34.551  26.991  1.00  0.00     0.012 A 
ATOM     86  C   UNL A   1      45.249  35.402  28.589  1.00  0.00     0.148 A 
ATOM     87  C   UNL A   1      43.585  35.795  26.362  1.00  0.00     0.002 A 
ATOM     88  C   UNL A   1      45.156  36.655  27.994  1.00  0.00     0.091 A 
ATOM     89  F   UNL A   1      46.053  35.175  29.637  1.00  0.00    -0.205 F 
ATOM     90  C   UNL A   1      44.339  36.849  26.869  1.00  0.00     0.022 A 
BRANCH  88  91
ATOM     91  S   UNL A   1      45.986  38.103  28.659  1.00  0.00     0.127 S 
ATOM     92  O   UNL A   1      45.769  37.939  30.094  1.00  0.00    -0.237 OA
ATOM     93  O   UNL A   1      47.363  37.889  28.214  1.00  0.00    -0.237 OA
ATOM     94  O   UNL A   1      45.328  39.249  28.047  1.00  0.00    -0.744 OA
ENDBRANCH  88  91
ENDBRANCH  60  84
BRANCH  72  95
ATOM     95  C   UNL A   1      48.341  28.615  27.041  1.00  0.00     0.023 A 
ATOM     96  C   UNL A   1      49.696  28.770  27.393  1.00  0.00     0.012 A 
ATOM     97  C   UNL A   1      48.010  28.073  25.783  1.00  0.00     0.148 A 
ATOM     98  C   UNL A   1      50.704  28.425  26.493  1.00  0.00     0.002 A 
ATOM     99  C   UNL A   1      49.019  27.682  24.914  1.00  0.00     0.091 A 
ATOM    100  F   UNL A   1      46.714  27.950  25.462  1.00  0.00    -0.205 F 
ATOM    101  C   UNL A   1      50.367  27.870  25.262  1.00  0.00     0.022 A 
BRANCH  99 102
ATOM    102  S   UNL A   1      48.682  26.866  23.350  1.00  0.00     0.127 S 
ATOM    103  O   UNL A   1      47.854  27.859  22.669  1.00  0.00    -0.237 OA
ATOM    104  O   UNL A   1      50.025  26.704  22.791  1.00  0.00    -0.237 OA
ATOM    105  O   UNL A   1      48.010  25.618  23.683  1.00  0.00    -0.744 OA
ENDBRANCH  99 102
ENDBRANCH  72  95
ENDBRANCH  46  47
ENDBRANCH  38  41
ENDBRANCH  36  37
ENDBRANCH  35  36
ENDBRANCH   1  35
TORSDOF 18
ENDMDL
MODEL 3
REMARK VINA RESULT:      -9.1      3.363     10.513
REMARK SMILES CCOc1cc2c(cc1/C=C1/C(=O)N(c3cccc(C(=O)NCCCNC(=O)c4ccc(-c5c6nc(c(-c7cccc(S(=O)(=O)[O-])c7F)c7ccc([nH]7)c(-c7cccc(S(=O)(=O)[O-])c7F)c7nc(c(-c8cccc(S(=O)(=O)[O-])c8F)c8ccc5[nH]8)C=C7)C=C6)cc4)c3)C(=S)N=C1O)OCO2
REMARK SMILES IDX 23 1 22 2 20 3 21 4 19 6 15 7 16 8 92 9 17 10 18 11 14 12
REMARK SMILES IDX 10 13 11 14 12 15 96 16 13 17 95 18 93 19 94 20 9 21 4 22
REMARK SMILES IDX 5 23 6 24 8 25 7 26 100 27 98 28 99 29 3 30 2 31 1 32 97 33
REMARK SMILES IDX 24 35 25 36 26 37 27 38 28 40 29 41 30 42 91 43 31 44 90 45
REMARK SMILES IDX 32 46 33 47 34 48 84 49 35 50 89 51 83 52 85 53 36 54 88 55
REMARK SMILES IDX 82 56 81 57 37 59 69 60 49 61 68 62 50 63 53 64 67 65 86 66
REMARK SMILES IDX 51 67 52 68 66 70 87 71 54 72 38 73 39 74 47 75 40 76 42 77
REMARK SMILES IDX 48 78 41 79 43 80 44 81 45 82 46 83 70 84 71 85 79 86 72 87
REMARK SMILES IDX 74 88 80 89 73 90 75 91 76 92 77 93 78 94 55 95 56 96 64 97
REMARK SMILES IDX 57 98 59 99 65 100 58 101 60 102 61 103 62 104 63 105
REMARK H PARENT 22 5 97 34 26 39 85 58 53 69
REMARK Flexibility Score: inf
ROOT
ATOM      1  C   UNL A   1      43.216  22.400  26.091  1.00  0.00     0.118 C 
ENDROOT
BRANCH   1   2
ATOM      2  N   UNL A   1      43.216  22.493  27.548  1.00  0.00    -0.352 N 
ATOM      3  C   UNL A   1      42.434  23.180  28.449  1.00  0.00     0.251 C 
ATOM      4  O   UNL A   1      42.681  23.044  29.648  1.00  0.00    -0.269 OA
ATOM      5  H   UNL A   1      43.921  21.953  27.974  1.00  0.00     0.163 HD
BRANCH   3   6
ATOM      6  C   UNL A   1      41.361  24.128  28.040  1.00  0.00     0.041 A 
ATOM      7  C   UNL A   1      40.295  26.299  28.235  1.00  0.00     0.052 A 
ATOM      8  C   UNL A   1      39.146  25.769  27.630  1.00  0.00     0.027 A 
ATOM      9  C   UNL A   1      41.443  25.502  28.261  1.00  0.00     0.040 A 
ATOM     10  C   UNL A   1      39.108  24.437  27.212  1.00  0.00     0.003 A 
ATOM     11  C   UNL A   1      40.195  23.604  27.470  1.00  0.00     0.014 A 
BRANCH   7  12
ATOM     12  N   UNL A   1      40.270  27.557  28.958  1.00  0.00    -0.251 N 
ATOM     13  C   UNL A   1      38.525  29.194  31.743  1.00  0.00     0.031 C 
ATOM     14  C   UNL A   1      39.470  28.981  30.794  1.00  0.00     0.103 C 
ATOM     15  C   UNL A   1      39.564  27.618  30.176  1.00  0.00     0.270 C 
ATOM     16  C   UNL A   1      40.468  29.910  30.277  1.00  0.00     0.226 C 
ATOM     17  O   UNL A   1      39.049  26.655  30.745  1.00  0.00    -0.268 OA
ATOM     18  N   UNL A   1      41.113  29.791  29.182  1.00  0.00    -0.184 NA
ATOM     19  C   UNL A   1      40.818  28.726  28.367  1.00  0.00     0.210 C 
ATOM     20  S   UNL A   1      41.089  28.955  26.702  1.00  0.00    -0.038 S 
BRANCH  13  21
ATOM     21  C   UNL A   1      38.258  30.417  32.540  1.00  0.00     0.021 A 
ATOM     22  C   UNL A   1      37.709  31.582  31.940  1.00  0.00     0.130 A 
ATOM     23  C   UNL A   1      37.171  32.616  32.716  1.00  0.00     0.097 A 
ATOM     24  C   UNL A   1      37.307  32.529  34.079  1.00  0.00     0.169 A 
ATOM     25  C   UNL A   1      38.503  30.447  33.923  1.00  0.00     0.062 A 
ATOM     26  C   UNL A   1      37.984  31.490  34.663  1.00  0.00     0.166 A 
ATOM     27  O   UNL A   1      36.816  33.413  34.986  1.00  0.00    -0.453 OA
ATOM     28  O   UNL A   1      38.010  31.591  36.018  1.00  0.00    -0.454 OA
ATOM     29  C   UNL A   1      37.198  32.765  36.219  1.00  0.00     0.468 C 
BRANCH  22  30
ATOM     30  O   UNL A   1      37.624  31.707  30.572  1.00  0.00    -0.493 OA
BRANCH  30  31
ATOM     31  C   UNL A   1      36.257  31.606  30.122  1.00  0.00     0.226 C 
ATOM     32  C   UNL A   1      35.948  30.268  29.459  1.00  0.00     0.049 C 
ENDBRANCH  30  31
ENDBRANCH  22  30
ENDBRANCH  13  21
BRANCH  16  33
ATOM     33  O   UNL A   1      40.796  30.956  31.032  1.00  0.00    -0.493 OA
ATOM     34  H   UNL A   1      40.852  31.810  30.650  1.00  0.00     0.295 HD
ENDBRANCH  16  33
ENDBRANCH   7  12
ENDBRANCH   3   6
ENDBRANCH   1   2
BRANCH   1  35
ATOM     35  C   UNL A   1      44.028  23.469  25.387  1.00  0.00     0.042 C 
BRANCH  35  36
ATOM     36  C   UNL A   1      45.479  23.551  25.819  1.00  0.00     0.118 C 
BRANCH  36  37
ATOM     37  N   UNL A   1      46.271  24.440  24.977  1.00  0.00    -0.352 N 
ATOM     38  C   UNL A   1      46.435  25.806  25.010  1.00  0.00     0.251 C 
ATOM     39  H   UNL A   1      46.776  23.985  24.264  1.00  0.00     0.163 HD
ATOM     40  O   UNL A   1      46.994  26.366  24.073  1.00  0.00    -0.269 OA
BRANCH  38  41
ATOM     41  C   UNL A   1      45.925  26.602  26.150  1.00  0.00     0.039 A 
ATOM     42  C   UNL A   1      46.822  27.053  27.123  1.00  0.00     0.014 A 
ATOM     43  C   UNL A   1      44.567  26.890  26.279  1.00  0.00     0.014 A 
ATOM     44  C   UNL A   1      46.365  27.855  28.172  1.00  0.00     0.010 A 
ATOM     45  C   UNL A   1      44.133  27.782  27.251  1.00  0.00     0.010 A 
ATOM     46  C   UNL A   1      45.023  28.263  28.221  1.00  0.00    -0.014 A 
BRANCH  46  47
ATOM     47  C   UNL A   1      44.520  29.183  29.275  1.00  0.00     0.031 A 
ATOM     48  C   UNL A   1      44.111  28.640  30.620  1.00  0.00     0.074 A 
ATOM     49  C   UNL A   1      44.338  30.488  28.990  1.00  0.00     0.049 A 
ATOM     50  N   UNL A   1      43.573  29.268  31.633  1.00  0.00    -0.248 NA
ATOM     51  C   UNL A   1      44.295  27.195  30.844  1.00  0.00     0.031 C 
ATOM     52  C   UNL A   1      44.617  31.119  27.697  1.00  0.00     0.029 A 
ATOM     53  N   UNL A   1      43.849  31.514  29.759  1.00  0.00    -0.354 N 
ATOM     54  C   UNL A   1      43.319  28.294  32.592  1.00  0.00     0.074 A 
ATOM     55  C   UNL A   1      43.722  27.026  32.026  1.00  0.00     0.031 C 
ATOM     56  C   UNL A   1      44.305  32.423  27.767  1.00  0.00     0.029 A 
ATOM     57  C   UNL A   1      43.766  32.714  29.090  1.00  0.00     0.049 A 
ATOM     58  H   UNL A   1      43.582  31.402  30.699  1.00  0.00     0.167 HD
ATOM     59  C   UNL A   1      42.825  28.443  33.844  1.00  0.00     0.034 A 
ATOM     60  C   UNL A   1      43.299  33.911  29.495  1.00  0.00     0.034 A 
ATOM     61  C   UNL A   1      42.467  29.710  34.419  1.00  0.00     0.049 A 
ATOM     62  C   UNL A   1      42.789  34.057  30.903  1.00  0.00     0.074 A 
ATOM     63  C   UNL A   1      42.045  29.981  35.709  1.00  0.00     0.029 A 
ATOM     64  N   UNL A   1      42.479  30.918  33.739  1.00  0.00    -0.354 N 
ATOM     65  N   UNL A   1      42.705  33.151  31.847  1.00  0.00    -0.248 NA
ATOM     66  C   UNL A   1      42.344  35.396  31.313  1.00  0.00     0.031 C 
ATOM     67  C   UNL A   1      41.769  31.349  35.798  1.00  0.00     0.029 A 
ATOM     68  C   UNL A   1      42.060  31.936  34.577  1.00  0.00     0.049 A 
ATOM     69  H   UNL A   1      42.746  31.034  32.799  1.00  0.00     0.167 HD
ATOM     70  C   UNL A   1      42.234  33.817  32.973  1.00  0.00     0.074 A 
ATOM     71  C   UNL A   1      42.072  35.207  32.597  1.00  0.00     0.031 C 
ATOM     72  C   UNL A   1      41.951  33.322  34.203  1.00  0.00     0.034 A 
BRANCH  59  73
ATOM     73  C   UNL A   1      42.684  27.206  34.695  1.00  0.00     0.023 A 
ATOM     74  C   UNL A   1      41.438  26.549  34.776  1.00  0.00     0.012 A 
ATOM     75  C   UNL A   1      43.795  26.660  35.368  1.00  0.00     0.148 A 
ATOM     76  C   UNL A   1      41.290  25.396  35.544  1.00  0.00     0.002 A 
ATOM     77  C   UNL A   1      43.652  25.482  36.090  1.00  0.00     0.091 A 
ATOM     78  F   UNL A   1      44.968  27.308  35.297  1.00  0.00    -0.205 F 
ATOM     79  C   UNL A   1      42.398  24.856  36.191  1.00  0.00     0.022 A 
BRANCH  77  80
ATOM     80  S   UNL A   1      45.033  24.659  36.891  1.00  0.00     0.127 S 
ATOM     81  O   UNL A   1      44.503  24.433  38.236  1.00  0.00    -0.237 OA
ATOM     82  O   UNL A   1      45.180  23.449  36.082  1.00  0.00    -0.237 OA
ATOM     83  O   UNL A   1      46.155  25.585  36.812  1.00  0.00    -0.744 OA
ENDBRANCH  77  80
ENDBRANCH  59  73
BRANCH  60  84
ATOM     84  C   UNL A   1      43.346  35.082  28.572  1.00  0.00     0.023 A 
ATOM     85  C   UNL A   1      42.194  35.435  27.841  1.00  0.00     0.012 A 
ATOM     86  C   UNL A   1      44.512  35.858  28.430  1.00  0.00     0.148 A 
ATOM     87  C   UNL A   1      42.214  36.515  26.958  1.00  0.00     0.002 A 
ATOM     88  C   UNL A   1      44.508  36.967  27.593  1.00  0.00     0.091 A 
ATOM     89  F   UNL A   1      45.601  35.502  29.127  1.00  0.00    -0.205 F 
ATOM     90  C   UNL A   1      43.366  37.286  26.841  1.00  0.00     0.022 A 
BRANCH  88  91
ATOM     91  S   UNL A   1      45.901  38.097  27.480  1.00  0.00     0.127 S 
ATOM     92  O   UNL A   1      45.415  39.073  26.509  1.00  0.00    -0.237 OA
ATOM     93  O   UNL A   1      45.998  38.589  28.855  1.00  0.00    -0.237 OA
ATOM     94  O   UNL A   1      47.031  37.285  27.051  1.00  0.00    -0.744 OA
ENDBRANCH  88  91
ENDBRANCH  60  84
BRANCH  72  95
ATOM     95  C   UNL A   1      41.481  34.293  35.256  1.00  0.00     0.023 A 
ATOM     96  C   UNL A   1      40.109  34.591  35.380  1.00  0.00     0.012 A 
ATOM     97  C   UNL A   1      42.396  34.849  36.171  1.00  0.00     0.148 A 
ATOM     98  C   UNL A   1      39.662  35.457  36.377  1.00  0.00     0.002 A 
ATOM     99  C   UNL A   1      41.936  35.667  37.194  1.00  0.00     0.091 A 
ATOM    100  F   UNL A   1      43.699  34.565  36.025  1.00  0.00    -0.205 F 
ATOM    101  C   UNL A   1      40.572  35.983  37.290  1.00  0.00     0.022 A 
BRANCH  99 102
ATOM    102  S   UNL A   1      43.019  36.310  38.476  1.00  0.00     0.127 S 
ATOM    103  O   UNL A   1      43.764  35.113  38.863  1.00  0.00    -0.237 OA
ATOM    104  O   UNL A   1      43.802  37.307  37.747  1.00  0.00    -0.237 OA
ATOM    105  O   UNL A   1      42.145  36.859  39.503  1.00  0.00    -0.744 OA
ENDBRANCH  99 102
ENDBRANCH  72  95
ENDBRANCH  46  47
ENDBRANCH  38  41
ENDBRANCH  36  37
ENDBRANCH  35  36
ENDBRANCH   1  35
TORSDOF 18
ENDMDL
