MODEL 1
REMARK VINA RESULT:     -12.3      0.000      0.000
REMARK SMILES Cc1csc(CNC(=O)NC[C@H]2CC[C@@H](C(=O)NCCCNC(=O)c3ccc(-c4c5nc(c(-c6cccc(S(=O)(=O)[O-])c6F)c6ccc([nH]6)c(-c6cccc(S(=O)(=O)[O-])c6F)c6nc(c(-c7cccc(S(=O)(=O)[O-])c7F)c7ccc4[nH]7)C=C6)C=C5)cc3)CC2)n1
REMARK SMILES IDX 19 1 18 2 16 3 17 4 15 6 12 7 13 8 89 9 14 10 88 11 11 12
REMARK SMILES IDX 10 13 7 14 8 15 9 17 6 19 5 20 1 21 2 22 3 23 90 24 4 25
REMARK SMILES IDX 20 26 21 27 22 28 23 29 24 31 25 32 26 33 87 34 27 35 86 36
REMARK SMILES IDX 28 37 29 38 30 39 80 40 31 41 85 42 79 43 81 44 32 45 84 46
REMARK SMILES IDX 78 47 77 48 33 50 65 51 45 52 64 53 46 54 49 55 63 56 82 57
REMARK SMILES IDX 47 58 48 59 62 61 83 62 50 63 34 64 35 65 43 66 36 67 38 68
REMARK SMILES IDX 44 69 37 70 39 71 40 72 41 73 42 74 66 75 67 76 75 77 68 78
REMARK SMILES IDX 70 79 76 80 69 81 71 82 72 83 73 84 74 85 51 86 52 87 60 88
REMARK SMILES IDX 53 89 55 90 61 91 54 92 56 93 57 94 58 95 59 96
REMARK H PARENT 18 5 7 16 10 18 22 30 81 49 49 60
REMARK Flexibility Score: inf
ROOT
ATOM      1  C   UNL A   1      34.342  22.539  23.702  1.00  0.00     0.117 C 
ENDROOT
BRANCH   1   2
ATOM      2  N   UNL A   1      33.687  21.363  24.216  1.00  0.00    -0.356 N 
ATOM      3  C   UNL A   1      32.499  21.190  24.845  1.00  0.00     0.223 C 
ATOM      4  O   UNL A   1      32.139  20.013  24.992  1.00  0.00    -0.275 OA
ATOM      5  H   UNL A   1      34.196  20.530  24.085  1.00  0.00     0.163 HD
BRANCH   3   6
ATOM      6  C   UNL A   1      31.603  22.320  25.384  1.00  0.00     0.078 C 
ATOM      7  C   UNL A   1      32.423  25.241  25.404  1.00  0.00     0.008 C 
ATOM      8  C   UNL A   1      31.726  24.623  24.173  1.00  0.00     0.006 C 
ATOM      9  C   UNL A   1      32.882  24.259  26.492  1.00  0.00     0.006 C 
ATOM     10  C   UNL A   1      31.004  23.295  24.377  1.00  0.00     0.014 C 
ATOM     11  C   UNL A   1      32.068  22.991  26.668  1.00  0.00     0.014 C 
BRANCH   7  12
ATOM     12  C   UNL A   1      33.636  26.095  24.954  1.00  0.00     0.121 C 
BRANCH  12  13
ATOM     13  N   UNL A   1      33.656  26.309  23.526  1.00  0.00    -0.338 N 
ATOM     14  N   UNL A   1      32.729  28.448  23.170  1.00  0.00    -0.332 N 
ATOM     15  C   UNL A   1      33.429  27.389  22.771  1.00  0.00     0.315 C 
ATOM     16  H   UNL A   1      32.805  29.206  22.547  1.00  0.00     0.165 HD
ATOM     17  O   UNL A   1      33.886  27.385  21.624  1.00  0.00    -0.249 OA
ATOM     18  H   UNL A   1      33.881  25.503  23.007  1.00  0.00     0.165 HD
BRANCH  14  19
ATOM     19  C   UNL A   1      31.878  28.749  24.309  1.00  0.00     0.185 C 
BRANCH  19  20
ATOM     20  C   UNL A   1      30.490  29.069  23.835  1.00  0.00     0.112 A 
ATOM     21  C   UNL A   1      27.900  31.475  23.158  1.00  0.00     0.067 C 
ATOM     22  C   UNL A   1      28.685  30.220  23.249  1.00  0.00     0.049 A 
ATOM     23  C   UNL A   1      28.318  28.978  22.771  1.00  0.00     0.090 A 
ATOM     24  N   UNL A   1      29.922  30.260  23.874  1.00  0.00    -0.245 NA
ATOM     25  S   UNL A   1      29.539  27.830  23.114  1.00  0.00    -0.125 S 
ENDBRANCH  19  20
ENDBRANCH  14  19
ENDBRANCH  12  13
ENDBRANCH   7  12
ENDBRANCH   3   6
ENDBRANCH   1   2
BRANCH   1  26
ATOM     26  C   UNL A   1      35.796  22.669  24.131  1.00  0.00     0.042 C 
BRANCH  26  27
ATOM     27  C   UNL A   1      36.080  22.165  25.532  1.00  0.00     0.118 C 
BRANCH  27  28
ATOM     28  N   UNL A   1      37.143  21.167  25.576  1.00  0.00    -0.352 N 
ATOM     29  C   UNL A   1      38.483  21.269  25.873  1.00  0.00     0.251 C 
ATOM     30  H   UNL A   1      36.848  20.255  25.353  1.00  0.00     0.163 HD
ATOM     31  O   UNL A   1      39.186  20.274  25.750  1.00  0.00    -0.269 OA
BRANCH  29  32
ATOM     32  C   UNL A   1      39.088  22.553  26.306  1.00  0.00     0.039 A 
ATOM     33  C   UNL A   1      40.119  22.522  27.254  1.00  0.00     0.014 A 
ATOM     34  C   UNL A   1      38.648  23.782  25.819  1.00  0.00     0.014 A 
ATOM     35  C   UNL A   1      40.751  23.708  27.643  1.00  0.00     0.010 A 
ATOM     36  C   UNL A   1      39.350  24.944  26.114  1.00  0.00     0.010 A 
ATOM     37  C   UNL A   1      40.395  24.923  27.045  1.00  0.00    -0.014 A 
BRANCH  37  38
ATOM     38  C   UNL A   1      41.049  26.199  27.422  1.00  0.00     0.031 A 
ATOM     39  C   UNL A   1      42.465  26.458  26.986  1.00  0.00     0.074 A 
ATOM     40  C   UNL A   1      40.413  27.076  28.221  1.00  0.00     0.049 A 
ATOM     41  N   UNL A   1      43.238  27.475  27.260  1.00  0.00    -0.248 NA
ATOM     42  C   UNL A   1      43.115  25.412  26.177  1.00  0.00     0.031 C 
ATOM     43  C   UNL A   1      39.083  26.881  28.797  1.00  0.00     0.029 A 
ATOM     44  N   UNL A   1      40.810  28.295  28.709  1.00  0.00    -0.354 N 
ATOM     45  C   UNL A   1      44.472  27.169  26.701  1.00  0.00     0.074 A 
ATOM     46  C   UNL A   1      44.359  25.855  26.110  1.00  0.00     0.031 C 
ATOM     47  C   UNL A   1      38.761  27.955  29.537  1.00  0.00     0.029 A 
ATOM     48  C   UNL A   1      39.872  28.901  29.514  1.00  0.00     0.049 A 
ATOM     49  H   UNL A   1      41.684  28.699  28.504  1.00  0.00     0.167 HD
ATOM     50  C   UNL A   1      45.592  27.928  26.651  1.00  0.00     0.034 A 
ATOM     51  C   UNL A   1      39.905  30.086  30.155  1.00  0.00     0.034 A 
ATOM     52  C   UNL A   1      45.679  29.257  27.189  1.00  0.00     0.049 A 
ATOM     53  C   UNL A   1      41.130  30.951  30.010  1.00  0.00     0.074 A 
ATOM     54  C   UNL A   1      46.733  30.147  27.117  1.00  0.00     0.029 A 
ATOM     55  N   UNL A   1      44.665  29.887  27.895  1.00  0.00    -0.354 N 
ATOM     56  N   UNL A   1      42.231  30.714  29.339  1.00  0.00    -0.248 NA
ATOM     57  C   UNL A   1      41.106  32.258  30.681  1.00  0.00     0.031 C 
ATOM     58  C   UNL A   1      46.361  31.315  27.791  1.00  0.00     0.029 A 
ATOM     59  C   UNL A   1      45.067  31.157  28.265  1.00  0.00     0.049 A 
ATOM     60  H   UNL A   1      43.789  29.489  28.102  1.00  0.00     0.167 HD
ATOM     61  C   UNL A   1      43.017  31.851  29.479  1.00  0.00     0.074 A 
ATOM     62  C   UNL A   1      42.253  32.788  30.278  1.00  0.00     0.031 C 
ATOM     63  C   UNL A   1      44.265  32.094  29.008  1.00  0.00     0.034 A 
BRANCH  50  64
ATOM     64  C   UNL A   1      46.785  27.350  25.940  1.00  0.00     0.023 A 
ATOM     65  C   UNL A   1      47.618  26.433  26.615  1.00  0.00     0.012 A 
ATOM     66  C   UNL A   1      47.076  27.697  24.607  1.00  0.00     0.148 A 
ATOM     67  C   UNL A   1      48.747  25.906  25.991  1.00  0.00     0.002 A 
ATOM     68  C   UNL A   1      48.178  27.131  23.976  1.00  0.00     0.091 A 
ATOM     69  F   UNL A   1      46.289  28.589  23.990  1.00  0.00    -0.205 F 
ATOM     70  C   UNL A   1      49.022  26.247  24.670  1.00  0.00     0.022 A 
BRANCH  68  71
ATOM     71  S   UNL A   1      48.575  27.450  22.254  1.00  0.00     0.127 S 
ATOM     72  O   UNL A   1      47.448  28.284  21.840  1.00  0.00    -0.237 OA
ATOM     73  O   UNL A   1      49.851  28.158  22.358  1.00  0.00    -0.237 OA
ATOM     74  O   UNL A   1      48.657  26.145  21.614  1.00  0.00    -0.744 OA
ENDBRANCH  68  71
ENDBRANCH  50  64
BRANCH  51  75
ATOM     75  C   UNL A   1      38.714  30.564  30.913  1.00  0.00     0.023 A 
ATOM     76  C   UNL A   1      38.654  30.350  32.304  1.00  0.00     0.012 A 
ATOM     77  C   UNL A   1      37.659  31.252  30.282  1.00  0.00     0.148 A 
ATOM     78  C   UNL A   1      37.554  30.778  33.047  1.00  0.00     0.002 A 
ATOM     79  C   UNL A   1      36.592  31.726  31.037  1.00  0.00     0.091 A 
ATOM     80  F   UNL A   1      37.726  31.439  28.957  1.00  0.00    -0.205 F 
ATOM     81  C   UNL A   1      36.527  31.474  32.416  1.00  0.00     0.022 A 
BRANCH  79  82
ATOM     82  S   UNL A   1      35.300  32.758  30.333  1.00  0.00     0.127 S 
ATOM     83  O   UNL A   1      34.780  31.905  29.270  1.00  0.00    -0.237 OA
ATOM     84  O   UNL A   1      34.404  32.940  31.475  1.00  0.00    -0.237 OA
ATOM     85  O   UNL A   1      35.971  33.978  29.902  1.00  0.00    -0.744 OA
ENDBRANCH  79  82
ENDBRANCH  51  75
BRANCH  63  86
ATOM     86  C   UNL A   1      44.875  33.436  29.313  1.00  0.00     0.023 A 
ATOM     87  C   UNL A   1      45.646  33.605  30.479  1.00  0.00     0.012 A 
ATOM     88  C   UNL A   1      44.755  34.501  28.400  1.00  0.00     0.148 A 
ATOM     89  C   UNL A   1      46.264  34.826  30.748  1.00  0.00     0.002 A 
ATOM     90  C   UNL A   1      45.413  35.698  28.650  1.00  0.00     0.091 A 
ATOM     91  F   UNL A   1      43.999  34.325  27.306  1.00  0.00    -0.205 F 
ATOM     92  C   UNL A   1      46.160  35.866  29.828  1.00  0.00     0.022 A 
BRANCH  90  93
ATOM     93  S   UNL A   1      45.413  37.054  27.471  1.00  0.00     0.127 S 
ATOM     94  O   UNL A   1      46.044  36.436  26.307  1.00  0.00    -0.237 OA
ATOM     95  O   UNL A   1      43.985  37.333  27.314  1.00  0.00    -0.237 OA
ATOM     96  O   UNL A   1      46.170  38.128  28.101  1.00  0.00    -0.744 OA
ENDBRANCH  90  93
ENDBRANCH  63  86
ENDBRANCH  37  38
ENDBRANCH  29  32
ENDBRANCH  27  28
ENDBRANCH  26  27
ENDBRANCH   1  26
TORSDOF 17
ENDMDL
MODEL 2
REMARK VINA RESULT:     -12.1      5.815      9.288
REMARK SMILES Cc1csc(CNC(=O)NC[C@H]2CC[C@@H](C(=O)NCCCNC(=O)c3ccc(-c4c5nc(c(-c6cccc(S(=O)(=O)[O-])c6F)c6ccc([nH]6)c(-c6cccc(S(=O)(=O)[O-])c6F)c6nc(c(-c7cccc(S(=O)(=O)[O-])c7F)c7ccc4[nH]7)C=C6)C=C5)cc3)CC2)n1
REMARK SMILES IDX 19 1 18 2 16 3 17 4 15 6 12 7 13 8 89 9 14 10 88 11 11 12
REMARK SMILES IDX 10 13 7 14 8 15 9 17 6 19 5 20 1 21 2 22 3 23 90 24 4 25
REMARK SMILES IDX 20 26 21 27 22 28 23 29 24 31 25 32 26 33 87 34 27 35 86 36
REMARK SMILES IDX 28 37 29 38 30 39 80 40 31 41 85 42 79 43 81 44 32 45 84 46
REMARK SMILES IDX 78 47 77 48 33 50 65 51 45 52 64 53 46 54 49 55 63 56 82 57
REMARK SMILES IDX 47 58 48 59 62 61 83 62 50 63 34 64 35 65 43 66 36 67 38 68
REMARK SMILES IDX 44 69 37 70 39 71 40 72 41 73 42 74 66 75 67 76 75 77 68 78
REMARK SMILES IDX 70 79 76 80 69 81 71 82 72 83 73 84 74 85 51 86 52 87 60 88
REMARK SMILES IDX 53 89 55 90 61 91 54 92 56 93 57 94 58 95 59 96
REMARK H PARENT 18 5 7 16 10 18 22 30 81 49 49 60
REMARK Flexibility Score: inf
ROOT
ATOM      1  C   UNL A   1      31.655  30.751  26.055  1.00  0.00     0.117 C 
ENDROOT
BRANCH   1   2
ATOM      2  N   UNL A   1      31.456  29.708  27.031  1.00  0.00    -0.356 N 
ATOM      3  C   UNL A   1      31.690  28.374  26.991  1.00  0.00     0.223 C 
ATOM      4  O   UNL A   1      31.584  27.781  28.074  1.00  0.00    -0.275 OA
ATOM      5  H   UNL A   1      31.080  30.024  27.885  1.00  0.00     0.163 HD
BRANCH   3   6
ATOM      6  C   UNL A   1      32.054  27.570  25.730  1.00  0.00     0.078 C 
ATOM      7  C   UNL A   1      31.744  24.559  25.519  1.00  0.00     0.008 C 
ATOM      8  C   UNL A   1      30.575  25.502  25.164  1.00  0.00     0.006 C 
ATOM      9  C   UNL A   1      32.959  25.206  26.197  1.00  0.00     0.006 C 
ATOM     10  C   UNL A   1      30.914  26.967  24.916  1.00  0.00     0.014 C 
ATOM     11  C   UNL A   1      33.261  26.651  25.845  1.00  0.00     0.014 C 
BRANCH   7  12
ATOM     12  C   UNL A   1      31.236  23.393  26.405  1.00  0.00     0.121 C 
BRANCH  12  13
ATOM     13  N   UNL A   1      32.266  22.879  27.278  1.00  0.00    -0.338 N 
ATOM     14  N   UNL A   1      33.177  21.000  26.183  1.00  0.00    -0.332 N 
ATOM     15  C   UNL A   1      33.219  21.957  27.106  1.00  0.00     0.315 C 
ATOM     16  H   UNL A   1      34.033  20.520  26.099  1.00  0.00     0.165 HD
ATOM     17  O   UNL A   1      34.188  21.994  27.870  1.00  0.00    -0.249 OA
ATOM     18  H   UNL A   1      32.267  23.288  28.174  1.00  0.00     0.165 HD
BRANCH  14  19
ATOM     19  C   UNL A   1      32.166  20.495  25.270  1.00  0.00     0.185 C 
BRANCH  19  20
ATOM     20  C   UNL A   1      32.481  19.074  24.901  1.00  0.00     0.112 A 
ATOM     21  C   UNL A   1      32.673  15.589  25.781  1.00  0.00     0.067 C 
ATOM     22  C   UNL A   1      32.689  16.868  25.030  1.00  0.00     0.049 A 
ATOM     23  C   UNL A   1      32.908  17.030  23.677  1.00  0.00     0.090 A 
ATOM     24  N   UNL A   1      32.464  18.045  25.727  1.00  0.00    -0.245 NA
ATOM     25  S   UNL A   1      32.840  18.689  23.263  1.00  0.00    -0.125 S 
ENDBRANCH  19  20
ENDBRANCH  14  19
ENDBRANCH  12  13
ENDBRANCH   7  12
ENDBRANCH   3   6
ENDBRANCH   1   2
BRANCH   1  26
ATOM     26  C   UNL A   1      31.450  32.154  26.606  1.00  0.00     0.042 C 
BRANCH  26  27
ATOM     27  C   UNL A   1      32.696  32.778  27.202  1.00  0.00     0.118 C 
BRANCH  27  28
ATOM     28  N   UNL A   1      32.477  34.135  27.691  1.00  0.00    -0.352 N 
ATOM     29  C   UNL A   1      33.092  34.860  28.688  1.00  0.00     0.251 C 
ATOM     30  H   UNL A   1      31.761  34.622  27.223  1.00  0.00     0.163 HD
ATOM     31  O   UNL A   1      32.651  35.970  28.958  1.00  0.00    -0.269 OA
BRANCH  29  32
ATOM     32  C   UNL A   1      34.244  34.315  29.448  1.00  0.00     0.039 A 
ATOM     33  C   UNL A   1      33.990  33.476  30.540  1.00  0.00     0.014 A 
ATOM     34  C   UNL A   1      35.562  34.632  29.125  1.00  0.00     0.014 A 
ATOM     35  C   UNL A   1      35.052  32.900  31.245  1.00  0.00     0.010 A 
ATOM     36  C   UNL A   1      36.613  33.970  29.746  1.00  0.00     0.010 A 
ATOM     37  C   UNL A   1      36.371  33.114  30.827  1.00  0.00    -0.014 A 
BRANCH  37  38
ATOM     38  C   UNL A   1      37.522  32.511  31.540  1.00  0.00     0.031 A 
ATOM     39  C   UNL A   1      38.291  31.395  30.889  1.00  0.00     0.074 A 
ATOM     40  C   UNL A   1      37.820  32.900  32.795  1.00  0.00     0.049 A 
ATOM     41  N   UNL A   1      39.285  30.693  31.363  1.00  0.00    -0.248 NA
ATOM     42  C   UNL A   1      37.851  30.980  29.545  1.00  0.00     0.031 C 
ATOM     43  C   UNL A   1      37.076  33.892  33.570  1.00  0.00     0.029 A 
ATOM     44  N   UNL A   1      38.811  32.487  33.650  1.00  0.00    -0.354 N 
ATOM     45  C   UNL A   1      39.555  29.727  30.402  1.00  0.00     0.074 A 
ATOM     46  C   UNL A   1      38.595  29.905  29.337  1.00  0.00     0.031 C 
ATOM     47  C   UNL A   1      37.653  34.035  34.774  1.00  0.00     0.029 A 
ATOM     48  C   UNL A   1      38.788  33.122  34.870  1.00  0.00     0.049 A 
ATOM     49  H   UNL A   1      39.476  31.801  33.412  1.00  0.00     0.167 HD
ATOM     50  C   UNL A   1      40.538  28.797  30.389  1.00  0.00     0.034 A 
ATOM     51  C   UNL A   1      39.594  32.985  35.942  1.00  0.00     0.034 A 
ATOM     52  C   UNL A   1      41.525  28.664  31.423  1.00  0.00     0.049 A 
ATOM     53  C   UNL A   1      40.735  32.004  35.866  1.00  0.00     0.074 A 
ATOM     54  C   UNL A   1      42.615  27.816  31.469  1.00  0.00     0.029 A 
ATOM     55  N   UNL A   1      41.542  29.408  32.593  1.00  0.00    -0.354 N 
ATOM     56  N   UNL A   1      41.074  31.210  34.879  1.00  0.00    -0.248 NA
ATOM     57  C   UNL A   1      41.622  31.922  37.035  1.00  0.00     0.031 C 
ATOM     58  C   UNL A   1      43.288  28.039  32.675  1.00  0.00     0.029 A 
ATOM     59  C   UNL A   1      42.625  29.040  33.370  1.00  0.00     0.049 A 
ATOM     60  H   UNL A   1      40.881  30.095  32.835  1.00  0.00     0.167 HD
ATOM     61  C   UNL A   1      42.230  30.558  35.293  1.00  0.00     0.074 A 
ATOM     62  C   UNL A   1      42.547  31.072  36.611  1.00  0.00     0.031 C 
ATOM     63  C   UNL A   1      42.954  29.608  34.652  1.00  0.00     0.034 A 
BRANCH  50  64
ATOM     64  C   UNL A   1      40.616  27.895  29.186  1.00  0.00     0.023 A 
ATOM     65  C   UNL A   1      39.787  26.756  29.118  1.00  0.00     0.012 A 
ATOM     66  C   UNL A   1      41.491  28.177  28.120  1.00  0.00     0.148 A 
ATOM     67  C   UNL A   1      39.860  25.886  28.031  1.00  0.00     0.002 A 
ATOM     68  C   UNL A   1      41.525  27.331  27.019  1.00  0.00     0.091 A 
ATOM     69  F   UNL A   1      42.291  29.249  28.214  1.00  0.00    -0.205 F 
ATOM     70  C   UNL A   1      40.722  26.179  26.978  1.00  0.00     0.022 A 
BRANCH  68  71
ATOM     71  S   UNL A   1      42.548  27.659  25.579  1.00  0.00     0.127 S 
ATOM     72  O   UNL A   1      43.881  27.736  26.175  1.00  0.00    -0.237 OA
ATOM     73  O   UNL A   1      42.315  26.470  24.758  1.00  0.00    -0.237 OA
ATOM     74  O   UNL A   1      42.045  28.899  25.006  1.00  0.00    -0.744 OA
ENDBRANCH  68  71
ENDBRANCH  50  64
BRANCH  51  75
ATOM     75  C   UNL A   1      39.410  33.856  37.137  1.00  0.00     0.023 A 
ATOM     76  C   UNL A   1      39.835  35.199  37.080  1.00  0.00     0.012 A 
ATOM     77  C   UNL A   1      38.797  33.385  38.314  1.00  0.00     0.148 A 
ATOM     78  C   UNL A   1      39.684  36.044  38.179  1.00  0.00     0.002 A 
ATOM     79  C   UNL A   1      38.599  34.247  39.386  1.00  0.00     0.091 A 
ATOM     80  F   UNL A   1      38.408  32.103  38.356  1.00  0.00    -0.205 F 
ATOM     81  C   UNL A   1      39.058  35.572  39.329  1.00  0.00     0.022 A 
BRANCH  79  82
ATOM     82  S   UNL A   1      37.671  33.767  40.848  1.00  0.00     0.127 S 
ATOM     83  O   UNL A   1      38.582  32.818  41.483  1.00  0.00    -0.237 OA
ATOM     84  O   UNL A   1      37.524  35.044  41.545  1.00  0.00    -0.237 OA
ATOM     85  O   UNL A   1      36.420  33.212  40.348  1.00  0.00    -0.744 OA
ENDBRANCH  79  82
ENDBRANCH  51  75
BRANCH  63  86
ATOM     86  C   UNL A   1      44.181  29.081  35.346  1.00  0.00     0.023 A 
ATOM     87  C   UNL A   1      45.418  29.731  35.171  1.00  0.00     0.012 A 
ATOM     88  C   UNL A   1      44.088  27.994  36.237  1.00  0.00     0.148 A 
ATOM     89  C   UNL A   1      46.552  29.289  35.851  1.00  0.00     0.002 A 
ATOM     90  C   UNL A   1      45.211  27.590  36.947  1.00  0.00     0.091 A 
ATOM     91  F   UNL A   1      42.905  27.376  36.373  1.00  0.00    -0.205 F 
ATOM     92  C   UNL A   1      46.446  28.229  36.748  1.00  0.00     0.022 A 
BRANCH  90  93
ATOM     93  S   UNL A   1      45.140  26.299  38.195  1.00  0.00     0.127 S 
ATOM     94  O   UNL A   1      44.066  26.782  39.061  1.00  0.00    -0.237 OA
ATOM     95  O   UNL A   1      44.800  25.116  37.404  1.00  0.00    -0.237 OA
ATOM     96  O   UNL A   1      46.465  26.258  38.800  1.00  0.00    -0.744 OA
ENDBRANCH  90  93
ENDBRANCH  63  86
ENDBRANCH  37  38
ENDBRANCH  29  32
ENDBRANCH  27  28
ENDBRANCH  26  27
ENDBRANCH   1  26
TORSDOF 17
ENDMDL
MODEL 3
REMARK VINA RESULT:     -12.0      2.585      3.138
REMARK SMILES Cc1csc(CNC(=O)NC[C@H]2CC[C@@H](C(=O)NCCCNC(=O)c3ccc(-c4c5nc(c(-c6cccc(S(=O)(=O)[O-])c6F)c6ccc([nH]6)c(-c6cccc(S(=O)(=O)[O-])c6F)c6nc(c(-c7cccc(S(=O)(=O)[O-])c7F)c7ccc4[nH]7)C=C6)C=C5)cc3)CC2)n1
REMARK SMILES IDX 19 1 18 2 16 3 17 4 15 6 12 7 13 8 89 9 14 10 88 11 11 12
REMARK SMILES IDX 10 13 7 14 8 15 9 17 6 19 5 20 1 21 2 22 3 23 90 24 4 25
REMARK SMILES IDX 20 26 21 27 22 28 23 29 24 31 25 32 26 33 87 34 27 35 86 36
REMARK SMILES IDX 28 37 29 38 30 39 80 40 31 41 85 42 79 43 81 44 32 45 84 46
REMARK SMILES IDX 78 47 77 48 33 50 65 51 45 52 64 53 46 54 49 55 63 56 82 57
REMARK SMILES IDX 47 58 48 59 62 61 83 62 50 63 34 64 35 65 43 66 36 67 38 68
REMARK SMILES IDX 44 69 37 70 39 71 40 72 41 73 42 74 66 75 67 76 75 77 68 78
REMARK SMILES IDX 70 79 76 80 69 81 71 82 72 83 73 84 74 85 51 86 52 87 60 88
REMARK SMILES IDX 53 89 55 90 61 91 54 92 56 93 57 94 58 95 59 96
REMARK H PARENT 18 5 7 16 10 18 22 30 81 49 49 60
REMARK Flexibility Score: inf
ROOT
ATOM      1  C   UNL A   1      35.320  21.573  24.652  1.00  0.00     0.117 C 
ENDROOT
BRANCH   1   2
ATOM      2  N   UNL A   1      35.044  20.179  24.897  1.00  0.00    -0.356 N 
ATOM      3  C   UNL A   1      33.922  19.437  24.738  1.00  0.00     0.223 C 
ATOM      4  O   UNL A   1      34.069  18.212  24.862  1.00  0.00    -0.275 OA
ATOM      5  H   UNL A   1      35.815  19.672  25.242  1.00  0.00     0.163 HD
BRANCH   3   6
ATOM      6  C   UNL A   1      32.519  19.994  24.436  1.00  0.00     0.078 C 
ATOM      7  C   UNL A   1      32.023  22.798  23.387  1.00  0.00     0.008 C 
ATOM      8  C   UNL A   1      32.291  21.627  22.419  1.00  0.00     0.006 C 
ATOM      9  C   UNL A   1      32.257  22.516  24.879  1.00  0.00     0.006 C 
ATOM     10  C   UNL A   1      32.140  20.215  22.976  1.00  0.00     0.014 C 
ATOM     11  C   UNL A   1      32.022  21.097  25.360  1.00  0.00     0.014 C 
BRANCH   7  12
ATOM     12  C   UNL A   1      32.863  24.033  22.973  1.00  0.00     0.121 C 
BRANCH  12  13
ATOM     13  N   UNL A   1      32.641  24.410  21.596  1.00  0.00    -0.338 N 
ATOM     14  N   UNL A   1      32.981  26.741  21.491  1.00  0.00    -0.332 N 
ATOM     15  C   UNL A   1      32.862  25.543  20.922  1.00  0.00     0.315 C 
ATOM     16  H   UNL A   1      33.302  27.426  20.861  1.00  0.00     0.165 HD
ATOM     17  O   UNL A   1      32.941  25.466  19.693  1.00  0.00    -0.249 OA
ATOM     18  H   UNL A   1      32.251  23.692  21.046  1.00  0.00     0.165 HD
BRANCH  14  19
ATOM     19  C   UNL A   1      32.749  27.275  22.821  1.00  0.00     0.185 C 
BRANCH  19  20
ATOM     20  C   UNL A   1      31.381  27.891  22.889  1.00  0.00     0.112 A 
ATOM     21  C   UNL A   1      29.150  30.627  22.186  1.00  0.00     0.067 C 
ATOM     22  C   UNL A   1      29.703  29.315  22.601  1.00  0.00     0.049 A 
ATOM     23  C   UNL A   1      28.993  28.234  23.084  1.00  0.00     0.090 A 
ATOM     24  N   UNL A   1      31.072  29.117  22.512  1.00  0.00    -0.245 NA
ATOM     25  S   UNL A   1      30.056  26.941  23.440  1.00  0.00    -0.125 S 
ENDBRANCH  19  20
ENDBRANCH  14  19
ENDBRANCH  12  13
ENDBRANCH   7  12
ENDBRANCH   3   6
ENDBRANCH   1   2
BRANCH   1  26
ATOM     26  C   UNL A   1      35.808  22.327  25.880  1.00  0.00     0.042 C 
BRANCH  26  27
ATOM     27  C   UNL A   1      37.180  22.952  25.723  1.00  0.00     0.118 C 
BRANCH  27  28
ATOM     28  N   UNL A   1      38.266  22.035  26.050  1.00  0.00    -0.352 N 
ATOM     29  C   UNL A   1      39.524  22.252  26.566  1.00  0.00     0.251 C 
ATOM     30  H   UNL A   1      38.063  21.089  25.870  1.00  0.00     0.163 HD
ATOM     31  O   UNL A   1      40.286  21.299  26.666  1.00  0.00    -0.269 OA
BRANCH  29  32
ATOM     32  C   UNL A   1      39.976  23.607  26.969  1.00  0.00     0.039 A 
ATOM     33  C   UNL A   1      39.716  24.683  26.113  1.00  0.00     0.014 A 
ATOM     34  C   UNL A   1      40.669  23.833  28.157  1.00  0.00     0.014 A 
ATOM     35  C   UNL A   1      40.078  25.982  26.487  1.00  0.00     0.010 A 
ATOM     36  C   UNL A   1      40.922  25.131  28.583  1.00  0.00     0.010 A 
ATOM     37  C   UNL A   1      40.649  26.218  27.744  1.00  0.00    -0.014 A 
BRANCH  37  38
ATOM     38  C   UNL A   1      41.035  27.580  28.181  1.00  0.00     0.031 A 
ATOM     39  C   UNL A   1      42.482  27.985  28.143  1.00  0.00     0.074 A 
ATOM     40  C   UNL A   1      40.110  28.415  28.693  1.00  0.00     0.049 A 
ATOM     41  N   UNL A   1      43.037  29.100  28.536  1.00  0.00    -0.248 NA
ATOM     42  C   UNL A   1      43.440  26.984  27.640  1.00  0.00     0.031 C 
ATOM     43  C   UNL A   1      38.696  28.092  28.884  1.00  0.00     0.029 A 
ATOM     44  N   UNL A   1      40.224  29.697  29.169  1.00  0.00    -0.354 N 
ATOM     45  C   UNL A   1      44.405  28.916  28.375  1.00  0.00     0.074 A 
ATOM     46  C   UNL A   1      44.600  27.570  27.890  1.00  0.00     0.031 C 
ATOM     47  C   UNL A   1      38.068  29.156  29.410  1.00  0.00     0.029 A 
ATOM     48  C   UNL A   1      39.037  30.226  29.622  1.00  0.00     0.049 A 
ATOM     49  H   UNL A   1      41.075  30.192  29.185  1.00  0.00     0.167 HD
ATOM     50  C   UNL A   1      45.408  29.801  28.580  1.00  0.00     0.034 A 
ATOM     51  C   UNL A   1      38.765  31.438  30.145  1.00  0.00     0.034 A 
ATOM     52  C   UNL A   1      45.202  31.156  29.006  1.00  0.00     0.049 A 
ATOM     53  C   UNL A   1      39.886  32.436  30.279  1.00  0.00     0.074 A 
ATOM     54  C   UNL A   1      46.138  32.162  29.160  1.00  0.00     0.029 A 
ATOM     55  N   UNL A   1      43.970  31.696  29.343  1.00  0.00    -0.354 N 
ATOM     56  N   UNL A   1      41.152  32.298  29.968  1.00  0.00    -0.248 NA
ATOM     57  C   UNL A   1      39.537  33.763  30.804  1.00  0.00     0.031 C 
ATOM     58  C   UNL A   1      45.471  33.310  29.602  1.00  0.00     0.029 A 
ATOM     59  C   UNL A   1      44.118  33.023  29.703  1.00  0.00     0.049 A 
ATOM     60  H   UNL A   1      43.116  31.207  29.327  1.00  0.00     0.167 HD
ATOM     61  C   UNL A   1      41.746  33.527  30.228  1.00  0.00     0.074 A 
ATOM     62  C   UNL A   1      40.693  34.405  30.697  1.00  0.00     0.031 C 
ATOM     63  C   UNL A   1      43.046  33.894  30.109  1.00  0.00     0.034 A 
BRANCH  50  64
ATOM     64  C   UNL A   1      46.809  29.334  28.284  1.00  0.00     0.023 A 
ATOM     65  C   UNL A   1      47.309  29.434  26.970  1.00  0.00     0.012 A 
ATOM     66  C   UNL A   1      47.633  28.815  29.301  1.00  0.00     0.148 A 
ATOM     67  C   UNL A   1      48.591  28.981  26.661  1.00  0.00     0.002 A 
ATOM     68  C   UNL A   1      48.925  28.409  28.994  1.00  0.00     0.091 A 
ATOM     69  F   UNL A   1      47.130  28.704  30.538  1.00  0.00    -0.205 F 
ATOM     70  C   UNL A   1      49.402  28.478  27.674  1.00  0.00     0.022 A 
BRANCH  68  71
ATOM     71  S   UNL A   1      50.073  27.815  30.242  1.00  0.00     0.127 S 
ATOM     72  O   UNL A   1      50.125  28.951  31.160  1.00  0.00    -0.237 OA
ATOM     73  O   UNL A   1      49.377  26.639  30.765  1.00  0.00    -0.237 OA
ATOM     74  O   UNL A   1      51.313  27.521  29.537  1.00  0.00    -0.744 OA
ENDBRANCH  68  71
ENDBRANCH  50  64
BRANCH  51  75
ATOM     75  C   UNL A   1      37.363  31.808  30.493  1.00  0.00     0.023 A 
ATOM     76  C   UNL A   1      36.863  31.478  31.769  1.00  0.00     0.012 A 
ATOM     77  C   UNL A   1      36.533  32.506  29.594  1.00  0.00     0.148 A 
ATOM     78  C   UNL A   1      35.555  31.804  32.130  1.00  0.00     0.002 A 
ATOM     79  C   UNL A   1      35.251  32.877  29.981  1.00  0.00     0.091 A 
ATOM     80  F   UNL A   1      37.021  32.804  28.382  1.00  0.00    -0.205 F 
ATOM     81  C   UNL A   1      34.752  32.511  31.241  1.00  0.00     0.022 A 
BRANCH  79  82
ATOM     82  S   UNL A   1      34.200  33.915  28.957  1.00  0.00     0.127 S 
ATOM     83  O   UNL A   1      33.655  32.949  28.009  1.00  0.00    -0.237 OA
ATOM     84  O   UNL A   1      33.243  34.432  29.934  1.00  0.00    -0.237 OA
ATOM     85  O   UNL A   1      35.085  34.929  28.397  1.00  0.00    -0.744 OA
ENDBRANCH  79  82
ENDBRANCH  51  75
BRANCH  63  86
ATOM     86  C   UNL A   1      43.404  35.313  30.459  1.00  0.00     0.023 A 
ATOM     87  C   UNL A   1      43.907  35.612  31.740  1.00  0.00     0.012 A 
ATOM     88  C   UNL A   1      43.322  36.332  29.491  1.00  0.00     0.148 A 
ATOM     89  C   UNL A   1      44.296  36.911  32.062  1.00  0.00     0.002 A 
ATOM     90  C   UNL A   1      43.756  37.614  29.804  1.00  0.00     0.091 A 
ATOM     91  F   UNL A   1      42.820  36.031  28.284  1.00  0.00    -0.205 F 
ATOM     92  C   UNL A   1      44.234  37.908  31.092  1.00  0.00     0.022 A 
BRANCH  90  93
ATOM     93  S   UNL A   1      43.805  38.931  28.583  1.00  0.00     0.127 S 
ATOM     94  O   UNL A   1      44.578  39.956  29.282  1.00  0.00    -0.237 OA
ATOM     95  O   UNL A   1      44.502  38.297  27.465  1.00  0.00    -0.237 OA
ATOM     96  O   UNL A   1      42.414  39.270  28.310  1.00  0.00    -0.744 OA
ENDBRANCH  90  93
ENDBRANCH  63  86
ENDBRANCH  37  38
ENDBRANCH  29  32
ENDBRANCH  27  28
ENDBRANCH  26  27
ENDBRANCH   1  26
TORSDOF 17
ENDMDL
