MODEL 1
REMARK VINA RESULT:     -12.6      0.000      0.000
REMARK SMILES Cc1nn(C(C)C)cc1-c1cnccc1C(=O)NCCCNC(=O)c1ccc(-c2c3nc(c(-c4cccc(S(=O)(=O)[O-])c4F)c4ccc([nH]4)c(-c4cccc(S(=O)(=O)[O-])c4F)c4nc(c(-c5cccc(S(=O)(=O)[O-])c5F)c5ccc2[nH]5)C=C4)C=C3)cc1
REMARK SMILES IDX 20 1 19 2 18 3 16 4 17 5 15 7 10 8 11 9 12 10 14 11 13 12
REMARK SMILES IDX 9 13 1 14 2 15 3 16 4 17 8 18 5 19 6 20 7 21 21 22 22 23
REMARK SMILES IDX 23 24 24 26 25 27 26 28 87 29 27 30 86 31 28 32 29 33 30 34
REMARK SMILES IDX 80 35 31 36 85 37 79 38 81 39 32 40 84 41 78 42 77 43 33 45
REMARK SMILES IDX 65 46 45 47 64 48 46 49 49 50 63 51 82 52 47 53 48 54 62 56
REMARK SMILES IDX 83 57 50 58 34 59 35 60 43 61 36 62 38 63 44 64 37 65 39 66
REMARK SMILES IDX 40 67 41 68 42 69 66 70 67 71 75 72 68 73 70 74 76 75 69 76
REMARK SMILES IDX 71 77 72 78 73 79 74 80 51 81 52 82 60 83 53 84 55 85 61 86
REMARK SMILES IDX 54 87 56 88 57 89 58 90 59 91
REMARK H PARENT 18 6 22 25 81 44 49 55
REMARK Flexibility Score: inf
ROOT
ATOM      1  C   UNL A   1      37.777  20.429  24.993  1.00  0.00     0.042 C 
ENDROOT
BRANCH   1   2
ATOM      2  C   UNL A   1      36.728  21.484  24.753  1.00  0.00     0.118 C 
BRANCH   2   3
ATOM      3  N   UNL A   1      35.797  21.930  25.735  1.00  0.00    -0.352 N 
ATOM      4  C   UNL A   1      34.594  21.286  25.974  1.00  0.00     0.252 C 
ATOM      5  O   UNL A   1      34.057  21.420  27.075  1.00  0.00    -0.269 OA
ATOM      6  H   UNL A   1      36.019  22.728  26.268  1.00  0.00     0.163 HD
BRANCH   4   7
ATOM      7  C   UNL A   1      33.819  20.555  24.907  1.00  0.00     0.050 A 
ATOM      8  C   UNL A   1      32.926  21.025  23.916  1.00  0.00     0.016 A 
ATOM      9  C   UNL A   1      32.337  20.050  23.098  1.00  0.00     0.120 A 
ATOM     10  N   UNL A   1      32.555  18.715  23.166  1.00  0.00    -0.264 NA
ATOM     11  C   UNL A   1      34.060  19.165  24.978  1.00  0.00     0.034 A 
ATOM     12  C   UNL A   1      33.417  18.303  24.110  1.00  0.00     0.112 A 
BRANCH   8  13
ATOM     13  C   UNL A   1      32.438  22.384  23.690  1.00  0.00     0.025 A 
ATOM     14  C   UNL A   1      30.955  22.820  25.835  1.00  0.00     0.069 C 
ATOM     15  C   UNL A   1      31.559  23.166  24.514  1.00  0.00     0.067 A 
ATOM     16  N   UNL A   1      31.429  24.412  24.046  1.00  0.00    -0.177 NA
ATOM     17  N   UNL A   1      32.192  24.445  22.936  1.00  0.00    -0.269 N 
ATOM     18  C   UNL A   1      32.818  23.246  22.681  1.00  0.00     0.118 A 
BRANCH  17  19
ATOM     19  C   UNL A   1      32.340  25.697  22.191  1.00  0.00     0.101 C 
ATOM     20  C   UNL A   1      31.133  26.627  22.335  1.00  0.00     0.033 C 
ATOM     21  C   UNL A   1      33.570  26.471  22.626  1.00  0.00     0.033 C 
ENDBRANCH  17  19
ENDBRANCH   8  13
ENDBRANCH   4   7
ENDBRANCH   2   3
ENDBRANCH   1   2
BRANCH   1  22
ATOM     22  C   UNL A   1      38.998  20.908  25.727  1.00  0.00     0.118 C 
BRANCH  22  23
ATOM     23  N   UNL A   1      39.999  19.857  26.013  1.00  0.00    -0.352 N 
ATOM     24  C   UNL A   1      41.388  19.945  26.150  1.00  0.00     0.251 C 
ATOM     25  H   UNL A   1      39.628  18.952  26.125  1.00  0.00     0.163 HD
ATOM     26  O   UNL A   1      42.137  18.988  26.180  1.00  0.00    -0.269 OA
BRANCH  24  27
ATOM     27  C   UNL A   1      41.920  21.277  26.393  1.00  0.00     0.039 A 
ATOM     28  C   UNL A   1      42.516  22.168  25.498  1.00  0.00     0.014 A 
ATOM     29  C   UNL A   1      41.849  21.644  27.704  1.00  0.00     0.014 A 
ATOM     30  C   UNL A   1      42.889  23.414  26.015  1.00  0.00     0.010 A 
ATOM     31  C   UNL A   1      41.478  22.915  27.854  1.00  0.00     0.010 A 
ATOM     32  C   UNL A   1      42.431  23.716  27.296  1.00  0.00    -0.014 A 
BRANCH  32  33
ATOM     33  C   UNL A   1      42.527  24.923  28.071  1.00  0.00     0.031 A 
ATOM     34  C   UNL A   1      41.252  25.674  28.010  1.00  0.00     0.074 A 
ATOM     35  C   UNL A   1      43.375  24.978  29.123  1.00  0.00     0.049 A 
ATOM     36  N   UNL A   1      40.872  26.411  27.010  1.00  0.00    -0.248 NA
ATOM     37  C   UNL A   1      40.130  25.236  28.881  1.00  0.00     0.031 C 
ATOM     38  C   UNL A   1      44.315  23.973  29.645  1.00  0.00     0.029 A 
ATOM     39  N   UNL A   1      43.449  25.950  30.054  1.00  0.00    -0.354 N 
ATOM     40  C   UNL A   1      39.598  26.816  27.377  1.00  0.00     0.074 A 
ATOM     41  C   UNL A   1      39.111  25.725  28.170  1.00  0.00     0.031 C 
ATOM     42  C   UNL A   1      44.717  24.331  30.890  1.00  0.00     0.029 A 
ATOM     43  C   UNL A   1      44.173  25.642  31.195  1.00  0.00     0.049 A 
ATOM     44  H   UNL A   1      43.016  26.826  29.930  1.00  0.00     0.167 HD
ATOM     45  C   UNL A   1      39.307  28.146  27.517  1.00  0.00     0.034 A 
ATOM     46  C   UNL A   1      44.237  26.419  32.306  1.00  0.00     0.034 A 
ATOM     47  C   UNL A   1      40.468  28.938  27.110  1.00  0.00     0.049 A 
ATOM     48  C   UNL A   1      43.763  27.775  31.900  1.00  0.00     0.074 A 
ATOM     49  C   UNL A   1      41.269  29.006  25.984  1.00  0.00     0.029 A 
ATOM     50  N   UNL A   1      41.225  29.469  28.136  1.00  0.00    -0.354 N 
ATOM     51  N   UNL A   1      44.385  28.528  31.034  1.00  0.00    -0.248 NA
ATOM     52  C   UNL A   1      42.347  28.071  32.073  1.00  0.00     0.031 C 
ATOM     53  C   UNL A   1      42.602  29.168  26.477  1.00  0.00     0.029 A 
ATOM     54  C   UNL A   1      42.555  29.305  27.865  1.00  0.00     0.049 A 
ATOM     55  H   UNL A   1      40.861  29.900  28.943  1.00  0.00     0.167 HD
ATOM     56  C   UNL A   1      43.371  29.035  30.222  1.00  0.00     0.074 A 
ATOM     57  C   UNL A   1      42.140  28.824  30.987  1.00  0.00     0.031 C 
ATOM     58  C   UNL A   1      43.586  29.253  28.888  1.00  0.00     0.034 A 
BRANCH  45  59
ATOM     59  C   UNL A   1      38.288  28.736  28.498  1.00  0.00     0.023 A 
ATOM     60  C   UNL A   1      37.384  29.674  27.951  1.00  0.00     0.012 A 
ATOM     61  C   UNL A   1      38.303  28.642  29.907  1.00  0.00     0.148 A 
ATOM     62  C   UNL A   1      36.711  30.604  28.746  1.00  0.00     0.002 A 
ATOM     63  C   UNL A   1      37.664  29.588  30.700  1.00  0.00     0.091 A 
ATOM     64  F   UNL A   1      38.882  27.612  30.517  1.00  0.00    -0.205 F 
ATOM     65  C   UNL A   1      36.891  30.592  30.121  1.00  0.00     0.022 A 
BRANCH  63  66
ATOM     66  S   UNL A   1      37.877  29.629  32.488  1.00  0.00     0.127 S 
ATOM     67  O   UNL A   1      39.309  29.901  32.600  1.00  0.00    -0.237 OA
ATOM     68  O   UNL A   1      37.002  30.739  32.861  1.00  0.00    -0.237 OA
ATOM     69  O   UNL A   1      37.458  28.322  32.975  1.00  0.00    -0.744 OA
ENDBRANCH  63  66
ENDBRANCH  45  59
BRANCH  46  70
ATOM     70  C   UNL A   1      44.422  26.061  33.733  1.00  0.00     0.023 A 
ATOM     71  C   UNL A   1      45.726  26.003  34.266  1.00  0.00     0.012 A 
ATOM     72  C   UNL A   1      43.336  26.060  34.636  1.00  0.00     0.148 A 
ATOM     73  C   UNL A   1      45.945  25.995  35.649  1.00  0.00     0.002 A 
ATOM     74  C   UNL A   1      43.559  26.050  36.011  1.00  0.00     0.091 A 
ATOM     75  F   UNL A   1      42.093  26.166  34.149  1.00  0.00    -0.205 F 
ATOM     76  C   UNL A   1      44.863  26.031  36.522  1.00  0.00     0.022 A 
BRANCH  74  77
ATOM     77  S   UNL A   1      42.213  26.125  37.204  1.00  0.00     0.127 S 
ATOM     78  O   UNL A   1      41.568  24.826  37.013  1.00  0.00    -0.237 OA
ATOM     79  O   UNL A   1      42.935  26.271  38.465  1.00  0.00    -0.237 OA
ATOM     80  O   UNL A   1      41.398  27.266  36.810  1.00  0.00    -0.744 OA
ENDBRANCH  74  77
ENDBRANCH  46  70
BRANCH  58  81
ATOM     81  C   UNL A   1      45.013  29.239  28.391  1.00  0.00     0.023 A 
ATOM     82  C   UNL A   1      45.689  28.062  28.002  1.00  0.00     0.012 A 
ATOM     83  C   UNL A   1      45.634  30.478  28.165  1.00  0.00     0.148 A 
ATOM     84  C   UNL A   1      46.961  28.121  27.422  1.00  0.00     0.002 A 
ATOM     85  C   UNL A   1      46.878  30.535  27.548  1.00  0.00     0.091 A 
ATOM     86  F   UNL A   1      44.981  31.589  28.538  1.00  0.00    -0.205 F 
ATOM     87  C   UNL A   1      47.551  29.359  27.183  1.00  0.00     0.022 A 
BRANCH  85  88
ATOM     88  S   UNL A   1      47.629  32.105  27.114  1.00  0.00     0.127 S 
ATOM     89  O   UNL A   1      48.898  31.682  26.525  1.00  0.00    -0.237 OA
ATOM     90  O   UNL A   1      46.666  32.660  26.161  1.00  0.00    -0.237 OA
ATOM     91  O   UNL A   1      47.733  32.856  28.359  1.00  0.00    -0.744 OA
ENDBRANCH  85  88
ENDBRANCH  58  81
ENDBRANCH  32  33
ENDBRANCH  24  27
ENDBRANCH  22  23
ENDBRANCH   1  22
TORSDOF 15
ENDMDL
MODEL 2
REMARK VINA RESULT:     -12.4      2.052      2.327
REMARK SMILES Cc1nn(C(C)C)cc1-c1cnccc1C(=O)NCCCNC(=O)c1ccc(-c2c3nc(c(-c4cccc(S(=O)(=O)[O-])c4F)c4ccc([nH]4)c(-c4cccc(S(=O)(=O)[O-])c4F)c4nc(c(-c5cccc(S(=O)(=O)[O-])c5F)c5ccc2[nH]5)C=C4)C=C3)cc1
REMARK SMILES IDX 20 1 19 2 18 3 16 4 17 5 15 7 10 8 11 9 12 10 14 11 13 12
REMARK SMILES IDX 9 13 1 14 2 15 3 16 4 17 8 18 5 19 6 20 7 21 21 22 22 23
REMARK SMILES IDX 23 24 24 26 25 27 26 28 87 29 27 30 86 31 28 32 29 33 30 34
REMARK SMILES IDX 80 35 31 36 85 37 79 38 81 39 32 40 84 41 78 42 77 43 33 45
REMARK SMILES IDX 65 46 45 47 64 48 46 49 49 50 63 51 82 52 47 53 48 54 62 56
REMARK SMILES IDX 83 57 50 58 34 59 35 60 43 61 36 62 38 63 44 64 37 65 39 66
REMARK SMILES IDX 40 67 41 68 42 69 66 70 67 71 75 72 68 73 70 74 76 75 69 76
REMARK SMILES IDX 71 77 72 78 73 79 74 80 51 81 52 82 60 83 53 84 55 85 61 86
REMARK SMILES IDX 54 87 56 88 57 89 58 90 59 91
REMARK H PARENT 18 6 22 25 81 44 49 55
REMARK Flexibility Score: inf
ROOT
ATOM      1  C   UNL A   1      37.723  20.382  24.973  1.00  0.00     0.042 C 
ENDROOT
BRANCH   1   2
ATOM      2  C   UNL A   1      36.692  21.466  24.785  1.00  0.00     0.118 C 
BRANCH   2   3
ATOM      3  N   UNL A   1      35.769  21.879  25.788  1.00  0.00    -0.352 N 
ATOM      4  C   UNL A   1      34.566  21.230  26.012  1.00  0.00     0.252 C 
ATOM      5  O   UNL A   1      34.036  21.327  27.121  1.00  0.00    -0.269 OA
ATOM      6  H   UNL A   1      35.996  22.657  26.347  1.00  0.00     0.163 HD
BRANCH   4   7
ATOM      7  C   UNL A   1      33.782  20.538  24.925  1.00  0.00     0.050 A 
ATOM      8  C   UNL A   1      32.879  21.044  23.961  1.00  0.00     0.016 A 
ATOM      9  C   UNL A   1      32.284  20.100  23.112  1.00  0.00     0.120 A 
ATOM     10  N   UNL A   1      32.505  18.763  23.127  1.00  0.00    -0.264 NA
ATOM     11  C   UNL A   1      34.026  19.147  24.941  1.00  0.00     0.034 A 
ATOM     12  C   UNL A   1      33.376  18.318  24.046  1.00  0.00     0.112 A 
BRANCH   8  13
ATOM     13  C   UNL A   1      32.387  22.410  23.791  1.00  0.00     0.025 A 
ATOM     14  C   UNL A   1      30.826  22.718  25.903  1.00  0.00     0.069 C 
ATOM     15  C   UNL A   1      31.472  23.139  24.624  1.00  0.00     0.067 A 
ATOM     16  N   UNL A   1      31.348  24.408  24.220  1.00  0.00    -0.177 NA
ATOM     17  N   UNL A   1      32.149  24.507  23.141  1.00  0.00    -0.269 N 
ATOM     18  C   UNL A   1      32.795  23.328  22.844  1.00  0.00     0.118 A 
BRANCH  17  19
ATOM     19  C   UNL A   1      32.312  25.798  22.470  1.00  0.00     0.101 C 
ATOM     20  C   UNL A   1      33.408  26.665  23.095  1.00  0.00     0.033 C 
ATOM     21  C   UNL A   1      32.642  25.633  20.998  1.00  0.00     0.033 C 
ENDBRANCH  17  19
ENDBRANCH   8  13
ENDBRANCH   4   7
ENDBRANCH   2   3
ENDBRANCH   1   2
BRANCH   1  22
ATOM     22  C   UNL A   1      38.963  20.811  25.706  1.00  0.00     0.118 C 
BRANCH  22  23
ATOM     23  N   UNL A   1      39.973  19.745  25.889  1.00  0.00    -0.352 N 
ATOM     24  C   UNL A   1      41.367  19.824  25.961  1.00  0.00     0.251 C 
ATOM     25  H   UNL A   1      39.604  18.837  25.974  1.00  0.00     0.163 HD
ATOM     26  O   UNL A   1      42.112  18.866  25.906  1.00  0.00    -0.269 OA
BRANCH  24  27
ATOM     27  C   UNL A   1      41.917  21.142  26.243  1.00  0.00     0.039 A 
ATOM     28  C   UNL A   1      42.471  22.075  25.365  1.00  0.00     0.014 A 
ATOM     29  C   UNL A   1      41.912  21.442  27.573  1.00  0.00     0.014 A 
ATOM     30  C   UNL A   1      42.874  23.293  25.925  1.00  0.00     0.010 A 
ATOM     31  C   UNL A   1      41.554  22.705  27.804  1.00  0.00     0.010 A 
ATOM     32  C   UNL A   1      42.482  23.531  27.241  1.00  0.00    -0.014 A 
BRANCH  32  33
ATOM     33  C   UNL A   1      42.622  24.697  28.070  1.00  0.00     0.031 A 
ATOM     34  C   UNL A   1      41.402  25.534  27.987  1.00  0.00     0.074 A 
ATOM     35  C   UNL A   1      43.423  24.654  29.158  1.00  0.00     0.049 A 
ATOM     36  N   UNL A   1      41.116  26.334  27.004  1.00  0.00    -0.248 NA
ATOM     37  C   UNL A   1      40.216  25.138  28.791  1.00  0.00     0.031 C 
ATOM     38  C   UNL A   1      44.272  23.568  29.676  1.00  0.00     0.029 A 
ATOM     39  N   UNL A   1      43.519  25.582  30.131  1.00  0.00    -0.354 N 
ATOM     40  C   UNL A   1      39.856  26.808  27.334  1.00  0.00     0.074 A 
ATOM     41  C   UNL A   1      39.264  25.722  28.058  1.00  0.00     0.031 C 
ATOM     42  C   UNL A   1      44.640  23.850  30.951  1.00  0.00     0.029 A 
ATOM     43  C   UNL A   1      44.170  25.181  31.287  1.00  0.00     0.049 A 
ATOM     44  H   UNL A   1      43.150  26.488  30.027  1.00  0.00     0.167 HD
ATOM     45  C   UNL A   1      39.646  28.148  27.517  1.00  0.00     0.034 A 
ATOM     46  C   UNL A   1      44.234  25.907  32.432  1.00  0.00     0.034 A 
ATOM     47  C   UNL A   1      40.874  28.876  27.193  1.00  0.00     0.049 A 
ATOM     48  C   UNL A   1      43.867  27.307  32.065  1.00  0.00     0.074 A 
ATOM     49  C   UNL A   1      41.727  28.934  26.106  1.00  0.00     0.029 A 
ATOM     50  N   UNL A   1      41.617  29.315  28.272  1.00  0.00    -0.354 N 
ATOM     51  N   UNL A   1      44.575  28.050  31.258  1.00  0.00    -0.248 NA
ATOM     52  C   UNL A   1      42.467  27.690  32.190  1.00  0.00     0.031 C 
ATOM     53  C   UNL A   1      43.045  28.987  26.661  1.00  0.00     0.029 A 
ATOM     54  C   UNL A   1      42.944  29.073  28.050  1.00  0.00     0.049 A 
ATOM     55  H   UNL A   1      41.246  29.737  29.081  1.00  0.00     0.167 HD
ATOM     56  C   UNL A   1      43.634  28.656  30.426  1.00  0.00     0.074 A 
ATOM     57  C   UNL A   1      42.359  28.497  31.129  1.00  0.00     0.031 C 
ATOM     58  C   UNL A   1      43.923  28.911  29.113  1.00  0.00     0.034 A 
BRANCH  45  59
ATOM     59  C   UNL A   1      38.625  28.766  28.478  1.00  0.00     0.023 A 
ATOM     60  C   UNL A   1      37.793  29.767  27.927  1.00  0.00     0.012 A 
ATOM     61  C   UNL A   1      38.584  28.633  29.884  1.00  0.00     0.148 A 
ATOM     62  C   UNL A   1      37.142  30.710  28.725  1.00  0.00     0.002 A 
ATOM     63  C   UNL A   1      37.967  29.590  30.681  1.00  0.00     0.091 A 
ATOM     64  F   UNL A   1      39.083  27.556  30.483  1.00  0.00    -0.205 F 
ATOM     65  C   UNL A   1      37.271  30.650  30.105  1.00  0.00     0.022 A 
BRANCH  63  66
ATOM     66  S   UNL A   1      38.116  29.571  32.476  1.00  0.00     0.127 S 
ATOM     67  O   UNL A   1      39.562  29.699  32.645  1.00  0.00    -0.237 OA
ATOM     68  O   UNL A   1      37.339  30.752  32.846  1.00  0.00    -0.237 OA
ATOM     69  O   UNL A   1      37.555  28.300  32.914  1.00  0.00    -0.744 OA
ENDBRANCH  63  66
ENDBRANCH  45  59
BRANCH  46  70
ATOM     70  C   UNL A   1      44.331  25.481  33.849  1.00  0.00     0.023 A 
ATOM     71  C   UNL A   1      43.155  25.375  34.619  1.00  0.00     0.012 A 
ATOM     72  C   UNL A   1      45.514  24.906  34.362  1.00  0.00     0.148 A 
ATOM     73  C   UNL A   1      43.143  24.678  35.835  1.00  0.00     0.002 A 
ATOM     74  C   UNL A   1      45.499  24.216  35.573  1.00  0.00     0.091 A 
ATOM     75  F   UNL A   1      46.627  24.953  33.621  1.00  0.00    -0.205 F 
ATOM     76  C   UNL A   1      44.312  24.089  36.305  1.00  0.00     0.022 A 
BRANCH  74  77
ATOM     77  S   UNL A   1      46.960  23.400  36.234  1.00  0.00     0.127 S 
ATOM     78  O   UNL A   1      46.460  22.863  37.499  1.00  0.00    -0.237 OA
ATOM     79  O   UNL A   1      47.235  22.396  35.209  1.00  0.00    -0.237 OA
ATOM     80  O   UNL A   1      47.966  24.444  36.378  1.00  0.00    -0.744 OA
ENDBRANCH  74  77
ENDBRANCH  46  70
BRANCH  58  81
ATOM     81  C   UNL A   1      45.367  28.821  28.676  1.00  0.00     0.023 A 
ATOM     82  C   UNL A   1      46.332  29.807  28.975  1.00  0.00     0.012 A 
ATOM     83  C   UNL A   1      45.792  27.624  28.079  1.00  0.00     0.148 A 
ATOM     84  C   UNL A   1      47.682  29.611  28.667  1.00  0.00     0.002 A 
ATOM     85  C   UNL A   1      47.139  27.413  27.813  1.00  0.00     0.091 A 
ATOM     86  F   UNL A   1      44.865  26.694  27.801  1.00  0.00    -0.205 F 
ATOM     87  C   UNL A   1      48.088  28.407  28.096  1.00  0.00     0.022 A 
BRANCH  85  88
ATOM     88  S   UNL A   1      47.729  25.839  27.187  1.00  0.00     0.127 S 
ATOM     89  O   UNL A   1      47.264  24.910  28.214  1.00  0.00    -0.237 OA
ATOM     90  O   UNL A   1      47.033  25.732  25.903  1.00  0.00    -0.237 OA
ATOM     91  O   UNL A   1      49.175  25.973  27.069  1.00  0.00    -0.744 OA
ENDBRANCH  85  88
ENDBRANCH  58  81
ENDBRANCH  32  33
ENDBRANCH  24  27
ENDBRANCH  22  23
ENDBRANCH   1  22
TORSDOF 15
ENDMDL
MODEL 3
REMARK VINA RESULT:     -12.2      4.309      9.555
REMARK SMILES Cc1nn(C(C)C)cc1-c1cnccc1C(=O)NCCCNC(=O)c1ccc(-c2c3nc(c(-c4cccc(S(=O)(=O)[O-])c4F)c4ccc([nH]4)c(-c4cccc(S(=O)(=O)[O-])c4F)c4nc(c(-c5cccc(S(=O)(=O)[O-])c5F)c5ccc2[nH]5)C=C4)C=C3)cc1
REMARK SMILES IDX 20 1 19 2 18 3 16 4 17 5 15 7 10 8 11 9 12 10 14 11 13 12
REMARK SMILES IDX 9 13 1 14 2 15 3 16 4 17 8 18 5 19 6 20 7 21 21 22 22 23
REMARK SMILES IDX 23 24 24 26 25 27 26 28 87 29 27 30 86 31 28 32 29 33 30 34
REMARK SMILES IDX 80 35 31 36 85 37 79 38 81 39 32 40 84 41 78 42 77 43 33 45
REMARK SMILES IDX 65 46 45 47 64 48 46 49 49 50 63 51 82 52 47 53 48 54 62 56
REMARK SMILES IDX 83 57 50 58 34 59 35 60 43 61 36 62 38 63 44 64 37 65 39 66
REMARK SMILES IDX 40 67 41 68 42 69 66 70 67 71 75 72 68 73 70 74 76 75 69 76
REMARK SMILES IDX 71 77 72 78 73 79 74 80 51 81 52 82 60 83 53 84 55 85 61 86
REMARK SMILES IDX 54 87 56 88 57 89 58 90 59 91
REMARK H PARENT 18 6 22 25 81 44 49 55
REMARK Flexibility Score: inf
ROOT
ATOM      1  C   UNL A   1      31.645  31.746  26.593  1.00  0.00     0.042 C 
ENDROOT
BRANCH   1   2
ATOM      2  C   UNL A   1      31.674  30.248  26.421  1.00  0.00     0.118 C 
BRANCH   2   3
ATOM      3  N   UNL A   1      32.542  29.559  25.525  1.00  0.00    -0.352 N 
ATOM      4  C   UNL A   1      32.160  29.192  24.246  1.00  0.00     0.252 C 
ATOM      5  O   UNL A   1      33.032  29.017  23.393  1.00  0.00    -0.269 OA
ATOM      6  H   UNL A   1      33.451  29.336  25.828  1.00  0.00     0.163 HD
BRANCH   4   7
ATOM      7  C   UNL A   1      30.741  28.838  23.873  1.00  0.00     0.050 A 
ATOM      8  C   UNL A   1      30.040  27.611  23.935  1.00  0.00     0.016 A 
ATOM      9  C   UNL A   1      28.721  27.626  23.461  1.00  0.00     0.120 A 
ATOM     10  N   UNL A   1      28.063  28.702  22.966  1.00  0.00    -0.264 NA
ATOM     11  C   UNL A   1      30.060  29.968  23.369  1.00  0.00     0.034 A 
ATOM     12  C   UNL A   1      28.754  29.853  22.933  1.00  0.00     0.112 A 
BRANCH   8  13
ATOM     13  C   UNL A   1      30.532  26.291  24.323  1.00  0.00     0.025 A 
ATOM     14  C   UNL A   1      32.146  25.674  22.321  1.00  0.00     0.069 C 
ATOM     15  C   UNL A   1      31.435  25.430  23.611  1.00  0.00     0.067 A 
ATOM     16  N   UNL A   1      31.751  24.349  24.332  1.00  0.00    -0.177 NA
ATOM     17  N   UNL A   1      31.064  24.488  25.482  1.00  0.00    -0.269 N 
ATOM     18  C   UNL A   1      30.315  25.642  25.522  1.00  0.00     0.118 A 
BRANCH  17  19
ATOM     19  C   UNL A   1      31.226  23.502  26.552  1.00  0.00     0.101 C 
ATOM     20  C   UNL A   1      29.896  22.922  27.041  1.00  0.00     0.033 C 
ATOM     21  C   UNL A   1      32.102  22.340  26.123  1.00  0.00     0.033 C 
ENDBRANCH  17  19
ENDBRANCH   8  13
ENDBRANCH   4   7
ENDBRANCH   2   3
ENDBRANCH   1   2
BRANCH   1  22
ATOM     22  C   UNL A   1      32.842  32.323  27.296  1.00  0.00     0.118 C 
BRANCH  22  23
ATOM     23  N   UNL A   1      32.709  33.748  27.672  1.00  0.00    -0.352 N 
ATOM     24  C   UNL A   1      33.227  34.445  28.769  1.00  0.00     0.251 C 
ATOM     25  H   UNL A   1      32.172  34.291  27.053  1.00  0.00     0.163 HD
ATOM     26  O   UNL A   1      32.887  35.566  29.092  1.00  0.00    -0.269 OA
BRANCH  24  27
ATOM     27  C   UNL A   1      34.328  33.802  29.469  1.00  0.00     0.039 A 
ATOM     28  C   UNL A   1      34.301  32.989  30.603  1.00  0.00     0.014 A 
ATOM     29  C   UNL A   1      35.544  34.106  28.933  1.00  0.00     0.014 A 
ATOM     30  C   UNL A   1      35.529  32.465  31.024  1.00  0.00     0.010 A 
ATOM     31  C   UNL A   1      36.352  33.048  28.878  1.00  0.00     0.010 A 
ATOM     32  C   UNL A   1      36.604  32.626  30.151  1.00  0.00    -0.014 A 
BRANCH  32  33
ATOM     33  C   UNL A   1      37.950  32.125  30.211  1.00  0.00     0.031 A 
ATOM     34  C   UNL A   1      38.036  30.805  29.543  1.00  0.00     0.074 A 
ATOM     35  C   UNL A   1      38.985  32.992  30.284  1.00  0.00     0.049 A 
ATOM     36  N   UNL A   1      37.652  29.681  30.069  1.00  0.00    -0.248 NA
ATOM     37  C   UNL A   1      38.116  30.766  28.060  1.00  0.00     0.031 C 
ATOM     38  C   UNL A   1      38.996  34.462  30.354  1.00  0.00     0.029 A 
ATOM     39  N   UNL A   1      40.295  32.701  30.159  1.00  0.00    -0.354 N 
ATOM     40  C   UNL A   1      37.840  28.768  29.044  1.00  0.00     0.074 A 
ATOM     41  C   UNL A   1      37.625  29.541  27.857  1.00  0.00     0.031 C 
ATOM     42  C   UNL A   1      40.245  34.919  30.089  1.00  0.00     0.029 A 
ATOM     43  C   UNL A   1      41.139  33.783  29.964  1.00  0.00     0.049 A 
ATOM     44  H   UNL A   1      40.632  31.778  30.205  1.00  0.00     0.167 HD
ATOM     45  C   UNL A   1      38.691  27.708  29.208  1.00  0.00     0.034 A 
ATOM     46  C   UNL A   1      42.459  33.692  29.662  1.00  0.00     0.034 A 
ATOM     47  C   UNL A   1      39.183  27.695  30.587  1.00  0.00     0.049 A 
ATOM     48  C   UNL A   1      42.874  32.298  30.001  1.00  0.00     0.074 A 
ATOM     49  C   UNL A   1      38.601  27.706  31.841  1.00  0.00     0.029 A 
ATOM     50  N   UNL A   1      40.471  28.162  30.771  1.00  0.00    -0.354 N 
ATOM     51  N   UNL A   1      42.861  31.816  31.214  1.00  0.00    -0.248 NA
ATOM     52  C   UNL A   1      42.814  31.303  28.939  1.00  0.00     0.031 C 
ATOM     53  C   UNL A   1      39.415  28.579  32.629  1.00  0.00     0.029 A 
ATOM     54  C   UNL A   1      40.516  28.976  31.869  1.00  0.00     0.049 A 
ATOM     55  H   UNL A   1      41.240  27.943  30.196  1.00  0.00     0.167 HD
ATOM     56  C   UNL A   1      42.309  30.544  31.078  1.00  0.00     0.074 A 
ATOM     57  C   UNL A   1      42.421  30.239  29.649  1.00  0.00     0.031 C 
ATOM     58  C   UNL A   1      41.512  30.018  32.058  1.00  0.00     0.034 A 
BRANCH  45  59
ATOM     59  C   UNL A   1      39.516  27.047  28.099  1.00  0.00     0.023 A 
ATOM     60  C   UNL A   1      39.438  25.638  28.034  1.00  0.00     0.012 A 
ATOM     61  C   UNL A   1      40.517  27.648  27.305  1.00  0.00     0.148 A 
ATOM     62  C   UNL A   1      40.422  24.871  27.407  1.00  0.00     0.002 A 
ATOM     63  C   UNL A   1      41.518  26.888  26.709  1.00  0.00     0.091 A 
ATOM     64  F   UNL A   1      40.500  28.954  27.055  1.00  0.00    -0.205 F 
ATOM     65  C   UNL A   1      41.492  25.498  26.785  1.00  0.00     0.022 A 
BRANCH  63  66
ATOM     66  S   UNL A   1      42.938  27.651  25.905  1.00  0.00     0.127 S 
ATOM     67  O   UNL A   1      43.794  26.489  25.673  1.00  0.00    -0.237 OA
ATOM     68  O   UNL A   1      42.324  28.221  24.708  1.00  0.00    -0.237 OA
ATOM     69  O   UNL A   1      43.464  28.625  26.853  1.00  0.00    -0.744 OA
ENDBRANCH  63  66
ENDBRANCH  45  59
BRANCH  46  70
ATOM     70  C   UNL A   1      43.343  34.592  28.883  1.00  0.00     0.023 A 
ATOM     71  C   UNL A   1      43.644  34.272  27.543  1.00  0.00     0.012 A 
ATOM     72  C   UNL A   1      43.652  35.892  29.340  1.00  0.00     0.148 A 
ATOM     73  C   UNL A   1      44.189  35.227  26.674  1.00  0.00     0.002 A 
ATOM     74  C   UNL A   1      44.196  36.837  28.473  1.00  0.00     0.091 A 
ATOM     75  F   UNL A   1      43.326  36.228  30.594  1.00  0.00    -0.205 F 
ATOM     76  C   UNL A   1      44.453  36.512  27.135  1.00  0.00     0.022 A 
BRANCH  74  77
ATOM     77  S   UNL A   1      44.538  38.529  28.985  1.00  0.00     0.127 S 
ATOM     78  O   UNL A   1      43.213  38.994  29.393  1.00  0.00    -0.237 OA
ATOM     79  O   UNL A   1      45.481  38.327  30.081  1.00  0.00    -0.237 OA
ATOM     80  O   UNL A   1      45.074  39.198  27.807  1.00  0.00    -0.744 OA
ENDBRANCH  74  77
ENDBRANCH  46  70
BRANCH  58  81
ATOM     81  C   UNL A   1      41.509  30.700  33.407  1.00  0.00     0.023 A 
ATOM     82  C   UNL A   1      42.575  30.606  34.328  1.00  0.00     0.012 A 
ATOM     83  C   UNL A   1      40.458  31.590  33.683  1.00  0.00     0.148 A 
ATOM     84  C   UNL A   1      42.581  31.365  35.502  1.00  0.00     0.002 A 
ATOM     85  C   UNL A   1      40.489  32.375  34.829  1.00  0.00     0.091 A 
ATOM     86  F   UNL A   1      39.452  31.671  32.799  1.00  0.00    -0.205 F 
ATOM     87  C   UNL A   1      41.543  32.260  35.747  1.00  0.00     0.022 A 
BRANCH  85  88
ATOM     88  S   UNL A   1      39.238  33.625  35.133  1.00  0.00     0.127 S 
ATOM     89  O   UNL A   1      38.034  32.815  35.301  1.00  0.00    -0.237 OA
ATOM     90  O   UNL A   1      39.724  34.263  36.357  1.00  0.00    -0.237 OA
ATOM     91  O   UNL A   1      39.251  34.495  33.964  1.00  0.00    -0.744 OA
ENDBRANCH  85  88
ENDBRANCH  58  81
ENDBRANCH  32  33
ENDBRANCH  24  27
ENDBRANCH  22  23
ENDBRANCH   1  22
TORSDOF 15
ENDMDL
