MODEL 1
REMARK VINA RESULT:     -12.4      0.000      0.000
REMARK SMILES C[C@@H](C(=O)NCCCNC(=O)c1ccc(-c2c3nc(c(-c4cccc(S(=O)(=O)[O-])c4F)c4ccc([nH]4)c(-c4cccc(S(=O)(=O)[O-])c4F)c4nc(c(-c5cccc(S(=O)(=O)[O-])c5F)c5ccc2[nH]5)C=C4)C=C3)cc1)c1ccc2c3cc(Cl)ccc3n(C(=O)c3cocn3)c2c1
REMARK SMILES IDX 7 1 6 2 5 3 3 4 4 5 2 7 1 8 75 9 76 10 95 11 77 12 94 13
REMARK SMILES IDX 78 14 86 15 79 16 85 17 80 18 84 19 81 20 83 21 82 22 87 23
REMARK SMILES IDX 88 24 89 25 90 26 93 27 91 28 92 29 8 30 9 31 10 32 11 34
REMARK SMILES IDX 12 35 13 36 74 37 14 38 73 39 15 40 16 41 17 42 67 43 18 44
REMARK SMILES IDX 72 45 66 46 68 47 19 48 71 49 65 50 64 51 20 53 52 54 32 55
REMARK SMILES IDX 51 56 33 57 36 58 50 59 69 60 34 61 35 62 49 64 70 65 37 66
REMARK SMILES IDX 21 67 22 68 30 69 23 70 25 71 31 72 24 73 26 74 27 75 28 76
REMARK SMILES IDX 29 77 53 78 54 79 62 80 55 81 57 82 63 83 56 84 58 85 59 86
REMARK SMILES IDX 60 87 61 88 38 89 39 90 47 91 40 92 42 93 48 94 41 95 43 96
REMARK SMILES IDX 44 97 45 98 46 99
REMARK H PARENT 5 6 9 33 68 52 36 63
REMARK Flexibility Score: inf
ROOT
ATOM      1  C   UNL A   1      31.979  28.170  27.497  1.00  0.00     0.042 C 
ENDROOT
BRANCH   1   2
ATOM      2  C   UNL A   1      31.475  27.233  26.401  1.00  0.00     0.117 C 
BRANCH   2   3
ATOM      3  N   UNL A   1      31.108  27.948  25.195  1.00  0.00    -0.356 N 
ATOM      4  C   UNL A   1      31.780  28.119  24.021  1.00  0.00     0.227 C 
ATOM      5  O   UNL A   1      31.214  28.798  23.161  1.00  0.00    -0.274 OA
ATOM      6  H   UNL A   1      30.225  28.383  25.229  1.00  0.00     0.163 HD
BRANCH   4   7
ATOM      7  C   UNL A   1      33.149  27.447  23.801  1.00  0.00     0.105 C 
ATOM      8  C   UNL A   1      33.880  28.009  22.576  1.00  0.00     0.023 C 
BRANCH   7   9
ATOM      9  C   UNL A   1      33.019  25.929  23.673  1.00  0.00    -0.034 A 
ATOM     10  C   UNL A   1      32.133  25.360  22.757  1.00  0.00     0.005 A 
ATOM     11  C   UNL A   1      33.809  25.089  24.477  1.00  0.00     0.032 A 
ATOM     12  C   UNL A   1      32.032  23.970  22.626  1.00  0.00     0.011 A 
ATOM     13  C   UNL A   1      33.677  23.693  24.369  1.00  0.00     0.058 A 
ATOM     14  C   UNL A   1      32.821  23.122  23.434  1.00  0.00     0.008 A 
ATOM     15  N   UNL A   1      34.333  22.668  25.058  1.00  0.00    -0.274 N 
ATOM     16  C   UNL A   1      32.960  21.710  23.538  1.00  0.00     0.009 A 
ATOM     17  C   UNL A   1      33.873  21.438  24.566  1.00  0.00     0.057 A 
ATOM     18  C   UNL A   1      32.347  20.637  22.852  1.00  0.00     0.031 A 
ATOM     19  C   UNL A   1      34.118  20.112  24.977  1.00  0.00     0.029 A 
ATOM     20  C   UNL A   1      32.633  19.327  23.231  1.00  0.00     0.041 A 
ATOM     21  C   UNL A   1      33.496  19.065  24.285  1.00  0.00     0.023 A 
ATOM     22  Cl  UNL A   1      31.879  18.021  22.401  1.00  0.00    -0.084 Cl
BRANCH  15  23
ATOM     23  C   UNL A   1      35.259  22.887  26.112  1.00  0.00     0.284 C 
ATOM     24  O   UNL A   1      34.770  23.193  27.200  1.00  0.00    -0.266 OA
BRANCH  23  25
ATOM     25  C   UNL A   1      36.708  22.801  25.963  1.00  0.00     0.167 A 
ATOM     26  C   UNL A   1      37.672  23.701  26.369  1.00  0.00     0.231 A 
ATOM     27  N   UNL A   1      37.345  21.674  25.464  1.00  0.00    -0.211 NA
ATOM     28  O   UNL A   1      38.900  23.163  26.119  1.00  0.00    -0.451 OA
ATOM     29  C   UNL A   1      38.622  21.937  25.599  1.00  0.00     0.308 A 
ENDBRANCH  23  25
ENDBRANCH  15  23
ENDBRANCH   7   9
ENDBRANCH   4   7
ENDBRANCH   2   3
ENDBRANCH   1   2
BRANCH   1  30
ATOM     30  C   UNL A   1      33.414  28.662  27.312  1.00  0.00     0.118 C 
BRANCH  30  31
ATOM     31  N   UNL A   1      33.526  30.111  27.355  1.00  0.00    -0.352 N 
ATOM     32  C   UNL A   1      34.510  30.917  27.868  1.00  0.00     0.251 C 
ATOM     33  H   UNL A   1      32.770  30.594  26.948  1.00  0.00     0.163 HD
ATOM     34  O   UNL A   1      34.302  32.127  27.944  1.00  0.00    -0.269 OA
BRANCH  32  35
ATOM     35  C   UNL A   1      35.800  30.363  28.341  1.00  0.00     0.039 A 
ATOM     36  C   UNL A   1      36.907  30.443  27.491  1.00  0.00     0.014 A 
ATOM     37  C   UNL A   1      35.920  29.714  29.575  1.00  0.00     0.014 A 
ATOM     38  C   UNL A   1      38.140  29.921  27.895  1.00  0.00     0.010 A 
ATOM     39  C   UNL A   1      37.165  29.251  30.004  1.00  0.00     0.010 A 
ATOM     40  C   UNL A   1      38.286  29.341  29.166  1.00  0.00    -0.014 A 
BRANCH  40  41
ATOM     41  C   UNL A   1      39.612  28.853  29.625  1.00  0.00     0.031 A 
ATOM     42  C   UNL A   1      40.356  29.553  30.730  1.00  0.00     0.074 A 
ATOM     43  C   UNL A   1      40.177  27.798  29.003  1.00  0.00     0.049 A 
ATOM     44  N   UNL A   1      41.503  29.238  31.276  1.00  0.00    -0.248 NA
ATOM     45  C   UNL A   1      39.747  30.776  31.278  1.00  0.00     0.031 C 
ATOM     46  C   UNL A   1      39.605  27.092  27.854  1.00  0.00     0.029 A 
ATOM     47  N   UNL A   1      41.361  27.147  29.237  1.00  0.00    -0.354 N 
ATOM     48  C   UNL A   1      41.767  30.232  32.212  1.00  0.00     0.074 A 
ATOM     49  C   UNL A   1      40.675  31.180  32.136  1.00  0.00     0.031 C 
ATOM     50  C   UNL A   1      40.434  26.100  27.491  1.00  0.00     0.029 A 
ATOM     51  C   UNL A   1      41.598  26.105  28.372  1.00  0.00     0.049 A 
ATOM     52  H   UNL A   1      41.984  27.402  29.956  1.00  0.00     0.167 HD
ATOM     53  C   UNL A   1      42.801  30.330  33.082  1.00  0.00     0.034 A 
ATOM     54  C   UNL A   1      42.629  25.239  28.302  1.00  0.00     0.034 A 
ATOM     55  C   UNL A   1      43.860  29.361  33.191  1.00  0.00     0.049 A 
ATOM     56  C   UNL A   1      43.725  25.323  29.328  1.00  0.00     0.074 A 
ATOM     57  C   UNL A   1      44.901  29.322  34.101  1.00  0.00     0.029 A 
ATOM     58  N   UNL A   1      44.015  28.261  32.361  1.00  0.00    -0.354 N 
ATOM     59  N   UNL A   1      43.858  26.163  30.326  1.00  0.00    -0.248 NA
ATOM     60  C   UNL A   1      44.790  24.312  29.247  1.00  0.00     0.031 C 
ATOM     61  C   UNL A   1      45.689  28.200  33.819  1.00  0.00     0.029 A 
ATOM     62  C   UNL A   1      45.135  27.538  32.736  1.00  0.00     0.049 A 
ATOM     63  H   UNL A   1      43.416  28.028  31.615  1.00  0.00     0.167 HD
ATOM     64  C   UNL A   1      45.006  25.770  31.004  1.00  0.00     0.074 A 
ATOM     65  C   UNL A   1      45.512  24.595  30.323  1.00  0.00     0.031 C 
ATOM     66  C   UNL A   1      45.601  26.343  32.079  1.00  0.00     0.034 A 
BRANCH  53  67
ATOM     67  C   UNL A   1      42.795  31.488  34.045  1.00  0.00     0.023 A 
ATOM     68  C   UNL A   1      43.390  32.705  33.654  1.00  0.00     0.012 A 
ATOM     69  C   UNL A   1      42.159  31.401  35.297  1.00  0.00     0.148 A 
ATOM     70  C   UNL A   1      43.378  33.809  34.506  1.00  0.00     0.002 A 
ATOM     71  C   UNL A   1      42.119  32.517  36.127  1.00  0.00     0.091 A 
ATOM     72  F   UNL A   1      41.620  30.228  35.663  1.00  0.00    -0.205 F 
ATOM     73  C   UNL A   1      42.735  33.718  35.736  1.00  0.00     0.022 A 
BRANCH  71  74
ATOM     74  S   UNL A   1      41.254  32.519  37.702  1.00  0.00     0.127 S 
ATOM     75  O   UNL A   1      41.281  33.939  38.052  1.00  0.00    -0.237 OA
ATOM     76  O   UNL A   1      39.933  32.008  37.333  1.00  0.00    -0.237 OA
ATOM     77  O   UNL A   1      42.018  31.640  38.576  1.00  0.00    -0.744 OA
ENDBRANCH  71  74
ENDBRANCH  53  67
BRANCH  54  78
ATOM     78  C   UNL A   1      42.613  24.155  27.281  1.00  0.00     0.023 A 
ATOM     79  C   UNL A   1      43.166  24.401  26.009  1.00  0.00     0.012 A 
ATOM     80  C   UNL A   1      42.103  22.876  27.573  1.00  0.00     0.148 A 
ATOM     81  C   UNL A   1      43.189  23.399  25.038  1.00  0.00     0.002 A 
ATOM     82  C   UNL A   1      42.179  21.867  26.619  1.00  0.00     0.091 A 
ATOM     83  F   UNL A   1      41.565  22.666  28.783  1.00  0.00    -0.205 F 
ATOM     84  C   UNL A   1      42.708  22.130  25.346  1.00  0.00     0.022 A 
BRANCH  82  85
ATOM     85  S   UNL A   1      41.710  20.172  26.988  1.00  0.00     0.127 S 
ATOM     86  O   UNL A   1      41.576  19.600  25.652  1.00  0.00    -0.237 OA
ATOM     87  O   UNL A   1      42.862  19.692  27.752  1.00  0.00    -0.237 OA
ATOM     88  O   UNL A   1      40.483  20.275  27.768  1.00  0.00    -0.744 OA
ENDBRANCH  82  85
ENDBRANCH  54  78
BRANCH  66  89
ATOM     89  C   UNL A   1      46.869  25.710  32.588  1.00  0.00     0.023 A 
ATOM     90  C   UNL A   1      48.107  26.123  32.056  1.00  0.00     0.012 A 
ATOM     91  C   UNL A   1      46.844  24.752  33.619  1.00  0.00     0.148 A 
ATOM     92  C   UNL A   1      49.299  25.569  32.522  1.00  0.00     0.002 A 
ATOM     93  C   UNL A   1      48.040  24.235  34.107  1.00  0.00     0.091 A 
ATOM     94  F   UNL A   1      45.657  24.352  34.097  1.00  0.00    -0.205 F 
ATOM     95  C   UNL A   1      49.267  24.634  33.554  1.00  0.00     0.022 A 
BRANCH  93  96
ATOM     96  S   UNL A   1      48.080  23.089  35.491  1.00  0.00     0.127 S 
ATOM     97  O   UNL A   1      49.511  22.828  35.626  1.00  0.00    -0.237 OA
ATOM     98  O   UNL A   1      47.501  23.882  36.577  1.00  0.00    -0.237 OA
ATOM     99  O   UNL A   1      47.263  21.955  35.081  1.00  0.00    -0.744 OA
ENDBRANCH  93  96
ENDBRANCH  66  89
ENDBRANCH  40  41
ENDBRANCH  32  35
ENDBRANCH  30  31
ENDBRANCH   1  30
TORSDOF 16
ENDMDL
MODEL 2
REMARK VINA RESULT:     -11.9      3.074      4.133
REMARK SMILES C[C@@H](C(=O)NCCCNC(=O)c1ccc(-c2c3nc(c(-c4cccc(S(=O)(=O)[O-])c4F)c4ccc([nH]4)c(-c4cccc(S(=O)(=O)[O-])c4F)c4nc(c(-c5cccc(S(=O)(=O)[O-])c5F)c5ccc2[nH]5)C=C4)C=C3)cc1)c1ccc2c3cc(Cl)ccc3n(C(=O)c3cocn3)c2c1
REMARK SMILES IDX 7 1 6 2 5 3 3 4 4 5 2 7 1 8 75 9 76 10 95 11 77 12 94 13
REMARK SMILES IDX 78 14 86 15 79 16 85 17 80 18 84 19 81 20 83 21 82 22 87 23
REMARK SMILES IDX 88 24 89 25 90 26 93 27 91 28 92 29 8 30 9 31 10 32 11 34
REMARK SMILES IDX 12 35 13 36 74 37 14 38 73 39 15 40 16 41 17 42 67 43 18 44
REMARK SMILES IDX 72 45 66 46 68 47 19 48 71 49 65 50 64 51 20 53 52 54 32 55
REMARK SMILES IDX 51 56 33 57 36 58 50 59 69 60 34 61 35 62 49 64 70 65 37 66
REMARK SMILES IDX 21 67 22 68 30 69 23 70 25 71 31 72 24 73 26 74 27 75 28 76
REMARK SMILES IDX 29 77 53 78 54 79 62 80 55 81 57 82 63 83 56 84 58 85 59 86
REMARK SMILES IDX 60 87 61 88 38 89 39 90 47 91 40 92 42 93 48 94 41 95 43 96
REMARK SMILES IDX 44 97 45 98 46 99
REMARK H PARENT 5 6 9 33 68 52 36 63
REMARK Flexibility Score: inf
ROOT
ATOM      1  C   UNL A   1      33.058  28.030  26.735  1.00  0.00     0.042 C 
ENDROOT
BRANCH   1   2
ATOM      2  C   UNL A   1      31.628  27.937  26.207  1.00  0.00     0.117 C 
BRANCH   2   3
ATOM      3  N   UNL A   1      30.955  26.735  26.655  1.00  0.00    -0.356 N 
ATOM      4  C   UNL A   1      30.810  25.518  26.056  1.00  0.00     0.227 C 
ATOM      5  O   UNL A   1      30.165  24.674  26.682  1.00  0.00    -0.274 OA
ATOM      6  H   UNL A   1      30.530  26.808  27.541  1.00  0.00     0.163 HD
BRANCH   4   7
ATOM      7  C   UNL A   1      31.470  25.238  24.693  1.00  0.00     0.105 C 
ATOM      8  C   UNL A   1      30.534  24.482  23.741  1.00  0.00     0.023 C 
BRANCH   7   9
ATOM      9  C   UNL A   1      32.781  24.467  24.848  1.00  0.00    -0.034 A 
ATOM     10  C   UNL A   1      33.958  25.121  25.216  1.00  0.00     0.005 A 
ATOM     11  C   UNL A   1      32.807  23.079  24.629  1.00  0.00     0.032 A 
ATOM     12  C   UNL A   1      35.153  24.410  25.380  1.00  0.00     0.011 A 
ATOM     13  C   UNL A   1      34.018  22.374  24.758  1.00  0.00     0.058 A 
ATOM     14  C   UNL A   1      35.184  23.015  25.159  1.00  0.00     0.008 A 
ATOM     15  N   UNL A   1      34.294  21.015  24.582  1.00  0.00    -0.274 N 
ATOM     16  C   UNL A   1      36.204  22.027  25.246  1.00  0.00     0.009 A 
ATOM     17  C   UNL A   1      35.652  20.799  24.857  1.00  0.00     0.057 A 
ATOM     18  C   UNL A   1      37.571  22.094  25.597  1.00  0.00     0.031 A 
ATOM     19  C   UNL A   1      36.464  19.654  24.730  1.00  0.00     0.029 A 
ATOM     20  C   UNL A   1      38.358  20.947  25.517  1.00  0.00     0.041 A 
ATOM     21  C   UNL A   1      37.817  19.745  25.079  1.00  0.00     0.023 A 
ATOM     22  Cl  UNL A   1      40.025  21.031  25.935  1.00  0.00    -0.084 Cl
BRANCH  15  23
ATOM     23  C   UNL A   1      33.337  20.062  24.142  1.00  0.00     0.284 C 
ATOM     24  O   UNL A   1      32.529  20.461  23.303  1.00  0.00    -0.266 OA
BRANCH  23  25
ATOM     25  C   UNL A   1      33.252  18.693  24.640  1.00  0.00     0.167 A 
ATOM     26  C   UNL A   1      33.896  17.565  24.175  1.00  0.00     0.231 A 
ATOM     27  N   UNL A   1      32.555  18.355  25.791  1.00  0.00    -0.211 NA
ATOM     28  O   UNL A   1      33.602  16.524  25.007  1.00  0.00    -0.451 OA
ATOM     29  C   UNL A   1      32.813  17.081  25.964  1.00  0.00     0.308 A 
ENDBRANCH  23  25
ENDBRANCH  15  23
ENDBRANCH   7   9
ENDBRANCH   4   7
ENDBRANCH   2   3
ENDBRANCH   1   2
BRANCH   1  30
ATOM     30  C   UNL A   1      33.932  29.075  26.044  1.00  0.00     0.118 C 
BRANCH  30  31
ATOM     31  N   UNL A   1      33.583  30.438  26.411  1.00  0.00    -0.352 N 
ATOM     32  C   UNL A   1      34.072  31.251  27.401  1.00  0.00     0.251 C 
ATOM     33  H   UNL A   1      32.878  30.844  25.856  1.00  0.00     0.163 HD
ATOM     34  O   UNL A   1      33.496  32.313  27.632  1.00  0.00    -0.269 OA
BRANCH  32  35
ATOM     35  C   UNL A   1      35.261  30.871  28.201  1.00  0.00     0.039 A 
ATOM     36  C   UNL A   1      36.419  31.643  28.072  1.00  0.00     0.014 A 
ATOM     37  C   UNL A   1      35.271  29.739  29.022  1.00  0.00     0.014 A 
ATOM     38  C   UNL A   1      37.566  31.312  28.799  1.00  0.00     0.010 A 
ATOM     39  C   UNL A   1      36.395  29.447  29.797  1.00  0.00     0.010 A 
ATOM     40  C   UNL A   1      37.557  30.224  29.688  1.00  0.00    -0.014 A 
BRANCH  40  41
ATOM     41  C   UNL A   1      38.751  29.916  30.516  1.00  0.00     0.031 A 
ATOM     42  C   UNL A   1      38.948  30.561  31.862  1.00  0.00     0.074 A 
ATOM     43  C   UNL A   1      39.696  29.086  30.028  1.00  0.00     0.049 A 
ATOM     44  N   UNL A   1      39.912  30.376  32.728  1.00  0.00    -0.248 NA
ATOM     45  C   UNL A   1      37.950  31.557  32.281  1.00  0.00     0.031 C 
ATOM     46  C   UNL A   1      39.672  28.473  28.698  1.00  0.00     0.029 A 
ATOM     47  N   UNL A   1      40.863  28.628  30.585  1.00  0.00    -0.354 N 
ATOM     48  C   UNL A   1      39.652  31.247  33.781  1.00  0.00     0.074 A 
ATOM     49  C   UNL A   1      38.458  31.985  33.429  1.00  0.00     0.031 C 
ATOM     50  C   UNL A   1      40.768  27.711  28.547  1.00  0.00     0.029 A 
ATOM     51  C   UNL A   1      41.574  27.789  29.760  1.00  0.00     0.049 A 
ATOM     52  H   UNL A   1      41.163  28.878  31.489  1.00  0.00     0.167 HD
ATOM     53  C   UNL A   1      40.322  31.394  34.949  1.00  0.00     0.034 A 
ATOM     54  C   UNL A   1      42.739  27.142  29.963  1.00  0.00     0.034 A 
ATOM     55  C   UNL A   1      41.481  30.624  35.319  1.00  0.00     0.049 A 
ATOM     56  C   UNL A   1      43.421  27.263  31.297  1.00  0.00     0.074 A 
ATOM     57  C   UNL A   1      42.174  30.633  36.517  1.00  0.00     0.029 A 
ATOM     58  N   UNL A   1      42.118  29.709  34.497  1.00  0.00    -0.354 N 
ATOM     59  N   UNL A   1      43.055  27.951  32.352  1.00  0.00    -0.248 NA
ATOM     60  C   UNL A   1      44.653  26.482  31.487  1.00  0.00     0.031 C 
ATOM     61  C   UNL A   1      43.235  29.725  36.416  1.00  0.00     0.029 A 
ATOM     62  C   UNL A   1      43.199  29.148  35.157  1.00  0.00     0.049 A 
ATOM     63  H   UNL A   1      41.844  29.489  33.577  1.00  0.00     0.167 HD
ATOM     64  C   UNL A   1      43.997  27.670  33.335  1.00  0.00     0.074 A 
ATOM     65  C   UNL A   1      44.930  26.722  32.761  1.00  0.00     0.031 C 
ATOM     66  C   UNL A   1      44.093  28.170  34.592  1.00  0.00     0.034 A 
BRANCH  53  67
ATOM     67  C   UNL A   1      39.769  32.372  35.952  1.00  0.00     0.023 A 
ATOM     68  C   UNL A   1      38.857  31.913  36.924  1.00  0.00     0.012 A 
ATOM     69  C   UNL A   1      40.186  33.716  35.976  1.00  0.00     0.148 A 
ATOM     70  C   UNL A   1      38.346  32.782  37.887  1.00  0.00     0.002 A 
ATOM     71  C   UNL A   1      39.700  34.569  36.963  1.00  0.00     0.091 A 
ATOM     72  F   UNL A   1      41.036  34.142  35.030  1.00  0.00    -0.205 F 
ATOM     73  C   UNL A   1      38.775  34.106  37.912  1.00  0.00     0.022 A 
BRANCH  71  74
ATOM     74  S   UNL A   1      40.247  36.274  37.121  1.00  0.00     0.127 S 
ATOM     75  O   UNL A   1      39.426  36.744  38.236  1.00  0.00    -0.237 OA
ATOM     76  O   UNL A   1      41.668  36.118  37.434  1.00  0.00    -0.237 OA
ATOM     77  O   UNL A   1      39.978  36.898  35.832  1.00  0.00    -0.744 OA
ENDBRANCH  71  74
ENDBRANCH  53  67
BRANCH  54  78
ATOM     78  C   UNL A   1      43.274  26.241  28.904  1.00  0.00     0.023 A 
ATOM     79  C   UNL A   1      42.834  24.904  28.851  1.00  0.00     0.012 A 
ATOM     80  C   UNL A   1      44.172  26.707  27.925  1.00  0.00     0.148 A 
ATOM     81  C   UNL A   1      43.295  24.042  27.857  1.00  0.00     0.002 A 
ATOM     82  C   UNL A   1      44.586  25.857  26.905  1.00  0.00     0.091 A 
ATOM     83  F   UNL A   1      44.594  27.977  28.001  1.00  0.00    -0.205 F 
ATOM     84  C   UNL A   1      44.160  24.520  26.878  1.00  0.00     0.022 A 
BRANCH  82  85
ATOM     85  S   UNL A   1      45.587  26.437  25.530  1.00  0.00     0.127 S 
ATOM     86  O   UNL A   1      44.811  27.578  25.055  1.00  0.00    -0.237 OA
ATOM     87  O   UNL A   1      46.848  26.781  26.190  1.00  0.00    -0.237 OA
ATOM     88  O   UNL A   1      45.683  25.303  24.621  1.00  0.00    -0.744 OA
ENDBRANCH  82  85
ENDBRANCH  54  78
BRANCH  66  89
ATOM     89  C   UNL A   1      45.250  27.702  35.436  1.00  0.00     0.023 A 
ATOM     90  C   UNL A   1      46.479  28.386  35.359  1.00  0.00     0.012 A 
ATOM     91  C   UNL A   1      45.109  26.630  36.337  1.00  0.00     0.148 A 
ATOM     92  C   UNL A   1      47.562  27.989  36.143  1.00  0.00     0.002 A 
ATOM     93  C   UNL A   1      46.181  26.267  37.146  1.00  0.00     0.091 A 
ATOM     94  F   UNL A   1      43.941  25.975  36.381  1.00  0.00    -0.205 F 
ATOM     95  C   UNL A   1      47.410  26.938  37.043  1.00  0.00     0.022 A 
BRANCH  93  96
ATOM     96  S   UNL A   1      46.034  24.976  38.388  1.00  0.00     0.127 S 
ATOM     97  O   UNL A   1      47.389  24.923  38.930  1.00  0.00    -0.237 OA
ATOM     98  O   UNL A   1      45.034  25.529  39.304  1.00  0.00    -0.237 OA
ATOM     99  O   UNL A   1      45.590  23.791  37.667  1.00  0.00    -0.744 OA
ENDBRANCH  93  96
ENDBRANCH  66  89
ENDBRANCH  40  41
ENDBRANCH  32  35
ENDBRANCH  30  31
ENDBRANCH   1  30
TORSDOF 16
ENDMDL
MODEL 3
REMARK VINA RESULT:     -11.8      2.549      3.649
REMARK SMILES C[C@@H](C(=O)NCCCNC(=O)c1ccc(-c2c3nc(c(-c4cccc(S(=O)(=O)[O-])c4F)c4ccc([nH]4)c(-c4cccc(S(=O)(=O)[O-])c4F)c4nc(c(-c5cccc(S(=O)(=O)[O-])c5F)c5ccc2[nH]5)C=C4)C=C3)cc1)c1ccc2c3cc(Cl)ccc3n(C(=O)c3cocn3)c2c1
REMARK SMILES IDX 7 1 6 2 5 3 3 4 4 5 2 7 1 8 75 9 76 10 95 11 77 12 94 13
REMARK SMILES IDX 78 14 86 15 79 16 85 17 80 18 84 19 81 20 83 21 82 22 87 23
REMARK SMILES IDX 88 24 89 25 90 26 93 27 91 28 92 29 8 30 9 31 10 32 11 34
REMARK SMILES IDX 12 35 13 36 74 37 14 38 73 39 15 40 16 41 17 42 67 43 18 44
REMARK SMILES IDX 72 45 66 46 68 47 19 48 71 49 65 50 64 51 20 53 52 54 32 55
REMARK SMILES IDX 51 56 33 57 36 58 50 59 69 60 34 61 35 62 49 64 70 65 37 66
REMARK SMILES IDX 21 67 22 68 30 69 23 70 25 71 31 72 24 73 26 74 27 75 28 76
REMARK SMILES IDX 29 77 53 78 54 79 62 80 55 81 57 82 63 83 56 84 58 85 59 86
REMARK SMILES IDX 60 87 61 88 38 89 39 90 47 91 40 92 42 93 48 94 41 95 43 96
REMARK SMILES IDX 44 97 45 98 46 99
REMARK H PARENT 5 6 9 33 68 52 36 63
REMARK Flexibility Score: inf
ROOT
ATOM      1  C   UNL A   1      31.709  29.092  26.404  1.00  0.00     0.042 C 
ENDROOT
BRANCH   1   2
ATOM      2  C   UNL A   1      32.275  27.764  26.905  1.00  0.00     0.117 C 
BRANCH   2   3
ATOM      3  N   UNL A   1      31.255  26.741  27.016  1.00  0.00    -0.356 N 
ATOM      4  C   UNL A   1      30.841  25.795  26.126  1.00  0.00     0.227 C 
ATOM      5  O   UNL A   1      29.928  25.054  26.500  1.00  0.00    -0.274 OA
ATOM      6  H   UNL A   1      30.780  26.726  27.879  1.00  0.00     0.163 HD
BRANCH   4   7
ATOM      7  C   UNL A   1      31.530  25.659  24.755  1.00  0.00     0.105 C 
ATOM      8  C   UNL A   1      30.566  25.170  23.667  1.00  0.00     0.023 C 
BRANCH   7   9
ATOM      9  C   UNL A   1      32.745  24.734  24.823  1.00  0.00    -0.034 A 
ATOM     10  C   UNL A   1      34.039  25.254  24.882  1.00  0.00     0.005 A 
ATOM     11  C   UNL A   1      32.564  23.340  24.838  1.00  0.00     0.032 A 
ATOM     12  C   UNL A   1      35.150  24.405  24.967  1.00  0.00     0.011 A 
ATOM     13  C   UNL A   1      33.684  22.491  24.885  1.00  0.00     0.058 A 
ATOM     14  C   UNL A   1      34.972  23.004  24.980  1.00  0.00     0.008 A 
ATOM     15  N   UNL A   1      33.757  21.095  24.896  1.00  0.00    -0.274 N 
ATOM     16  C   UNL A   1      35.864  21.899  25.065  1.00  0.00     0.009 A 
ATOM     17  C   UNL A   1      35.107  20.723  24.981  1.00  0.00     0.057 A 
ATOM     18  C   UNL A   1      37.270  21.813  25.174  1.00  0.00     0.031 A 
ATOM     19  C   UNL A   1      35.739  19.464  24.917  1.00  0.00     0.029 A 
ATOM     20  C   UNL A   1      37.886  20.563  25.161  1.00  0.00     0.041 A 
ATOM     21  C   UNL A   1      37.134  19.404  25.023  1.00  0.00     0.023 A 
ATOM     22  Cl  UNL A   1      39.599  20.460  25.285  1.00  0.00    -0.084 Cl
BRANCH  15  23
ATOM     23  C   UNL A   1      32.629  20.240  24.781  1.00  0.00     0.284 C 
ATOM     24  O   UNL A   1      31.595  20.641  25.316  1.00  0.00    -0.266 OA
BRANCH  23  25
ATOM     25  C   UNL A   1      32.646  18.944  24.110  1.00  0.00     0.167 A 
ATOM     26  C   UNL A   1      32.522  18.668  22.765  1.00  0.00     0.231 A 
ATOM     27  N   UNL A   1      32.921  17.758  24.776  1.00  0.00    -0.211 NA
ATOM     28  O   UNL A   1      32.701  17.328  22.579  1.00  0.00    -0.451 OA
ATOM     29  C   UNL A   1      32.959  16.855  23.827  1.00  0.00     0.308 A 
ENDBRANCH  23  25
ENDBRANCH  15  23
ENDBRANCH   7   9
ENDBRANCH   4   7
ENDBRANCH   2   3
ENDBRANCH   1   2
BRANCH   1  30
ATOM     30  C   UNL A   1      32.746  30.060  25.838  1.00  0.00     0.118 C 
BRANCH  30  31
ATOM     31  N   UNL A   1      32.546  31.429  26.285  1.00  0.00    -0.352 N 
ATOM     32  C   UNL A   1      33.185  32.155  27.258  1.00  0.00     0.251 C 
ATOM     33  H   UNL A   1      31.833  31.916  25.811  1.00  0.00     0.163 HD
ATOM     34  O   UNL A   1      32.722  33.249  27.578  1.00  0.00    -0.269 OA
BRANCH  32  35
ATOM     35  C   UNL A   1      34.401  31.645  27.934  1.00  0.00     0.039 A 
ATOM     36  C   UNL A   1      35.491  32.510  28.078  1.00  0.00     0.014 A 
ATOM     37  C   UNL A   1      34.507  30.321  28.371  1.00  0.00     0.014 A 
ATOM     38  C   UNL A   1      36.661  32.065  28.698  1.00  0.00     0.010 A 
ATOM     39  C   UNL A   1      35.651  29.896  29.049  1.00  0.00     0.010 A 
ATOM     40  C   UNL A   1      36.744  30.759  29.212  1.00  0.00    -0.014 A 
BRANCH  40  41
ATOM     41  C   UNL A   1      37.959  30.309  29.938  1.00  0.00     0.031 A 
ATOM     42  C   UNL A   1      38.243  30.777  31.340  1.00  0.00     0.074 A 
ATOM     43  C   UNL A   1      38.845  29.511  29.308  1.00  0.00     0.049 A 
ATOM     44  N   UNL A   1      39.235  30.453  32.129  1.00  0.00    -0.248 NA
ATOM     45  C   UNL A   1      37.306  31.751  31.924  1.00  0.00     0.031 C 
ATOM     46  C   UNL A   1      38.737  29.066  27.917  1.00  0.00     0.029 A 
ATOM     47  N   UNL A   1      40.015  28.946  29.748  1.00  0.00    -0.354 N 
ATOM     48  C   UNL A   1      39.059  31.198  33.290  1.00  0.00     0.074 A 
ATOM     49  C   UNL A   1      37.882  32.017  33.089  1.00  0.00     0.031 C 
ATOM     50  C   UNL A   1      39.792  28.289  27.621  1.00  0.00     0.029 A 
ATOM     51  C   UNL A   1      40.654  28.189  28.794  1.00  0.00     0.049 A 
ATOM     52  H   UNL A   1      40.366  29.072  30.659  1.00  0.00     0.167 HD
ATOM     53  C   UNL A   1      39.786  31.176  34.434  1.00  0.00     0.034 A 
ATOM     54  C   UNL A   1      41.798  27.479  28.860  1.00  0.00     0.034 A 
ATOM     55  C   UNL A   1      40.926  30.325  34.652  1.00  0.00     0.049 A 
ATOM     56  C   UNL A   1      42.543  27.411  30.164  1.00  0.00     0.074 A 
ATOM     57  C   UNL A   1      41.671  30.163  35.806  1.00  0.00     0.029 A 
ATOM     58  N   UNL A   1      41.487  29.495  33.694  1.00  0.00    -0.354 N 
ATOM     59  N   UNL A   1      42.253  27.979  31.310  1.00  0.00    -0.248 NA
ATOM     60  C   UNL A   1      43.748  26.569  30.198  1.00  0.00     0.031 C 
ATOM     61  C   UNL A   1      42.688  29.236  35.545  1.00  0.00     0.029 A 
ATOM     62  C   UNL A   1      42.571  28.818  34.229  1.00  0.00     0.049 A 
ATOM     63  H   UNL A   1      41.163  29.399  32.769  1.00  0.00     0.167 HD
ATOM     64  C   UNL A   1      43.224  27.545  32.205  1.00  0.00     0.074 A 
ATOM     65  C   UNL A   1      44.091  26.641  31.477  1.00  0.00     0.031 C 
ATOM     66  C   UNL A   1      43.397  27.885  33.507  1.00  0.00     0.034 A 
BRANCH  53  67
ATOM     67  C   UNL A   1      39.319  32.045  35.573  1.00  0.00     0.023 A 
ATOM     68  C   UNL A   1      38.411  31.512  36.510  1.00  0.00     0.012 A 
ATOM     69  C   UNL A   1      39.814  33.350  35.754  1.00  0.00     0.148 A 
ATOM     70  C   UNL A   1      37.979  32.276  37.595  1.00  0.00     0.002 A 
ATOM     71  C   UNL A   1      39.407  34.092  36.858  1.00  0.00     0.091 A 
ATOM     72  F   UNL A   1      40.659  33.849  34.839  1.00  0.00    -0.205 F 
ATOM     73  C   UNL A   1      38.484  33.560  37.774  1.00  0.00     0.022 A 
BRANCH  71  74
ATOM     74  S   UNL A   1      40.055  35.731  37.213  1.00  0.00     0.127 S 
ATOM     75  O   UNL A   1      39.644  36.474  36.023  1.00  0.00    -0.237 OA
ATOM     76  O   UNL A   1      39.337  36.093  38.435  1.00  0.00    -0.237 OA
ATOM     77  O   UNL A   1      41.492  35.560  37.385  1.00  0.00    -0.744 OA
ENDBRANCH  71  74
ENDBRANCH  53  67
BRANCH  54  78
ATOM     78  C   UNL A   1      42.247  26.696  27.676  1.00  0.00     0.023 A 
ATOM     79  C   UNL A   1      42.943  27.350  26.641  1.00  0.00     0.012 A 
ATOM     80  C   UNL A   1      42.036  25.306  27.589  1.00  0.00     0.148 A 
ATOM     81  C   UNL A   1      43.400  26.641  25.530  1.00  0.00     0.002 A 
ATOM     82  C   UNL A   1      42.541  24.596  26.505  1.00  0.00     0.091 A 
ATOM     83  F   UNL A   1      41.356  24.703  28.575  1.00  0.00    -0.205 F 
ATOM     84  C   UNL A   1      43.210  25.263  25.468  1.00  0.00     0.022 A 
BRANCH  82  85
ATOM     85  S   UNL A   1      42.461  22.803  26.422  1.00  0.00     0.127 S 
ATOM     86  O   UNL A   1      42.645  22.559  24.996  1.00  0.00    -0.237 OA
ATOM     87  O   UNL A   1      43.587  22.404  27.268  1.00  0.00    -0.237 OA
ATOM     88  O   UNL A   1      41.156  22.453  26.969  1.00  0.00    -0.744 OA
ENDBRANCH  82  85
ENDBRANCH  54  78
BRANCH  66  89
ATOM     89  C   UNL A   1      44.569  27.275  34.230  1.00  0.00     0.023 A 
ATOM     90  C   UNL A   1      45.802  27.958  34.243  1.00  0.00     0.012 A 
ATOM     91  C   UNL A   1      44.442  26.065  34.938  1.00  0.00     0.148 A 
ATOM     92  C   UNL A   1      46.899  27.429  34.922  1.00  0.00     0.002 A 
ATOM     93  C   UNL A   1      45.529  25.565  35.647  1.00  0.00     0.091 A 
ATOM     94  F   UNL A   1      43.270  25.416  34.896  1.00  0.00    -0.205 F 
ATOM     95  C   UNL A   1      46.760  26.239  35.632  1.00  0.00     0.022 A 
BRANCH  93  96
ATOM     96  S   UNL A   1      45.400  24.081  36.653  1.00  0.00     0.127 S 
ATOM     97  O   UNL A   1      44.629  23.195  35.785  1.00  0.00    -0.237 OA
ATOM     98  O   UNL A   1      46.801  23.693  36.828  1.00  0.00    -0.237 OA
ATOM     99  O   UNL A   1      44.740  24.500  37.881  1.00  0.00    -0.744 OA
ENDBRANCH  93  96
ENDBRANCH  66  89
ENDBRANCH  40  41
ENDBRANCH  32  35
ENDBRANCH  30  31
ENDBRANCH   1  30
TORSDOF 16
ENDMDL
