MODEL 1
REMARK VINA RESULT:     -13.0      0.000      0.000
REMARK SMILES O=C(NCCCNC(=O)c1ccc(-c2c3nc(c(-c4cccc(S(=O)(=O)[O-])c4F)c4ccc([nH]4)c(-c4cccc(S(=O)(=O)[O-])c4F)c4nc(c(-c5cccc(S(=O)(=O)[O-])c5F)c5ccc2[nH]5)C=C4)C=C3)cc1)c1ccc(Cn2cc(Cl)c(=O)[nH]c2=O)cc1
REMARK SMILES IDX 5 1 4 2 3 3 1 4 2 5 73 7 74 8 88 9 75 10 87 11 76 12 77 13
REMARK SMILES IDX 78 14 79 15 85 16 80 17 84 18 86 19 81 20 82 21 83 23 6 24
REMARK SMILES IDX 7 25 8 26 9 28 10 29 11 30 72 31 12 32 71 33 13 34 14 35
REMARK SMILES IDX 15 36 65 37 16 38 70 39 64 40 66 41 17 42 69 43 63 44 62 45
REMARK SMILES IDX 18 47 50 48 30 49 49 50 31 51 34 52 48 53 67 54 32 55 33 56
REMARK SMILES IDX 47 58 68 59 35 60 19 61 20 62 28 63 21 64 23 65 29 66 22 67
REMARK SMILES IDX 24 68 25 69 26 70 27 71 51 72 52 73 60 74 53 75 55 76 61 77
REMARK SMILES IDX 54 78 56 79 57 80 58 81 59 82 36 83 37 84 45 85 38 86 40 87
REMARK SMILES IDX 46 88 39 89 41 90 42 91 43 92 44 93
REMARK H PARENT 3 6 84 22 7 27 66 46 34 57
REMARK Flexibility Score: inf
ROOT
ATOM      1  C   UNL A   1      33.211  29.079  24.507  1.00  0.00     0.042 C 
ENDROOT
BRANCH   1   2
ATOM      2  C   UNL A   1      32.142  28.607  23.533  1.00  0.00     0.118 C 
BRANCH   2   3
ATOM      3  N   UNL A   1      32.704  27.987  22.339  1.00  0.00    -0.352 N 
ATOM      4  O   UNL A   1      33.620  26.321  21.109  1.00  0.00    -0.269 OA
ATOM      5  C   UNL A   1      33.034  26.671  22.127  1.00  0.00     0.251 C 
ATOM      6  H   UNL A   1      32.870  28.595  21.583  1.00  0.00     0.163 HD
BRANCH   5   7
ATOM      7  C   UNL A   1      32.666  25.672  23.145  1.00  0.00     0.039 A 
ATOM      8  C   UNL A   1      33.581  25.335  24.146  1.00  0.00     0.014 A 
ATOM      9  C   UNL A   1      31.417  25.054  23.084  1.00  0.00     0.014 A 
ATOM     10  C   UNL A   1      33.277  24.311  25.038  1.00  0.00     0.006 A 
ATOM     11  C   UNL A   1      31.122  24.017  23.971  1.00  0.00     0.006 A 
ATOM     12  C   UNL A   1      32.059  23.617  24.938  1.00  0.00    -0.028 A 
BRANCH  12  13
ATOM     13  C   UNL A   1      31.785  22.425  25.830  1.00  0.00     0.162 C 
BRANCH  13  14
ATOM     14  N   UNL A   1      32.526  21.220  25.432  1.00  0.00    -0.295 N 
ATOM     15  C   UNL A   1      32.099  20.474  24.345  1.00  0.00     0.117 A 
ATOM     16  C   UNL A   1      33.669  20.870  26.145  1.00  0.00     0.328 A 
ATOM     17  C   UNL A   1      32.752  19.393  23.910  1.00  0.00     0.122 A 
ATOM     18  N   UNL A   1      34.320  19.744  25.702  1.00  0.00    -0.273 N 
ATOM     19  O   UNL A   1      34.120  21.519  27.086  1.00  0.00    -0.248 OA
ATOM     20  Cl  UNL A   1      32.209  18.491  22.555  1.00  0.00    -0.077 Cl
ATOM     21  C   UNL A   1      34.000  18.995  24.600  1.00  0.00     0.272 A 
ATOM     22  H   UNL A   1      35.096  19.445  26.230  1.00  0.00     0.175 HD
ATOM     23  O   UNL A   1      34.727  18.096  24.193  1.00  0.00    -0.268 OA
ENDBRANCH  13  14
ENDBRANCH  12  13
ENDBRANCH   5   7
ENDBRANCH   2   3
ENDBRANCH   1   2
BRANCH   1  24
ATOM     24  C   UNL A   1      32.727  29.222  25.943  1.00  0.00     0.118 C 
BRANCH  24  25
ATOM     25  N   UNL A   1      32.341  30.588  26.284  1.00  0.00    -0.352 N 
ATOM     26  C   UNL A   1      32.988  31.509  27.075  1.00  0.00     0.251 C 
ATOM     27  H   UNL A   1      31.493  30.895  25.891  1.00  0.00     0.163 HD
ATOM     28  O   UNL A   1      32.434  32.565  27.369  1.00  0.00    -0.269 OA
BRANCH  26  29
ATOM     29  C   UNL A   1      34.341  31.209  27.592  1.00  0.00     0.039 A 
ATOM     30  C   UNL A   1      35.273  32.242  27.712  1.00  0.00     0.014 A 
ATOM     31  C   UNL A   1      34.669  29.914  27.994  1.00  0.00     0.014 A 
ATOM     32  C   UNL A   1      36.504  31.995  28.328  1.00  0.00     0.010 A 
ATOM     33  C   UNL A   1      35.852  29.690  28.685  1.00  0.00     0.010 A 
ATOM     34  C   UNL A   1      36.781  30.728  28.866  1.00  0.00    -0.014 A 
BRANCH  34  35
ATOM     35  C   UNL A   1      38.017  30.444  29.639  1.00  0.00     0.031 A 
ATOM     36  C   UNL A   1      39.043  29.497  29.078  1.00  0.00     0.074 A 
ATOM     37  C   UNL A   1      38.149  30.919  30.894  1.00  0.00     0.049 A 
ATOM     38  N   UNL A   1      40.088  28.970  29.660  1.00  0.00    -0.248 NA
ATOM     39  C   UNL A   1      38.844  29.056  27.687  1.00  0.00     0.031 C 
ATOM     40  C   UNL A   1      37.197  31.800  31.573  1.00  0.00     0.029 A 
ATOM     41  N   UNL A   1      39.121  30.691  31.838  1.00  0.00    -0.354 N 
ATOM     42  C   UNL A   1      40.642  28.100  28.727  1.00  0.00     0.074 A 
ATOM     43  C   UNL A   1      39.798  28.146  27.553  1.00  0.00     0.031 C 
ATOM     44  C   UNL A   1      37.630  32.037  32.822  1.00  0.00     0.029 A 
ATOM     45  C   UNL A   1      38.863  31.292  33.049  1.00  0.00     0.049 A 
ATOM     46  H   UNL A   1      39.925  30.151  31.664  1.00  0.00     0.167 HD
ATOM     47  C   UNL A   1      41.766  27.352  28.828  1.00  0.00     0.034 A 
ATOM     48  C   UNL A   1      39.535  31.233  34.217  1.00  0.00     0.034 A 
ATOM     49  C   UNL A   1      42.626  27.345  29.978  1.00  0.00     0.049 A 
ATOM     50  C   UNL A   1      40.791  30.406  34.297  1.00  0.00     0.074 A 
ATOM     51  C   UNL A   1      43.826  26.679  30.153  1.00  0.00     0.029 A 
ATOM     52  N   UNL A   1      42.379  28.039  31.154  1.00  0.00    -0.354 N 
ATOM     53  N   UNL A   1      41.367  29.688  33.364  1.00  0.00    -0.248 NA
ATOM     54  C   UNL A   1      41.505  30.406  35.582  1.00  0.00     0.031 C 
ATOM     55  C   UNL A   1      44.295  26.957  31.441  1.00  0.00     0.029 A 
ATOM     56  C   UNL A   1      43.402  27.817  32.059  1.00  0.00     0.049 A 
ATOM     57  H   UNL A   1      41.591  28.606  31.319  1.00  0.00     0.167 HD
ATOM     58  C   UNL A   1      42.533  29.190  33.932  1.00  0.00     0.074 A 
ATOM     59  C   UNL A   1      42.586  29.693  35.290  1.00  0.00     0.031 C 
ATOM     60  C   UNL A   1      43.473  28.380  33.383  1.00  0.00     0.034 A 
BRANCH  47  61
ATOM     61  C   UNL A   1      42.153  26.517  27.634  1.00  0.00     0.023 A 
ATOM     62  C   UNL A   1      42.871  27.112  26.575  1.00  0.00     0.012 A 
ATOM     63  C   UNL A   1      41.841  25.146  27.571  1.00  0.00     0.148 A 
ATOM     64  C   UNL A   1      43.231  26.367  25.453  1.00  0.00     0.002 A 
ATOM     65  C   UNL A   1      42.246  24.398  26.470  1.00  0.00     0.091 A 
ATOM     66  F   UNL A   1      41.140  24.600  28.574  1.00  0.00    -0.205 F 
ATOM     67  C   UNL A   1      42.927  25.010  25.404  1.00  0.00     0.022 A 
BRANCH  65  68
ATOM     68  S   UNL A   1      41.974  22.626  26.353  1.00  0.00     0.127 S 
ATOM     69  O   UNL A   1      40.514  22.553  26.335  1.00  0.00    -0.237 OA
ATOM     70  O   UNL A   1      42.616  22.298  25.080  1.00  0.00    -0.237 OA
ATOM     71  O   UNL A   1      42.617  22.046  27.522  1.00  0.00    -0.744 OA
ENDBRANCH  65  68
ENDBRANCH  47  61
BRANCH  48  72
ATOM     72  C   UNL A   1      39.073  32.036  35.385  1.00  0.00     0.023 A 
ATOM     73  C   UNL A   1      39.262  33.431  35.371  1.00  0.00     0.012 A 
ATOM     74  C   UNL A   1      38.429  31.442  36.486  1.00  0.00     0.148 A 
ATOM     75  C   UNL A   1      38.845  34.218  36.445  1.00  0.00     0.002 A 
ATOM     76  C   UNL A   1      37.969  32.237  37.531  1.00  0.00     0.091 A 
ATOM     77  F   UNL A   1      38.266  30.110  36.485  1.00  0.00    -0.205 F 
ATOM     78  C   UNL A   1      38.191  33.623  37.519  1.00  0.00     0.022 A 
BRANCH  76  79
ATOM     79  S   UNL A   1      37.009  31.577  38.898  1.00  0.00     0.127 S 
ATOM     80  O   UNL A   1      36.768  30.205  38.459  1.00  0.00    -0.237 OA
ATOM     81  O   UNL A   1      37.944  31.711  40.016  1.00  0.00    -0.237 OA
ATOM     82  O   UNL A   1      35.830  32.426  38.998  1.00  0.00    -0.744 OA
ENDBRANCH  76  79
ENDBRANCH  48  72
BRANCH  60  83
ATOM     83  C   UNL A   1      44.676  28.031  34.217  1.00  0.00     0.023 A 
ATOM     84  C   UNL A   1      45.836  28.827  34.149  1.00  0.00     0.012 A 
ATOM     85  C   UNL A   1      44.617  26.970  35.142  1.00  0.00     0.148 A 
ATOM     86  C   UNL A   1      46.928  28.557  34.974  1.00  0.00     0.002 A 
ATOM     87  C   UNL A   1      45.689  26.738  35.995  1.00  0.00     0.091 A 
ATOM     88  F   UNL A   1      43.509  26.214  35.177  1.00  0.00    -0.205 F 
ATOM     89  C   UNL A   1      46.849  27.525  35.904  1.00  0.00     0.022 A 
BRANCH  87  90
ATOM     90  S   UNL A   1      45.640  25.496  37.291  1.00  0.00     0.127 S 
ATOM     91  O   UNL A   1      46.964  25.642  37.894  1.00  0.00    -0.237 OA
ATOM     92  O   UNL A   1      44.533  25.964  38.126  1.00  0.00    -0.237 OA
ATOM     93  O   UNL A   1      45.397  24.224  36.622  1.00  0.00    -0.744 OA
ENDBRANCH  87  90
ENDBRANCH  60  83
ENDBRANCH  34  35
ENDBRANCH  26  29
ENDBRANCH  24  25
ENDBRANCH   1  24
TORSDOF 15
ENDMDL
MODEL 2
REMARK VINA RESULT:     -13.0      1.884      2.285
REMARK SMILES O=C(NCCCNC(=O)c1ccc(-c2c3nc(c(-c4cccc(S(=O)(=O)[O-])c4F)c4ccc([nH]4)c(-c4cccc(S(=O)(=O)[O-])c4F)c4nc(c(-c5cccc(S(=O)(=O)[O-])c5F)c5ccc2[nH]5)C=C4)C=C3)cc1)c1ccc(Cn2cc(Cl)c(=O)[nH]c2=O)cc1
REMARK SMILES IDX 5 1 4 2 3 3 1 4 2 5 73 7 74 8 88 9 75 10 87 11 76 12 77 13
REMARK SMILES IDX 78 14 79 15 85 16 80 17 84 18 86 19 81 20 82 21 83 23 6 24
REMARK SMILES IDX 7 25 8 26 9 28 10 29 11 30 72 31 12 32 71 33 13 34 14 35
REMARK SMILES IDX 15 36 65 37 16 38 70 39 64 40 66 41 17 42 69 43 63 44 62 45
REMARK SMILES IDX 18 47 50 48 30 49 49 50 31 51 34 52 48 53 67 54 32 55 33 56
REMARK SMILES IDX 47 58 68 59 35 60 19 61 20 62 28 63 21 64 23 65 29 66 22 67
REMARK SMILES IDX 24 68 25 69 26 70 27 71 51 72 52 73 60 74 53 75 55 76 61 77
REMARK SMILES IDX 54 78 56 79 57 80 58 81 59 82 36 83 37 84 45 85 38 86 40 87
REMARK SMILES IDX 46 88 39 89 41 90 42 91 43 92 44 93
REMARK H PARENT 3 6 84 22 7 27 66 46 34 57
REMARK Flexibility Score: inf
ROOT
ATOM      1  C   UNL A   1      32.323  28.163  25.147  1.00  0.00     0.042 C 
ENDROOT
BRANCH   1   2
ATOM      2  C   UNL A   1      31.725  27.803  23.796  1.00  0.00     0.118 C 
BRANCH   2   3
ATOM      3  N   UNL A   1      30.267  27.756  23.823  1.00  0.00    -0.352 N 
ATOM      4  O   UNL A   1      28.231  26.766  23.876  1.00  0.00    -0.269 OA
ATOM      5  C   UNL A   1      29.446  26.670  24.007  1.00  0.00     0.251 C 
ATOM      6  H   UNL A   1      29.811  28.617  23.689  1.00  0.00     0.163 HD
BRANCH   5   7
ATOM      7  C   UNL A   1      30.047  25.377  24.376  1.00  0.00     0.039 A 
ATOM      8  C   UNL A   1      30.233  25.059  25.724  1.00  0.00     0.014 A 
ATOM      9  C   UNL A   1      30.451  24.495  23.373  1.00  0.00     0.014 A 
ATOM     10  C   UNL A   1      30.904  23.890  26.067  1.00  0.00     0.006 A 
ATOM     11  C   UNL A   1      31.137  23.330  23.722  1.00  0.00     0.006 A 
ATOM     12  C   UNL A   1      31.395  23.030  25.070  1.00  0.00    -0.028 A 
BRANCH  12  13
ATOM     13  C   UNL A   1      32.230  21.824  25.445  1.00  0.00     0.162 C 
BRANCH  13  14
ATOM     14  N   UNL A   1      33.662  22.127  25.570  1.00  0.00    -0.295 N 
ATOM     15  C   UNL A   1      34.425  22.339  24.432  1.00  0.00     0.117 A 
ATOM     16  C   UNL A   1      34.218  22.226  26.842  1.00  0.00     0.328 A 
ATOM     17  C   UNL A   1      35.722  22.656  24.480  1.00  0.00     0.122 A 
ATOM     18  N   UNL A   1      35.558  22.532  26.879  1.00  0.00    -0.273 N 
ATOM     19  O   UNL A   1      33.582  22.094  27.884  1.00  0.00    -0.248 OA
ATOM     20  Cl  UNL A   1      36.643  22.923  23.058  1.00  0.00    -0.077 Cl
ATOM     21  C   UNL A   1      36.360  22.819  25.806  1.00  0.00     0.272 A 
ATOM     22  H   UNL A   1      35.984  22.546  27.767  1.00  0.00     0.175 HD
ATOM     23  O   UNL A   1      37.507  23.230  25.946  1.00  0.00    -0.268 OA
ENDBRANCH  13  14
ENDBRANCH  12  13
ENDBRANCH   5   7
ENDBRANCH   2   3
ENDBRANCH   1   2
BRANCH   1  24
ATOM     24  C   UNL A   1      33.209  29.401  25.126  1.00  0.00     0.118 C 
BRANCH  24  25
ATOM     25  N   UNL A   1      32.624  30.538  25.831  1.00  0.00    -0.352 N 
ATOM     26  C   UNL A   1      33.092  31.224  26.927  1.00  0.00     0.251 C 
ATOM     27  H   UNL A   1      31.768  30.860  25.468  1.00  0.00     0.163 HD
ATOM     28  O   UNL A   1      32.384  32.066  27.474  1.00  0.00    -0.269 OA
BRANCH  26  29
ATOM     29  C   UNL A   1      34.438  30.924  27.460  1.00  0.00     0.039 A 
ATOM     30  C   UNL A   1      35.347  31.967  27.654  1.00  0.00     0.014 A 
ATOM     31  C   UNL A   1      34.783  29.616  27.802  1.00  0.00     0.014 A 
ATOM     32  C   UNL A   1      36.567  31.712  28.286  1.00  0.00     0.010 A 
ATOM     33  C   UNL A   1      35.955  29.380  28.510  1.00  0.00     0.010 A 
ATOM     34  C   UNL A   1      36.858  30.425  28.765  1.00  0.00    -0.014 A 
BRANCH  34  35
ATOM     35  C   UNL A   1      38.081  30.125  29.552  1.00  0.00     0.031 A 
ATOM     36  C   UNL A   1      39.110  29.178  28.994  1.00  0.00     0.074 A 
ATOM     37  C   UNL A   1      38.200  30.585  30.814  1.00  0.00     0.049 A 
ATOM     38  N   UNL A   1      40.144  28.639  29.584  1.00  0.00    -0.248 NA
ATOM     39  C   UNL A   1      38.927  28.754  27.596  1.00  0.00     0.031 C 
ATOM     40  C   UNL A   1      37.243  31.464  31.490  1.00  0.00     0.029 A 
ATOM     41  N   UNL A   1      39.157  30.341  31.768  1.00  0.00    -0.354 N 
ATOM     42  C   UNL A   1      40.705  27.776  28.650  1.00  0.00     0.074 A 
ATOM     43  C   UNL A   1      39.878  27.840  27.465  1.00  0.00     0.031 C 
ATOM     44  C   UNL A   1      37.661  31.685  32.746  1.00  0.00     0.029 A 
ATOM     45  C   UNL A   1      38.886  30.930  32.982  1.00  0.00     0.049 A 
ATOM     46  H   UNL A   1      39.960  29.798  31.599  1.00  0.00     0.167 HD
ATOM     47  C   UNL A   1      41.823  27.020  28.757  1.00  0.00     0.034 A 
ATOM     48  C   UNL A   1      39.541  30.853  34.158  1.00  0.00     0.034 A 
ATOM     49  C   UNL A   1      42.668  26.996  29.919  1.00  0.00     0.049 A 
ATOM     50  C   UNL A   1      40.791  30.019  34.246  1.00  0.00     0.074 A 
ATOM     51  C   UNL A   1      43.861  26.320  30.102  1.00  0.00     0.029 A 
ATOM     52  N   UNL A   1      42.408  27.677  31.099  1.00  0.00    -0.354 N 
ATOM     53  N   UNL A   1      41.376  29.308  33.313  1.00  0.00    -0.248 NA
ATOM     54  C   UNL A   1      41.488  30.000  35.541  1.00  0.00     0.031 C 
ATOM     55  C   UNL A   1      44.314  26.581  31.400  1.00  0.00     0.029 A 
ATOM     56  C   UNL A   1      43.418  27.439  32.015  1.00  0.00     0.049 A 
ATOM     57  H   UNL A   1      41.621  28.247  31.259  1.00  0.00     0.167 HD
ATOM     58  C   UNL A   1      42.532  28.797  33.892  1.00  0.00     0.074 A 
ATOM     59  C   UNL A   1      42.568  29.284  35.255  1.00  0.00     0.031 C 
ATOM     60  C   UNL A   1      43.473  27.988  33.346  1.00  0.00     0.034 A 
BRANCH  47  61
ATOM     61  C   UNL A   1      42.222  26.196  27.559  1.00  0.00     0.023 A 
ATOM     62  C   UNL A   1      42.958  26.799  26.517  1.00  0.00     0.012 A 
ATOM     63  C   UNL A   1      41.903  24.828  27.476  1.00  0.00     0.148 A 
ATOM     64  C   UNL A   1      43.329  26.064  25.392  1.00  0.00     0.002 A 
ATOM     65  C   UNL A   1      42.318  24.090  26.373  1.00  0.00     0.091 A 
ATOM     66  F   UNL A   1      41.184  24.275  28.464  1.00  0.00    -0.205 F 
ATOM     67  C   UNL A   1      43.018  24.709  25.323  1.00  0.00     0.022 A 
BRANCH  65  68
ATOM     68  S   UNL A   1      42.037  22.321  26.232  1.00  0.00     0.127 S 
ATOM     69  O   UNL A   1      42.758  22.006  25.000  1.00  0.00    -0.237 OA
ATOM     70  O   UNL A   1      42.662  21.810  27.452  1.00  0.00    -0.237 OA
ATOM     71  O   UNL A   1      40.593  22.151  26.175  1.00  0.00    -0.744 OA
ENDBRANCH  65  68
ENDBRANCH  47  61
BRANCH  48  72
ATOM     72  C   UNL A   1      39.068  31.646  35.329  1.00  0.00     0.023 A 
ATOM     73  C   UNL A   1      38.163  31.055  36.232  1.00  0.00     0.012 A 
ATOM     74  C   UNL A   1      39.521  32.956  35.570  1.00  0.00     0.148 A 
ATOM     75  C   UNL A   1      37.695  31.764  37.338  1.00  0.00     0.002 A 
ATOM     76  C   UNL A   1      39.092  33.640  36.703  1.00  0.00     0.091 A 
ATOM     77  F   UNL A   1      40.376  33.505  34.694  1.00  0.00    -0.205 F 
ATOM     78  C   UNL A   1      38.166  33.051  37.579  1.00  0.00     0.022 A 
BRANCH  76  79
ATOM     79  S   UNL A   1      39.735  35.253  37.161  1.00  0.00     0.127 S 
ATOM     80  O   UNL A   1      41.172  34.999  37.208  1.00  0.00    -0.237 OA
ATOM     81  O   UNL A   1      39.293  36.084  36.040  1.00  0.00    -0.237 OA
ATOM     82  O   UNL A   1      39.108  35.581  38.434  1.00  0.00    -0.744 OA
ENDBRANCH  76  79
ENDBRANCH  48  72
BRANCH  60  83
ATOM     83  C   UNL A   1      44.664  27.622  34.192  1.00  0.00     0.023 A 
ATOM     84  C   UNL A   1      45.775  28.484  34.256  1.00  0.00     0.012 A 
ATOM     85  C   UNL A   1      44.633  26.469  35.002  1.00  0.00     0.148 A 
ATOM     86  C   UNL A   1      46.849  28.193  35.097  1.00  0.00     0.002 A 
ATOM     87  C   UNL A   1      45.685  26.211  35.873  1.00  0.00     0.091 A 
ATOM     88  F   UNL A   1      43.573  25.652  34.912  1.00  0.00    -0.205 F 
ATOM     89  C   UNL A   1      46.798  27.066  35.914  1.00  0.00     0.022 A 
BRANCH  87  90
ATOM     90  S   UNL A   1      45.661  24.840  37.034  1.00  0.00     0.127 S 
ATOM     91  O   UNL A   1      44.368  25.028  37.690  1.00  0.00    -0.237 OA
ATOM     92  O   UNL A   1      45.731  23.680  36.144  1.00  0.00    -0.237 OA
ATOM     93  O   UNL A   1      46.826  25.016  37.890  1.00  0.00    -0.744 OA
ENDBRANCH  87  90
ENDBRANCH  60  83
ENDBRANCH  34  35
ENDBRANCH  26  29
ENDBRANCH  24  25
ENDBRANCH   1  24
TORSDOF 15
ENDMDL
MODEL 3
REMARK VINA RESULT:     -12.8      2.125      2.764
REMARK SMILES O=C(NCCCNC(=O)c1ccc(-c2c3nc(c(-c4cccc(S(=O)(=O)[O-])c4F)c4ccc([nH]4)c(-c4cccc(S(=O)(=O)[O-])c4F)c4nc(c(-c5cccc(S(=O)(=O)[O-])c5F)c5ccc2[nH]5)C=C4)C=C3)cc1)c1ccc(Cn2cc(Cl)c(=O)[nH]c2=O)cc1
REMARK SMILES IDX 5 1 4 2 3 3 1 4 2 5 73 7 74 8 88 9 75 10 87 11 76 12 77 13
REMARK SMILES IDX 78 14 79 15 85 16 80 17 84 18 86 19 81 20 82 21 83 23 6 24
REMARK SMILES IDX 7 25 8 26 9 28 10 29 11 30 72 31 12 32 71 33 13 34 14 35
REMARK SMILES IDX 15 36 65 37 16 38 70 39 64 40 66 41 17 42 69 43 63 44 62 45
REMARK SMILES IDX 18 47 50 48 30 49 49 50 31 51 34 52 48 53 67 54 32 55 33 56
REMARK SMILES IDX 47 58 68 59 35 60 19 61 20 62 28 63 21 64 23 65 29 66 22 67
REMARK SMILES IDX 24 68 25 69 26 70 27 71 51 72 52 73 60 74 53 75 55 76 61 77
REMARK SMILES IDX 54 78 56 79 57 80 58 81 59 82 36 83 37 84 45 85 38 86 40 87
REMARK SMILES IDX 46 88 39 89 41 90 42 91 43 92 44 93
REMARK H PARENT 3 6 84 22 7 27 66 46 34 57
REMARK Flexibility Score: inf
ROOT
ATOM      1  C   UNL A   1      32.007  30.872  26.765  1.00  0.00     0.042 C 
ENDROOT
BRANCH   1   2
ATOM      2  C   UNL A   1      32.487  29.731  25.882  1.00  0.00     0.118 C 
BRANCH   2   3
ATOM      3  N   UNL A   1      31.446  29.237  24.988  1.00  0.00    -0.352 N 
ATOM      4  O   UNL A   1      30.457  27.768  23.576  1.00  0.00    -0.269 OA
ATOM      5  C   UNL A   1      31.324  27.996  24.412  1.00  0.00     0.251 C 
ATOM      6  H   UNL A   1      30.736  29.882  24.766  1.00  0.00     0.163 HD
BRANCH   5   7
ATOM      7  C   UNL A   1      32.252  26.928  24.821  1.00  0.00     0.039 A 
ATOM      8  C   UNL A   1      33.396  26.675  24.060  1.00  0.00     0.014 A 
ATOM      9  C   UNL A   1      31.964  26.160  25.950  1.00  0.00     0.014 A 
ATOM     10  C   UNL A   1      34.210  25.594  24.382  1.00  0.00     0.006 A 
ATOM     11  C   UNL A   1      32.775  25.067  26.261  1.00  0.00     0.006 A 
ATOM     12  C   UNL A   1      33.889  24.757  25.464  1.00  0.00    -0.028 A 
BRANCH  12  13
ATOM     13  C   UNL A   1      34.708  23.512  25.735  1.00  0.00     0.162 C 
BRANCH  13  14
ATOM     14  N   UNL A   1      33.949  22.268  25.552  1.00  0.00    -0.295 N 
ATOM     15  C   UNL A   1      33.409  21.965  24.312  1.00  0.00     0.117 A 
ATOM     16  C   UNL A   1      33.815  21.399  26.631  1.00  0.00     0.328 A 
ATOM     17  C   UNL A   1      32.742  20.832  24.072  1.00  0.00     0.122 A 
ATOM     18  N   UNL A   1      33.109  20.247  26.377  1.00  0.00    -0.273 N 
ATOM     19  O   UNL A   1      34.311  21.593  27.738  1.00  0.00    -0.248 OA
ATOM     20  Cl  UNL A   1      32.091  20.474  22.525  1.00  0.00    -0.077 Cl
ATOM     21  C   UNL A   1      32.604  19.847  25.168  1.00  0.00     0.272 A 
ATOM     22  H   UNL A   1      32.951  19.648  27.143  1.00  0.00     0.175 HD
ATOM     23  O   UNL A   1      32.121  18.732  25.004  1.00  0.00    -0.268 OA
ENDBRANCH  13  14
ENDBRANCH  12  13
ENDBRANCH   5   7
ENDBRANCH   2   3
ENDBRANCH   1   2
BRANCH   1  24
ATOM     24  C   UNL A   1      33.123  31.770  27.283  1.00  0.00     0.118 C 
BRANCH  24  25
ATOM     25  N   UNL A   1      32.701  33.154  27.477  1.00  0.00    -0.352 N 
ATOM     26  C   UNL A   1      33.145  34.086  28.387  1.00  0.00     0.251 C 
ATOM     27  H   UNL A   1      31.996  33.467  26.866  1.00  0.00     0.163 HD
ATOM     28  O   UNL A   1      32.564  35.162  28.498  1.00  0.00    -0.269 OA
BRANCH  26  29
ATOM     29  C   UNL A   1      34.304  33.773  29.250  1.00  0.00     0.039 A 
ATOM     30  C   UNL A   1      34.135  32.915  30.340  1.00  0.00     0.014 A 
ATOM     31  C   UNL A   1      35.563  34.296  28.953  1.00  0.00     0.014 A 
ATOM     32  C   UNL A   1      35.251  32.505  31.075  1.00  0.00     0.010 A 
ATOM     33  C   UNL A   1      36.680  33.817  29.626  1.00  0.00     0.010 A 
ATOM     34  C   UNL A   1      36.538  32.912  30.691  1.00  0.00    -0.014 A 
BRANCH  34  35
ATOM     35  C   UNL A   1      37.766  32.408  31.357  1.00  0.00     0.031 A 
ATOM     36  C   UNL A   1      38.537  31.275  30.736  1.00  0.00     0.074 A 
ATOM     37  C   UNL A   1      38.105  32.866  32.579  1.00  0.00     0.049 A 
ATOM     38  N   UNL A   1      39.515  30.566  31.237  1.00  0.00    -0.248 NA
ATOM     39  C   UNL A   1      38.127  30.861  29.383  1.00  0.00     0.031 C 
ATOM     40  C   UNL A   1      37.405  33.923  33.314  1.00  0.00     0.029 A 
ATOM     41  N   UNL A   1      39.101  32.471  33.438  1.00  0.00    -0.354 N 
ATOM     42  C   UNL A   1      39.802  29.594  30.286  1.00  0.00     0.074 A 
ATOM     43  C   UNL A   1      38.875  29.784  29.193  1.00  0.00     0.031 C 
ATOM     44  C   UNL A   1      37.992  34.090  34.510  1.00  0.00     0.029 A 
ATOM     45  C   UNL A   1      39.078  33.127  34.648  1.00  0.00     0.049 A 
ATOM     46  H   UNL A   1      39.768  31.785  33.209  1.00  0.00     0.167 HD
ATOM     47  C   UNL A   1      40.769  28.646  30.308  1.00  0.00     0.034 A 
ATOM     48  C   UNL A   1      39.834  32.956  35.751  1.00  0.00     0.034 A 
ATOM     49  C   UNL A   1      41.718  28.491  31.375  1.00  0.00     0.049 A 
ATOM     50  C   UNL A   1      40.913  31.906  35.743  1.00  0.00     0.074 A 
ATOM     51  C   UNL A   1      42.781  27.610  31.462  1.00  0.00     0.029 A 
ATOM     52  N   UNL A   1      41.719  29.235  32.546  1.00  0.00    -0.354 N 
ATOM     53  N   UNL A   1      41.252  31.078  34.785  1.00  0.00    -0.248 NA
ATOM     54  C   UNL A   1      41.734  31.787  36.958  1.00  0.00     0.031 C 
ATOM     55  C   UNL A   1      43.415  27.812  32.692  1.00  0.00     0.029 A 
ATOM     56  C   UNL A   1      42.763  28.835  33.361  1.00  0.00     0.049 A 
ATOM     57  H   UNL A   1      41.072  29.945  32.764  1.00  0.00     0.167 HD
ATOM     58  C   UNL A   1      42.352  30.375  35.261  1.00  0.00     0.074 A 
ATOM     59  C   UNL A   1      42.627  30.877  36.591  1.00  0.00     0.031 C 
ATOM     60  C   UNL A   1      43.065  29.393  34.654  1.00  0.00     0.034 A 
BRANCH  47  61
ATOM     61  C   UNL A   1      40.877  27.736  29.111  1.00  0.00     0.023 A 
ATOM     62  C   UNL A   1      40.081  26.573  29.049  1.00  0.00     0.012 A 
ATOM     63  C   UNL A   1      41.733  28.043  28.037  1.00  0.00     0.148 A 
ATOM     64  C   UNL A   1      40.169  25.708  27.960  1.00  0.00     0.002 A 
ATOM     65  C   UNL A   1      41.780  27.200  26.931  1.00  0.00     0.091 A 
ATOM     66  F   UNL A   1      42.499  29.140  28.119  1.00  0.00    -0.205 F 
ATOM     67  C   UNL A   1      41.010  26.025  26.898  1.00  0.00     0.022 A 
BRANCH  65  68
ATOM     68  S   UNL A   1      42.771  27.566  25.478  1.00  0.00     0.127 S 
ATOM     69  O   UNL A   1      42.579  26.357  24.679  1.00  0.00    -0.237 OA
ATOM     70  O   UNL A   1      42.112  28.759  24.947  1.00  0.00    -0.237 OA
ATOM     71  O   UNL A   1      44.124  27.789  25.964  1.00  0.00    -0.744 OA
ENDBRANCH  65  68
ENDBRANCH  47  61
BRANCH  48  72
ATOM     72  C   UNL A   1      39.645  33.849  36.930  1.00  0.00     0.023 A 
ATOM     73  C   UNL A   1      40.065  35.191  36.844  1.00  0.00     0.012 A 
ATOM     74  C   UNL A   1      39.034  33.396  38.114  1.00  0.00     0.148 A 
ATOM     75  C   UNL A   1      39.908  36.057  37.925  1.00  0.00     0.002 A 
ATOM     76  C   UNL A   1      38.833  34.278  39.171  1.00  0.00     0.091 A 
ATOM     77  F   UNL A   1      38.649  32.113  38.180  1.00  0.00    -0.205 F 
ATOM     78  C   UNL A   1      39.283  35.604  39.083  1.00  0.00     0.022 A 
BRANCH  76  79
ATOM     79  S   UNL A   1      37.930  33.819  40.654  1.00  0.00     0.127 S 
ATOM     80  O   UNL A   1      36.703  33.257  40.096  1.00  0.00    -0.237 OA
ATOM     81  O   UNL A   1      38.832  32.843  41.267  1.00  0.00    -0.237 OA
ATOM     82  O   UNL A   1      37.773  35.050  41.416  1.00  0.00    -0.744 OA
ENDBRANCH  76  79
ENDBRANCH  48  72
BRANCH  60  83
ATOM     83  C   UNL A   1      44.254  28.832  35.386  1.00  0.00     0.023 A 
ATOM     84  C   UNL A   1      45.528  29.405  35.206  1.00  0.00     0.012 A 
ATOM     85  C   UNL A   1      44.087  27.799  36.330  1.00  0.00     0.148 A 
ATOM     86  C   UNL A   1      46.622  28.942  35.937  1.00  0.00     0.002 A 
ATOM     87  C   UNL A   1      45.171  27.377  37.090  1.00  0.00     0.091 A 
ATOM     88  F   UNL A   1      42.869  27.255  36.473  1.00  0.00    -0.205 F 
ATOM     89  C   UNL A   1      46.441  27.941  36.888  1.00  0.00     0.022 A 
BRANCH  87  90
ATOM     90  S   UNL A   1      45.013  26.164  38.405  1.00  0.00     0.127 S 
ATOM     91  O   UNL A   1      46.406  25.974  38.805  1.00  0.00    -0.237 OA
ATOM     92  O   UNL A   1      44.188  26.874  39.384  1.00  0.00    -0.237 OA
ATOM     93  O   UNL A   1      44.372  25.000  37.806  1.00  0.00    -0.744 OA
ENDBRANCH  87  90
ENDBRANCH  60  83
ENDBRANCH  34  35
ENDBRANCH  26  29
ENDBRANCH  24  25
ENDBRANCH   1  24
TORSDOF 15
ENDMDL
