MODEL 1
REMARK VINA RESULT:     -11.9      0.000      0.000
REMARK SMILES CSc1nc(O)nc(C)c1C(=O)N1C[C@@H](O)C[C@@H]1C(=O)NCCCNC(=O)c1ccc(-c2c3nc(c(-c4cccc(S(=O)(=O)[O-])c4F)c4ccc([nH]4)c(-c4cccc(S(=O)(=O)[O-])c4F)c4nc(c(-c5cccc(S(=O)(=O)[O-])c5F)c5ccc2[nH]5)C=C4)C=C3)cc1
REMARK SMILES IDX 23 1 22 2 21 3 19 4 20 5 18 7 13 8 14 9 15 10 17 11 11 12
REMARK SMILES IDX 12 13 10 14 3 15 4 16 5 17 8 18 7 19 9 20 2 21 1 22 6 23
REMARK SMILES IDX 16 25 24 27 25 28 26 29 27 31 28 32 29 33 90 34 30 35 89 36
REMARK SMILES IDX 31 37 32 38 33 39 83 40 34 41 88 42 82 43 84 44 35 45 87 46
REMARK SMILES IDX 81 47 80 48 36 50 68 51 48 52 67 53 49 54 52 55 66 56 85 57
REMARK SMILES IDX 50 58 51 59 65 61 86 62 53 63 37 64 38 65 46 66 39 67 41 68
REMARK SMILES IDX 47 69 40 70 42 71 43 72 44 73 45 74 69 75 70 76 78 77 71 78
REMARK SMILES IDX 73 79 79 80 72 81 74 82 75 83 76 84 77 85 54 86 55 87 63 88
REMARK SMILES IDX 56 89 58 90 64 91 57 92 59 93 60 94 61 95 62 96
REMARK H PARENT 21 6 6 24 16 26 25 30 84 49 52 60
REMARK Flexibility Score: inf
ROOT
ATOM      1  C   UNL A   1      31.682  30.913  26.152  1.00  0.00     0.042 C 
ENDROOT
BRANCH   1   2
ATOM      2  C   UNL A   1      31.981  29.562  25.515  1.00  0.00     0.117 C 
BRANCH   2   3
ATOM      3  N   UNL A   1      33.083  29.626  24.569  1.00  0.00    -0.354 N 
ATOM      4  C   UNL A   1      33.537  28.708  23.670  1.00  0.00     0.242 C 
ATOM      5  O   UNL A   1      34.616  28.953  23.121  1.00  0.00    -0.273 OA
ATOM      6  H   UNL A   1      33.584  30.473  24.579  1.00  0.00     0.163 HD
BRANCH   4   7
ATOM      7  C   UNL A   1      32.771  27.393  23.429  1.00  0.00     0.177 C 
ATOM      8  N   UNL A   1      33.392  26.246  24.116  1.00  0.00    -0.324 N 
ATOM      9  C   UNL A   1      33.149  25.062  23.318  1.00  0.00     0.152 C 
ATOM     10  C   UNL A   1      33.347  25.564  21.901  1.00  0.00     0.136 C 
ATOM     11  C   UNL A   1      32.723  26.958  21.948  1.00  0.00     0.069 C 
BRANCH   8  12
ATOM     12  C   UNL A   1      33.296  26.117  25.488  1.00  0.00     0.259 C 
ATOM     13  O   UNL A   1      33.915  26.889  26.217  1.00  0.00    -0.269 OA
BRANCH  12  14
ATOM     14  C   UNL A   1      32.392  25.058  26.054  1.00  0.00     0.093 A 
ATOM     15  C   UNL A   1      32.782  23.792  26.512  1.00  0.00     0.116 A 
ATOM     16  N   UNL A   1      31.898  22.842  26.913  1.00  0.00    -0.188 NA
ATOM     17  C   UNL A   1      30.620  23.172  26.858  1.00  0.00     0.315 A 
ATOM     18  C   UNL A   1      31.008  25.287  26.106  1.00  0.00     0.058 A 
ATOM     19  N   UNL A   1      30.111  24.335  26.483  1.00  0.00    -0.200 NA
ATOM     20  C   UNL A   1      30.349  26.585  25.727  1.00  0.00     0.068 C 
BRANCH  15  21
ATOM     21  S   UNL A   1      34.434  23.111  26.548  1.00  0.00    -0.109 SA
ATOM     22  C   UNL A   1      34.380  22.146  25.020  1.00  0.00     0.092 C 
ENDBRANCH  15  21
BRANCH  17  23
ATOM     23  O   UNL A   1      29.704  22.220  27.166  1.00  0.00    -0.479 OA
ATOM     24  H   UNL A   1      29.878  21.606  27.852  1.00  0.00     0.297 HD
ENDBRANCH  17  23
ENDBRANCH  12  14
ENDBRANCH   8  12
BRANCH  10  25
ATOM     25  O   UNL A   1      32.736  24.750  20.917  1.00  0.00    -0.391 OA
ATOM     26  H   UNL A   1      33.071  24.995  20.040  1.00  0.00     0.211 HD
ENDBRANCH  10  25
ENDBRANCH   4   7
ENDBRANCH   2   3
ENDBRANCH   1   2
BRANCH   1  27
ATOM     27  C   UNL A   1      32.751  31.411  27.118  1.00  0.00     0.118 C 
BRANCH  27  28
ATOM     28  N   UNL A   1      32.760  32.860  27.253  1.00  0.00    -0.352 N 
ATOM     29  C   UNL A   1      33.582  33.652  28.017  1.00  0.00     0.251 C 
ATOM     30  H   UNL A   1      32.082  33.340  26.724  1.00  0.00     0.163 HD
ATOM     31  O   UNL A   1      33.342  34.851  28.140  1.00  0.00    -0.269 OA
BRANCH  29  32
ATOM     32  C   UNL A   1      34.741  33.051  28.706  1.00  0.00     0.039 A 
ATOM     33  C   UNL A   1      34.527  32.308  29.871  1.00  0.00     0.014 A 
ATOM     34  C   UNL A   1      36.033  33.214  28.198  1.00  0.00     0.014 A 
ATOM     35  C   UNL A   1      35.605  31.673  30.492  1.00  0.00     0.010 A 
ATOM     36  C   UNL A   1      37.097  32.537  28.787  1.00  0.00     0.010 A 
ATOM     37  C   UNL A   1      36.892  31.765  29.940  1.00  0.00    -0.014 A 
BRANCH  37  38
ATOM     38  C   UNL A   1      38.042  31.068  30.562  1.00  0.00     0.031 A 
ATOM     39  C   UNL A   1      38.464  31.417  31.960  1.00  0.00     0.074 A 
ATOM     40  C   UNL A   1      38.751  30.175  29.843  1.00  0.00     0.049 A 
ATOM     41  N   UNL A   1      39.464  30.948  32.658  1.00  0.00    -0.248 NA
ATOM     42  C   UNL A   1      37.668  32.439  32.662  1.00  0.00     0.031 C 
ATOM     43  C   UNL A   1      38.478  29.799  28.456  1.00  0.00     0.029 A 
ATOM     44  N   UNL A   1      39.859  29.437  30.177  1.00  0.00    -0.354 N 
ATOM     45  C   UNL A   1      39.435  31.629  33.866  1.00  0.00     0.074 A 
ATOM     46  C   UNL A   1      38.334  32.565  33.802  1.00  0.00     0.031 C 
ATOM     47  C   UNL A   1      39.393  28.900  28.057  1.00  0.00     0.029 A 
ATOM     48  C   UNL A   1      40.325  28.648  29.153  1.00  0.00     0.049 A 
ATOM     49  H   UNL A   1      40.280  29.471  31.066  1.00  0.00     0.167 HD
ATOM     50  C   UNL A   1      40.235  31.468  34.945  1.00  0.00     0.034 A 
ATOM     51  C   UNL A   1      41.382  27.814  29.103  1.00  0.00     0.034 A 
ATOM     52  C   UNL A   1      41.293  30.504  35.031  1.00  0.00     0.049 A 
ATOM     53  C   UNL A   1      42.237  27.631  30.326  1.00  0.00     0.074 A 
ATOM     54  C   UNL A   1      42.097  30.207  36.117  1.00  0.00     0.029 A 
ATOM     55  N   UNL A   1      41.697  29.679  33.993  1.00  0.00    -0.354 N 
ATOM     56  N   UNL A   1      42.108  28.184  31.507  1.00  0.00    -0.248 NA
ATOM     57  C   UNL A   1      43.365  26.694  30.220  1.00  0.00     0.031 C 
ATOM     58  C   UNL A   1      42.993  29.204  35.733  1.00  0.00     0.029 A 
ATOM     59  C   UNL A   1      42.743  28.876  34.410  1.00  0.00     0.049 A 
ATOM     60  H   UNL A   1      41.298  29.667  33.093  1.00  0.00     0.167 HD
ATOM     61  C   UNL A   1      43.122  27.648  32.291  1.00  0.00     0.074 A 
ATOM     62  C   UNL A   1      43.850  26.716  31.457  1.00  0.00     0.031 C 
ATOM     63  C   UNL A   1      43.427  27.917  33.584  1.00  0.00     0.034 A 
BRANCH  50  64
ATOM     64  C   UNL A   1      39.945  32.304  36.159  1.00  0.00     0.023 A 
ATOM     65  C   UNL A   1      40.687  33.484  36.366  1.00  0.00     0.012 A 
ATOM     66  C   UNL A   1      38.901  31.972  37.042  1.00  0.00     0.148 A 
ATOM     67  C   UNL A   1      40.401  34.318  37.445  1.00  0.00     0.002 A 
ATOM     68  C   UNL A   1      38.604  32.823  38.099  1.00  0.00     0.091 A 
ATOM     69  F   UNL A   1      38.224  30.834  36.830  1.00  0.00    -0.205 F 
ATOM     70  C   UNL A   1      39.354  33.993  38.304  1.00  0.00     0.022 A 
BRANCH  68  71
ATOM     71  S   UNL A   1      37.248  32.524  39.239  1.00  0.00     0.127 S 
ATOM     72  O   UNL A   1      36.087  32.703  38.367  1.00  0.00    -0.237 OA
ATOM     73  O   UNL A   1      37.494  31.143  39.652  1.00  0.00    -0.237 OA
ATOM     74  O   UNL A   1      37.385  33.514  40.297  1.00  0.00    -0.744 OA
ENDBRANCH  68  71
ENDBRANCH  50  64
BRANCH  51  75
ATOM     75  C   UNL A   1      41.632  27.027  27.865  1.00  0.00     0.023 A 
ATOM     76  C   UNL A   1      42.195  27.673  26.749  1.00  0.00     0.012 A 
ATOM     77  C   UNL A   1      41.384  25.642  27.813  1.00  0.00     0.148 A 
ATOM     78  C   UNL A   1      42.499  26.954  25.593  1.00  0.00     0.002 A 
ATOM     79  C   UNL A   1      41.725  24.924  26.671  1.00  0.00     0.091 A 
ATOM     80  F   UNL A   1      40.848  25.053  28.891  1.00  0.00    -0.205 F 
ATOM     81  C   UNL A   1      42.273  25.581  25.557  1.00  0.00     0.022 A 
BRANCH  79  82
ATOM     82  S   UNL A   1      41.568  23.139  26.562  1.00  0.00     0.127 S 
ATOM     83  O   UNL A   1      40.122  22.973  26.427  1.00  0.00    -0.237 OA
ATOM     84  O   UNL A   1      42.338  22.847  25.353  1.00  0.00    -0.237 OA
ATOM     85  O   UNL A   1      42.145  22.613  27.792  1.00  0.00    -0.744 OA
ENDBRANCH  79  82
ENDBRANCH  51  75
BRANCH  63  86
ATOM     86  C   UNL A   1      44.597  27.203  34.200  1.00  0.00     0.023 A 
ATOM     87  C   UNL A   1      45.862  27.820  34.184  1.00  0.00     0.012 A 
ATOM     88  C   UNL A   1      44.415  26.001  34.912  1.00  0.00     0.148 A 
ATOM     89  C   UNL A   1      46.934  27.248  34.867  1.00  0.00     0.002 A 
ATOM     90  C   UNL A   1      45.480  25.454  35.618  1.00  0.00     0.091 A 
ATOM     91  F   UNL A   1      43.201  25.431  34.902  1.00  0.00    -0.205 F 
ATOM     92  C   UNL A   1      46.741  26.075  35.593  1.00  0.00     0.022 A 
BRANCH  90  93
ATOM     93  S   UNL A   1      45.313  23.991  36.645  1.00  0.00     0.127 S 
ATOM     94  O   UNL A   1      46.708  23.686  36.960  1.00  0.00    -0.237 OA
ATOM     95  O   UNL A   1      44.527  24.492  37.773  1.00  0.00    -0.237 OA
ATOM     96  O   UNL A   1      44.631  22.997  35.825  1.00  0.00    -0.744 OA
ENDBRANCH  90  93
ENDBRANCH  63  86
ENDBRANCH  37  38
ENDBRANCH  29  32
ENDBRANCH  27  28
ENDBRANCH   1  27
TORSDOF 18
ENDMDL
MODEL 2
REMARK VINA RESULT:     -11.8      1.699      3.190
REMARK SMILES CSc1nc(O)nc(C)c1C(=O)N1C[C@@H](O)C[C@@H]1C(=O)NCCCNC(=O)c1ccc(-c2c3nc(c(-c4cccc(S(=O)(=O)[O-])c4F)c4ccc([nH]4)c(-c4cccc(S(=O)(=O)[O-])c4F)c4nc(c(-c5cccc(S(=O)(=O)[O-])c5F)c5ccc2[nH]5)C=C4)C=C3)cc1
REMARK SMILES IDX 23 1 22 2 21 3 19 4 20 5 18 7 13 8 14 9 15 10 17 11 11 12
REMARK SMILES IDX 12 13 10 14 3 15 4 16 5 17 8 18 7 19 9 20 2 21 1 22 6 23
REMARK SMILES IDX 16 25 24 27 25 28 26 29 27 31 28 32 29 33 90 34 30 35 89 36
REMARK SMILES IDX 31 37 32 38 33 39 83 40 34 41 88 42 82 43 84 44 35 45 87 46
REMARK SMILES IDX 81 47 80 48 36 50 68 51 48 52 67 53 49 54 52 55 66 56 85 57
REMARK SMILES IDX 50 58 51 59 65 61 86 62 53 63 37 64 38 65 46 66 39 67 41 68
REMARK SMILES IDX 47 69 40 70 42 71 43 72 44 73 45 74 69 75 70 76 78 77 71 78
REMARK SMILES IDX 73 79 79 80 72 81 74 82 75 83 76 84 77 85 54 86 55 87 63 88
REMARK SMILES IDX 56 89 58 90 64 91 57 92 59 93 60 94 61 95 62 96
REMARK H PARENT 21 6 6 24 16 26 25 30 84 49 52 60
REMARK Flexibility Score: inf
ROOT
ATOM      1  C   UNL A   1      32.159  28.788  26.056  1.00  0.00     0.042 C 
ENDROOT
BRANCH   1   2
ATOM      2  C   UNL A   1      32.417  27.381  26.578  1.00  0.00     0.117 C 
BRANCH   2   3
ATOM      3  N   UNL A   1      31.187  26.640  26.808  1.00  0.00    -0.354 N 
ATOM      4  C   UNL A   1      30.856  25.352  26.508  1.00  0.00     0.242 C 
ATOM      5  O   UNL A   1      29.670  25.037  26.644  1.00  0.00    -0.273 OA
ATOM      6  H   UNL A   1      30.475  27.154  27.253  1.00  0.00     0.163 HD
BRANCH   4   7
ATOM      7  C   UNL A   1      31.908  24.377  25.945  1.00  0.00     0.177 C 
ATOM      8  N   UNL A   1      31.363  23.514  24.882  1.00  0.00    -0.324 N 
ATOM      9  C   UNL A   1      32.055  22.243  24.940  1.00  0.00     0.152 C 
ATOM     10  C   UNL A   1      32.169  21.988  26.430  1.00  0.00     0.136 C 
ATOM     11  C   UNL A   1      32.459  23.381  26.987  1.00  0.00     0.069 C 
BRANCH   8  12
ATOM     12  C   UNL A   1      31.090  24.032  23.631  1.00  0.00     0.259 C 
ATOM     13  O   UNL A   1      30.186  23.549  22.954  1.00  0.00    -0.269 OA
BRANCH  12  14
ATOM     14  C   UNL A   1      31.884  25.215  23.150  1.00  0.00     0.093 A 
ATOM     15  C   UNL A   1      31.432  26.540  23.068  1.00  0.00     0.116 A 
ATOM     16  N   UNL A   1      32.167  27.543  22.524  1.00  0.00    -0.188 NA
ATOM     17  C   UNL A   1      33.362  27.212  22.068  1.00  0.00     0.315 A 
ATOM     18  C   UNL A   1      33.193  25.024  22.679  1.00  0.00     0.058 A 
ATOM     19  N   UNL A   1      33.929  26.016  22.110  1.00  0.00    -0.200 NA
ATOM     20  C   UNL A   1      33.922  23.709  22.716  1.00  0.00     0.068 C 
BRANCH  15  21
ATOM     21  S   UNL A   1      29.818  27.166  23.510  1.00  0.00    -0.109 SA
ATOM     22  C   UNL A   1      29.904  28.780  22.700  1.00  0.00     0.092 C 
ENDBRANCH  15  21
BRANCH  17  23
ATOM     23  O   UNL A   1      34.090  28.168  21.437  1.00  0.00    -0.479 OA
ATOM     24  H   UNL A   1      34.732  27.924  20.800  1.00  0.00     0.297 HD
ENDBRANCH  17  23
ENDBRANCH  12  14
ENDBRANCH   8  12
BRANCH  10  25
ATOM     25  O   UNL A   1      33.184  21.064  26.774  1.00  0.00    -0.391 OA
ATOM     26  H   UNL A   1      33.540  20.658  25.968  1.00  0.00     0.211 HD
ENDBRANCH  10  25
ENDBRANCH   4   7
ENDBRANCH   2   3
ENDBRANCH   1   2
BRANCH   1  27
ATOM     27  C   UNL A   1      33.390  29.688  26.018  1.00  0.00     0.118 C 
BRANCH  27  28
ATOM     28  N   UNL A   1      33.130  31.024  26.534  1.00  0.00    -0.352 N 
ATOM     29  C   UNL A   1      33.802  31.720  27.509  1.00  0.00     0.251 C 
ATOM     30  H   UNL A   1      32.365  31.493  26.130  1.00  0.00     0.163 HD
ATOM     31  O   UNL A   1      33.344  32.776  27.939  1.00  0.00    -0.269 OA
BRANCH  29  32
ATOM     32  C   UNL A   1      35.065  31.181  28.051  1.00  0.00     0.039 A 
ATOM     33  C   UNL A   1      36.214  31.978  28.015  1.00  0.00     0.014 A 
ATOM     34  C   UNL A   1      35.112  29.896  28.601  1.00  0.00     0.014 A 
ATOM     35  C   UNL A   1      37.396  31.509  28.589  1.00  0.00     0.010 A 
ATOM     36  C   UNL A   1      36.276  29.452  29.220  1.00  0.00     0.010 A 
ATOM     37  C   UNL A   1      37.429  30.253  29.216  1.00  0.00    -0.014 A 
BRANCH  37  38
ATOM     38  C   UNL A   1      38.663  29.753  29.865  1.00  0.00     0.031 A 
ATOM     39  C   UNL A   1      39.095  30.315  31.188  1.00  0.00     0.074 A 
ATOM     40  C   UNL A   1      39.432  28.847  29.229  1.00  0.00     0.049 A 
ATOM     41  N   UNL A   1      40.160  30.034  31.891  1.00  0.00    -0.248 NA
ATOM     42  C   UNL A   1      38.226  31.338  31.796  1.00  0.00     0.031 C 
ATOM     43  C   UNL A   1      39.151  28.274  27.912  1.00  0.00     0.029 A 
ATOM     44  N   UNL A   1      40.619  28.266  29.599  1.00  0.00    -0.354 N 
ATOM     45  C   UNL A   1      40.106  30.858  33.007  1.00  0.00     0.074 A 
ATOM     46  C   UNL A   1      38.915  31.669  32.879  1.00  0.00     0.031 C 
ATOM     47  C   UNL A   1      40.137  27.423  27.584  1.00  0.00     0.029 A 
ATOM     48  C   UNL A   1      41.126  27.401  28.659  1.00  0.00     0.049 A 
ATOM     49  H   UNL A   1      41.065  28.452  30.457  1.00  0.00     0.167 HD
ATOM     50  C   UNL A   1      40.954  30.911  34.059  1.00  0.00     0.034 A 
ATOM     51  C   UNL A   1      42.258  26.671  28.663  1.00  0.00     0.034 A 
ATOM     52  C   UNL A   1      42.105  30.070  34.213  1.00  0.00     0.049 A 
ATOM     53  C   UNL A   1      43.169  26.727  29.858  1.00  0.00     0.074 A 
ATOM     54  C   UNL A   1      42.971  29.991  35.289  1.00  0.00     0.029 A 
ATOM     55  N   UNL A   1      42.554  29.162  33.267  1.00  0.00    -0.354 N 
ATOM     56  N   UNL A   1      43.026  27.410  30.966  1.00  0.00    -0.248 NA
ATOM     57  C   UNL A   1      44.380  25.894  29.816  1.00  0.00     0.031 C 
ATOM     58  C   UNL A   1      43.949  29.036  34.990  1.00  0.00     0.029 A 
ATOM     59  C   UNL A   1      43.688  28.521  33.731  1.00  0.00     0.049 A 
ATOM     60  H   UNL A   1      42.127  28.999  32.395  1.00  0.00     0.167 HD
ATOM     61  C   UNL A   1      44.115  27.075  31.763  1.00  0.00     0.074 A 
ATOM     62  C   UNL A   1      44.903  26.118  31.016  1.00  0.00     0.031 C 
ATOM     63  C   UNL A   1      44.436  27.534  32.997  1.00  0.00     0.034 A 
BRANCH  50  64
ATOM     64  C   UNL A   1      40.623  31.863  35.173  1.00  0.00     0.023 A 
ATOM     65  C   UNL A   1      41.406  33.024  35.331  1.00  0.00     0.012 A 
ATOM     66  C   UNL A   1      39.508  31.655  36.004  1.00  0.00     0.148 A 
ATOM     67  C   UNL A   1      41.089  33.962  36.311  1.00  0.00     0.002 A 
ATOM     68  C   UNL A   1      39.181  32.608  36.961  1.00  0.00     0.091 A 
ATOM     69  F   UNL A   1      38.792  30.533  35.843  1.00  0.00    -0.205 F 
ATOM     70  C   UNL A   1      39.973  33.758  37.119  1.00  0.00     0.022 A 
BRANCH  68  71
ATOM     71  S   UNL A   1      37.739  32.469  38.022  1.00  0.00     0.127 S 
ATOM     72  O   UNL A   1      38.041  33.454  39.060  1.00  0.00    -0.237 OA
ATOM     73  O   UNL A   1      36.655  32.848  37.117  1.00  0.00    -0.237 OA
ATOM     74  O   UNL A   1      37.703  31.085  38.475  1.00  0.00    -0.744 OA
ENDBRANCH  68  71
ENDBRANCH  50  64
BRANCH  51  75
ATOM     75  C   UNL A   1      42.543  25.760  27.521  1.00  0.00     0.023 A 
ATOM     76  C   UNL A   1      43.362  26.219  26.472  1.00  0.00     0.012 A 
ATOM     77  C   UNL A   1      42.072  24.434  27.503  1.00  0.00     0.148 A 
ATOM     78  C   UNL A   1      43.699  25.373  25.415  1.00  0.00     0.002 A 
ATOM     79  C   UNL A   1      42.443  23.585  26.467  1.00  0.00     0.091 A 
ATOM     80  F   UNL A   1      41.295  24.025  28.516  1.00  0.00    -0.205 F 
ATOM     81  C   UNL A   1      43.249  24.056  25.417  1.00  0.00     0.022 A 
BRANCH  79  82
ATOM     82  S   UNL A   1      42.000  21.845  26.429  1.00  0.00     0.127 S 
ATOM     83  O   UNL A   1      40.567  21.907  26.147  1.00  0.00    -0.237 OA
ATOM     84  O   UNL A   1      42.824  21.353  25.325  1.00  0.00    -0.237 OA
ATOM     85  O   UNL A   1      42.356  21.315  27.737  1.00  0.00    -0.744 OA
ENDBRANCH  79  82
ENDBRANCH  51  75
BRANCH  63  86
ATOM     86  C   UNL A   1      45.691  27.017  33.642  1.00  0.00     0.023 A 
ATOM     87  C   UNL A   1      46.879  27.763  33.522  1.00  0.00     0.012 A 
ATOM     88  C   UNL A   1      45.660  25.882  34.474  1.00  0.00     0.148 A 
ATOM     89  C   UNL A   1      48.023  27.384  34.222  1.00  0.00     0.002 A 
ATOM     90  C   UNL A   1      46.795  25.529  35.195  1.00  0.00     0.091 A 
ATOM     91  F   UNL A   1      44.517  25.186  34.562  1.00  0.00    -0.205 F 
ATOM     92  C   UNL A   1      47.978  26.277  35.067  1.00  0.00     0.022 A 
BRANCH  90  93
ATOM     93  S   UNL A   1      46.815  24.168  36.367  1.00  0.00     0.127 S 
ATOM     94  O   UNL A   1      48.195  24.208  36.847  1.00  0.00    -0.237 OA
ATOM     95  O   UNL A   1      45.815  24.590  37.348  1.00  0.00    -0.237 OA
ATOM     96  O   UNL A   1      46.456  22.977  35.609  1.00  0.00    -0.744 OA
ENDBRANCH  90  93
ENDBRANCH  63  86
ENDBRANCH  37  38
ENDBRANCH  29  32
ENDBRANCH  27  28
ENDBRANCH   1  27
TORSDOF 18
ENDMDL
MODEL 3
REMARK VINA RESULT:     -11.8      5.177     10.530
REMARK SMILES CSc1nc(O)nc(C)c1C(=O)N1C[C@@H](O)C[C@@H]1C(=O)NCCCNC(=O)c1ccc(-c2c3nc(c(-c4cccc(S(=O)(=O)[O-])c4F)c4ccc([nH]4)c(-c4cccc(S(=O)(=O)[O-])c4F)c4nc(c(-c5cccc(S(=O)(=O)[O-])c5F)c5ccc2[nH]5)C=C4)C=C3)cc1
REMARK SMILES IDX 23 1 22 2 21 3 19 4 20 5 18 7 13 8 14 9 15 10 17 11 11 12
REMARK SMILES IDX 12 13 10 14 3 15 4 16 5 17 8 18 7 19 9 20 2 21 1 22 6 23
REMARK SMILES IDX 16 25 24 27 25 28 26 29 27 31 28 32 29 33 90 34 30 35 89 36
REMARK SMILES IDX 31 37 32 38 33 39 83 40 34 41 88 42 82 43 84 44 35 45 87 46
REMARK SMILES IDX 81 47 80 48 36 50 68 51 48 52 67 53 49 54 52 55 66 56 85 57
REMARK SMILES IDX 50 58 51 59 65 61 86 62 53 63 37 64 38 65 46 66 39 67 41 68
REMARK SMILES IDX 47 69 40 70 42 71 43 72 44 73 45 74 69 75 70 76 78 77 71 78
REMARK SMILES IDX 73 79 79 80 72 81 74 82 75 83 76 84 77 85 54 86 55 87 63 88
REMARK SMILES IDX 56 89 58 90 64 91 57 92 59 93 60 94 61 95 62 96
REMARK H PARENT 21 6 6 24 16 26 25 30 84 49 52 60
REMARK Flexibility Score: inf
ROOT
ATOM      1  C   UNL A   1      36.787  20.832  24.636  1.00  0.00     0.042 C 
ENDROOT
BRANCH   1   2
ATOM      2  C   UNL A   1      35.420  21.466  24.858  1.00  0.00     0.117 C 
BRANCH   2   3
ATOM      3  N   UNL A   1      35.146  21.714  26.264  1.00  0.00    -0.354 N 
ATOM      4  C   UNL A   1      34.182  22.471  26.862  1.00  0.00     0.242 C 
ATOM      5  O   UNL A   1      34.297  22.659  28.077  1.00  0.00    -0.273 OA
ATOM      6  H   UNL A   1      35.758  21.261  26.888  1.00  0.00     0.163 HD
BRANCH   4   7
ATOM      7  C   UNL A   1      33.060  23.122  26.030  1.00  0.00     0.177 C 
ATOM      8  N   UNL A   1      33.114  24.595  26.068  1.00  0.00    -0.324 N 
ATOM      9  C   UNL A   1      31.759  25.094  25.960  1.00  0.00     0.152 C 
ATOM     10  C   UNL A   1      30.974  24.131  26.830  1.00  0.00     0.136 C 
ATOM     11  C   UNL A   1      31.637  22.788  26.527  1.00  0.00     0.069 C 
BRANCH   8  12
ATOM     12  C   UNL A   1      34.099  25.277  25.381  1.00  0.00     0.259 C 
ATOM     13  O   UNL A   1      35.262  24.884  25.434  1.00  0.00    -0.269 OA
BRANCH  12  14
ATOM     14  C   UNL A   1      33.708  26.461  24.542  1.00  0.00     0.093 A 
ATOM     15  C   UNL A   1      33.627  27.793  24.973  1.00  0.00     0.116 A 
ATOM     16  N   UNL A   1      33.163  28.800  24.190  1.00  0.00    -0.188 NA
ATOM     17  C   UNL A   1      32.787  28.465  22.968  1.00  0.00     0.315 A 
ATOM     18  C   UNL A   1      33.329  26.265  23.204  1.00  0.00     0.058 A 
ATOM     19  N   UNL A   1      32.841  27.262  22.418  1.00  0.00    -0.200 NA
ATOM     20  C   UNL A   1      33.386  24.942  22.493  1.00  0.00     0.068 C 
BRANCH  15  21
ATOM     21  S   UNL A   1      33.965  28.427  26.609  1.00  0.00    -0.109 SA
ATOM     22  C   UNL A   1      32.411  29.304  26.904  1.00  0.00     0.092 C 
ENDBRANCH  15  21
BRANCH  17  23
ATOM     23  O   UNL A   1      32.236  29.428  22.186  1.00  0.00    -0.479 OA
ATOM     24  H   UNL A   1      32.474  29.491  21.282  1.00  0.00     0.297 HD
ENDBRANCH  17  23
ENDBRANCH  12  14
ENDBRANCH   8  12
BRANCH  10  25
ATOM     25  O   UNL A   1      29.588  24.106  26.545  1.00  0.00    -0.391 OA
ATOM     26  H   UNL A   1      29.275  25.009  26.380  1.00  0.00     0.211 HD
ENDBRANCH  10  25
ENDBRANCH   4   7
ENDBRANCH   2   3
ENDBRANCH   1   2
BRANCH   1  27
ATOM     27  C   UNL A   1      37.927  21.491  25.406  1.00  0.00     0.118 C 
BRANCH  27  28
ATOM     28  N   UNL A   1      38.897  20.531  25.911  1.00  0.00    -0.352 N 
ATOM     29  C   UNL A   1      40.100  20.763  26.532  1.00  0.00     0.251 C 
ATOM     30  H   UNL A   1      38.658  19.583  25.791  1.00  0.00     0.163 HD
ATOM     31  O   UNL A   1      40.872  19.833  26.746  1.00  0.00    -0.269 OA
BRANCH  29  32
ATOM     32  C   UNL A   1      40.468  22.140  26.920  1.00  0.00     0.039 A 
ATOM     33  C   UNL A   1      41.291  22.334  28.033  1.00  0.00     0.014 A 
ATOM     34  C   UNL A   1      40.007  23.234  26.180  1.00  0.00     0.014 A 
ATOM     35  C   UNL A   1      41.706  23.625  28.367  1.00  0.00     0.010 A 
ATOM     36  C   UNL A   1      40.463  24.513  26.482  1.00  0.00     0.010 A 
ATOM     37  C   UNL A   1      41.313  24.719  27.580  1.00  0.00    -0.014 A 
BRANCH  37  38
ATOM     38  C   UNL A   1      41.772  26.092  27.895  1.00  0.00     0.031 A 
ATOM     39  C   UNL A   1      43.178  26.506  27.569  1.00  0.00     0.074 A 
ATOM     40  C   UNL A   1      40.948  26.941  28.539  1.00  0.00     0.049 A 
ATOM     41  N   UNL A   1      43.774  27.645  27.802  1.00  0.00    -0.248 NA
ATOM     42  C   UNL A   1      44.034  25.504  26.909  1.00  0.00     0.031 C 
ATOM     43  C   UNL A   1      39.582  26.634  28.965  1.00  0.00     0.029 A 
ATOM     44  N   UNL A   1      41.148  28.230  28.966  1.00  0.00    -0.354 N 
ATOM     45  C   UNL A   1      45.075  27.493  27.343  1.00  0.00     0.074 A 
ATOM     46  C   UNL A   1      45.194  26.143  26.839  1.00  0.00     0.031 C 
ATOM     47  C   UNL A   1      39.067  27.704  29.592  1.00  0.00     0.029 A 
ATOM     48  C   UNL A   1      40.068  28.767  29.626  1.00  0.00     0.049 A 
ATOM     49  H   UNL A   1      41.987  28.723  28.815  1.00  0.00     0.167 HD
ATOM     50  C   UNL A   1      46.072  28.407  27.314  1.00  0.00     0.034 A 
ATOM     51  C   UNL A   1      39.903  29.978  30.191  1.00  0.00     0.034 A 
ATOM     52  C   UNL A   1      45.940  29.762  27.764  1.00  0.00     0.049 A 
ATOM     53  C   UNL A   1      41.017  30.985  30.120  1.00  0.00     0.074 A 
ATOM     54  C   UNL A   1      46.869  30.784  27.691  1.00  0.00     0.029 A 
ATOM     55  N   UNL A   1      44.811  30.287  28.371  1.00  0.00    -0.354 N 
ATOM     56  N   UNL A   1      42.194  30.867  29.556  1.00  0.00    -0.248 NA
ATOM     57  C   UNL A   1      40.774  32.298  30.736  1.00  0.00     0.031 C 
ATOM     58  C   UNL A   1      46.302  31.929  28.259  1.00  0.00     0.029 A 
ATOM     59  C   UNL A   1      45.020  31.619  28.683  1.00  0.00     0.049 A 
ATOM     60  H   UNL A   1      43.983  29.787  28.553  1.00  0.00     0.167 HD
ATOM     61  C   UNL A   1      42.825  32.094  29.730  1.00  0.00     0.074 A 
ATOM     62  C   UNL A   1      41.895  32.946  30.440  1.00  0.00     0.031 C 
ATOM     63  C   UNL A   1      44.068  32.470  29.346  1.00  0.00     0.034 A 
BRANCH  50  64
ATOM     64  C   UNL A   1      47.380  27.992  26.702  1.00  0.00     0.023 A 
ATOM     65  C   UNL A   1      48.438  27.611  27.550  1.00  0.00     0.012 A 
ATOM     66  C   UNL A   1      47.537  27.906  25.307  1.00  0.00     0.148 A 
ATOM     67  C   UNL A   1      49.643  27.158  27.017  1.00  0.00     0.002 A 
ATOM     68  C   UNL A   1      48.732  27.427  24.782  1.00  0.00     0.091 A 
ATOM     69  F   UNL A   1      46.520  28.292  24.524  1.00  0.00    -0.205 F 
ATOM     70  C   UNL A   1      49.786  27.057  25.635  1.00  0.00     0.022 A 
BRANCH  68  71
ATOM     71  S   UNL A   1      49.006  27.213  23.021  1.00  0.00     0.127 S 
ATOM     72  O   UNL A   1      50.465  27.121  22.959  1.00  0.00    -0.237 OA
ATOM     73  O   UNL A   1      48.303  25.959  22.751  1.00  0.00    -0.237 OA
ATOM     74  O   UNL A   1      48.432  28.387  22.378  1.00  0.00    -0.744 OA
ENDBRANCH  68  71
ENDBRANCH  50  64
BRANCH  51  75
ATOM     75  C   UNL A   1      38.591  30.325  30.802  1.00  0.00     0.023 A 
ATOM     76  C   UNL A   1      38.352  29.979  32.145  1.00  0.00     0.012 A 
ATOM     77  C   UNL A   1      37.618  31.051  30.089  1.00  0.00     0.148 A 
ATOM     78  C   UNL A   1      37.157  30.341  32.768  1.00  0.00     0.002 A 
ATOM     79  C   UNL A   1      36.446  31.443  30.728  1.00  0.00     0.091 A 
ATOM     80  F   UNL A   1      37.874  31.369  28.813  1.00  0.00    -0.205 F 
ATOM     81  C   UNL A   1      36.210  31.079  32.064  1.00  0.00     0.022 A 
BRANCH  79  82
ATOM     82  S   UNL A   1      35.211  32.481  29.941  1.00  0.00     0.127 S 
ATOM     83  O   UNL A   1      34.729  31.613  28.868  1.00  0.00    -0.237 OA
ATOM     84  O   UNL A   1      34.262  32.693  31.035  1.00  0.00    -0.237 OA
ATOM     85  O   UNL A   1      35.915  33.679  29.507  1.00  0.00    -0.744 OA
ENDBRANCH  79  82
ENDBRANCH  51  75
BRANCH  63  86
ATOM     86  C   UNL A   1      44.520  33.866  29.673  1.00  0.00     0.023 A 
ATOM     87  C   UNL A   1      45.250  34.089  30.855  1.00  0.00     0.012 A 
ATOM     88  C   UNL A   1      44.345  34.915  28.751  1.00  0.00     0.148 A 
ATOM     89  C   UNL A   1      45.801  35.343  31.117  1.00  0.00     0.002 A 
ATOM     90  C   UNL A   1      44.924  36.154  29.003  1.00  0.00     0.091 A 
ATOM     91  F   UNL A   1      43.636  34.675  27.637  1.00  0.00    -0.205 F 
ATOM     92  C   UNL A   1      45.650  36.369  30.187  1.00  0.00     0.022 A 
BRANCH  90  93
ATOM     93  S   UNL A   1      44.853  37.513  27.832  1.00  0.00     0.127 S 
ATOM     94  O   UNL A   1      45.516  36.936  26.664  1.00  0.00    -0.237 OA
ATOM     95  O   UNL A   1      43.412  37.715  27.679  1.00  0.00    -0.237 OA
ATOM     96  O   UNL A   1      45.558  38.624  28.460  1.00  0.00    -0.744 OA
ENDBRANCH  90  93
ENDBRANCH  63  86
ENDBRANCH  37  38
ENDBRANCH  29  32
ENDBRANCH  27  28
ENDBRANCH   1  27
TORSDOF 18
ENDMDL
