MODEL 1
REMARK VINA RESULT:     -11.1      0.000      0.000
REMARK SMILES [NH3+][C@H](Cc1cc(F)c(F)c(F)c1)C(=O)NCCCNC(=O)c1ccc(-c2c3nc(c(-c4cccc(S(=O)(=O)[O-])c4F)c4ccc([nH]4)c(-c4cccc(S(=O)(=O)[O-])c4F)c4nc(c(-c5cccc(S(=O)(=O)[O-])c5F)c5ccc2[nH]5)C=C4)C=C3)cc1
REMARK SMILES IDX 17 1 16 2 15 3 13 4 14 5 2 7 1 8 3 12 4 13 5 14 12 15 6 16
REMARK SMILES IDX 10 17 7 18 8 19 11 20 9 21 18 22 19 23 20 24 21 26 22 27
REMARK SMILES IDX 23 28 84 29 24 30 83 31 25 32 26 33 27 34 77 35 28 36 82 37
REMARK SMILES IDX 76 38 78 39 29 40 81 41 75 42 74 43 30 45 62 46 42 47 61 48
REMARK SMILES IDX 43 49 46 50 60 51 79 52 44 53 45 54 59 56 80 57 47 58 31 59
REMARK SMILES IDX 32 60 40 61 33 62 35 63 41 64 34 65 36 66 37 67 38 68 39 69
REMARK SMILES IDX 63 70 64 71 72 72 65 73 67 74 73 75 66 76 68 77 69 78 70 79
REMARK SMILES IDX 71 80 48 81 49 82 57 83 50 84 52 85 58 86 51 87 53 88 54 89
REMARK SMILES IDX 55 90 56 91
REMARK H PARENT 15 6 1 9 1 10 1 11 19 25 78 44 46 55
REMARK Flexibility Score: inf
ROOT
ATOM      1  C   UNL A   1      35.111  34.318  29.322  1.00  0.00     0.042 C 
ENDROOT
BRANCH   1   2
ATOM      2  C   UNL A   1      33.657  34.747  29.210  1.00  0.00     0.118 C 
BRANCH   2   3
ATOM      3  N   UNL A   1      33.436  36.058  29.796  1.00  0.00    -0.351 N 
ATOM      4  C   UNL A   1      33.113  36.425  31.066  1.00  0.00     0.278 C 
ATOM      5  O   UNL A   1      32.903  37.622  31.277  1.00  0.00    -0.268 OA
ATOM      6  H   UNL A   1      33.539  36.808  29.168  1.00  0.00     0.163 HD
BRANCH   4   7
ATOM      7  C   UNL A   1      33.040  35.394  32.208  1.00  0.00     0.275 C 
BRANCH   7   8
ATOM      8  N   UNL A   1      31.661  35.328  32.754  1.00  0.00    -0.347 N 
ATOM      9  H   UNL A   1      31.011  35.083  32.007  1.00  0.00     0.345 HD
ATOM     10  H   UNL A   1      31.406  36.236  33.141  1.00  0.00     0.345 HD
ATOM     11  H   UNL A   1      31.620  34.621  33.488  1.00  0.00     0.345 HD
ENDBRANCH   7   8
BRANCH   7  12
ATOM     12  C   UNL A   1      34.148  35.643  33.256  1.00  0.00     0.111 C 
BRANCH  12  13
ATOM     13  C   UNL A   1      35.113  34.493  33.473  1.00  0.00    -0.036 A 
ATOM     14  C   UNL A   1      34.972  33.315  32.719  1.00  0.00     0.046 A 
ATOM     15  C   UNL A   1      36.190  34.578  34.370  1.00  0.00     0.046 A 
ATOM     16  C   UNL A   1      35.854  32.249  32.902  1.00  0.00     0.162 A 
ATOM     17  C   UNL A   1      37.062  33.504  34.542  1.00  0.00     0.162 A 
ATOM     18  F   UNL A   1      35.684  31.128  32.188  1.00  0.00    -0.204 F 
ATOM     19  C   UNL A   1      36.894  32.337  33.815  1.00  0.00     0.194 A 
ATOM     20  F   UNL A   1      38.065  33.614  35.423  1.00  0.00    -0.204 F 
ATOM     21  F   UNL A   1      37.729  31.305  33.997  1.00  0.00    -0.200 F 
ENDBRANCH  12  13
ENDBRANCH   7  12
ENDBRANCH   4   7
ENDBRANCH   2   3
ENDBRANCH   1   2
BRANCH   1  22
ATOM     22  C   UNL A   1      35.556  33.363  28.223  1.00  0.00     0.118 C 
BRANCH  22  23
ATOM     23  N   UNL A   1      34.509  32.426  27.835  1.00  0.00    -0.352 N 
ATOM     24  C   UNL A   1      34.576  31.064  27.655  1.00  0.00     0.251 C 
ATOM     25  H   UNL A   1      33.623  32.827  27.680  1.00  0.00     0.163 HD
ATOM     26  O   UNL A   1      33.641  30.471  27.132  1.00  0.00    -0.269 OA
BRANCH  24  27
ATOM     27  C   UNL A   1      35.789  30.331  28.074  1.00  0.00     0.039 A 
ATOM     28  C   UNL A   1      36.892  30.296  27.218  1.00  0.00     0.014 A 
ATOM     29  C   UNL A   1      35.842  29.703  29.321  1.00  0.00     0.014 A 
ATOM     30  C   UNL A   1      38.079  29.703  27.652  1.00  0.00     0.010 A 
ATOM     31  C   UNL A   1      37.050  29.197  29.785  1.00  0.00     0.010 A 
ATOM     32  C   UNL A   1      38.183  29.193  28.957  1.00  0.00    -0.014 A 
BRANCH  32  33
ATOM     33  C   UNL A   1      39.468  28.679  29.491  1.00  0.00     0.031 A 
ATOM     34  C   UNL A   1      40.170  29.406  30.606  1.00  0.00     0.074 A 
ATOM     35  C   UNL A   1      40.055  27.620  28.899  1.00  0.00     0.049 A 
ATOM     36  N   UNL A   1      41.336  29.159  31.143  1.00  0.00    -0.248 NA
ATOM     37  C   UNL A   1      39.485  30.581  31.173  1.00  0.00     0.031 C 
ATOM     38  C   UNL A   1      39.513  26.881  27.757  1.00  0.00     0.029 A 
ATOM     39  N   UNL A   1      41.253  27.000  29.155  1.00  0.00    -0.354 N 
ATOM     40  C   UNL A   1      41.542  30.164  32.081  1.00  0.00     0.074 A 
ATOM     41  C   UNL A   1      40.396  31.045  32.016  1.00  0.00     0.031 C 
ATOM     42  C   UNL A   1      40.371  25.908  27.413  1.00  0.00     0.029 A 
ATOM     43  C   UNL A   1      41.542  25.977  28.281  1.00  0.00     0.049 A 
ATOM     44  H   UNL A   1      41.849  27.263  29.893  1.00  0.00     0.167 HD
ATOM     45  C   UNL A   1      42.577  30.325  32.939  1.00  0.00     0.034 A 
ATOM     46  C   UNL A   1      42.633  25.195  28.178  1.00  0.00     0.034 A 
ATOM     47  C   UNL A   1      43.698  29.428  33.023  1.00  0.00     0.049 A 
ATOM     48  C   UNL A   1      43.761  25.382  29.157  1.00  0.00     0.074 A 
ATOM     49  C   UNL A   1      44.751  29.451  33.920  1.00  0.00     0.029 A 
ATOM     50  N   UNL A   1      43.920  28.356  32.172  1.00  0.00    -0.354 N 
ATOM     51  N   UNL A   1      43.861  26.236  30.145  1.00  0.00    -0.248 NA
ATOM     52  C   UNL A   1      44.911  24.476  29.026  1.00  0.00     0.031 C 
ATOM     53  C   UNL A   1      45.629  28.413  33.589  1.00  0.00     0.029 A 
ATOM     54  C   UNL A   1      45.105  27.722  32.509  1.00  0.00     0.049 A 
ATOM     55  H   UNL A   1      43.325  28.086  31.437  1.00  0.00     0.167 HD
ATOM     56  C   UNL A   1      45.069  25.955  30.772  1.00  0.00     0.074 A 
ATOM     57  C   UNL A   1      45.651  24.831  30.067  1.00  0.00     0.031 C 
ATOM     58  C   UNL A   1      45.653  26.579  31.825  1.00  0.00     0.034 A 
BRANCH  45  59
ATOM     59  C   UNL A   1      42.527  31.496  33.886  1.00  0.00     0.023 A 
ATOM     60  C   UNL A   1      43.025  32.749  33.473  1.00  0.00     0.012 A 
ATOM     61  C   UNL A   1      41.937  31.373  35.159  1.00  0.00     0.148 A 
ATOM     62  C   UNL A   1      42.969  33.852  34.324  1.00  0.00     0.002 A 
ATOM     63  C   UNL A   1      41.842  32.488  35.983  1.00  0.00     0.091 A 
ATOM     64  F   UNL A   1      41.489  30.169  35.542  1.00  0.00    -0.205 F 
ATOM     65  C   UNL A   1      42.369  33.723  35.573  1.00  0.00     0.022 A 
BRANCH  63  66
ATOM     66  S   UNL A   1      41.015  32.448  37.577  1.00  0.00     0.127 S 
ATOM     67  O   UNL A   1      41.903  31.578  38.348  1.00  0.00    -0.237 OA
ATOM     68  O   UNL A   1      41.046  33.856  37.974  1.00  0.00    -0.237 OA
ATOM     69  O   UNL A   1      39.684  31.915  37.327  1.00  0.00    -0.744 OA
ENDBRANCH  63  66
ENDBRANCH  45  59
BRANCH  46  70
ATOM     70  C   UNL A   1      42.694  24.131  27.135  1.00  0.00     0.023 A 
ATOM     71  C   UNL A   1      43.445  24.349  25.965  1.00  0.00     0.012 A 
ATOM     72  C   UNL A   1      42.033  22.899  27.308  1.00  0.00     0.148 A 
ATOM     73  C   UNL A   1      43.512  23.374  24.969  1.00  0.00     0.002 A 
ATOM     74  C   UNL A   1      42.151  21.909  26.339  1.00  0.00     0.091 A 
ATOM     75  F   UNL A   1      41.315  22.714  28.425  1.00  0.00    -0.205 F 
ATOM     76  C   UNL A   1      42.873  22.151  25.161  1.00  0.00     0.022 A 
BRANCH  74  77
ATOM     77  S   UNL A   1      41.481  20.258  26.565  1.00  0.00     0.127 S 
ATOM     78  O   UNL A   1      40.044  20.517  26.569  1.00  0.00    -0.237 OA
ATOM     79  O   UNL A   1      41.980  19.566  25.377  1.00  0.00    -0.237 OA
ATOM     80  O   UNL A   1      42.041  19.773  27.820  1.00  0.00    -0.744 OA
ENDBRANCH  74  77
ENDBRANCH  46  70
BRANCH  58  81
ATOM     81  C   UNL A   1      46.979  26.048  32.302  1.00  0.00     0.023 A 
ATOM     82  C   UNL A   1      48.176  26.579  31.780  1.00  0.00     0.012 A 
ATOM     83  C   UNL A   1      47.041  25.073  33.317  1.00  0.00     0.148 A 
ATOM     84  C   UNL A   1      49.412  26.123  32.235  1.00  0.00     0.002 A 
ATOM     85  C   UNL A   1      48.275  24.661  33.804  1.00  0.00     0.091 A 
ATOM     86  F   UNL A   1      45.891  24.570  33.790  1.00  0.00    -0.205 F 
ATOM     87  C   UNL A   1      49.462  25.174  33.254  1.00  0.00     0.022 A 
BRANCH  85  88
ATOM     88  S   UNL A   1      48.439  23.517  35.179  1.00  0.00     0.127 S 
ATOM     89  O   UNL A   1      49.890  23.445  35.335  1.00  0.00    -0.237 OA
ATOM     90  O   UNL A   1      47.743  24.225  36.254  1.00  0.00    -0.237 OA
ATOM     91  O   UNL A   1      47.796  22.281  34.753  1.00  0.00    -0.744 OA
ENDBRANCH  85  88
ENDBRANCH  58  81
ENDBRANCH  32  33
ENDBRANCH  24  27
ENDBRANCH  22  23
ENDBRANCH   1  22
TORSDOF 16
ENDMDL
MODEL 2
REMARK VINA RESULT:     -11.0      4.696     12.408
REMARK SMILES [NH3+][C@H](Cc1cc(F)c(F)c(F)c1)C(=O)NCCCNC(=O)c1ccc(-c2c3nc(c(-c4cccc(S(=O)(=O)[O-])c4F)c4ccc([nH]4)c(-c4cccc(S(=O)(=O)[O-])c4F)c4nc(c(-c5cccc(S(=O)(=O)[O-])c5F)c5ccc2[nH]5)C=C4)C=C3)cc1
REMARK SMILES IDX 17 1 16 2 15 3 13 4 14 5 2 7 1 8 3 12 4 13 5 14 12 15 6 16
REMARK SMILES IDX 10 17 7 18 8 19 11 20 9 21 18 22 19 23 20 24 21 26 22 27
REMARK SMILES IDX 23 28 84 29 24 30 83 31 25 32 26 33 27 34 77 35 28 36 82 37
REMARK SMILES IDX 76 38 78 39 29 40 81 41 75 42 74 43 30 45 62 46 42 47 61 48
REMARK SMILES IDX 43 49 46 50 60 51 79 52 44 53 45 54 59 56 80 57 47 58 31 59
REMARK SMILES IDX 32 60 40 61 33 62 35 63 41 64 34 65 36 66 37 67 38 68 39 69
REMARK SMILES IDX 63 70 64 71 72 72 65 73 67 74 73 75 66 76 68 77 69 78 70 79
REMARK SMILES IDX 71 80 48 81 49 82 57 83 50 84 52 85 58 86 51 87 53 88 54 89
REMARK SMILES IDX 55 90 56 91
REMARK H PARENT 15 6 1 9 1 10 1 11 19 25 78 44 46 55
REMARK Flexibility Score: inf
ROOT
ATOM      1  C   UNL A   1      42.513  21.115  27.035  1.00  0.00     0.042 C 
ENDROOT
BRANCH   1   2
ATOM      2  C   UNL A   1      42.250  19.926  26.125  1.00  0.00     0.118 C 
BRANCH   2   3
ATOM      3  N   UNL A   1      43.385  19.022  26.082  1.00  0.00    -0.351 N 
ATOM      4  C   UNL A   1      44.482  19.003  25.275  1.00  0.00     0.278 C 
ATOM      5  O   UNL A   1      45.266  18.060  25.402  1.00  0.00    -0.268 OA
ATOM      6  H   UNL A   1      43.358  18.300  26.750  1.00  0.00     0.163 HD
BRANCH   4   7
ATOM      7  C   UNL A   1      44.753  20.129  24.260  1.00  0.00     0.275 C 
BRANCH   7   8
ATOM      8  N   UNL A   1      44.837  19.574  22.886  1.00  0.00    -0.347 N 
ATOM      9  H   UNL A   1      45.812  19.376  22.658  1.00  0.00     0.345 HD
ATOM     10  H   UNL A   1      44.464  20.252  22.221  1.00  0.00     0.345 HD
ATOM     11  H   UNL A   1      44.294  18.712  22.834  1.00  0.00     0.345 HD
ENDBRANCH   7   8
BRANCH   7  12
ATOM     12  C   UNL A   1      45.960  20.991  24.693  1.00  0.00     0.111 C 
BRANCH  12  13
ATOM     13  C   UNL A   1      45.693  22.480  24.810  1.00  0.00    -0.036 A 
ATOM     14  C   UNL A   1      46.772  23.376  24.885  1.00  0.00     0.046 A 
ATOM     15  C   UNL A   1      44.393  23.011  24.792  1.00  0.00     0.046 A 
ATOM     16  C   UNL A   1      46.545  24.749  24.988  1.00  0.00     0.162 A 
ATOM     17  C   UNL A   1      44.183  24.384  24.897  1.00  0.00     0.162 A 
ATOM     18  F   UNL A   1      47.591  25.581  25.083  1.00  0.00    -0.204 F 
ATOM     19  C   UNL A   1      45.254  25.255  25.001  1.00  0.00     0.194 A 
ATOM     20  F   UNL A   1      42.927  24.853  24.898  1.00  0.00    -0.204 F 
ATOM     21  F   UNL A   1      45.041  26.574  25.115  1.00  0.00    -0.200 F 
ENDBRANCH  12  13
ENDBRANCH   7  12
ENDBRANCH   4   7
ENDBRANCH   2   3
ENDBRANCH   1   2
BRANCH   1  22
ATOM     22  C   UNL A   1      41.257  21.682  27.683  1.00  0.00     0.118 C 
BRANCH  22  23
ATOM     23  N   UNL A   1      40.080  21.555  26.832  1.00  0.00    -0.352 N 
ATOM     24  C   UNL A   1      39.133  22.496  26.501  1.00  0.00     0.251 C 
ATOM     25  H   UNL A   1      39.943  20.664  26.437  1.00  0.00     0.163 HD
ATOM     26  O   UNL A   1      38.103  22.153  25.935  1.00  0.00    -0.269 OA
BRANCH  24  27
ATOM     27  C   UNL A   1      39.359  23.913  26.852  1.00  0.00     0.039 A 
ATOM     28  C   UNL A   1      39.031  24.356  28.135  1.00  0.00     0.014 A 
ATOM     29  C   UNL A   1      39.917  24.794  25.922  1.00  0.00     0.014 A 
ATOM     30  C   UNL A   1      39.344  25.664  28.511  1.00  0.00     0.010 A 
ATOM     31  C   UNL A   1      40.313  26.063  26.327  1.00  0.00     0.010 A 
ATOM     32  C   UNL A   1      40.032  26.512  27.627  1.00  0.00    -0.014 A 
BRANCH  32  33
ATOM     33  C   UNL A   1      40.497  27.858  28.044  1.00  0.00     0.031 A 
ATOM     34  C   UNL A   1      41.968  28.174  28.081  1.00  0.00     0.074 A 
ATOM     35  C   UNL A   1      39.600  28.759  28.492  1.00  0.00     0.049 A 
ATOM     36  N   UNL A   1      42.566  29.260  28.496  1.00  0.00    -0.248 NA
ATOM     37  C   UNL A   1      42.889  27.123  27.616  1.00  0.00     0.031 C 
ATOM     38  C   UNL A   1      38.155  28.541  28.582  1.00  0.00     0.029 A 
ATOM     39  N   UNL A   1      39.774  30.028  28.986  1.00  0.00    -0.354 N 
ATOM     40  C   UNL A   1      43.928  29.011  28.379  1.00  0.00     0.074 A 
ATOM     41  C   UNL A   1      44.070  27.658  27.886  1.00  0.00     0.031 C 
ATOM     42  C   UNL A   1      37.574  29.637  29.096  1.00  0.00     0.029 A 
ATOM     43  C   UNL A   1      38.606  30.619  29.410  1.00  0.00     0.049 A 
ATOM     44  H   UNL A   1      40.652  30.472  29.034  1.00  0.00     0.167 HD
ATOM     45  C   UNL A   1      44.967  29.841  28.633  1.00  0.00     0.034 A 
ATOM     46  C   UNL A   1      38.392  31.811  30.000  1.00  0.00     0.034 A 
ATOM     47  C   UNL A   1      44.819  31.196  29.090  1.00  0.00     0.049 A 
ATOM     48  C   UNL A   1      39.562  32.723  30.252  1.00  0.00     0.074 A 
ATOM     49  C   UNL A   1      45.804  32.148  29.287  1.00  0.00     0.029 A 
ATOM     50  N   UNL A   1      43.615  31.789  29.436  1.00  0.00    -0.354 N 
ATOM     51  N   UNL A   1      40.830  32.531  29.980  1.00  0.00    -0.248 NA
ATOM     52  C   UNL A   1      39.269  34.027  30.862  1.00  0.00     0.031 C 
ATOM     53  C   UNL A   1      45.198  33.306  29.786  1.00  0.00     0.029 A 
ATOM     54  C   UNL A   1      43.832  33.088  29.866  1.00  0.00     0.049 A 
ATOM     55  H   UNL A   1      42.735  31.352  29.384  1.00  0.00     0.167 HD
ATOM     56  C   UNL A   1      41.482  33.698  30.358  1.00  0.00     0.074 A 
ATOM     57  C   UNL A   1      40.463  34.602  30.852  1.00  0.00     0.031 C 
ATOM     58  C   UNL A   1      42.805  33.991  30.317  1.00  0.00     0.034 A 
BRANCH  45  59
ATOM     59  C   UNL A   1      46.359  29.320  28.381  1.00  0.00     0.023 A 
ATOM     60  C   UNL A   1      46.966  29.534  27.126  1.00  0.00     0.012 A 
ATOM     61  C   UNL A   1      47.085  28.673  29.399  1.00  0.00     0.148 A 
ATOM     62  C   UNL A   1      48.261  29.080  26.876  1.00  0.00     0.002 A 
ATOM     63  C   UNL A   1      48.393  28.266  29.158  1.00  0.00     0.091 A 
ATOM     64  F   UNL A   1      46.484  28.460  30.577  1.00  0.00    -0.205 F 
ATOM     65  C   UNL A   1      48.976  28.457  27.895  1.00  0.00     0.022 A 
BRANCH  63  66
ATOM     66  S   UNL A   1      49.428  27.528  30.426  1.00  0.00     0.127 S 
ATOM     67  O   UNL A   1      50.676  27.308  29.695  1.00  0.00    -0.237 OA
ATOM     68  O   UNL A   1      49.489  28.591  31.429  1.00  0.00    -0.237 OA
ATOM     69  O   UNL A   1      48.737  26.321  30.857  1.00  0.00    -0.744 OA
ENDBRANCH  63  66
ENDBRANCH  45  59
BRANCH  46  70
ATOM     70  C   UNL A   1      37.005  32.229  30.353  1.00  0.00     0.023 A 
ATOM     71  C   UNL A   1      36.522  32.001  31.656  1.00  0.00     0.012 A 
ATOM     72  C   UNL A   1      36.175  32.875  29.416  1.00  0.00     0.148 A 
ATOM     73  C   UNL A   1      35.226  32.376  32.010  1.00  0.00     0.002 A 
ATOM     74  C   UNL A   1      34.905  33.298  29.792  1.00  0.00     0.091 A 
ATOM     75  F   UNL A   1      36.649  33.074  28.178  1.00  0.00    -0.205 F 
ATOM     76  C   UNL A   1      34.421  33.033  31.082  1.00  0.00     0.022 A 
BRANCH  74  77
ATOM     77  S   UNL A   1      33.857  34.273  28.708  1.00  0.00     0.127 S 
ATOM     78  O   UNL A   1      33.464  33.287  27.705  1.00  0.00    -0.237 OA
ATOM     79  O   UNL A   1      32.787  34.687  29.617  1.00  0.00    -0.237 OA
ATOM     80  O   UNL A   1      34.692  35.366  28.229  1.00  0.00    -0.744 OA
ENDBRANCH  74  77
ENDBRANCH  46  70
BRANCH  58  81
ATOM     81  C   UNL A   1      43.232  35.355  30.793  1.00  0.00     0.023 A 
ATOM     82  C   UNL A   1      43.631  35.536  32.132  1.00  0.00     0.012 A 
ATOM     83  C   UNL A   1      43.306  36.439  29.897  1.00  0.00     0.148 A 
ATOM     84  C   UNL A   1      44.062  36.784  32.580  1.00  0.00     0.002 A 
ATOM     85  C   UNL A   1      43.785  37.667  30.337  1.00  0.00     0.091 A 
ATOM     86  F   UNL A   1      42.907  36.250  28.629  1.00  0.00    -0.205 F 
ATOM     87  C   UNL A   1      44.151  37.845  31.682  1.00  0.00     0.022 A 
BRANCH  85  88
ATOM     88  S   UNL A   1      44.026  39.062  29.233  1.00  0.00     0.127 S 
ATOM     89  O   UNL A   1      42.667  39.302  28.753  1.00  0.00    -0.237 OA
ATOM     90  O   UNL A   1      44.544  40.088  30.139  1.00  0.00    -0.237 OA
ATOM     91  O   UNL A   1      44.974  38.615  28.220  1.00  0.00    -0.744 OA
ENDBRANCH  85  88
ENDBRANCH  58  81
ENDBRANCH  32  33
ENDBRANCH  24  27
ENDBRANCH  22  23
ENDBRANCH   1  22
TORSDOF 16
ENDMDL
MODEL 3
REMARK VINA RESULT:     -11.0      1.885      2.206
REMARK SMILES [NH3+][C@H](Cc1cc(F)c(F)c(F)c1)C(=O)NCCCNC(=O)c1ccc(-c2c3nc(c(-c4cccc(S(=O)(=O)[O-])c4F)c4ccc([nH]4)c(-c4cccc(S(=O)(=O)[O-])c4F)c4nc(c(-c5cccc(S(=O)(=O)[O-])c5F)c5ccc2[nH]5)C=C4)C=C3)cc1
REMARK SMILES IDX 17 1 16 2 15 3 13 4 14 5 2 7 1 8 3 12 4 13 5 14 12 15 6 16
REMARK SMILES IDX 10 17 7 18 8 19 11 20 9 21 18 22 19 23 20 24 21 26 22 27
REMARK SMILES IDX 23 28 84 29 24 30 83 31 25 32 26 33 27 34 77 35 28 36 82 37
REMARK SMILES IDX 76 38 78 39 29 40 81 41 75 42 74 43 30 45 62 46 42 47 61 48
REMARK SMILES IDX 43 49 46 50 60 51 79 52 44 53 45 54 59 56 80 57 47 58 31 59
REMARK SMILES IDX 32 60 40 61 33 62 35 63 41 64 34 65 36 66 37 67 38 68 39 69
REMARK SMILES IDX 63 70 64 71 72 72 65 73 67 74 73 75 66 76 68 77 69 78 70 79
REMARK SMILES IDX 71 80 48 81 49 82 57 83 50 84 52 85 58 86 51 87 53 88 54 89
REMARK SMILES IDX 55 90 56 91
REMARK H PARENT 15 6 1 9 1 10 1 11 19 25 78 44 46 55
REMARK Flexibility Score: inf
ROOT
ATOM      1  C   UNL A   1      33.996  35.318  29.092  1.00  0.00     0.042 C 
ENDROOT
BRANCH   1   2
ATOM      2  C   UNL A   1      32.973  35.513  30.199  1.00  0.00     0.118 C 
BRANCH   2   3
ATOM      3  N   UNL A   1      33.506  36.311  31.288  1.00  0.00    -0.351 N 
ATOM      4  C   UNL A   1      34.118  35.945  32.448  1.00  0.00     0.278 C 
ATOM      5  O   UNL A   1      34.404  36.839  33.247  1.00  0.00    -0.268 OA
ATOM      6  H   UNL A   1      33.410  37.283  31.167  1.00  0.00     0.163 HD
BRANCH   4   7
ATOM      7  C   UNL A   1      34.468  34.474  32.743  1.00  0.00     0.275 C 
BRANCH   7   8
ATOM      8  N   UNL A   1      33.273  33.753  33.249  1.00  0.00    -0.347 N 
ATOM      9  H   UNL A   1      33.497  32.765  33.368  1.00  0.00     0.345 HD
ATOM     10  H   UNL A   1      32.510  33.849  32.579  1.00  0.00     0.345 HD
ATOM     11  H   UNL A   1      32.991  34.150  34.145  1.00  0.00     0.345 HD
ENDBRANCH   7   8
BRANCH   7  12
ATOM     12  C   UNL A   1      35.724  34.369  33.637  1.00  0.00     0.111 C 
BRANCH  12  13
ATOM     13  C   UNL A   1      37.052  34.404  32.905  1.00  0.00    -0.036 A 
ATOM     14  C   UNL A   1      37.075  34.321  31.503  1.00  0.00     0.046 A 
ATOM     15  C   UNL A   1      38.273  34.571  33.578  1.00  0.00     0.046 A 
ATOM     16  C   UNL A   1      38.288  34.357  30.813  1.00  0.00     0.162 A 
ATOM     17  C   UNL A   1      39.476  34.604  32.874  1.00  0.00     0.162 A 
ATOM     18  F   UNL A   1      38.285  34.253  29.477  1.00  0.00    -0.204 F 
ATOM     19  C   UNL A   1      39.488  34.491  31.494  1.00  0.00     0.194 A 
ATOM     20  F   UNL A   1      40.623  34.743  33.552  1.00  0.00    -0.204 F 
ATOM     21  F   UNL A   1      40.651  34.510  30.828  1.00  0.00    -0.200 F 
ENDBRANCH  12  13
ENDBRANCH   7  12
ENDBRANCH   4   7
ENDBRANCH   2   3
ENDBRANCH   1   2
BRANCH   1  22
ATOM     22  C   UNL A   1      34.563  33.906  29.020  1.00  0.00     0.118 C 
BRANCH  22  23
ATOM     23  N   UNL A   1      33.774  33.027  28.167  1.00  0.00    -0.352 N 
ATOM     24  C   UNL A   1      34.099  31.800  27.635  1.00  0.00     0.251 C 
ATOM     25  H   UNL A   1      32.877  33.360  27.937  1.00  0.00     0.163 HD
ATOM     26  O   UNL A   1      33.386  31.300  26.775  1.00  0.00    -0.269 OA
BRANCH  24  27
ATOM     27  C   UNL A   1      35.322  31.108  28.092  1.00  0.00     0.039 A 
ATOM     28  C   UNL A   1      36.550  31.765  28.000  1.00  0.00     0.014 A 
ATOM     29  C   UNL A   1      35.248  29.821  28.633  1.00  0.00     0.014 A 
ATOM     30  C   UNL A   1      37.693  31.163  28.531  1.00  0.00     0.010 A 
ATOM     31  C   UNL A   1      36.365  29.267  29.243  1.00  0.00     0.010 A 
ATOM     32  C   UNL A   1      37.600  29.932  29.201  1.00  0.00    -0.014 A 
BRANCH  32  33
ATOM     33  C   UNL A   1      38.770  29.333  29.892  1.00  0.00     0.031 A 
ATOM     34  C   UNL A   1      39.195  29.844  31.241  1.00  0.00     0.074 A 
ATOM     35  C   UNL A   1      39.510  28.404  29.256  1.00  0.00     0.049 A 
ATOM     36  N   UNL A   1      40.235  29.507  31.959  1.00  0.00    -0.248 NA
ATOM     37  C   UNL A   1      38.359  30.891  31.854  1.00  0.00     0.031 C 
ATOM     38  C   UNL A   1      39.246  27.887  27.911  1.00  0.00     0.029 A 
ATOM     39  N   UNL A   1      40.655  27.752  29.641  1.00  0.00    -0.354 N 
ATOM     40  C   UNL A   1      40.201  30.321  33.083  1.00  0.00     0.074 A 
ATOM     41  C   UNL A   1      39.056  31.195  32.939  1.00  0.00     0.031 C 
ATOM     42  C   UNL A   1      40.197  26.997  27.586  1.00  0.00     0.029 A 
ATOM     43  C   UNL A   1      41.161  26.910  28.678  1.00  0.00     0.049 A 
ATOM     44  H   UNL A   1      41.074  27.876  30.523  1.00  0.00     0.167 HD
ATOM     45  C   UNL A   1      41.030  30.325  34.154  1.00  0.00     0.034 A 
ATOM     46  C   UNL A   1      42.282  26.164  28.668  1.00  0.00     0.034 A 
ATOM     47  C   UNL A   1      42.146  29.432  34.309  1.00  0.00     0.049 A 
ATOM     48  C   UNL A   1      43.175  26.171  29.879  1.00  0.00     0.074 A 
ATOM     49  C   UNL A   1      42.990  29.293  35.396  1.00  0.00     0.029 A 
ATOM     50  N   UNL A   1      42.584  28.537  33.345  1.00  0.00    -0.354 N 
ATOM     51  N   UNL A   1      43.034  26.828  31.004  1.00  0.00    -0.248 NA
ATOM     52  C   UNL A   1      44.366  25.310  29.832  1.00  0.00     0.031 C 
ATOM     53  C   UNL A   1      43.960  28.338  35.076  1.00  0.00     0.029 A 
ATOM     54  C   UNL A   1      43.700  27.856  33.804  1.00  0.00     0.049 A 
ATOM     55  H   UNL A   1      42.165  28.405  32.465  1.00  0.00     0.167 HD
ATOM     56  C   UNL A   1      44.098  26.440  31.809  1.00  0.00     0.074 A 
ATOM     57  C   UNL A   1      44.859  25.469  31.052  1.00  0.00     0.031 C 
ATOM     58  C   UNL A   1      44.425  26.861  33.055  1.00  0.00     0.034 A 
BRANCH  45  59
ATOM     59  C   UNL A   1      40.736  31.300  35.265  1.00  0.00     0.023 A 
ATOM     60  C   UNL A   1      41.618  32.376  35.500  1.00  0.00     0.012 A 
ATOM     61  C   UNL A   1      39.562  31.188  36.036  1.00  0.00     0.148 A 
ATOM     62  C   UNL A   1      41.355  33.303  36.508  1.00  0.00     0.002 A 
ATOM     63  C   UNL A   1      39.283  32.143  37.006  1.00  0.00     0.091 A 
ATOM     64  F   UNL A   1      38.747  30.148  35.812  1.00  0.00    -0.205 F 
ATOM     65  C   UNL A   1      40.184  33.192  37.252  1.00  0.00     0.022 A 
BRANCH  63  66
ATOM     66  S   UNL A   1      37.764  32.138  37.964  1.00  0.00     0.127 S 
ATOM     67  O   UNL A   1      37.403  30.721  37.935  1.00  0.00    -0.237 OA
ATOM     68  O   UNL A   1      38.221  32.624  39.267  1.00  0.00    -0.237 OA
ATOM     69  O   UNL A   1      36.847  33.030  37.269  1.00  0.00    -0.744 OA
ENDBRANCH  63  66
ENDBRANCH  45  59
BRANCH  46  70
ATOM     70  C   UNL A   1      42.601  25.312  27.487  1.00  0.00     0.023 A 
ATOM     71  C   UNL A   1      43.405  25.831  26.454  1.00  0.00     0.012 A 
ATOM     72  C   UNL A   1      42.135  23.986  27.394  1.00  0.00     0.148 A 
ATOM     73  C   UNL A   1      43.711  25.057  25.333  1.00  0.00     0.002 A 
ATOM     74  C   UNL A   1      42.492  23.201  26.304  1.00  0.00     0.091 A 
ATOM     75  F   UNL A   1      41.363  23.513  28.383  1.00  0.00    -0.205 F 
ATOM     76  C   UNL A   1      43.264  23.740  25.263  1.00  0.00     0.022 A 
BRANCH  74  77
ATOM     77  S   UNL A   1      42.079  21.457  26.198  1.00  0.00     0.127 S 
ATOM     78  O   UNL A   1      40.688  21.505  25.756  1.00  0.00    -0.237 OA
ATOM     79  O   UNL A   1      43.030  20.983  25.192  1.00  0.00    -0.237 OA
ATOM     80  O   UNL A   1      42.301  20.917  27.533  1.00  0.00    -0.744 OA
ENDBRANCH  74  77
ENDBRANCH  46  70
BRANCH  58  81
ATOM     81  C   UNL A   1      45.646  26.256  33.697  1.00  0.00     0.023 A 
ATOM     82  C   UNL A   1      46.890  26.912  33.594  1.00  0.00     0.012 A 
ATOM     83  C   UNL A   1      45.548  25.077  34.461  1.00  0.00     0.148 A 
ATOM     84  C   UNL A   1      48.023  26.383  34.210  1.00  0.00     0.002 A 
ATOM     85  C   UNL A   1      46.669  24.584  35.116  1.00  0.00     0.091 A 
ATOM     86  F   UNL A   1      44.358  24.460  34.535  1.00  0.00    -0.205 F 
ATOM     87  C   UNL A   1      47.911  25.228  34.981  1.00  0.00     0.022 A 
BRANCH  85  88
ATOM     88  S   UNL A   1      46.602  23.159  36.207  1.00  0.00     0.127 S 
ATOM     89  O   UNL A   1      46.185  22.100  35.290  1.00  0.00    -0.237 OA
ATOM     90  O   UNL A   1      47.987  23.057  36.668  1.00  0.00    -0.237 OA
ATOM     91  O   UNL A   1      45.641  23.495  37.249  1.00  0.00    -0.744 OA
ENDBRANCH  85  88
ENDBRANCH  58  81
ENDBRANCH  32  33
ENDBRANCH  24  27
ENDBRANCH  22  23
ENDBRANCH   1  22
TORSDOF 16
ENDMDL
