MODEL 1
REMARK VINA RESULT:     -11.8      0.000      0.000
REMARK SMILES COC[C@H]1CCN(C(=O)N2CC[C@H](C(=O)NCCCNC(=O)c3ccc(-c4c5nc(c(-c6cccc(S(=O)(=O)[O-])c6F)c6ccc([nH]6)c(-c6cccc(S(=O)(=O)[O-])c6F)c6nc(c(-c7cccc(S(=O)(=O)[O-])c7F)c7ccc4[nH]7)C=C6)C=C5)cc3)[C@@H]2C)C1
REMARK SMILES IDX 17 1 16 2 14 3 15 4 13 6 10 7 11 8 86 9 12 10 87 11 8 12
REMARK SMILES IDX 9 13 7 14 4 15 5 16 88 17 6 18 3 19 2 20 1 21 18 22 19 23
REMARK SMILES IDX 20 24 21 25 22 27 23 28 24 29 85 30 25 31 84 32 26 33 27 34
REMARK SMILES IDX 28 35 78 36 29 37 83 38 77 39 79 40 30 41 82 42 76 43 75 44
REMARK SMILES IDX 31 46 63 47 43 48 62 49 44 50 47 51 61 52 80 53 45 54 46 55
REMARK SMILES IDX 60 57 81 58 48 59 32 60 33 61 41 62 34 63 36 64 42 65 35 66
REMARK SMILES IDX 37 67 38 68 39 69 40 70 64 71 65 72 73 73 66 74 68 75 74 76
REMARK SMILES IDX 67 77 69 78 70 79 71 80 72 81 49 82 50 83 58 84 51 85 53 86
REMARK SMILES IDX 59 87 52 88 54 89 55 90 56 91 57 92
REMARK H PARENT 16 5 20 26 79 45 47 56
REMARK Flexibility Score: inf
ROOT
ATOM      1  C   UNL A   1      37.102  21.084  24.263  1.00  0.00     0.117 C 
ENDROOT
BRANCH   1   2
ATOM      2  N   UNL A   1      37.480  22.230  25.068  1.00  0.00    -0.356 N 
ATOM      3  C   UNL A   1      36.745  23.288  25.501  1.00  0.00     0.225 C 
ATOM      4  O   UNL A   1      37.294  24.074  26.279  1.00  0.00    -0.275 OA
ATOM      5  H   UNL A   1      38.424  22.243  25.348  1.00  0.00     0.163 HD
BRANCH   3   6
ATOM      6  C   UNL A   1      35.312  23.543  25.057  1.00  0.00     0.102 C 
ATOM      7  N   UNL A   1      33.647  21.925  24.645  1.00  0.00    -0.321 N 
ATOM      8  C   UNL A   1      33.769  22.683  23.413  1.00  0.00     0.122 C 
ATOM      9  C   UNL A   1      34.187  22.730  25.737  1.00  0.00     0.096 C 
ATOM     10  C   UNL A   1      35.120  23.355  23.539  1.00  0.00     0.037 C 
ATOM     11  C   UNL A   1      34.556  21.954  27.000  1.00  0.00     0.032 C 
BRANCH   7  12
ATOM     12  C   UNL A   1      32.690  20.958  24.814  1.00  0.00     0.320 C 
ATOM     13  O   UNL A   1      31.645  21.180  25.425  1.00  0.00    -0.248 OA
BRANCH  12  14
ATOM     14  N   UNL A   1      32.986  19.715  24.302  1.00  0.00    -0.324 N 
ATOM     15  C   UNL A   1      34.202  17.699  23.948  1.00  0.00     0.036 C 
ATOM     16  C   UNL A   1      32.869  17.662  23.188  1.00  0.00     0.029 C 
ATOM     17  C   UNL A   1      34.151  18.995  24.767  1.00  0.00     0.127 C 
ATOM     18  C   UNL A   1      32.493  19.126  23.065  1.00  0.00     0.122 C 
BRANCH  15  19
ATOM     19  C   UNL A   1      34.527  16.467  24.800  1.00  0.00     0.165 C 
BRANCH  19  20
ATOM     20  O   UNL A   1      33.695  15.339  24.550  1.00  0.00    -0.384 OA
ATOM     21  C   UNL A   1      32.713  15.096  25.544  1.00  0.00     0.194 C 
ENDBRANCH  19  20
ENDBRANCH  15  19
ENDBRANCH  12  14
ENDBRANCH   7  12
ENDBRANCH   3   6
ENDBRANCH   1   2
BRANCH   1  22
ATOM     22  C   UNL A   1      37.847  19.816  24.632  1.00  0.00     0.042 C 
BRANCH  22  23
ATOM     23  C   UNL A   1      38.600  19.919  25.948  1.00  0.00     0.118 C 
BRANCH  23  24
ATOM     24  N   UNL A   1      39.817  19.114  25.966  1.00  0.00    -0.352 N 
ATOM     25  C   UNL A   1      41.130  19.491  26.128  1.00  0.00     0.251 C 
ATOM     26  H   UNL A   1      39.675  18.148  25.845  1.00  0.00     0.163 HD
ATOM     27  O   UNL A   1      42.024  18.681  25.917  1.00  0.00    -0.269 OA
BRANCH  25  28
ATOM     28  C   UNL A   1      41.457  20.874  26.533  1.00  0.00     0.039 A 
ATOM     29  C   UNL A   1      42.199  21.086  27.697  1.00  0.00     0.014 A 
ATOM     30  C   UNL A   1      41.040  21.961  25.763  1.00  0.00     0.014 A 
ATOM     31  C   UNL A   1      42.587  22.382  28.043  1.00  0.00     0.010 A 
ATOM     32  C   UNL A   1      41.519  23.234  26.048  1.00  0.00     0.010 A 
ATOM     33  C   UNL A   1      42.287  23.463  27.197  1.00  0.00    -0.014 A 
BRANCH  33  34
ATOM     34  C   UNL A   1      42.767  24.837  27.489  1.00  0.00     0.031 A 
ATOM     35  C   UNL A   1      41.839  25.843  28.119  1.00  0.00     0.074 A 
ATOM     36  C   UNL A   1      44.003  25.211  27.094  1.00  0.00     0.049 A 
ATOM     37  N   UNL A   1      42.049  27.109  28.374  1.00  0.00    -0.248 NA
ATOM     38  C   UNL A   1      40.487  25.381  28.480  1.00  0.00     0.031 C 
ATOM     39  C   UNL A   1      44.962  24.356  26.389  1.00  0.00     0.029 A 
ATOM     40  N   UNL A   1      44.651  26.417  27.197  1.00  0.00    -0.354 N 
ATOM     41  C   UNL A   1      40.849  27.600  28.875  1.00  0.00     0.074 A 
ATOM     42  C   UNL A   1      39.905  26.507  28.865  1.00  0.00     0.031 C 
ATOM     43  C   UNL A   1      46.072  25.062  26.124  1.00  0.00     0.029 A 
ATOM     44  C   UNL A   1      45.893  26.428  26.603  1.00  0.00     0.049 A 
ATOM     45  H   UNL A   1      44.264  27.198  27.654  1.00  0.00     0.167 HD
ATOM     46  C   UNL A   1      40.566  28.844  29.324  1.00  0.00     0.034 A 
ATOM     47  C   UNL A   1      46.780  27.431  26.445  1.00  0.00     0.034 A 
ATOM     48  C   UNL A   1      41.525  29.912  29.390  1.00  0.00     0.049 A 
ATOM     49  C   UNL A   1      46.456  28.787  27.014  1.00  0.00     0.074 A 
ATOM     50  C   UNL A   1      41.368  31.172  29.941  1.00  0.00     0.029 A 
ATOM     51  N   UNL A   1      42.810  29.854  28.878  1.00  0.00    -0.354 N 
ATOM     52  N   UNL A   1      45.379  29.179  27.651  1.00  0.00    -0.248 NA
ATOM     53  C   UNL A   1      47.484  29.830  26.878  1.00  0.00     0.031 C 
ATOM     54  C   UNL A   1      42.547  31.889  29.728  1.00  0.00     0.029 A 
ATOM     55  C   UNL A   1      43.452  31.063  29.084  1.00  0.00     0.049 A 
ATOM     56  H   UNL A   1      43.207  29.070  28.434  1.00  0.00     0.167 HD
ATOM     57  C   UNL A   1      45.616  30.496  28.024  1.00  0.00     0.074 A 
ATOM     58  C   UNL A   1      46.948  30.828  27.565  1.00  0.00     0.031 C 
ATOM     59  C   UNL A   1      44.800  31.359  28.676  1.00  0.00     0.034 A 
BRANCH  46  60
ATOM     60  C   UNL A   1      39.174  29.123  29.826  1.00  0.00     0.023 A 
ATOM     61  C   UNL A   1      38.805  28.724  31.126  1.00  0.00     0.012 A 
ATOM     62  C   UNL A   1      38.274  29.881  29.051  1.00  0.00     0.148 A 
ATOM     63  C   UNL A   1      37.552  29.058  31.640  1.00  0.00     0.002 A 
ATOM     64  C   UNL A   1      37.047  30.250  29.587  1.00  0.00     0.091 A 
ATOM     65  F   UNL A   1      38.640  30.232  27.811  1.00  0.00    -0.205 F 
ATOM     66  C   UNL A   1      36.681  29.832  30.878  1.00  0.00     0.022 A 
BRANCH  64  67
ATOM     67  S   UNL A   1      35.892  31.319  28.723  1.00  0.00     0.127 S 
ATOM     68  O   UNL A   1      34.912  31.601  29.771  1.00  0.00    -0.237 OA
ATOM     69  O   UNL A   1      36.741  32.454  28.361  1.00  0.00    -0.237 OA
ATOM     70  O   UNL A   1      35.389  30.546  27.597  1.00  0.00    -0.744 OA
ENDBRANCH  64  67
ENDBRANCH  46  60
BRANCH  47  71
ATOM     71  C   UNL A   1      48.074  27.193  25.746  1.00  0.00     0.023 A 
ATOM     72  C   UNL A   1      49.201  26.776  26.482  1.00  0.00     0.012 A 
ATOM     73  C   UNL A   1      48.198  27.390  24.357  1.00  0.00     0.148 A 
ATOM     74  C   UNL A   1      50.439  26.614  25.857  1.00  0.00     0.002 A 
ATOM     75  C   UNL A   1      49.419  27.166  23.731  1.00  0.00     0.091 A 
ATOM     76  F   UNL A   1      47.119  27.797  23.673  1.00  0.00    -0.205 F 
ATOM     77  C   UNL A   1      50.546  26.800  24.482  1.00  0.00     0.022 A 
BRANCH  75  78
ATOM     78  S   UNL A   1      49.606  27.251  21.947  1.00  0.00     0.127 S 
ATOM     79  O   UNL A   1      48.703  26.193  21.500  1.00  0.00    -0.237 OA
ATOM     80  O   UNL A   1      49.153  28.612  21.658  1.00  0.00    -0.237 OA
ATOM     81  O   UNL A   1      51.023  27.028  21.694  1.00  0.00    -0.744 OA
ENDBRANCH  75  78
ENDBRANCH  47  71
BRANCH  59  82
ATOM     82  C   UNL A   1      45.333  32.732  28.987  1.00  0.00     0.023 A 
ATOM     83  C   UNL A   1      46.060  32.956  30.173  1.00  0.00     0.012 A 
ATOM     84  C   UNL A   1      45.178  33.782  28.061  1.00  0.00     0.148 A 
ATOM     85  C   UNL A   1      46.592  34.215  30.448  1.00  0.00     0.002 A 
ATOM     86  C   UNL A   1      45.758  35.017  28.315  1.00  0.00     0.091 A 
ATOM     87  F   UNL A   1      44.470  33.550  26.945  1.00  0.00    -0.205 F 
ATOM     88  C   UNL A   1      46.452  35.241  29.515  1.00  0.00     0.022 A 
BRANCH  86  89
ATOM     89  S   UNL A   1      45.719  36.362  27.127  1.00  0.00     0.127 S 
ATOM     90  O   UNL A   1      46.498  37.390  27.814  1.00  0.00    -0.237 OA
ATOM     91  O   UNL A   1      46.382  35.769  25.965  1.00  0.00    -0.237 OA
ATOM     92  O   UNL A   1      44.312  36.679  26.923  1.00  0.00    -0.744 OA
ENDBRANCH  86  89
ENDBRANCH  59  82
ENDBRANCH  33  34
ENDBRANCH  25  28
ENDBRANCH  23  24
ENDBRANCH  22  23
ENDBRANCH   1  22
TORSDOF 17
ENDMDL
MODEL 2
REMARK VINA RESULT:     -11.7      7.100     12.246
REMARK SMILES COC[C@H]1CCN(C(=O)N2CC[C@H](C(=O)NCCCNC(=O)c3ccc(-c4c5nc(c(-c6cccc(S(=O)(=O)[O-])c6F)c6ccc([nH]6)c(-c6cccc(S(=O)(=O)[O-])c6F)c6nc(c(-c7cccc(S(=O)(=O)[O-])c7F)c7ccc4[nH]7)C=C6)C=C5)cc3)[C@@H]2C)C1
REMARK SMILES IDX 17 1 16 2 14 3 15 4 13 6 10 7 11 8 86 9 12 10 87 11 8 12
REMARK SMILES IDX 9 13 7 14 4 15 5 16 88 17 6 18 3 19 2 20 1 21 18 22 19 23
REMARK SMILES IDX 20 24 21 25 22 27 23 28 24 29 85 30 25 31 84 32 26 33 27 34
REMARK SMILES IDX 28 35 78 36 29 37 83 38 77 39 79 40 30 41 82 42 76 43 75 44
REMARK SMILES IDX 31 46 63 47 43 48 62 49 44 50 47 51 61 52 80 53 45 54 46 55
REMARK SMILES IDX 60 57 81 58 48 59 32 60 33 61 41 62 34 63 36 64 42 65 35 66
REMARK SMILES IDX 37 67 38 68 39 69 40 70 64 71 65 72 73 73 66 74 68 75 74 76
REMARK SMILES IDX 67 77 69 78 70 79 71 80 72 81 49 82 50 83 58 84 51 85 53 86
REMARK SMILES IDX 59 87 52 88 54 89 55 90 56 91 57 92
REMARK H PARENT 16 5 20 26 79 45 47 56
REMARK Flexibility Score: inf
ROOT
ATOM      1  C   UNL A   1      31.773  30.324  26.324  1.00  0.00     0.117 C 
ENDROOT
BRANCH   1   2
ATOM      2  N   UNL A   1      33.090  29.846  26.699  1.00  0.00    -0.356 N 
ATOM      3  C   UNL A   1      33.708  28.663  26.444  1.00  0.00     0.225 C 
ATOM      4  O   UNL A   1      34.890  28.560  26.787  1.00  0.00    -0.275 OA
ATOM      5  H   UNL A   1      33.625  30.485  27.224  1.00  0.00     0.163 HD
BRANCH   3   6
ATOM      6  C   UNL A   1      33.008  27.482  25.787  1.00  0.00     0.102 C 
ATOM      7  N   UNL A   1      31.300  27.575  24.164  1.00  0.00    -0.321 N 
ATOM      8  C   UNL A   1      30.751  26.807  25.266  1.00  0.00     0.122 C 
ATOM      9  C   UNL A   1      32.756  27.547  24.262  1.00  0.00     0.096 C 
ATOM     10  C   UNL A   1      31.645  27.167  26.434  1.00  0.00     0.037 C 
ATOM     11  C   UNL A   1      33.485  28.640  23.483  1.00  0.00     0.032 C 
BRANCH   7  12
ATOM     12  C   UNL A   1      30.621  27.745  22.985  1.00  0.00     0.320 C 
ATOM     13  O   UNL A   1      31.022  27.256  21.929  1.00  0.00    -0.248 OA
BRANCH  12  14
ATOM     14  N   UNL A   1      29.493  28.532  23.042  1.00  0.00    -0.324 N 
ATOM     15  C   UNL A   1      28.178  30.498  23.312  1.00  0.00     0.036 C 
ATOM     16  C   UNL A   1      27.292  29.311  22.910  1.00  0.00     0.029 C 
ATOM     17  C   UNL A   1      29.612  29.961  23.239  1.00  0.00     0.127 C 
ATOM     18  C   UNL A   1      28.125  28.104  23.295  1.00  0.00     0.122 C 
BRANCH  15  19
ATOM     19  C   UNL A   1      27.981  31.789  22.510  1.00  0.00     0.165 C 
BRANCH  19  20
ATOM     20  O   UNL A   1      29.140  32.610  22.417  1.00  0.00    -0.384 OA
ATOM     21  C   UNL A   1      29.146  33.728  23.290  1.00  0.00     0.194 C 
ENDBRANCH  19  20
ENDBRANCH  15  19
ENDBRANCH  12  14
ENDBRANCH   7  12
ENDBRANCH   3   6
ENDBRANCH   1   2
BRANCH   1  22
ATOM     22  C   UNL A   1      31.540  31.782  26.666  1.00  0.00     0.042 C 
BRANCH  22  23
ATOM     23  C   UNL A   1      32.757  32.462  27.271  1.00  0.00     0.118 C 
BRANCH  23  24
ATOM     24  N   UNL A   1      32.534  33.877  27.547  1.00  0.00    -0.352 N 
ATOM     25  C   UNL A   1      33.100  34.698  28.495  1.00  0.00     0.251 C 
ATOM     26  H   UNL A   1      31.874  34.314  26.963  1.00  0.00     0.163 HD
ATOM     27  O   UNL A   1      32.632  35.812  28.690  1.00  0.00    -0.269 OA
BRANCH  25  28
ATOM     28  C   UNL A   1      34.254  34.224  29.288  1.00  0.00     0.039 A 
ATOM     29  C   UNL A   1      34.026  33.492  30.455  1.00  0.00     0.014 A 
ATOM     30  C   UNL A   1      35.561  34.494  28.877  1.00  0.00     0.014 A 
ATOM     31  C   UNL A   1      35.108  32.967  31.164  1.00  0.00     0.010 A 
ATOM     32  C   UNL A   1      36.628  33.880  29.520  1.00  0.00     0.010 A 
ATOM     33  C   UNL A   1      36.417  33.119  30.678  1.00  0.00    -0.014 A 
BRANCH  33  34
ATOM     34  C   UNL A   1      37.579  32.492  31.358  1.00  0.00     0.031 A 
ATOM     35  C   UNL A   1      38.317  31.356  30.699  1.00  0.00     0.074 A 
ATOM     36  C   UNL A   1      37.905  32.875  32.611  1.00  0.00     0.049 A 
ATOM     37  N   UNL A   1      39.298  30.631  31.169  1.00  0.00    -0.248 NA
ATOM     38  C   UNL A   1      37.875  30.956  29.351  1.00  0.00     0.031 C 
ATOM     39  C   UNL A   1      37.207  33.899  33.393  1.00  0.00     0.029 A 
ATOM     40  N   UNL A   1      38.884  32.423  33.461  1.00  0.00    -0.354 N 
ATOM     41  C   UNL A   1      39.556  29.666  30.203  1.00  0.00     0.074 A 
ATOM     42  C   UNL A   1      38.613  29.877  29.129  1.00  0.00     0.031 C 
ATOM     43  C   UNL A   1      37.778  33.997  34.603  1.00  0.00     0.029 A 
ATOM     44  C   UNL A   1      38.856  33.019  34.701  1.00  0.00     0.049 A 
ATOM     45  H   UNL A   1      39.543  31.738  33.206  1.00  0.00     0.167 HD
ATOM     46  C   UNL A   1      40.507  28.704  30.199  1.00  0.00     0.034 A 
ATOM     47  C   UNL A   1      39.603  32.791  35.800  1.00  0.00     0.034 A 
ATOM     48  C   UNL A   1      41.483  28.536  31.240  1.00  0.00     0.049 A 
ATOM     49  C   UNL A   1      40.695  31.757  35.737  1.00  0.00     0.074 A 
ATOM     50  C   UNL A   1      42.563  27.670  31.270  1.00  0.00     0.029 A 
ATOM     51  N   UNL A   1      41.492  29.233  32.436  1.00  0.00    -0.354 N 
ATOM     52  N   UNL A   1      41.039  30.979  34.739  1.00  0.00    -0.248 NA
ATOM     53  C   UNL A   1      41.528  31.592  36.939  1.00  0.00     0.031 C 
ATOM     54  C   UNL A   1      43.202  27.817  32.502  1.00  0.00     0.029 A 
ATOM     55  C   UNL A   1      42.549  28.804  33.221  1.00  0.00     0.049 A 
ATOM     56  H   UNL A   1      40.845  29.929  32.690  1.00  0.00     0.167 HD
ATOM     57  C   UNL A   1      42.148  30.265  35.177  1.00  0.00     0.074 A 
ATOM     58  C   UNL A   1      42.434  30.720  36.521  1.00  0.00     0.031 C 
ATOM     59  C   UNL A   1      42.858  29.309  34.532  1.00  0.00     0.034 A 
BRANCH  46  60
ATOM     60  C   UNL A   1      40.582  27.777  29.015  1.00  0.00     0.023 A 
ATOM     61  C   UNL A   1      39.614  26.765  28.854  1.00  0.00     0.012 A 
ATOM     62  C   UNL A   1      41.543  27.983  28.006  1.00  0.00     0.148 A 
ATOM     63  C   UNL A   1      39.613  25.959  27.716  1.00  0.00     0.002 A 
ATOM     64  C   UNL A   1      41.508  27.208  26.854  1.00  0.00     0.091 A 
ATOM     65  F   UNL A   1      42.466  28.937  28.190  1.00  0.00    -0.205 F 
ATOM     66  C   UNL A   1      40.550  26.190  26.712  1.00  0.00     0.022 A 
BRANCH  64  67
ATOM     67  S   UNL A   1      42.611  27.483  25.465  1.00  0.00     0.127 S 
ATOM     68  O   UNL A   1      42.440  26.246  24.703  1.00  0.00    -0.237 OA
ATOM     69  O   UNL A   1      42.024  28.669  24.841  1.00  0.00    -0.237 OA
ATOM     70  O   UNL A   1      43.937  27.682  26.032  1.00  0.00    -0.744 OA
ENDBRANCH  64  67
ENDBRANCH  46  60
BRANCH  47  71
ATOM     71  C   UNL A   1      39.372  33.574  37.047  1.00  0.00     0.023 A 
ATOM     72  C   UNL A   1      39.923  34.864  37.177  1.00  0.00     0.012 A 
ATOM     73  C   UNL A   1      38.620  33.040  38.111  1.00  0.00     0.148 A 
ATOM     74  C   UNL A   1      39.775  35.585  38.363  1.00  0.00     0.002 A 
ATOM     75  C   UNL A   1      38.424  33.789  39.266  1.00  0.00     0.091 A 
ATOM     76  F   UNL A   1      38.111  31.807  37.977  1.00  0.00    -0.205 F 
ATOM     77  C   UNL A   1      39.020  35.052  39.403  1.00  0.00     0.022 A 
BRANCH  75  78
ATOM     78  S   UNL A   1      37.352  33.232  40.595  1.00  0.00     0.127 S 
ATOM     79  O   UNL A   1      38.100  32.094  41.126  1.00  0.00    -0.237 OA
ATOM     80  O   UNL A   1      37.314  34.406  41.468  1.00  0.00    -0.237 OA
ATOM     81  O   UNL A   1      36.079  32.918  39.961  1.00  0.00    -0.744 OA
ENDBRANCH  75  78
ENDBRANCH  47  71
BRANCH  59  82
ATOM     82  C   UNL A   1      44.050  28.722  35.238  1.00  0.00     0.023 A 
ATOM     83  C   UNL A   1      45.327  29.294  35.067  1.00  0.00     0.012 A 
ATOM     84  C   UNL A   1      43.888  27.647  36.134  1.00  0.00     0.148 A 
ATOM     85  C   UNL A   1      46.428  28.781  35.750  1.00  0.00     0.002 A 
ATOM     86  C   UNL A   1      44.979  27.178  36.853  1.00  0.00     0.091 A 
ATOM     87  F   UNL A   1      42.668  27.108  36.270  1.00  0.00    -0.205 F 
ATOM     88  C   UNL A   1      46.253  27.733  36.651  1.00  0.00     0.022 A 
BRANCH  86  89
ATOM     89  S   UNL A   1      44.828  25.903  38.108  1.00  0.00     0.127 S 
ATOM     90  O   UNL A   1      46.209  25.775  38.571  1.00  0.00    -0.237 OA
ATOM     91  O   UNL A   1      43.917  26.523  39.072  1.00  0.00    -0.237 OA
ATOM     92  O   UNL A   1      44.287  24.732  37.432  1.00  0.00    -0.744 OA
ENDBRANCH  86  89
ENDBRANCH  59  82
ENDBRANCH  33  34
ENDBRANCH  25  28
ENDBRANCH  23  24
ENDBRANCH  22  23
ENDBRANCH   1  22
TORSDOF 17
ENDMDL
MODEL 3
REMARK VINA RESULT:     -11.3      6.211     11.442
REMARK SMILES COC[C@H]1CCN(C(=O)N2CC[C@H](C(=O)NCCCNC(=O)c3ccc(-c4c5nc(c(-c6cccc(S(=O)(=O)[O-])c6F)c6ccc([nH]6)c(-c6cccc(S(=O)(=O)[O-])c6F)c6nc(c(-c7cccc(S(=O)(=O)[O-])c7F)c7ccc4[nH]7)C=C6)C=C5)cc3)[C@@H]2C)C1
REMARK SMILES IDX 17 1 16 2 14 3 15 4 13 6 10 7 11 8 86 9 12 10 87 11 8 12
REMARK SMILES IDX 9 13 7 14 4 15 5 16 88 17 6 18 3 19 2 20 1 21 18 22 19 23
REMARK SMILES IDX 20 24 21 25 22 27 23 28 24 29 85 30 25 31 84 32 26 33 27 34
REMARK SMILES IDX 28 35 78 36 29 37 83 38 77 39 79 40 30 41 82 42 76 43 75 44
REMARK SMILES IDX 31 46 63 47 43 48 62 49 44 50 47 51 61 52 80 53 45 54 46 55
REMARK SMILES IDX 60 57 81 58 48 59 32 60 33 61 41 62 34 63 36 64 42 65 35 66
REMARK SMILES IDX 37 67 38 68 39 69 40 70 64 71 65 72 73 73 66 74 68 75 74 76
REMARK SMILES IDX 67 77 69 78 70 79 71 80 72 81 49 82 50 83 58 84 51 85 53 86
REMARK SMILES IDX 59 87 52 88 54 89 55 90 56 91 57 92
REMARK H PARENT 16 5 20 26 79 45 47 56
REMARK Flexibility Score: inf
ROOT
ATOM      1  C   UNL A   1      31.619  30.537  25.934  1.00  0.00     0.117 C 
ENDROOT
BRANCH   1   2
ATOM      2  N   UNL A   1      31.011  30.418  24.623  1.00  0.00    -0.356 N 
ATOM      3  C   UNL A   1      30.678  29.317  23.899  1.00  0.00     0.225 C 
ATOM      4  O   UNL A   1      30.060  29.502  22.846  1.00  0.00    -0.275 OA
ATOM      5  H   UNL A   1      30.806  31.276  24.185  1.00  0.00     0.163 HD
BRANCH   3   6
ATOM      6  C   UNL A   1      31.048  27.902  24.317  1.00  0.00     0.102 C 
ATOM      7  N   UNL A   1      32.049  26.244  22.972  1.00  0.00    -0.321 N 
ATOM      8  C   UNL A   1      30.810  25.662  23.453  1.00  0.00     0.122 C 
ATOM      9  C   UNL A   1      32.416  27.346  23.857  1.00  0.00     0.096 C 
ATOM     10  C   UNL A   1      29.995  26.862  23.887  1.00  0.00     0.037 C 
ATOM     11  C   UNL A   1      33.413  28.346  23.278  1.00  0.00     0.032 C 
BRANCH   7  12
ATOM     12  C   UNL A   1      32.957  25.524  22.238  1.00  0.00     0.320 C 
ATOM     13  O   UNL A   1      33.335  25.898  21.128  1.00  0.00    -0.248 OA
BRANCH  12  14
ATOM     14  N   UNL A   1      33.383  24.340  22.794  1.00  0.00    -0.324 N 
ATOM     15  C   UNL A   1      34.764  22.847  24.033  1.00  0.00     0.036 C 
ATOM     16  C   UNL A   1      33.511  22.121  23.523  1.00  0.00     0.029 C 
ATOM     17  C   UNL A   1      34.550  24.317  23.651  1.00  0.00     0.127 C 
ATOM     18  C   UNL A   1      33.047  22.989  22.370  1.00  0.00     0.122 C 
BRANCH  15  19
ATOM     19  C   UNL A   1      35.097  22.658  25.517  1.00  0.00     0.165 C 
BRANCH  19  20
ATOM     20  O   UNL A   1      34.706  21.400  26.055  1.00  0.00    -0.384 OA
ATOM     21  C   UNL A   1      34.039  21.471  27.305  1.00  0.00     0.194 C 
ENDBRANCH  19  20
ENDBRANCH  15  19
ENDBRANCH  12  14
ENDBRANCH   7  12
ENDBRANCH   3   6
ENDBRANCH   1   2
BRANCH   1  22
ATOM     22  C   UNL A   1      31.390  31.887  26.585  1.00  0.00     0.042 C 
BRANCH  22  23
ATOM     23  C   UNL A   1      32.647  32.485  27.193  1.00  0.00     0.118 C 
BRANCH  23  24
ATOM     24  N   UNL A   1      32.501  33.900  27.516  1.00  0.00    -0.352 N 
ATOM     25  C   UNL A   1      33.139  34.667  28.463  1.00  0.00     0.251 C 
ATOM     26  H   UNL A   1      31.840  34.383  26.969  1.00  0.00     0.163 HD
ATOM     27  O   UNL A   1      32.731  35.796  28.706  1.00  0.00    -0.269 OA
BRANCH  25  28
ATOM     28  C   UNL A   1      34.300  34.120  29.197  1.00  0.00     0.039 A 
ATOM     29  C   UNL A   1      34.079  33.297  30.304  1.00  0.00     0.014 A 
ATOM     30  C   UNL A   1      35.603  34.410  28.790  1.00  0.00     0.014 A 
ATOM     31  C   UNL A   1      35.166  32.705  30.952  1.00  0.00     0.010 A 
ATOM     32  C   UNL A   1      36.673  33.735  29.365  1.00  0.00     0.010 A 
ATOM     33  C   UNL A   1      36.470  32.884  30.460  1.00  0.00    -0.014 A 
BRANCH  33  34
ATOM     34  C   UNL A   1      37.634  32.192  31.070  1.00  0.00     0.031 A 
ATOM     35  C   UNL A   1      38.385  31.146  30.288  1.00  0.00     0.074 A 
ATOM     36  C   UNL A   1      37.950  32.430  32.360  1.00  0.00     0.049 A 
ATOM     37  N   UNL A   1      39.372  30.380  30.676  1.00  0.00    -0.248 NA
ATOM     38  C   UNL A   1      37.954  30.902  28.899  1.00  0.00     0.031 C 
ATOM     39  C   UNL A   1      37.239  33.350  33.252  1.00  0.00     0.029 A 
ATOM     40  N   UNL A   1      38.930  31.891  33.158  1.00  0.00    -0.354 N 
ATOM     41  C   UNL A   1      39.642  29.537  29.605  1.00  0.00     0.074 A 
ATOM     42  C   UNL A   1      38.703  29.863  28.558  1.00  0.00     0.031 C 
ATOM     43  C   UNL A   1      37.804  33.311  34.469  1.00  0.00     0.029 A 
ATOM     44  C   UNL A   1      38.890  32.339  34.459  1.00  0.00     0.049 A 
ATOM     45  H   UNL A   1      39.597  31.246  32.829  1.00  0.00     0.167 HD
ATOM     46  C   UNL A   1      40.603  28.590  29.495  1.00  0.00     0.034 A 
ATOM     47  C   UNL A   1      39.634  31.991  35.528  1.00  0.00     0.034 A 
ATOM     48  C   UNL A   1      41.576  28.311  30.515  1.00  0.00     0.049 A 
ATOM     49  C   UNL A   1      40.736  30.980  35.352  1.00  0.00     0.074 A 
ATOM     50  C   UNL A   1      42.663  27.457  30.451  1.00  0.00     0.029 A 
ATOM     51  N   UNL A   1      41.572  28.864  31.784  1.00  0.00    -0.354 N 
ATOM     52  N   UNL A   1      41.092  30.327  34.273  1.00  0.00    -0.248 NA
ATOM     53  C   UNL A   1      41.564  30.685  36.531  1.00  0.00     0.031 C 
ATOM     54  C   UNL A   1      43.295  27.465  31.696  1.00  0.00     0.029 A 
ATOM     55  C   UNL A   1      42.629  28.356  32.521  1.00  0.00     0.049 A 
ATOM     56  H   UNL A   1      40.917  29.521  32.114  1.00  0.00     0.167 HD
ATOM     57  C   UNL A   1      42.205  29.577  34.631  1.00  0.00     0.074 A 
ATOM     58  C   UNL A   1      42.481  29.875  36.021  1.00  0.00     0.031 C 
ATOM     59  C   UNL A   1      42.927  28.708  33.883  1.00  0.00     0.034 A 
BRANCH  46  60
ATOM     60  C   UNL A   1      40.692  27.807  28.212  1.00  0.00     0.023 A 
ATOM     61  C   UNL A   1      41.371  28.351  27.104  1.00  0.00     0.012 A 
ATOM     62  C   UNL A   1      40.200  26.489  28.146  1.00  0.00     0.148 A 
ATOM     63  C   UNL A   1      41.544  27.601  25.941  1.00  0.00     0.002 A 
ATOM     64  C   UNL A   1      40.416  25.731  27.002  1.00  0.00     0.091 A 
ATOM     65  F   UNL A   1      39.539  26.000  29.205  1.00  0.00    -0.205 F 
ATOM     66  C   UNL A   1      41.079  26.289  25.896  1.00  0.00     0.022 A 
BRANCH  64  67
ATOM     67  S   UNL A   1      39.938  24.005  26.876  1.00  0.00     0.127 S 
ATOM     68  O   UNL A   1      38.562  24.116  26.393  1.00  0.00    -0.237 OA
ATOM     69  O   UNL A   1      40.891  23.497  25.889  1.00  0.00    -0.237 OA
ATOM     70  O   UNL A   1      40.082  23.445  28.212  1.00  0.00    -0.744 OA
ENDBRANCH  64  67
ENDBRANCH  46  60
BRANCH  47  71
ATOM     71  C   UNL A   1      39.389  32.621  36.856  1.00  0.00     0.023 A 
ATOM     72  C   UNL A   1      40.125  33.760  37.237  1.00  0.00     0.012 A 
ATOM     73  C   UNL A   1      38.441  32.089  37.750  1.00  0.00     0.148 A 
ATOM     74  C   UNL A   1      39.960  34.325  38.503  1.00  0.00     0.002 A 
ATOM     75  C   UNL A   1      38.236  32.693  38.985  1.00  0.00     0.091 A 
ATOM     76  F   UNL A   1      37.756  30.998  37.378  1.00  0.00    -0.205 F 
ATOM     77  C   UNL A   1      39.011  33.797  39.373  1.00  0.00     0.022 A 
BRANCH  75  78
ATOM     78  S   UNL A   1      36.940  32.158  40.107  1.00  0.00     0.127 S 
ATOM     79  O   UNL A   1      35.765  32.176  39.238  1.00  0.00    -0.237 OA
ATOM     80  O   UNL A   1      37.402  30.825  40.493  1.00  0.00    -0.237 OA
ATOM     81  O   UNL A   1      36.942  33.128  41.194  1.00  0.00    -0.744 OA
ENDBRANCH  75  78
ENDBRANCH  47  71
BRANCH  59  82
ATOM     82  C   UNL A   1      44.122  28.054  34.524  1.00  0.00     0.023 A 
ATOM     83  C   UNL A   1      45.368  28.711  34.535  1.00  0.00     0.012 A 
ATOM     84  C   UNL A   1      43.986  26.817  35.184  1.00  0.00     0.148 A 
ATOM     85  C   UNL A   1      46.468  28.129  35.162  1.00  0.00     0.002 A 
ATOM     86  C   UNL A   1      45.072  26.269  35.854  1.00  0.00     0.091 A 
ATOM     87  F   UNL A   1      42.795  26.201  35.148  1.00  0.00    -0.205 F 
ATOM     88  C   UNL A   1      46.318  26.916  35.831  1.00  0.00     0.022 A 
BRANCH  86  89
ATOM     89  S   UNL A   1      44.944  24.767  36.827  1.00  0.00     0.127 S 
ATOM     90  O   UNL A   1      46.305  24.630  37.344  1.00  0.00    -0.237 OA
ATOM     91  O   UNL A   1      43.944  25.132  37.831  1.00  0.00    -0.237 OA
ATOM     92  O   UNL A   1      44.520  23.722  35.904  1.00  0.00    -0.744 OA
ENDBRANCH  86  89
ENDBRANCH  59  82
ENDBRANCH  33  34
ENDBRANCH  25  28
ENDBRANCH  23  24
ENDBRANCH  22  23
ENDBRANCH   1  22
TORSDOF 17
ENDMDL
