MODEL 1
REMARK VINA RESULT:     -13.2      0.000      0.000
REMARK SMILES O=C(NCCCNC(=O)[C@H]1CCN(c2ccc(F)cc2)[C@@H]1c1ccc(C(F)(F)F)cc1)c1ccc(-c2c3nc(c(-c4cccc(S(=O)(=O)[O-])c4F)c4ccc([nH]4)c(-c4cccc(S(=O)(=O)[O-])c4F)c4nc(c(-c5cccc(S(=O)(=O)[O-])c5F)c5ccc2[nH]5)C=C4)C=C3)cc1
REMARK SMILES IDX 4 1 3 2 1 3 2 4 32 6 33 7 94 8 34 9 93 10 35 11 36 12 37 13
REMARK SMILES IDX 87 14 38 15 92 16 86 17 88 18 39 19 91 20 85 21 84 22 40 24
REMARK SMILES IDX 72 25 52 26 71 27 53 28 56 29 70 30 89 31 54 32 55 33 69 35
REMARK SMILES IDX 90 36 57 37 41 38 42 39 50 40 43 41 45 42 51 43 44 44 46 45
REMARK SMILES IDX 47 46 48 47 49 48 73 49 74 50 82 51 75 52 77 53 83 54 76 55
REMARK SMILES IDX 78 56 79 57 80 58 81 59 58 60 59 61 67 62 60 63 62 64 68 65
REMARK SMILES IDX 61 66 63 67 64 68 65 69 66 70 5 71 6 72 7 73 8 74 9 76 10 77
REMARK SMILES IDX 11 78 21 79 12 80 13 81 22 82 23 83 31 84 24 85 30 86 25 87
REMARK SMILES IDX 26 88 27 89 28 90 29 91 14 92 15 93 20 94 16 95 19 96 17 97
REMARK SMILES IDX 18 98
REMARK H PARENT 3 5 88 23 56 34 7 75
REMARK Flexibility Score: inf
ROOT
ATOM      1  C   UNL A   1      35.572  22.430  26.250  1.00  0.00     0.118 C 
ENDROOT
BRANCH   1   2
ATOM      2  N   UNL A   1      36.475  21.355  25.862  1.00  0.00    -0.352 N 
ATOM      3  O   UNL A   1      38.413  20.424  25.188  1.00  0.00    -0.269 OA
ATOM      4  C   UNL A   1      37.846  21.364  25.724  1.00  0.00     0.251 C 
ATOM      5  H   UNL A   1      36.041  20.492  25.671  1.00  0.00     0.163 HD
BRANCH   4   6
ATOM      6  C   UNL A   1      38.609  22.539  26.200  1.00  0.00     0.039 A 
ATOM      7  C   UNL A   1      38.184  23.825  25.872  1.00  0.00     0.014 A 
ATOM      8  C   UNL A   1      39.761  22.354  26.968  1.00  0.00     0.014 A 
ATOM      9  C   UNL A   1      39.007  24.909  26.130  1.00  0.00     0.010 A 
ATOM     10  C   UNL A   1      40.521  23.464  27.348  1.00  0.00     0.010 A 
ATOM     11  C   UNL A   1      40.167  24.747  26.905  1.00  0.00    -0.014 A 
BRANCH  11  12
ATOM     12  C   UNL A   1      40.912  25.956  27.333  1.00  0.00     0.031 A 
ATOM     13  C   UNL A   1      42.337  26.191  26.927  1.00  0.00     0.074 A 
ATOM     14  C   UNL A   1      40.257  26.861  28.088  1.00  0.00     0.049 A 
ATOM     15  N   UNL A   1      43.118  27.196  27.229  1.00  0.00    -0.248 NA
ATOM     16  C   UNL A   1      42.974  25.174  26.075  1.00  0.00     0.031 C 
ATOM     17  C   UNL A   1      38.873  26.720  28.552  1.00  0.00     0.029 A 
ATOM     18  N   UNL A   1      40.646  28.078  28.583  1.00  0.00    -0.354 N 
ATOM     19  C   UNL A   1      44.346  26.917  26.645  1.00  0.00     0.074 A 
ATOM     20  C   UNL A   1      44.210  25.646  25.967  1.00  0.00     0.031 C 
ATOM     21  C   UNL A   1      38.509  27.830  29.205  1.00  0.00     0.029 A 
ATOM     22  C   UNL A   1      39.655  28.724  29.286  1.00  0.00     0.049 A 
ATOM     23  H   UNL A   1      41.546  28.453  28.449  1.00  0.00     0.167 HD
ATOM     24  C   UNL A   1      45.477  27.664  26.663  1.00  0.00     0.034 A 
ATOM     25  C   UNL A   1      39.668  29.899  29.941  1.00  0.00     0.034 A 
ATOM     26  C   UNL A   1      45.585  28.940  27.321  1.00  0.00     0.049 A 
ATOM     27  C   UNL A   1      40.931  30.703  29.941  1.00  0.00     0.074 A 
ATOM     28  C   UNL A   1      46.685  29.778  27.398  1.00  0.00     0.029 A 
ATOM     29  N   UNL A   1      44.559  29.569  28.013  1.00  0.00    -0.354 N 
ATOM     30  N   UNL A   1      42.069  30.444  29.343  1.00  0.00    -0.248 NA
ATOM     31  C   UNL A   1      40.913  31.965  30.690  1.00  0.00     0.031 C 
ATOM     32  C   UNL A   1      46.325  30.907  28.143  1.00  0.00     0.029 A 
ATOM     33  C   UNL A   1      44.995  30.784  28.513  1.00  0.00     0.049 A 
ATOM     34  H   UNL A   1      43.652  29.204  28.130  1.00  0.00     0.167 HD
ATOM     35  C   UNL A   1      42.899  31.517  29.628  1.00  0.00     0.074 A 
ATOM     36  C   UNL A   1      42.124  32.443  30.431  1.00  0.00     0.031 C 
ATOM     37  C   UNL A   1      44.194  31.709  29.274  1.00  0.00     0.034 A 
BRANCH  24  38
ATOM     38  C   UNL A   1      46.680  27.145  25.918  1.00  0.00     0.023 A 
ATOM     39  C   UNL A   1      47.446  26.102  26.480  1.00  0.00     0.012 A 
ATOM     40  C   UNL A   1      47.006  27.623  24.633  1.00  0.00     0.148 A 
ATOM     41  C   UNL A   1      48.529  25.561  25.786  1.00  0.00     0.002 A 
ATOM     42  C   UNL A   1      48.064  27.052  23.932  1.00  0.00     0.091 A 
ATOM     43  F   UNL A   1      46.283  28.630  24.123  1.00  0.00    -0.205 F 
ATOM     44  C   UNL A   1      48.830  26.027  24.509  1.00  0.00     0.022 A 
BRANCH  42  45
ATOM     45  S   UNL A   1      48.480  27.531  22.251  1.00  0.00     0.127 S 
ATOM     46  O   UNL A   1      48.756  26.235  21.634  1.00  0.00    -0.237 OA
ATOM     47  O   UNL A   1      47.246  28.173  21.795  1.00  0.00    -0.237 OA
ATOM     48  O   UNL A   1      49.621  28.429  22.364  1.00  0.00    -0.744 OA
ENDBRANCH  42  45
ENDBRANCH  24  38
BRANCH  25  49
ATOM     49  C   UNL A   1      38.415  30.382  30.585  1.00  0.00     0.023 A 
ATOM     50  C   UNL A   1      38.094  29.937  31.881  1.00  0.00     0.012 A 
ATOM     51  C   UNL A   1      37.612  31.367  29.976  1.00  0.00     0.148 A 
ATOM     52  C   UNL A   1      36.996  30.465  32.561  1.00  0.00     0.002 A 
ATOM     53  C   UNL A   1      36.559  31.934  30.684  1.00  0.00     0.091 A 
ATOM     54  F   UNL A   1      37.929  31.767  28.736  1.00  0.00    -0.205 F 
ATOM     55  C   UNL A   1      36.240  31.475  31.970  1.00  0.00     0.022 A 
BRANCH  53  56
ATOM     56  S   UNL A   1      35.643  33.354  30.071  1.00  0.00     0.127 S 
ATOM     57  O   UNL A   1      34.413  32.731  29.590  1.00  0.00    -0.237 OA
ATOM     58  O   UNL A   1      35.494  34.161  31.282  1.00  0.00    -0.237 OA
ATOM     59  O   UNL A   1      36.487  33.957  29.049  1.00  0.00    -0.744 OA
ENDBRANCH  53  56
ENDBRANCH  25  49
BRANCH  37  60
ATOM     60  C   UNL A   1      44.854  32.980  29.738  1.00  0.00     0.023 A 
ATOM     61  C   UNL A   1      45.579  32.986  30.945  1.00  0.00     0.012 A 
ATOM     62  C   UNL A   1      44.818  34.141  28.942  1.00  0.00     0.148 A 
ATOM     63  C   UNL A   1      46.239  34.139  31.366  1.00  0.00     0.002 A 
ATOM     64  C   UNL A   1      45.515  35.272  29.346  1.00  0.00     0.091 A 
ATOM     65  F   UNL A   1      44.099  34.120  27.810  1.00  0.00    -0.205 F 
ATOM     66  C   UNL A   1      46.219  35.277  30.562  1.00  0.00     0.022 A 
BRANCH  64  67
ATOM     67  S   UNL A   1      45.617  36.746  28.324  1.00  0.00     0.127 S 
ATOM     68  O   UNL A   1      46.368  37.654  29.187  1.00  0.00    -0.237 OA
ATOM     69  O   UNL A   1      46.354  36.266  27.154  1.00  0.00    -0.237 OA
ATOM     70  O   UNL A   1      44.239  37.133  28.049  1.00  0.00    -0.744 OA
ENDBRANCH  64  67
ENDBRANCH  37  60
ENDBRANCH  11  12
ENDBRANCH   4   6
ENDBRANCH   1   2
BRANCH   1  71
ATOM     71  C   UNL A   1      34.419  21.940  27.117  1.00  0.00     0.042 C 
BRANCH  71  72
ATOM     72  C   UNL A   1      33.127  21.868  26.328  1.00  0.00     0.117 C 
BRANCH  72  73
ATOM     73  N   UNL A   1      32.065  22.636  26.957  1.00  0.00    -0.356 N 
ATOM     74  C   UNL A   1      31.325  23.676  26.507  1.00  0.00     0.225 C 
ATOM     75  H   UNL A   1      31.845  22.350  27.873  1.00  0.00     0.163 HD
ATOM     76  O   UNL A   1      30.416  24.074  27.245  1.00  0.00    -0.275 OA
BRANCH  74  77
ATOM     77  C   UNL A   1      31.586  24.388  25.203  1.00  0.00     0.107 C 
ATOM     78  C   UNL A   1      30.854  23.827  23.996  1.00  0.00     0.037 C 
ATOM     79  C   UNL A   1      31.253  25.888  25.168  1.00  0.00     0.125 C 
ATOM     80  C   UNL A   1      31.148  24.910  22.961  1.00  0.00     0.118 C 
ATOM     81  N   UNL A   1      31.052  26.174  23.713  1.00  0.00    -0.364 N 
BRANCH  79  82
ATOM     82  C   UNL A   1      32.242  26.798  25.883  1.00  0.00    -0.025 A 
ATOM     83  C   UNL A   1      33.610  26.697  25.561  1.00  0.00     0.006 A 
ATOM     84  C   UNL A   1      31.862  27.804  26.782  1.00  0.00     0.006 A 
ATOM     85  C   UNL A   1      34.556  27.567  26.112  1.00  0.00     0.013 A 
ATOM     86  C   UNL A   1      32.802  28.694  27.314  1.00  0.00     0.013 A 
ATOM     87  C   UNL A   1      34.159  28.588  26.982  1.00  0.00     0.056 A 
BRANCH  87  88
ATOM     88  C   UNL A   1      35.177  29.530  27.573  1.00  0.00     0.416 C 
ATOM     89  F   UNL A   1      34.793  30.834  27.471  1.00  0.00    -0.166 F 
ATOM     90  F   UNL A   1      35.404  29.310  28.898  1.00  0.00    -0.166 F 
ATOM     91  F   UNL A   1      36.398  29.455  26.971  1.00  0.00    -0.166 F 
ENDBRANCH  87  88
ENDBRANCH  79  82
BRANCH  81  92
ATOM     92  C   UNL A   1      29.984  27.033  23.421  1.00  0.00     0.037 A 
ATOM     93  C   UNL A   1      28.660  26.773  23.819  1.00  0.00     0.029 A 
ATOM     94  C   UNL A   1      30.234  28.240  22.753  1.00  0.00     0.029 A 
ATOM     95  C   UNL A   1      27.630  27.684  23.561  1.00  0.00     0.041 A 
ATOM     96  C   UNL A   1      29.215  29.165  22.510  1.00  0.00     0.041 A 
ATOM     97  C   UNL A   1      27.919  28.876  22.914  1.00  0.00     0.123 A 
ATOM     98  F   UNL A   1      26.939  29.757  22.680  1.00  0.00    -0.207 F 
ENDBRANCH  81  92
ENDBRANCH  74  77
ENDBRANCH  72  73
ENDBRANCH  71  72
ENDBRANCH   1  71
TORSDOF 16
ENDMDL
MODEL 2
REMARK VINA RESULT:     -13.2      5.310      7.533
REMARK SMILES O=C(NCCCNC(=O)[C@H]1CCN(c2ccc(F)cc2)[C@@H]1c1ccc(C(F)(F)F)cc1)c1ccc(-c2c3nc(c(-c4cccc(S(=O)(=O)[O-])c4F)c4ccc([nH]4)c(-c4cccc(S(=O)(=O)[O-])c4F)c4nc(c(-c5cccc(S(=O)(=O)[O-])c5F)c5ccc2[nH]5)C=C4)C=C3)cc1
REMARK SMILES IDX 4 1 3 2 1 3 2 4 32 6 33 7 94 8 34 9 93 10 35 11 36 12 37 13
REMARK SMILES IDX 87 14 38 15 92 16 86 17 88 18 39 19 91 20 85 21 84 22 40 24
REMARK SMILES IDX 72 25 52 26 71 27 53 28 56 29 70 30 89 31 54 32 55 33 69 35
REMARK SMILES IDX 90 36 57 37 41 38 42 39 50 40 43 41 45 42 51 43 44 44 46 45
REMARK SMILES IDX 47 46 48 47 49 48 73 49 74 50 82 51 75 52 77 53 83 54 76 55
REMARK SMILES IDX 78 56 79 57 80 58 81 59 58 60 59 61 67 62 60 63 62 64 68 65
REMARK SMILES IDX 61 66 63 67 64 68 65 69 66 70 5 71 6 72 7 73 8 74 9 76 10 77
REMARK SMILES IDX 11 78 21 79 12 80 13 81 22 82 23 83 31 84 24 85 30 86 25 87
REMARK SMILES IDX 26 88 27 89 28 90 29 91 14 92 15 93 20 94 16 95 19 96 17 97
REMARK SMILES IDX 18 98
REMARK H PARENT 3 5 88 23 56 34 7 75
REMARK Flexibility Score: inf
ROOT
ATOM      1  C   UNL A   1      33.637  28.876  24.988  1.00  0.00     0.118 C 
ENDROOT
BRANCH   1   2
ATOM      2  N   UNL A   1      32.986  30.064  25.525  1.00  0.00    -0.352 N 
ATOM      3  O   UNL A   1      32.497  31.640  27.060  1.00  0.00    -0.269 OA
ATOM      4  C   UNL A   1      33.282  30.795  26.655  1.00  0.00     0.251 C 
ATOM      5  H   UNL A   1      32.221  30.395  25.001  1.00  0.00     0.163 HD
BRANCH   4   6
ATOM      6  C   UNL A   1      34.539  30.516  27.383  1.00  0.00     0.039 A 
ATOM      7  C   UNL A   1      34.795  29.234  27.867  1.00  0.00     0.014 A 
ATOM      8  C   UNL A   1      35.462  31.543  27.593  1.00  0.00     0.014 A 
ATOM      9  C   UNL A   1      35.859  29.022  28.727  1.00  0.00     0.010 A 
ATOM     10  C   UNL A   1      36.611  31.293  28.350  1.00  0.00     0.010 A 
ATOM     11  C   UNL A   1      36.802  30.039  28.949  1.00  0.00    -0.014 A 
BRANCH  11  12
ATOM     12  C   UNL A   1      38.033  29.714  29.709  1.00  0.00     0.031 A 
ATOM     13  C   UNL A   1      39.123  28.866  29.122  1.00  0.00     0.074 A 
ATOM     14  C   UNL A   1      38.159  30.229  30.949  1.00  0.00     0.049 A 
ATOM     15  N   UNL A   1      40.251  28.492  29.669  1.00  0.00    -0.248 NA
ATOM     16  C   UNL A   1      38.928  28.367  27.751  1.00  0.00     0.031 C 
ATOM     17  C   UNL A   1      37.149  31.054  31.618  1.00  0.00     0.029 A 
ATOM     18  N   UNL A   1      39.180  30.157  31.859  1.00  0.00    -0.354 N 
ATOM     19  C   UNL A   1      40.883  27.685  28.732  1.00  0.00     0.074 A 
ATOM     20  C   UNL A   1      40.011  27.620  27.578  1.00  0.00     0.031 C 
ATOM     21  C   UNL A   1      37.624  31.465  32.800  1.00  0.00     0.029 A 
ATOM     22  C   UNL A   1      38.933  30.863  33.014  1.00  0.00     0.049 A 
ATOM     23  H   UNL A   1      40.010  29.652  31.702  1.00  0.00     0.167 HD
ATOM     24  C   UNL A   1      42.085  27.068  28.825  1.00  0.00     0.034 A 
ATOM     25  C   UNL A   1      39.667  31.000  34.133  1.00  0.00     0.034 A 
ATOM     26  C   UNL A   1      42.951  27.165  29.972  1.00  0.00     0.049 A 
ATOM     27  C   UNL A   1      40.993  30.309  34.206  1.00  0.00     0.074 A 
ATOM     28  C   UNL A   1      44.191  26.581  30.167  1.00  0.00     0.029 A 
ATOM     29  N   UNL A   1      42.673  27.898  31.118  1.00  0.00    -0.354 N 
ATOM     30  N   UNL A   1      41.594  29.587  33.291  1.00  0.00    -0.248 NA
ATOM     31  C   UNL A   1      41.751  30.459  35.454  1.00  0.00     0.031 C 
ATOM     32  C   UNL A   1      44.657  26.953  31.433  1.00  0.00     0.029 A 
ATOM     33  C   UNL A   1      43.719  27.786  32.020  1.00  0.00     0.049 A 
ATOM     34  H   UNL A   1      41.853  28.421  31.268  1.00  0.00     0.167 HD
ATOM     35  C   UNL A   1      42.808  29.208  33.843  1.00  0.00     0.074 A 
ATOM     36  C   UNL A   1      42.869  29.804  35.163  1.00  0.00     0.031 C 
ATOM     37  C   UNL A   1      43.777  28.422  33.312  1.00  0.00     0.034 A 
BRANCH  24  38
ATOM     38  C   UNL A   1      42.561  26.263  27.643  1.00  0.00     0.023 A 
ATOM     39  C   UNL A   1      43.217  26.916  26.579  1.00  0.00     0.012 A 
ATOM     40  C   UNL A   1      42.438  24.859  27.618  1.00  0.00     0.148 A 
ATOM     41  C   UNL A   1      43.722  26.189  25.500  1.00  0.00     0.002 A 
ATOM     42  C   UNL A   1      42.978  24.138  26.557  1.00  0.00     0.091 A 
ATOM     43  F   UNL A   1      41.791  24.255  28.625  1.00  0.00    -0.205 F 
ATOM     44  C   UNL A   1      43.613  24.801  25.495  1.00  0.00     0.022 A 
BRANCH  42  45
ATOM     45  S   UNL A   1      42.955  22.342  26.498  1.00  0.00     0.127 S 
ATOM     46  O   UNL A   1      41.970  22.094  25.447  1.00  0.00    -0.237 OA
ATOM     47  O   UNL A   1      44.335  22.025  26.125  1.00  0.00    -0.237 OA
ATOM     48  O   UNL A   1      42.575  21.904  27.833  1.00  0.00    -0.744 OA
ENDBRANCH  42  45
ENDBRANCH  24  38
BRANCH  25  49
ATOM     49  C   UNL A   1      39.165  31.878  35.226  1.00  0.00     0.023 A 
ATOM     50  C   UNL A   1      38.347  31.325  36.229  1.00  0.00     0.012 A 
ATOM     51  C   UNL A   1      39.591  33.216  35.344  1.00  0.00     0.148 A 
ATOM     52  C   UNL A   1      37.963  32.089  37.332  1.00  0.00     0.002 A 
ATOM     53  C   UNL A   1      39.257  33.949  36.476  1.00  0.00     0.091 A 
ATOM     54  F   UNL A   1      40.358  33.726  34.370  1.00  0.00    -0.205 F 
ATOM     55  C   UNL A   1      38.432  33.393  37.465  1.00  0.00     0.022 A 
BRANCH  53  56
ATOM     56  S   UNL A   1      39.957  35.571  36.811  1.00  0.00     0.127 S 
ATOM     57  O   UNL A   1      41.384  35.272  36.880  1.00  0.00    -0.237 OA
ATOM     58  O   UNL A   1      39.542  36.328  35.628  1.00  0.00    -0.237 OA
ATOM     59  O   UNL A   1      39.343  36.017  38.053  1.00  0.00    -0.744 OA
ENDBRANCH  53  56
ENDBRANCH  25  49
BRANCH  37  60
ATOM     60  C   UNL A   1      44.999  28.171  34.154  1.00  0.00     0.023 A 
ATOM     61  C   UNL A   1      46.082  29.069  34.091  1.00  0.00     0.012 A 
ATOM     62  C   UNL A   1      45.040  27.093  35.059  1.00  0.00     0.148 A 
ATOM     63  C   UNL A   1      47.202  28.881  34.901  1.00  0.00     0.002 A 
ATOM     64  C   UNL A   1      46.139  26.939  35.894  1.00  0.00     0.091 A 
ATOM     65  F   UNL A   1      44.008  26.236  35.082  1.00  0.00    -0.205 F 
ATOM     66  C   UNL A   1      47.225  27.826  35.810  1.00  0.00     0.022 A 
BRANCH  64  67
ATOM     67  S   UNL A   1      46.207  25.663  37.157  1.00  0.00     0.127 S 
ATOM     68  O   UNL A   1      47.492  25.942  37.792  1.00  0.00    -0.237 OA
ATOM     69  O   UNL A   1      45.038  25.974  37.980  1.00  0.00    -0.237 OA
ATOM     70  O   UNL A   1      46.119  24.395  36.443  1.00  0.00    -0.744 OA
ENDBRANCH  64  67
ENDBRANCH  37  60
ENDBRANCH  11  12
ENDBRANCH   4   6
ENDBRANCH   1   2
BRANCH   1  71
ATOM     71  C   UNL A   1      33.031  28.427  23.664  1.00  0.00     0.042 C 
BRANCH  71  72
ATOM     72  C   UNL A   1      32.465  27.025  23.765  1.00  0.00     0.117 C 
BRANCH  72  73
ATOM     73  N   UNL A   1      32.964  26.162  22.706  1.00  0.00    -0.356 N 
ATOM     74  C   UNL A   1      33.046  24.815  22.613  1.00  0.00     0.225 C 
ATOM     75  H   UNL A   1      33.304  26.643  21.918  1.00  0.00     0.163 HD
ATOM     76  O   UNL A   1      33.440  24.353  21.536  1.00  0.00    -0.275 OA
BRANCH  74  77
ATOM     77  C   UNL A   1      32.737  23.876  23.753  1.00  0.00     0.107 C 
ATOM     78  C   UNL A   1      31.362  23.231  23.712  1.00  0.00     0.037 C 
ATOM     79  C   UNL A   1      33.694  22.686  23.934  1.00  0.00     0.125 C 
ATOM     80  C   UNL A   1      31.503  22.200  24.829  1.00  0.00     0.118 C 
ATOM     81  N   UNL A   1      32.875  21.682  24.681  1.00  0.00    -0.364 N 
BRANCH  79  82
ATOM     82  C   UNL A   1      35.046  23.018  24.550  1.00  0.00    -0.025 A 
ATOM     83  C   UNL A   1      35.106  23.989  25.568  1.00  0.00     0.006 A 
ATOM     84  C   UNL A   1      36.232  22.342  24.229  1.00  0.00     0.006 A 
ATOM     85  C   UNL A   1      36.300  24.271  26.239  1.00  0.00     0.013 A 
ATOM     86  C   UNL A   1      37.422  22.603  24.918  1.00  0.00     0.013 A 
ATOM     87  C   UNL A   1      37.468  23.566  25.933  1.00  0.00     0.056 A 
BRANCH  87  88
ATOM     88  C   UNL A   1      38.756  23.865  26.659  1.00  0.00     0.416 C 
ATOM     89  F   UNL A   1      39.483  22.739  26.904  1.00  0.00    -0.166 F 
ATOM     90  F   UNL A   1      39.581  24.698  25.965  1.00  0.00    -0.166 F 
ATOM     91  F   UNL A   1      38.568  24.456  27.873  1.00  0.00    -0.166 F 
ENDBRANCH  87  88
ENDBRANCH  79  82
BRANCH  81  92
ATOM     92  C   UNL A   1      33.035  20.355  24.258  1.00  0.00     0.037 A 
ATOM     93  C   UNL A   1      32.289  19.790  23.208  1.00  0.00     0.029 A 
ATOM     94  C   UNL A   1      34.018  19.555  24.858  1.00  0.00     0.029 A 
ATOM     95  C   UNL A   1      32.520  18.480  22.774  1.00  0.00     0.041 A 
ATOM     96  C   UNL A   1      34.269  18.253  24.416  1.00  0.00     0.041 A 
ATOM     97  C   UNL A   1      33.513  17.726  23.379  1.00  0.00     0.123 A 
ATOM     98  F   UNL A   1      33.747  16.478  22.956  1.00  0.00    -0.207 F 
ENDBRANCH  81  92
ENDBRANCH  74  77
ENDBRANCH  72  73
ENDBRANCH  71  72
ENDBRANCH   1  71
TORSDOF 16
ENDMDL
MODEL 3
REMARK VINA RESULT:     -13.1      5.262     10.030
REMARK SMILES O=C(NCCCNC(=O)[C@H]1CCN(c2ccc(F)cc2)[C@@H]1c1ccc(C(F)(F)F)cc1)c1ccc(-c2c3nc(c(-c4cccc(S(=O)(=O)[O-])c4F)c4ccc([nH]4)c(-c4cccc(S(=O)(=O)[O-])c4F)c4nc(c(-c5cccc(S(=O)(=O)[O-])c5F)c5ccc2[nH]5)C=C4)C=C3)cc1
REMARK SMILES IDX 4 1 3 2 1 3 2 4 32 6 33 7 94 8 34 9 93 10 35 11 36 12 37 13
REMARK SMILES IDX 87 14 38 15 92 16 86 17 88 18 39 19 91 20 85 21 84 22 40 24
REMARK SMILES IDX 72 25 52 26 71 27 53 28 56 29 70 30 89 31 54 32 55 33 69 35
REMARK SMILES IDX 90 36 57 37 41 38 42 39 50 40 43 41 45 42 51 43 44 44 46 45
REMARK SMILES IDX 47 46 48 47 49 48 73 49 74 50 82 51 75 52 77 53 83 54 76 55
REMARK SMILES IDX 78 56 79 57 80 58 81 59 58 60 59 61 67 62 60 63 62 64 68 65
REMARK SMILES IDX 61 66 63 67 64 68 65 69 66 70 5 71 6 72 7 73 8 74 9 76 10 77
REMARK SMILES IDX 11 78 21 79 12 80 13 81 22 82 23 83 31 84 24 85 30 86 25 87
REMARK SMILES IDX 26 88 27 89 28 90 29 91 14 92 15 93 20 94 16 95 19 96 17 97
REMARK SMILES IDX 18 98
REMARK H PARENT 3 5 88 23 56 34 7 75
REMARK Flexibility Score: inf
ROOT
ATOM      1  C   UNL A   1      33.463  29.053  24.762  1.00  0.00     0.118 C 
ENDROOT
BRANCH   1   2
ATOM      2  N   UNL A   1      32.701  30.128  25.383  1.00  0.00    -0.352 N 
ATOM      3  O   UNL A   1      32.068  31.532  27.028  1.00  0.00    -0.269 OA
ATOM      4  C   UNL A   1      32.931  30.802  26.563  1.00  0.00     0.251 C 
ATOM      5  H   UNL A   1      31.904  30.419  24.884  1.00  0.00     0.163 HD
BRANCH   4   6
ATOM      6  C   UNL A   1      34.214  30.597  27.270  1.00  0.00     0.039 A 
ATOM      7  C   UNL A   1      34.606  29.314  27.646  1.00  0.00     0.014 A 
ATOM      8  C   UNL A   1      35.024  31.695  27.569  1.00  0.00     0.014 A 
ATOM      9  C   UNL A   1      35.691  29.144  28.490  1.00  0.00     0.010 A 
ATOM     10  C   UNL A   1      36.197  31.505  28.306  1.00  0.00     0.010 A 
ATOM     11  C   UNL A   1      36.523  30.233  28.799  1.00  0.00    -0.014 A 
BRANCH  11  12
ATOM     12  C   UNL A   1      37.786  29.978  29.534  1.00  0.00     0.031 A 
ATOM     13  C   UNL A   1      38.023  30.528  30.910  1.00  0.00     0.074 A 
ATOM     14  C   UNL A   1      38.716  29.208  28.933  1.00  0.00     0.049 A 
ATOM     15  N   UNL A   1      39.079  30.395  31.672  1.00  0.00    -0.248 NA
ATOM     16  C   UNL A   1      36.947  31.331  31.512  1.00  0.00     0.031 C 
ATOM     17  C   UNL A   1      38.589  28.638  27.589  1.00  0.00     0.029 A 
ATOM     18  N   UNL A   1      39.934  28.757  29.368  1.00  0.00    -0.354 N 
ATOM     19  C   UNL A   1      38.816  31.127  32.822  1.00  0.00     0.074 A 
ATOM     20  C   UNL A   1      37.499  31.705  32.660  1.00  0.00     0.031 C 
ATOM     21  C   UNL A   1      39.650  27.863  27.335  1.00  0.00     0.029 A 
ATOM     22  C   UNL A   1      40.574  27.950  28.456  1.00  0.00     0.049 A 
ATOM     23  H   UNL A   1      40.314  28.987  30.247  1.00  0.00     0.167 HD
ATOM     24  C   UNL A   1      39.600  31.287  33.916  1.00  0.00     0.034 A 
ATOM     25  C   UNL A   1      41.781  27.357  28.505  1.00  0.00     0.034 A 
ATOM     26  C   UNL A   1      40.897  30.682  34.069  1.00  0.00     0.049 A 
ATOM     27  C   UNL A   1      42.623  27.550  29.728  1.00  0.00     0.074 A 
ATOM     28  C   UNL A   1      41.771  30.779  35.139  1.00  0.00     0.029 A 
ATOM     29  N   UNL A   1      41.508  29.861  33.131  1.00  0.00    -0.354 N 
ATOM     30  N   UNL A   1      42.338  28.209  30.825  1.00  0.00    -0.248 NA
ATOM     31  C   UNL A   1      43.944  26.910  29.730  1.00  0.00     0.031 C 
ATOM     32  C   UNL A   1      42.913  30.026  34.842  1.00  0.00     0.029 A 
ATOM     33  C   UNL A   1      42.743  29.441  33.597  1.00  0.00     0.049 A 
ATOM     34  H   UNL A   1      41.121  29.614  32.261  1.00  0.00     0.167 HD
ATOM     35  C   UNL A   1      43.435  28.051  31.658  1.00  0.00     0.074 A 
ATOM     36  C   UNL A   1      44.380  27.211  30.947  1.00  0.00     0.031 C 
ATOM     37  C   UNL A   1      43.650  28.571  32.891  1.00  0.00     0.034 A 
BRANCH  24  38
ATOM     38  C   UNL A   1      39.064  32.117  35.054  1.00  0.00     0.023 A 
ATOM     39  C   UNL A   1      39.030  33.522  34.931  1.00  0.00     0.012 A 
ATOM     40  C   UNL A   1      38.521  31.514  36.206  1.00  0.00     0.148 A 
ATOM     41  C   UNL A   1      38.485  34.312  35.943  1.00  0.00     0.002 A 
ATOM     42  C   UNL A   1      37.945  32.307  37.194  1.00  0.00     0.091 A 
ATOM     43  F   UNL A   1      38.583  30.179  36.319  1.00  0.00    -0.205 F 
ATOM     44  C   UNL A   1      37.932  33.705  37.068  1.00  0.00     0.022 A 
BRANCH  42  45
ATOM     45  S   UNL A   1      37.139  31.613  38.643  1.00  0.00     0.127 S 
ATOM     46  O   UNL A   1      38.170  31.787  39.665  1.00  0.00    -0.237 OA
ATOM     47  O   UNL A   1      35.974  32.485  38.799  1.00  0.00    -0.237 OA
ATOM     48  O   UNL A   1      36.820  30.235  38.300  1.00  0.00    -0.744 OA
ENDBRANCH  42  45
ENDBRANCH  24  38
BRANCH  25  49
ATOM     49  C   UNL A   1      42.206  26.486  27.373  1.00  0.00     0.023 A 
ATOM     50  C   UNL A   1      42.710  27.081  26.202  1.00  0.00     0.012 A 
ATOM     51  C   UNL A   1      42.230  25.083  27.499  1.00  0.00     0.148 A 
ATOM     52  C   UNL A   1      43.231  26.293  25.174  1.00  0.00     0.002 A 
ATOM     53  C   UNL A   1      42.809  24.310  26.501  1.00  0.00     0.091 A 
ATOM     54  F   UNL A   1      41.733  24.538  28.619  1.00  0.00    -0.205 F 
ATOM     55  C   UNL A   1      43.298  24.910  25.331  1.00  0.00     0.022 A 
BRANCH  53  56
ATOM     56  S   UNL A   1      43.091  22.545  26.694  1.00  0.00     0.127 S 
ATOM     57  O   UNL A   1      44.533  22.497  26.924  1.00  0.00    -0.237 OA
ATOM     58  O   UNL A   1      42.270  22.235  27.865  1.00  0.00    -0.237 OA
ATOM     59  O   UNL A   1      42.628  21.933  25.457  1.00  0.00    -0.744 OA
ENDBRANCH  53  56
ENDBRANCH  25  49
BRANCH  37  60
ATOM     60  C   UNL A   1      44.953  28.234  33.564  1.00  0.00     0.023 A 
ATOM     61  C   UNL A   1      46.057  29.095  33.412  1.00  0.00     0.012 A 
ATOM     62  C   UNL A   1      45.058  27.109  34.404  1.00  0.00     0.148 A 
ATOM     63  C   UNL A   1      47.257  28.826  34.068  1.00  0.00     0.002 A 
ATOM     64  C   UNL A   1      46.243  26.872  35.089  1.00  0.00     0.091 A 
ATOM     65  F   UNL A   1      44.002  26.288  34.512  1.00  0.00    -0.205 F 
ATOM     66  C   UNL A   1      47.346  27.724  34.916  1.00  0.00     0.022 A 
BRANCH  64  67
ATOM     67  S   UNL A   1      46.410  25.530  36.272  1.00  0.00     0.127 S 
ATOM     68  O   UNL A   1      47.796  25.687  36.706  1.00  0.00    -0.237 OA
ATOM     69  O   UNL A   1      45.410  25.876  37.282  1.00  0.00    -0.237 OA
ATOM     70  O   UNL A   1      46.116  24.311  35.530  1.00  0.00    -0.744 OA
ENDBRANCH  64  67
ENDBRANCH  37  60
ENDBRANCH  11  12
ENDBRANCH   4   6
ENDBRANCH   1   2
BRANCH   1  71
ATOM     71  C   UNL A   1      32.717  28.403  23.603  1.00  0.00     0.042 C 
BRANCH  71  72
ATOM     72  C   UNL A   1      32.430  26.941  23.883  1.00  0.00     0.117 C 
BRANCH  72  73
ATOM     73  N   UNL A   1      32.862  26.086  22.789  1.00  0.00    -0.356 N 
ATOM     74  C   UNL A   1      32.929  24.739  22.678  1.00  0.00     0.225 C 
ATOM     75  H   UNL A   1      33.158  26.573  21.986  1.00  0.00     0.163 HD
ATOM     76  O   UNL A   1      33.256  24.286  21.576  1.00  0.00    -0.275 OA
BRANCH  74  77
ATOM     77  C   UNL A   1      32.680  23.792  23.825  1.00  0.00     0.107 C 
ATOM     78  C   UNL A   1      31.316  23.123  23.834  1.00  0.00     0.037 C 
ATOM     79  C   UNL A   1      33.664  22.617  23.964  1.00  0.00     0.125 C 
ATOM     80  C   UNL A   1      31.518  22.090  24.941  1.00  0.00     0.118 C 
ATOM     81  N   UNL A   1      32.892  21.597  24.738  1.00  0.00    -0.364 N 
BRANCH  79  82
ATOM     82  C   UNL A   1      35.032  22.971  24.529  1.00  0.00    -0.025 A 
ATOM     83  C   UNL A   1      35.117  23.953  25.535  1.00  0.00     0.006 A 
ATOM     84  C   UNL A   1      36.214  22.305  24.174  1.00  0.00     0.006 A 
ATOM     85  C   UNL A   1      36.330  24.255  26.161  1.00  0.00     0.013 A 
ATOM     86  C   UNL A   1      37.425  22.586  24.818  1.00  0.00     0.013 A 
ATOM     87  C   UNL A   1      37.496  23.561  25.821  1.00  0.00     0.056 A 
BRANCH  87  88
ATOM     88  C   UNL A   1      38.804  23.882  26.499  1.00  0.00     0.416 C 
ATOM     89  F   UNL A   1      39.465  24.903  25.886  1.00  0.00    -0.166 F 
ATOM     90  F   UNL A   1      38.654  24.262  27.798  1.00  0.00    -0.166 F 
ATOM     91  F   UNL A   1      39.676  22.834  26.517  1.00  0.00    -0.166 F 
ENDBRANCH  87  88
ENDBRANCH  79  82
BRANCH  81  92
ATOM     92  C   UNL A   1      33.059  20.275  24.303  1.00  0.00     0.037 A 
ATOM     93  C   UNL A   1      32.288  19.703  23.275  1.00  0.00     0.029 A 
ATOM     94  C   UNL A   1      34.073  19.487  24.868  1.00  0.00     0.029 A 
ATOM     95  C   UNL A   1      32.525  18.398  22.828  1.00  0.00     0.041 A 
ATOM     96  C   UNL A   1      34.329  18.191  24.412  1.00  0.00     0.041 A 
ATOM     97  C   UNL A   1      33.549  17.657  23.397  1.00  0.00     0.123 A 
ATOM     98  F   UNL A   1      33.788  16.414  22.961  1.00  0.00    -0.207 F 
ENDBRANCH  81  92
ENDBRANCH  74  77
ENDBRANCH  72  73
ENDBRANCH  71  72
ENDBRANCH   1  71
TORSDOF 16
ENDMDL
