MODEL 1
REMARK VINA RESULT:     -10.8      0.000      0.000
REMARK SMILES O=C(CCCOc1ccc(Cl)cc1Cl)Nc1cccc(C(=O)NCCCNC(=O)c2ccc(-c3c4nc(c(-c5cccc(S(=O)(=O)[O-])c5F)c5ccc([nH]5)c(-c5cccc(S(=O)(=O)[O-])c5F)c5nc(c(-c6cccc(S(=O)(=O)[O-])c6F)c6ccc3[nH]6)C=C5)C=C4)cc2)c1
REMARK SMILES IDX 21 1 22 2 23 3 20 5 16 6 17 7 93 8 18 9 19 10 15 11 1 12
REMARK SMILES IDX 2 13 3 15 4 16 5 17 6 18 7 19 8 20 13 21 9 22 12 23 14 24
REMARK SMILES IDX 10 25 11 26 24 27 25 28 26 29 27 30 28 31 29 33 30 34 31 35
REMARK SMILES IDX 92 36 32 37 91 38 33 39 34 40 35 41 85 42 36 43 90 44 84 45
REMARK SMILES IDX 86 46 37 47 89 48 83 49 82 50 38 52 70 53 50 54 69 55 51 56
REMARK SMILES IDX 54 57 68 58 87 59 52 60 53 61 67 63 88 64 55 65 39 66 40 67
REMARK SMILES IDX 48 68 41 69 43 70 49 71 42 72 44 73 45 74 46 75 47 76 71 77
REMARK SMILES IDX 72 78 80 79 73 80 75 81 81 82 74 83 76 84 77 85 78 86 79 87
REMARK SMILES IDX 56 88 57 89 65 90 58 91 60 92 66 93 59 94 61 95 62 96 63 97
REMARK SMILES IDX 64 98
REMARK H PARENT 23 4 15 14 27 32 86 51 54 62
REMARK Flexibility Score: inf
ROOT
ATOM      1  C   UNL A   1      32.580  28.453  23.003  1.00  0.00     0.251 C 
ATOM      2  O   UNL A   1      32.887  28.286  21.823  1.00  0.00    -0.269 OA
ATOM      3  N   UNL A   1      33.383  29.249  23.792  1.00  0.00    -0.352 N 
ATOM      4  H   UNL A   1      34.163  29.624  23.320  1.00  0.00     0.163 HD
ENDROOT
BRANCH   1   5
ATOM      5  C   UNL A   1      31.412  27.719  23.554  1.00  0.00     0.041 A 
ATOM      6  C   UNL A   1      30.477  25.689  24.446  1.00  0.00     0.041 A 
ATOM      7  C   UNL A   1      29.202  26.107  24.051  1.00  0.00     0.026 A 
ATOM      8  C   UNL A   1      31.555  26.557  24.311  1.00  0.00     0.040 A 
ATOM      9  C   UNL A   1      29.018  27.374  23.500  1.00  0.00     0.003 A 
ATOM     10  C   UNL A   1      30.130  28.166  23.215  1.00  0.00     0.014 A 
BRANCH   6  11
ATOM     11  N   UNL A   1      30.643  24.334  24.793  1.00  0.00    -0.326 N 
ATOM     12  O   UNL A   1      30.146  24.335  27.046  1.00  0.00    -0.275 OA
ATOM     13  C   UNL A   1      30.633  23.792  26.056  1.00  0.00     0.224 C 
ATOM     14  H   UNL A   1      30.784  23.707  24.048  1.00  0.00     0.169 HD
BRANCH  13  15
ATOM     15  C   UNL A   1      31.399  22.485  26.209  1.00  0.00     0.104 C 
BRANCH  15  16
ATOM     16  C   UNL A   1      31.756  21.671  24.962  1.00  0.00     0.051 C 
BRANCH  16  17
ATOM     17  C   UNL A   1      32.949  20.698  25.000  1.00  0.00     0.230 C 
BRANCH  17  18
ATOM     18  O   UNL A   1      33.998  20.980  24.071  1.00  0.00    -0.492 OA
BRANCH  18  19
ATOM     19  C   UNL A   1      35.006  21.766  24.556  1.00  0.00     0.137 A 
ATOM     20  C   UNL A   1      36.025  21.093  25.233  1.00  0.00     0.049 A 
ATOM     21  C   UNL A   1      35.126  23.140  24.313  1.00  0.00     0.084 A 
ATOM     22  C   UNL A   1      37.099  21.800  25.771  1.00  0.00     0.024 A 
ATOM     23  C   UNL A   1      36.227  23.845  24.814  1.00  0.00     0.045 A 
ATOM     24  Cl  UNL A   1      33.943  24.007  23.400  1.00  0.00    -0.080 Cl
ATOM     25  C   UNL A   1      37.194  23.174  25.563  1.00  0.00     0.042 A 
ATOM     26  Cl  UNL A   1      38.501  24.045  26.264  1.00  0.00    -0.084 Cl
ENDBRANCH  18  19
ENDBRANCH  17  18
ENDBRANCH  16  17
ENDBRANCH  15  16
ENDBRANCH  13  15
ENDBRANCH   6  11
ENDBRANCH   1   5
BRANCH   3  27
ATOM     27  C   UNL A   1      33.296  29.640  25.197  1.00  0.00     0.118 C 
BRANCH  27  28
ATOM     28  C   UNL A   1      34.017  28.713  26.162  1.00  0.00     0.042 C 
BRANCH  28  29
ATOM     29  C   UNL A   1      33.886  29.078  27.630  1.00  0.00     0.118 C 
BRANCH  29  30
ATOM     30  N   UNL A   1      33.808  30.517  27.859  1.00  0.00    -0.352 N 
ATOM     31  C   UNL A   1      34.644  31.365  28.543  1.00  0.00     0.251 C 
ATOM     32  H   UNL A   1      33.024  30.953  27.455  1.00  0.00     0.163 HD
ATOM     33  O   UNL A   1      34.278  32.526  28.747  1.00  0.00    -0.269 OA
BRANCH  31  34
ATOM     34  C   UNL A   1      35.956  30.912  29.055  1.00  0.00     0.039 A 
ATOM     35  C   UNL A   1      35.992  29.934  30.055  1.00  0.00     0.014 A 
ATOM     36  C   UNL A   1      37.151  31.455  28.580  1.00  0.00     0.014 A 
ATOM     37  C   UNL A   1      37.221  29.453  30.516  1.00  0.00     0.010 A 
ATOM     38  C   UNL A   1      38.369  30.898  28.958  1.00  0.00     0.010 A 
ATOM     39  C   UNL A   1      38.421  29.899  29.939  1.00  0.00    -0.014 A 
BRANCH  39  40
ATOM     40  C   UNL A   1      39.732  29.320  30.335  1.00  0.00     0.031 A 
ATOM     41  C   UNL A   1      40.535  29.934  31.452  1.00  0.00     0.074 A 
ATOM     42  C   UNL A   1      40.242  28.292  29.627  1.00  0.00     0.049 A 
ATOM     43  N   UNL A   1      41.712  29.587  31.908  1.00  0.00    -0.248 NA
ATOM     44  C   UNL A   1      39.958  31.107  32.127  1.00  0.00     0.031 C 
ATOM     45  C   UNL A   1      39.608  27.673  28.461  1.00  0.00     0.029 A 
ATOM     46  N   UNL A   1      41.421  27.603  29.766  1.00  0.00    -0.354 N 
ATOM     47  C   UNL A   1      42.032  30.520  32.887  1.00  0.00     0.074 A 
ATOM     48  C   UNL A   1      40.943  31.470  32.936  1.00  0.00     0.031 C 
ATOM     49  C   UNL A   1      40.395  26.689  28.001  1.00  0.00     0.029 A 
ATOM     50  C   UNL A   1      41.606  26.630  28.812  1.00  0.00     0.049 A 
ATOM     51  H   UNL A   1      42.073  27.789  30.481  1.00  0.00     0.167 HD
ATOM     52  C   UNL A   1      43.120  30.568  33.693  1.00  0.00     0.034 A 
ATOM     53  C   UNL A   1      42.639  25.789  28.605  1.00  0.00     0.034 A 
ATOM     54  C   UNL A   1      44.182  29.599  33.666  1.00  0.00     0.049 A 
ATOM     55  C   UNL A   1      43.812  25.830  29.545  1.00  0.00     0.074 A 
ATOM     56  C   UNL A   1      45.275  29.499  34.508  1.00  0.00     0.029 A 
ATOM     57  N   UNL A   1      44.295  28.573  32.741  1.00  0.00    -0.354 N 
ATOM     58  N   UNL A   1      44.015  26.613  30.577  1.00  0.00    -0.248 NA
ATOM     59  C   UNL A   1      44.883  24.849  29.314  1.00  0.00     0.031 C 
ATOM     60  C   UNL A   1      46.070  28.435  34.068  1.00  0.00     0.029 A 
ATOM     61  C   UNL A   1      45.449  27.846  32.978  1.00  0.00     0.049 A 
ATOM     62  H   UNL A   1      43.649  28.389  32.021  1.00  0.00     0.167 HD
ATOM     63  C   UNL A   1      45.218  26.200  31.137  1.00  0.00     0.074 A 
ATOM     64  C   UNL A   1      45.685  25.081  30.344  1.00  0.00     0.031 C 
ATOM     65  C   UNL A   1      45.883  26.710  32.205  1.00  0.00     0.034 A 
BRANCH  52  66
ATOM     66  C   UNL A   1      43.196  31.686  34.703  1.00  0.00     0.023 A 
ATOM     67  C   UNL A   1      43.864  32.884  34.375  1.00  0.00     0.012 A 
ATOM     68  C   UNL A   1      42.563  31.572  35.956  1.00  0.00     0.148 A 
ATOM     69  C   UNL A   1      43.938  33.933  35.290  1.00  0.00     0.002 A 
ATOM     70  C   UNL A   1      42.598  32.641  36.845  1.00  0.00     0.091 A 
ATOM     71  F   UNL A   1      41.950  30.420  36.262  1.00  0.00    -0.205 F 
ATOM     72  C   UNL A   1      43.296  33.816  36.520  1.00  0.00     0.022 A 
BRANCH  70  73
ATOM     73  S   UNL A   1      41.733  32.622  38.419  1.00  0.00     0.127 S 
ATOM     74  O   UNL A   1      42.466  31.586  39.146  1.00  0.00    -0.237 OA
ATOM     75  O   UNL A   1      41.956  33.983  38.908  1.00  0.00    -0.237 OA
ATOM     76  O   UNL A   1      40.346  32.306  38.112  1.00  0.00    -0.744 OA
ENDBRANCH  70  73
ENDBRANCH  52  66
BRANCH  53  77
ATOM     77  C   UNL A   1      42.576  24.798  27.493  1.00  0.00     0.023 A 
ATOM     78  C   UNL A   1      43.092  25.140  26.228  1.00  0.00     0.012 A 
ATOM     79  C   UNL A   1      42.047  23.509  27.693  1.00  0.00     0.148 A 
ATOM     80  C   UNL A   1      43.055  24.227  25.174  1.00  0.00     0.002 A 
ATOM     81  C   UNL A   1      42.069  22.583  26.657  1.00  0.00     0.091 A 
ATOM     82  F   UNL A   1      41.553  23.206  28.902  1.00  0.00    -0.205 F 
ATOM     83  C   UNL A   1      42.554  22.946  25.391  1.00  0.00     0.022 A 
BRANCH  81  84
ATOM     84  S   UNL A   1      41.579  20.869  26.883  1.00  0.00     0.127 S 
ATOM     85  O   UNL A   1      40.164  21.005  27.220  1.00  0.00    -0.237 OA
ATOM     86  O   UNL A   1      41.847  20.305  25.560  1.00  0.00    -0.237 OA
ATOM     87  O   UNL A   1      42.432  20.349  27.942  1.00  0.00    -0.744 OA
ENDBRANCH  81  84
ENDBRANCH  53  77
BRANCH  65  88
ATOM     88  C   UNL A   1      47.175  26.044  32.604  1.00  0.00     0.023 A 
ATOM     89  C   UNL A   1      48.397  26.500  32.070  1.00  0.00     0.012 A 
ATOM     90  C   UNL A   1      47.182  25.011  33.561  1.00  0.00     0.148 A 
ATOM     91  C   UNL A   1      49.602  25.911  32.453  1.00  0.00     0.002 A 
ATOM     92  C   UNL A   1      48.390  24.465  33.977  1.00  0.00     0.091 A 
ATOM     93  F   UNL A   1      46.009  24.579  34.045  1.00  0.00    -0.205 F 
ATOM     94  C   UNL A   1      49.599  24.904  33.414  1.00  0.00     0.022 A 
BRANCH  92  95
ATOM     95  S   UNL A   1      48.492  23.233  35.281  1.00  0.00     0.127 S 
ATOM     96  O   UNL A   1      48.095  22.017  34.573  1.00  0.00    -0.237 OA
ATOM     97  O   UNL A   1      49.908  23.291  35.650  1.00  0.00    -0.237 OA
ATOM     98  O   UNL A   1      47.577  23.674  36.325  1.00  0.00    -0.744 OA
ENDBRANCH  92  95
ENDBRANCH  65  88
ENDBRANCH  39  40
ENDBRANCH  31  34
ENDBRANCH  29  30
ENDBRANCH  28  29
ENDBRANCH  27  28
ENDBRANCH   3  27
TORSDOF 19
ENDMDL
MODEL 2
REMARK VINA RESULT:     -10.7      2.015      2.579
REMARK SMILES O=C(CCCOc1ccc(Cl)cc1Cl)Nc1cccc(C(=O)NCCCNC(=O)c2ccc(-c3c4nc(c(-c5cccc(S(=O)(=O)[O-])c5F)c5ccc([nH]5)c(-c5cccc(S(=O)(=O)[O-])c5F)c5nc(c(-c6cccc(S(=O)(=O)[O-])c6F)c6ccc3[nH]6)C=C5)C=C4)cc2)c1
REMARK SMILES IDX 21 1 22 2 23 3 20 5 16 6 17 7 93 8 18 9 19 10 15 11 1 12
REMARK SMILES IDX 2 13 3 15 4 16 5 17 6 18 7 19 8 20 13 21 9 22 12 23 14 24
REMARK SMILES IDX 10 25 11 26 24 27 25 28 26 29 27 30 28 31 29 33 30 34 31 35
REMARK SMILES IDX 92 36 32 37 91 38 33 39 34 40 35 41 85 42 36 43 90 44 84 45
REMARK SMILES IDX 86 46 37 47 89 48 83 49 82 50 38 52 70 53 50 54 69 55 51 56
REMARK SMILES IDX 54 57 68 58 87 59 52 60 53 61 67 63 88 64 55 65 39 66 40 67
REMARK SMILES IDX 48 68 41 69 43 70 49 71 42 72 44 73 45 74 46 75 47 76 71 77
REMARK SMILES IDX 72 78 80 79 73 80 75 81 81 82 74 83 76 84 77 85 78 86 79 87
REMARK SMILES IDX 56 88 57 89 65 90 58 91 60 92 66 93 59 94 61 95 62 96 63 97
REMARK SMILES IDX 64 98
REMARK H PARENT 23 4 15 14 27 32 86 51 54 62
REMARK Flexibility Score: inf
ROOT
ATOM      1  C   UNL A   1      29.737  29.216  23.358  1.00  0.00     0.251 C 
ATOM      2  O   UNL A   1      28.763  29.707  22.787  1.00  0.00    -0.269 OA
ATOM      3  N   UNL A   1      30.488  30.014  24.195  1.00  0.00    -0.352 N 
ATOM      4  H   UNL A   1      30.166  30.942  24.260  1.00  0.00     0.163 HD
ENDROOT
BRANCH   1   5
ATOM      5  C   UNL A   1      30.119  27.813  23.054  1.00  0.00     0.041 A 
ATOM      6  C   UNL A   1      30.367  25.532  23.778  1.00  0.00     0.041 A 
ATOM      7  C   UNL A   1      31.321  25.322  22.778  1.00  0.00     0.026 A 
ATOM      8  C   UNL A   1      29.677  26.739  23.825  1.00  0.00     0.040 A 
ATOM      9  C   UNL A   1      31.600  26.325  21.851  1.00  0.00     0.003 A 
ATOM     10  C   UNL A   1      31.028  27.586  22.013  1.00  0.00     0.014 A 
BRANCH   6  11
ATOM     11  N   UNL A   1      30.278  24.577  24.809  1.00  0.00    -0.326 N 
ATOM     12  O   UNL A   1      31.723  25.425  26.396  1.00  0.00    -0.275 OA
ATOM     13  C   UNL A   1      31.059  24.496  25.938  1.00  0.00     0.224 C 
ATOM     14  H   UNL A   1      29.580  23.890  24.709  1.00  0.00     0.169 HD
BRANCH  13  15
ATOM     15  C   UNL A   1      31.171  23.109  26.554  1.00  0.00     0.104 C 
BRANCH  15  16
ATOM     16  C   UNL A   1      32.464  22.705  27.270  1.00  0.00     0.051 C 
BRANCH  16  17
ATOM     17  C   UNL A   1      33.774  22.581  26.469  1.00  0.00     0.230 C 
BRANCH  17  18
ATOM     18  O   UNL A   1      33.614  22.447  25.054  1.00  0.00    -0.492 OA
BRANCH  18  19
ATOM     19  C   UNL A   1      33.519  21.160  24.602  1.00  0.00     0.137 A 
ATOM     20  C   UNL A   1      34.348  20.233  25.236  1.00  0.00     0.049 A 
ATOM     21  C   UNL A   1      32.583  20.721  23.657  1.00  0.00     0.084 A 
ATOM     22  C   UNL A   1      34.332  18.895  24.849  1.00  0.00     0.024 A 
ATOM     23  C   UNL A   1      32.534  19.368  23.299  1.00  0.00     0.045 A 
ATOM     24  Cl  UNL A   1      31.468  21.808  22.909  1.00  0.00    -0.080 Cl
ATOM     25  C   UNL A   1      33.428  18.467  23.879  1.00  0.00     0.042 A 
ATOM     26  Cl  UNL A   1      33.443  16.822  23.379  1.00  0.00    -0.084 Cl
ENDBRANCH  18  19
ENDBRANCH  17  18
ENDBRANCH  16  17
ENDBRANCH  15  16
ENDBRANCH  13  15
ENDBRANCH   6  11
ENDBRANCH   1   5
BRANCH   3  27
ATOM     27  C   UNL A   1      31.674  29.741  25.004  1.00  0.00     0.118 C 
BRANCH  27  28
ATOM     28  C   UNL A   1      31.682  30.406  26.369  1.00  0.00     0.042 C 
BRANCH  28  29
ATOM     29  C   UNL A   1      33.058  30.721  26.928  1.00  0.00     0.118 C 
BRANCH  29  30
ATOM     30  N   UNL A   1      33.237  32.133  27.251  1.00  0.00    -0.352 N 
ATOM     31  C   UNL A   1      34.199  32.771  27.993  1.00  0.00     0.251 C 
ATOM     32  H   UNL A   1      32.551  32.729  26.871  1.00  0.00     0.163 HD
ATOM     33  O   UNL A   1      34.045  33.964  28.271  1.00  0.00    -0.269 OA
BRANCH  31  34
ATOM     34  C   UNL A   1      35.400  32.057  28.482  1.00  0.00     0.039 A 
ATOM     35  C   UNL A   1      36.652  32.666  28.347  1.00  0.00     0.014 A 
ATOM     36  C   UNL A   1      35.310  30.784  29.049  1.00  0.00     0.014 A 
ATOM     37  C   UNL A   1      37.793  32.033  28.849  1.00  0.00     0.010 A 
ATOM     38  C   UNL A   1      36.427  30.207  29.645  1.00  0.00     0.010 A 
ATOM     39  C   UNL A   1      37.684  30.818  29.544  1.00  0.00    -0.014 A 
BRANCH  39  40
ATOM     40  C   UNL A   1      38.867  30.182  30.182  1.00  0.00     0.031 A 
ATOM     41  C   UNL A   1      39.344  30.636  31.538  1.00  0.00     0.074 A 
ATOM     42  C   UNL A   1      39.567  29.253  29.500  1.00  0.00     0.049 A 
ATOM     43  N   UNL A   1      40.375  30.223  32.229  1.00  0.00    -0.248 NA
ATOM     44  C   UNL A   1      38.584  31.714  32.190  1.00  0.00     0.031 C 
ATOM     45  C   UNL A   1      39.266  28.799  28.141  1.00  0.00     0.029 A 
ATOM     46  N   UNL A   1      40.690  28.543  29.845  1.00  0.00    -0.354 N 
ATOM     47  C   UNL A   1      40.412  31.015  33.370  1.00  0.00     0.074 A 
ATOM     48  C   UNL A   1      39.321  31.960  33.263  1.00  0.00     0.031 C 
ATOM     49  C   UNL A   1      40.170  27.878  27.773  1.00  0.00     0.029 A 
ATOM     50  C   UNL A   1      41.137  27.703  28.851  1.00  0.00     0.049 A 
ATOM     51  H   UNL A   1      41.134  28.627  30.720  1.00  0.00     0.167 HD
ATOM     52  C   UNL A   1      41.258  30.948  34.426  1.00  0.00     0.034 A 
ATOM     53  C   UNL A   1      42.210  26.889  28.807  1.00  0.00     0.034 A 
ATOM     54  C   UNL A   1      42.318  29.983  34.545  1.00  0.00     0.049 A 
ATOM     55  C   UNL A   1      43.105  26.796  30.012  1.00  0.00     0.074 A 
ATOM     56  C   UNL A   1      43.164  29.764  35.617  1.00  0.00     0.029 A 
ATOM     57  N   UNL A   1      42.689  29.088  33.554  1.00  0.00    -0.354 N 
ATOM     58  N   UNL A   1      43.019  27.434  31.154  1.00  0.00    -0.248 NA
ATOM     59  C   UNL A   1      44.225  25.846  29.937  1.00  0.00     0.031 C 
ATOM     60  C   UNL A   1      44.072  28.762  35.260  1.00  0.00     0.029 A 
ATOM     61  C   UNL A   1      43.763  28.327  33.980  1.00  0.00     0.049 A 
ATOM     62  H   UNL A   1      42.251  29.005  32.676  1.00  0.00     0.167 HD
ATOM     63  C   UNL A   1      44.051  26.941  31.944  1.00  0.00     0.074 A 
ATOM     64  C   UNL A   1      44.733  25.934  31.158  1.00  0.00     0.031 C 
ATOM     65  C   UNL A   1      44.410  27.300  33.203  1.00  0.00     0.034 A 
BRANCH  52  66
ATOM     66  C   UNL A   1      41.046  31.922  35.558  1.00  0.00     0.023 A 
ATOM     67  C   UNL A   1      41.925  33.013  35.720  1.00  0.00     0.012 A 
ATOM     68  C   UNL A   1      39.948  31.788  36.431  1.00  0.00     0.148 A 
ATOM     69  C   UNL A   1      41.742  33.930  36.755  1.00  0.00     0.002 A 
ATOM     70  C   UNL A   1      39.743  32.734  37.429  1.00  0.00     0.091 A 
ATOM     71  F   UNL A   1      39.133  30.735  36.277  1.00  0.00    -0.205 F 
ATOM     72  C   UNL A   1      40.645  33.796  37.601  1.00  0.00     0.022 A 
BRANCH  70  73
ATOM     73  S   UNL A   1      38.314  32.700  38.518  1.00  0.00     0.127 S 
ATOM     74  O   UNL A   1      38.918  32.285  39.783  1.00  0.00    -0.237 OA
ATOM     75  O   UNL A   1      37.869  34.094  38.484  1.00  0.00    -0.237 OA
ATOM     76  O   UNL A   1      37.383  31.749  37.930  1.00  0.00    -0.744 OA
ENDBRANCH  70  73
ENDBRANCH  52  66
BRANCH  53  77
ATOM     77  C   UNL A   1      42.457  26.054  27.597  1.00  0.00     0.023 A 
ATOM     78  C   UNL A   1      43.216  26.580  26.534  1.00  0.00     0.012 A 
ATOM     79  C   UNL A   1      41.980  24.732  27.512  1.00  0.00     0.148 A 
ATOM     80  C   UNL A   1      43.472  25.816  25.395  1.00  0.00     0.002 A 
ATOM     81  C   UNL A   1      42.290  23.955  26.402  1.00  0.00     0.091 A 
ATOM     82  F   UNL A   1      41.253  24.253  28.530  1.00  0.00    -0.205 F 
ATOM     83  C   UNL A   1      43.018  24.501  25.333  1.00  0.00     0.022 A 
BRANCH  81  84
ATOM     84  S   UNL A   1      41.873  22.210  26.299  1.00  0.00     0.127 S 
ATOM     85  O   UNL A   1      42.490  21.831  25.029  1.00  0.00    -0.237 OA
ATOM     86  O   UNL A   1      42.532  21.674  27.490  1.00  0.00    -0.237 OA
ATOM     87  O   UNL A   1      40.419  22.147  26.337  1.00  0.00    -0.744 OA
ENDBRANCH  81  84
ENDBRANCH  53  77
BRANCH  65  88
ATOM     88  C   UNL A   1      45.575  26.578  33.828  1.00  0.00     0.023 A 
ATOM     89  C   UNL A   1      46.863  27.149  33.786  1.00  0.00     0.012 A 
ATOM     90  C   UNL A   1      45.380  25.364  34.517  1.00  0.00     0.148 A 
ATOM     91  C   UNL A   1      47.944  26.504  34.386  1.00  0.00     0.002 A 
ATOM     92  C   UNL A   1      46.451  24.755  35.157  1.00  0.00     0.091 A 
ATOM     93  F   UNL A   1      44.151  24.828  34.531  1.00  0.00    -0.205 F 
ATOM     94  C   UNL A   1      47.736  25.315  35.080  1.00  0.00     0.022 A 
BRANCH  92  95
ATOM     95  S   UNL A   1      46.260  23.274  36.157  1.00  0.00     0.127 S 
ATOM     96  O   UNL A   1      45.819  22.298  35.163  1.00  0.00    -0.237 OA
ATOM     97  O   UNL A   1      47.619  23.064  36.659  1.00  0.00    -0.237 OA
ATOM     98  O   UNL A   1      45.282  23.605  37.184  1.00  0.00    -0.744 OA
ENDBRANCH  92  95
ENDBRANCH  65  88
ENDBRANCH  39  40
ENDBRANCH  31  34
ENDBRANCH  29  30
ENDBRANCH  28  29
ENDBRANCH  27  28
ENDBRANCH   3  27
TORSDOF 19
ENDMDL
MODEL 3
REMARK VINA RESULT:     -10.2      2.047      7.620
REMARK SMILES O=C(CCCOc1ccc(Cl)cc1Cl)Nc1cccc(C(=O)NCCCNC(=O)c2ccc(-c3c4nc(c(-c5cccc(S(=O)(=O)[O-])c5F)c5ccc([nH]5)c(-c5cccc(S(=O)(=O)[O-])c5F)c5nc(c(-c6cccc(S(=O)(=O)[O-])c6F)c6ccc3[nH]6)C=C5)C=C4)cc2)c1
REMARK SMILES IDX 21 1 22 2 23 3 20 5 16 6 17 7 93 8 18 9 19 10 15 11 1 12
REMARK SMILES IDX 2 13 3 15 4 16 5 17 6 18 7 19 8 20 13 21 9 22 12 23 14 24
REMARK SMILES IDX 10 25 11 26 24 27 25 28 26 29 27 30 28 31 29 33 30 34 31 35
REMARK SMILES IDX 92 36 32 37 91 38 33 39 34 40 35 41 85 42 36 43 90 44 84 45
REMARK SMILES IDX 86 46 37 47 89 48 83 49 82 50 38 52 70 53 50 54 69 55 51 56
REMARK SMILES IDX 54 57 68 58 87 59 52 60 53 61 67 63 88 64 55 65 39 66 40 67
REMARK SMILES IDX 48 68 41 69 43 70 49 71 42 72 44 73 45 74 46 75 47 76 71 77
REMARK SMILES IDX 72 78 80 79 73 80 75 81 81 82 74 83 76 84 77 85 78 86 79 87
REMARK SMILES IDX 56 88 57 89 65 90 58 91 60 92 66 93 59 94 61 95 62 96 63 97
REMARK SMILES IDX 64 98
REMARK H PARENT 23 4 15 14 27 32 86 51 54 62
REMARK Flexibility Score: inf
ROOT
ATOM      1  C   UNL A   1      30.702  27.446  23.947  1.00  0.00     0.251 C 
ATOM      2  O   UNL A   1      29.904  28.021  23.207  1.00  0.00    -0.269 OA
ATOM      3  N   UNL A   1      30.625  27.667  25.306  1.00  0.00    -0.352 N 
ATOM      4  H   UNL A   1      29.912  28.292  25.571  1.00  0.00     0.163 HD
ENDROOT
BRANCH   1   5
ATOM      5  C   UNL A   1      31.772  26.612  23.343  1.00  0.00     0.041 A 
ATOM      6  C   UNL A   1      32.513  24.478  22.514  1.00  0.00     0.041 A 
ATOM      7  C   UNL A   1      33.839  24.847  22.758  1.00  0.00     0.026 A 
ATOM      8  C   UNL A   1      31.498  25.413  22.687  1.00  0.00     0.040 A 
ATOM      9  C   UNL A   1      34.140  26.136  23.197  1.00  0.00     0.003 A 
ATOM     10  C   UNL A   1      33.103  27.007  23.528  1.00  0.00     0.014 A 
BRANCH   6  11
ATOM     11  N   UNL A   1      32.246  23.115  22.282  1.00  0.00    -0.326 N 
ATOM     12  O   UNL A   1      31.244  22.462  24.256  1.00  0.00    -0.275 OA
ATOM     13  C   UNL A   1      31.800  22.187  23.194  1.00  0.00     0.224 C 
ATOM     14  H   UNL A   1      32.397  22.790  21.365  1.00  0.00     0.169 HD
BRANCH  13  15
ATOM     15  C   UNL A   1      32.154  20.741  22.876  1.00  0.00     0.104 C 
BRANCH  15  16
ATOM     16  C   UNL A   1      32.638  19.819  24.000  1.00  0.00     0.051 C 
BRANCH  16  17
ATOM     17  C   UNL A   1      33.974  20.114  24.707  1.00  0.00     0.230 C 
BRANCH  17  18
ATOM     18  O   UNL A   1      33.900  21.043  25.792  1.00  0.00    -0.492 OA
BRANCH  18  19
ATOM     19  C   UNL A   1      34.959  21.901  25.894  1.00  0.00     0.137 A 
ATOM     20  C   UNL A   1      36.217  21.339  25.667  1.00  0.00     0.049 A 
ATOM     21  C   UNL A   1      34.842  23.283  26.085  1.00  0.00     0.084 A 
ATOM     22  C   UNL A   1      37.364  22.126  25.749  1.00  0.00     0.024 A 
ATOM     23  C   UNL A   1      35.991  24.083  26.123  1.00  0.00     0.045 A 
ATOM     24  Cl  UNL A   1      33.304  24.047  26.277  1.00  0.00    -0.080 Cl
ATOM     25  C   UNL A   1      37.247  23.494  25.981  1.00  0.00     0.042 A 
ATOM     26  Cl  UNL A   1      38.670  24.450  26.121  1.00  0.00    -0.084 Cl
ENDBRANCH  18  19
ENDBRANCH  17  18
ENDBRANCH  16  17
ENDBRANCH  15  16
ENDBRANCH  13  15
ENDBRANCH   6  11
ENDBRANCH   1   5
BRANCH   3  27
ATOM     27  C   UNL A   1      31.405  27.148  26.428  1.00  0.00     0.118 C 
BRANCH  27  28
ATOM     28  C   UNL A   1      32.214  28.193  27.178  1.00  0.00     0.042 C 
BRANCH  28  29
ATOM     29  C   UNL A   1      33.130  29.044  26.318  1.00  0.00     0.118 C 
BRANCH  29  30
ATOM     30  N   UNL A   1      32.859  30.473  26.430  1.00  0.00    -0.352 N 
ATOM     31  C   UNL A   1      33.451  31.443  27.201  1.00  0.00     0.251 C 
ATOM     32  H   UNL A   1      32.128  30.796  25.856  1.00  0.00     0.163 HD
ATOM     33  O   UNL A   1      32.933  32.562  27.252  1.00  0.00    -0.269 OA
BRANCH  31  34
ATOM     34  C   UNL A   1      34.677  31.169  27.982  1.00  0.00     0.039 A 
ATOM     35  C   UNL A   1      34.751  29.993  28.736  1.00  0.00     0.014 A 
ATOM     36  C   UNL A   1      35.745  32.067  28.001  1.00  0.00     0.014 A 
ATOM     37  C   UNL A   1      35.920  29.688  29.440  1.00  0.00     0.010 A 
ATOM     38  C   UNL A   1      36.945  31.711  28.610  1.00  0.00     0.010 A 
ATOM     39  C   UNL A   1      37.045  30.523  29.346  1.00  0.00    -0.014 A 
BRANCH  39  40
ATOM     40  C   UNL A   1      38.334  30.162  29.994  1.00  0.00     0.031 A 
ATOM     41  C   UNL A   1      39.276  29.187  29.338  1.00  0.00     0.074 A 
ATOM     42  C   UNL A   1      38.615  30.648  31.220  1.00  0.00     0.049 A 
ATOM     43  N   UNL A   1      40.422  28.728  29.773  1.00  0.00    -0.248 NA
ATOM     44  C   UNL A   1      38.867  28.629  28.039  1.00  0.00     0.031 C 
ATOM     45  C   UNL A   1      37.740  31.522  32.003  1.00  0.00     0.029 A 
ATOM     46  N   UNL A   1      39.704  30.455  32.033  1.00  0.00    -0.354 N 
ATOM     47  C   UNL A   1      40.847  27.803  28.828  1.00  0.00     0.074 A 
ATOM     48  C   UNL A   1      39.819  27.736  27.812  1.00  0.00     0.031 C 
ATOM     49  C   UNL A   1      38.330  31.802  33.175  1.00  0.00     0.029 A 
ATOM     50  C   UNL A   1      39.606  31.098  33.245  1.00  0.00     0.049 A 
ATOM     51  H   UNL A   1      40.480  29.907  31.775  1.00  0.00     0.167 HD
ATOM     52  C   UNL A   1      42.000  27.092  28.791  1.00  0.00     0.034 A 
ATOM     53  C   UNL A   1      40.444  31.114  34.301  1.00  0.00     0.034 A 
ATOM     54  C   UNL A   1      43.036  27.191  29.783  1.00  0.00     0.049 A 
ATOM     55  C   UNL A   1      41.741  30.356  34.213  1.00  0.00     0.074 A 
ATOM     56  C   UNL A   1      44.283  26.593  29.786  1.00  0.00     0.029 A 
ATOM     57  N   UNL A   1      42.940  27.921  30.958  1.00  0.00    -0.354 N 
ATOM     58  N   UNL A   1      42.202  29.621  33.231  1.00  0.00    -0.248 NA
ATOM     59  C   UNL A   1      42.648  30.458  35.366  1.00  0.00     0.031 C 
ATOM     60  C   UNL A   1      44.927  26.931  30.981  1.00  0.00     0.029 A 
ATOM     61  C   UNL A   1      44.097  27.774  31.703  1.00  0.00     0.049 A 
ATOM     62  H   UNL A   1      42.162  28.464  31.223  1.00  0.00     0.167 HD
ATOM     63  C   UNL A   1      43.464  29.199  33.631  1.00  0.00     0.074 A 
ATOM     64  C   UNL A   1      43.704  29.782  34.935  1.00  0.00     0.031 C 
ATOM     65  C   UNL A   1      44.340  28.391  32.982  1.00  0.00     0.034 A 
BRANCH  52  66
ATOM     66  C   UNL A   1      42.220  26.173  27.615  1.00  0.00     0.023 A 
ATOM     67  C   UNL A   1      42.736  26.690  26.408  1.00  0.00     0.012 A 
ATOM     68  C   UNL A   1      41.967  24.792  27.719  1.00  0.00     0.148 A 
ATOM     69  C   UNL A   1      42.955  25.856  25.311  1.00  0.00     0.002 A 
ATOM     70  C   UNL A   1      42.235  23.958  26.639  1.00  0.00     0.091 A 
ATOM     71  F   UNL A   1      41.458  24.319  28.866  1.00  0.00    -0.205 F 
ATOM     72  C   UNL A   1      42.715  24.490  25.431  1.00  0.00     0.022 A 
BRANCH  70  73
ATOM     73  S   UNL A   1      42.040  22.175  26.718  1.00  0.00     0.127 S 
ATOM     74  O   UNL A   1      42.458  21.773  25.376  1.00  0.00    -0.237 OA
ATOM     75  O   UNL A   1      42.977  21.810  27.782  1.00  0.00    -0.237 OA
ATOM     76  O   UNL A   1      40.640  21.936  27.034  1.00  0.00    -0.744 OA
ENDBRANCH  70  73
ENDBRANCH  52  66
BRANCH  53  77
ATOM     77  C   UNL A   1      40.105  31.925  35.504  1.00  0.00     0.023 A 
ATOM     78  C   UNL A   1      40.754  33.157  35.717  1.00  0.00     0.012 A 
ATOM     79  C   UNL A   1      39.115  31.504  36.413  1.00  0.00     0.148 A 
ATOM     80  C   UNL A   1      40.446  33.941  36.830  1.00  0.00     0.002 A 
ATOM     81  C   UNL A   1      38.770  32.318  37.486  1.00  0.00     0.091 A 
ATOM     82  F   UNL A   1      38.515  30.326  36.197  1.00  0.00    -0.205 F 
ATOM     83  C   UNL A   1      39.448  33.527  37.707  1.00  0.00     0.022 A 
BRANCH  81  84
ATOM     84  S   UNL A   1      37.399  31.937  38.584  1.00  0.00     0.127 S 
ATOM     85  O   UNL A   1      37.132  30.539  38.254  1.00  0.00    -0.237 OA
ATOM     86  O   UNL A   1      38.000  32.157  39.900  1.00  0.00    -0.237 OA
ATOM     87  O   UNL A   1      36.343  32.879  38.241  1.00  0.00    -0.744 OA
ENDBRANCH  81  84
ENDBRANCH  53  77
BRANCH  65  88
ATOM     88  C   UNL A   1      45.659  28.111  33.655  1.00  0.00     0.023 A 
ATOM     89  C   UNL A   1      46.753  28.974  33.448  1.00  0.00     0.012 A 
ATOM     90  C   UNL A   1      45.793  27.028  34.546  1.00  0.00     0.148 A 
ATOM     91  C   UNL A   1      47.971  28.742  34.087  1.00  0.00     0.002 A 
ATOM     92  C   UNL A   1      46.992  26.834  35.220  1.00  0.00     0.091 A 
ATOM     93  F   UNL A   1      44.747  26.207  34.718  1.00  0.00    -0.205 F 
ATOM     94  C   UNL A   1      48.086  27.681  34.981  1.00  0.00     0.022 A 
BRANCH  92  95
ATOM     95  S   UNL A   1      47.203  25.554  36.463  1.00  0.00     0.127 S 
ATOM     96  O   UNL A   1      46.395  24.468  35.912  1.00  0.00    -0.237 OA
ATOM     97  O   UNL A   1      48.647  25.321  36.424  1.00  0.00    -0.237 OA
ATOM     98  O   UNL A   1      46.716  26.121  37.713  1.00  0.00    -0.744 OA
ENDBRANCH  92  95
ENDBRANCH  65  88
ENDBRANCH  39  40
ENDBRANCH  31  34
ENDBRANCH  29  30
ENDBRANCH  28  29
ENDBRANCH  27  28
ENDBRANCH   3  27
TORSDOF 19
ENDMDL
