MODEL 1
REMARK VINA RESULT:     -13.7      0.000      0.000
REMARK SMILES CC1(C)S[C@@H](c2cccc3c2sc2ccccc23)[NH2+][C@@H]1C(=O)NCCCNC(=O)c1ccc(-c2c3nc(c(-c4cccc(S(=O)(=O)[O-])c4F)c4ccc([nH]4)c(-c4cccc(S(=O)(=O)[O-])c4F)c4nc(c(-c5cccc(S(=O)(=O)[O-])c5F)c5ccc2[nH]5)C=C4)C=C3)cc1
REMARK SMILES IDX 26 1 25 2 24 3 23 4 21 5 22 6 20 8 1 9 2 10 3 11 4 12 5 13
REMARK SMILES IDX 19 14 6 17 7 18 11 19 8 20 10 21 12 22 9 23 18 24 13 25
REMARK SMILES IDX 17 26 14 27 16 28 15 29 27 30 28 31 29 33 30 34 31 35 92 36
REMARK SMILES IDX 32 37 91 38 33 39 34 40 35 41 85 42 36 43 90 44 84 45 86 46
REMARK SMILES IDX 37 47 89 48 83 49 82 50 38 52 70 53 50 54 69 55 51 56 54 57
REMARK SMILES IDX 68 58 87 59 52 60 53 61 67 63 88 64 55 65 39 66 40 67 48 68
REMARK SMILES IDX 41 69 43 70 49 71 42 72 44 73 45 74 46 75 47 76 71 77 72 78
REMARK SMILES IDX 80 79 73 80 75 81 81 82 74 83 76 84 77 85 78 86 79 87 56 88
REMARK SMILES IDX 57 89 65 90 58 91 60 92 66 93 59 94 61 95 62 96 63 97 64 98
REMARK H PARENT 23 7 19 15 19 16 27 32 86 51 54 62
REMARK Flexibility Score: inf
ROOT
ATOM      1  C   UNL A   1      32.756  30.048  25.838  1.00  0.00     0.118 C 
ENDROOT
BRANCH   1   2
ATOM      2  C   UNL A   1      31.552  29.157  26.094  1.00  0.00     0.042 C 
BRANCH   2   3
ATOM      3  C   UNL A   1      31.621  28.376  27.394  1.00  0.00     0.118 C 
BRANCH   3   4
ATOM      4  N   UNL A   1      31.133  27.013  27.246  1.00  0.00    -0.351 N 
ATOM      5  C   UNL A   1      31.552  25.957  26.494  1.00  0.00     0.279 C 
ATOM      6  O   UNL A   1      30.822  24.962  26.547  1.00  0.00    -0.268 OA
ATOM      7  H   UNL A   1      30.344  26.813  27.800  1.00  0.00     0.163 HD
BRANCH   5   8
ATOM      8  C   UNL A   1      32.781  26.023  25.542  1.00  0.00     0.289 C 
ATOM      9  C   UNL A   1      33.652  26.545  23.202  1.00  0.00     0.030 C 
ATOM     10  C   UNL A   1      32.480  25.958  24.015  1.00  0.00     0.077 C 
ATOM     11  C   UNL A   1      31.190  26.615  23.525  1.00  0.00     0.030 C 
ATOM     12  S   UNL A   1      32.434  24.155  23.662  1.00  0.00    -0.081 SA
ATOM     13  C   UNL A   1      33.213  23.705  25.239  1.00  0.00     0.276 C 
ATOM     14  N   UNL A   1      33.761  24.939  25.807  1.00  0.00    -0.320 N 
ATOM     15  H   UNL A   1      34.654  25.159  25.365  1.00  0.00     0.348 HD
ATOM     16  H   UNL A   1      33.920  24.834  26.809  1.00  0.00     0.348 HD
BRANCH  13  17
ATOM     17  C   UNL A   1      34.283  22.635  25.127  1.00  0.00     0.038 A 
ATOM     18  C   UNL A   1      35.648  22.983  25.274  1.00  0.00     0.012 A 
ATOM     19  C   UNL A   1      33.993  21.251  24.936  1.00  0.00     0.046 A 
ATOM     20  C   UNL A   1      36.659  22.040  25.218  1.00  0.00     0.001 A 
ATOM     21  C   UNL A   1      35.000  20.282  24.856  1.00  0.00     0.001 A 
ATOM     22  S   UNL A   1      32.442  20.507  24.785  1.00  0.00    -0.135 S 
ATOM     23  C   UNL A   1      36.347  20.703  25.001  1.00  0.00     0.010 A 
ATOM     24  C   UNL A   1      34.475  18.947  24.626  1.00  0.00     0.000 A 
ATOM     25  C   UNL A   1      33.084  18.933  24.589  1.00  0.00     0.036 A 
ATOM     26  C   UNL A   1      35.153  17.710  24.453  1.00  0.00     0.010 A 
ATOM     27  C   UNL A   1      32.359  17.737  24.408  1.00  0.00     0.019 A 
ATOM     28  C   UNL A   1      34.441  16.523  24.257  1.00  0.00     0.001 A 
ATOM     29  C   UNL A   1      33.055  16.538  24.241  1.00  0.00     0.002 A 
ENDBRANCH  13  17
ENDBRANCH   5   8
ENDBRANCH   3   4
ENDBRANCH   2   3
ENDBRANCH   1   2
BRANCH   1  30
ATOM     30  N   UNL A   1      32.564  31.416  26.302  1.00  0.00    -0.352 N 
ATOM     31  C   UNL A   1      33.260  32.130  27.249  1.00  0.00     0.251 C 
ATOM     32  H   UNL A   1      31.823  31.902  25.875  1.00  0.00     0.163 HD
ATOM     33  O   UNL A   1      32.833  33.219  27.627  1.00  0.00    -0.269 OA
BRANCH  31  34
ATOM     34  C   UNL A   1      34.504  31.580  27.826  1.00  0.00     0.039 A 
ATOM     35  C   UNL A   1      35.603  32.425  28.004  1.00  0.00     0.014 A 
ATOM     36  C   UNL A   1      34.587  30.238  28.204  1.00  0.00     0.014 A 
ATOM     37  C   UNL A   1      36.753  31.940  28.629  1.00  0.00     0.010 A 
ATOM     38  C   UNL A   1      35.689  29.788  28.922  1.00  0.00     0.010 A 
ATOM     39  C   UNL A   1      36.791  30.629  29.132  1.00  0.00    -0.014 A 
BRANCH  39  40
ATOM     40  C   UNL A   1      37.967  30.119  29.884  1.00  0.00     0.031 A 
ATOM     41  C   UNL A   1      38.241  30.603  31.284  1.00  0.00     0.074 A 
ATOM     42  C   UNL A   1      38.834  29.284  29.277  1.00  0.00     0.049 A 
ATOM     43  N   UNL A   1      39.241  30.314  32.075  1.00  0.00    -0.248 NA
ATOM     44  C   UNL A   1      37.281  31.561  31.861  1.00  0.00     0.031 C 
ATOM     45  C   UNL A   1      38.725  28.806  27.896  1.00  0.00     0.029 A 
ATOM     46  N   UNL A   1      39.992  28.707  29.735  1.00  0.00    -0.354 N 
ATOM     47  C   UNL A   1      39.052  31.075  33.222  1.00  0.00     0.074 A 
ATOM     48  C   UNL A   1      37.866  31.874  33.007  1.00  0.00     0.031 C 
ATOM     49  C   UNL A   1      39.762  27.997  27.626  1.00  0.00     0.029 A 
ATOM     50  C   UNL A   1      40.630  27.929  28.797  1.00  0.00     0.049 A 
ATOM     51  H   UNL A   1      40.334  28.837  30.649  1.00  0.00     0.167 HD
ATOM     52  C   UNL A   1      39.779  31.088  34.364  1.00  0.00     0.034 A 
ATOM     53  C   UNL A   1      41.788  27.243  28.869  1.00  0.00     0.034 A 
ATOM     54  C   UNL A   1      40.937  30.265  34.587  1.00  0.00     0.049 A 
ATOM     55  C   UNL A   1      42.562  27.251  30.158  1.00  0.00     0.074 A 
ATOM     56  C   UNL A   1      41.694  30.142  35.737  1.00  0.00     0.029 A 
ATOM     57  N   UNL A   1      41.511  29.432  33.639  1.00  0.00    -0.354 N 
ATOM     58  N   UNL A   1      42.282  27.860  31.285  1.00  0.00    -0.248 NA
ATOM     59  C   UNL A   1      43.794  26.449  30.199  1.00  0.00     0.031 C 
ATOM     60  C   UNL A   1      42.747  29.258  35.475  1.00  0.00     0.029 A 
ATOM     61  C   UNL A   1      42.622  28.801  34.173  1.00  0.00     0.049 A 
ATOM     62  H   UNL A   1      41.179  29.309  32.720  1.00  0.00     0.167 HD
ATOM     63  C   UNL A   1      43.279  27.485  32.179  1.00  0.00     0.074 A 
ATOM     64  C   UNL A   1      44.157  26.579  31.468  1.00  0.00     0.031 C 
ATOM     65  C   UNL A   1      43.458  27.864  33.468  1.00  0.00     0.034 A 
BRANCH  52  66
ATOM     66  C   UNL A   1      39.313  31.987  35.481  1.00  0.00     0.023 A 
ATOM     67  C   UNL A   1      38.385  31.502  36.426  1.00  0.00     0.012 A 
ATOM     68  C   UNL A   1      39.834  33.287  35.630  1.00  0.00     0.148 A 
ATOM     69  C   UNL A   1      37.952  32.309  37.477  1.00  0.00     0.002 A 
ATOM     70  C   UNL A   1      39.434  34.068  36.708  1.00  0.00     0.091 A 
ATOM     71  F   UNL A   1      40.699  33.739  34.712  1.00  0.00    -0.205 F 
ATOM     72  C   UNL A   1      38.485  33.586  37.624  1.00  0.00     0.022 A 
BRANCH  70  73
ATOM     73  S   UNL A   1      40.121  35.695  37.036  1.00  0.00     0.127 S 
ATOM     74  O   UNL A   1      39.653  36.452  35.876  1.00  0.00    -0.237 OA
ATOM     75  O   UNL A   1      39.475  36.052  38.299  1.00  0.00    -0.237 OA
ATOM     76  O   UNL A   1      41.564  35.514  37.120  1.00  0.00    -0.744 OA
ENDBRANCH  70  73
ENDBRANCH  52  66
BRANCH  53  77
ATOM     77  C   UNL A   1      42.254  26.439  27.703  1.00  0.00     0.023 A 
ATOM     78  C   UNL A   1      43.094  27.036  26.742  1.00  0.00     0.012 A 
ATOM     79  C   UNL A   1      41.889  25.088  27.550  1.00  0.00     0.148 A 
ATOM     80  C   UNL A   1      43.530  26.314  25.630  1.00  0.00     0.002 A 
ATOM     81  C   UNL A   1      42.373  24.357  26.471  1.00  0.00     0.091 A 
ATOM     82  F   UNL A   1      41.084  24.541  28.471  1.00  0.00    -0.205 F 
ATOM     83  C   UNL A   1      43.179  24.973  25.500  1.00  0.00     0.022 A 
BRANCH  81  84
ATOM     84  S   UNL A   1      42.080  22.595  26.289  1.00  0.00     0.127 S 
ATOM     85  O   UNL A   1      42.764  22.055  27.462  1.00  0.00    -0.237 OA
ATOM     86  O   UNL A   1      40.619  22.526  26.341  1.00  0.00    -0.237 OA
ATOM     87  O   UNL A   1      42.653  22.230  25.001  1.00  0.00    -0.744 OA
ENDBRANCH  81  84
ENDBRANCH  53  77
BRANCH  65  88
ATOM     88  C   UNL A   1      44.624  27.270  34.216  1.00  0.00     0.023 A 
ATOM     89  C   UNL A   1      45.871  27.927  34.218  1.00  0.00     0.012 A 
ATOM     90  C   UNL A   1      44.461  26.092  34.973  1.00  0.00     0.148 A 
ATOM     91  C   UNL A   1      46.947  27.400  34.931  1.00  0.00     0.002 A 
ATOM     92  C   UNL A   1      45.523  25.604  35.724  1.00  0.00     0.091 A 
ATOM     93  F   UNL A   1      43.272  25.473  34.945  1.00  0.00    -0.205 F 
ATOM     94  C   UNL A   1      46.770  26.247  35.692  1.00  0.00     0.022 A 
BRANCH  92  95
ATOM     95  S   UNL A   1      45.361  24.183  36.812  1.00  0.00     0.127 S 
ATOM     96  O   UNL A   1      46.724  24.040  37.320  1.00  0.00    -0.237 OA
ATOM     97  O   UNL A   1      44.389  24.660  37.797  1.00  0.00    -0.237 OA
ATOM     98  O   UNL A   1      44.887  23.089  35.977  1.00  0.00    -0.744 OA
ENDBRANCH  92  95
ENDBRANCH  65  88
ENDBRANCH  39  40
ENDBRANCH  31  34
ENDBRANCH   1  30
TORSDOF 14
ENDMDL
MODEL 2
REMARK VINA RESULT:     -13.5      1.238      1.546
REMARK SMILES CC1(C)S[C@@H](c2cccc3c2sc2ccccc23)[NH2+][C@@H]1C(=O)NCCCNC(=O)c1ccc(-c2c3nc(c(-c4cccc(S(=O)(=O)[O-])c4F)c4ccc([nH]4)c(-c4cccc(S(=O)(=O)[O-])c4F)c4nc(c(-c5cccc(S(=O)(=O)[O-])c5F)c5ccc2[nH]5)C=C4)C=C3)cc1
REMARK SMILES IDX 26 1 25 2 24 3 23 4 21 5 22 6 20 8 1 9 2 10 3 11 4 12 5 13
REMARK SMILES IDX 19 14 6 17 7 18 11 19 8 20 10 21 12 22 9 23 18 24 13 25
REMARK SMILES IDX 17 26 14 27 16 28 15 29 27 30 28 31 29 33 30 34 31 35 92 36
REMARK SMILES IDX 32 37 91 38 33 39 34 40 35 41 85 42 36 43 90 44 84 45 86 46
REMARK SMILES IDX 37 47 89 48 83 49 82 50 38 52 70 53 50 54 69 55 51 56 54 57
REMARK SMILES IDX 68 58 87 59 52 60 53 61 67 63 88 64 55 65 39 66 40 67 48 68
REMARK SMILES IDX 41 69 43 70 49 71 42 72 44 73 45 74 46 75 47 76 71 77 72 78
REMARK SMILES IDX 80 79 73 80 75 81 81 82 74 83 76 84 77 85 78 86 79 87 56 88
REMARK SMILES IDX 57 89 65 90 58 91 60 92 66 93 59 94 61 95 62 96 63 97 64 98
REMARK H PARENT 23 7 19 15 19 16 27 32 86 51 54 62
REMARK Flexibility Score: inf
ROOT
ATOM      1  C   UNL A   1      33.014  30.120  26.353  1.00  0.00     0.118 C 
ENDROOT
BRANCH   1   2
ATOM      2  C   UNL A   1      31.733  29.359  26.655  1.00  0.00     0.042 C 
BRANCH   2   3
ATOM      3  C   UNL A   1      31.909  28.203  27.623  1.00  0.00     0.118 C 
BRANCH   3   4
ATOM      4  N   UNL A   1      31.202  27.007  27.191  1.00  0.00    -0.351 N 
ATOM      5  C   UNL A   1      31.462  26.075  26.231  1.00  0.00     0.279 C 
ATOM      6  O   UNL A   1      30.573  25.233  26.073  1.00  0.00    -0.268 OA
ATOM      7  H   UNL A   1      30.372  26.836  27.691  1.00  0.00     0.163 HD
BRANCH   5   8
ATOM      8  C   UNL A   1      32.718  26.124  25.313  1.00  0.00     0.289 C 
ATOM      9  C   UNL A   1      33.653  26.594  22.987  1.00  0.00     0.030 C 
ATOM     10  C   UNL A   1      32.461  26.021  23.780  1.00  0.00     0.077 C 
ATOM     11  C   UNL A   1      31.183  26.660  23.238  1.00  0.00     0.030 C 
ATOM     12  S   UNL A   1      32.432  24.210  23.469  1.00  0.00    -0.081 SA
ATOM     13  C   UNL A   1      33.167  23.802  25.078  1.00  0.00     0.276 C 
ATOM     14  N   UNL A   1      33.694  25.051  25.632  1.00  0.00    -0.320 N 
ATOM     15  H   UNL A   1      34.598  25.265  25.210  1.00  0.00     0.348 HD
ATOM     16  H   UNL A   1      33.825  24.971  26.641  1.00  0.00     0.348 HD
BRANCH  13  17
ATOM     17  C   UNL A   1      34.244  22.734  25.022  1.00  0.00     0.038 A 
ATOM     18  C   UNL A   1      35.604  23.093  25.194  1.00  0.00     0.012 A 
ATOM     19  C   UNL A   1      33.966  21.344  24.861  1.00  0.00     0.046 A 
ATOM     20  C   UNL A   1      36.620  22.154  25.190  1.00  0.00     0.001 A 
ATOM     21  C   UNL A   1      34.979  20.378  24.833  1.00  0.00     0.001 A 
ATOM     22  S   UNL A   1      32.422  20.589  24.691  1.00  0.00    -0.135 S 
ATOM     23  C   UNL A   1      36.319  20.810  25.001  1.00  0.00     0.010 A 
ATOM     24  C   UNL A   1      34.465  19.035  24.626  1.00  0.00     0.000 A 
ATOM     25  C   UNL A   1      33.076  19.014  24.554  1.00  0.00     0.036 A 
ATOM     26  C   UNL A   1      35.152  17.797  24.504  1.00  0.00     0.010 A 
ATOM     27  C   UNL A   1      32.360  17.809  24.387  1.00  0.00     0.019 A 
ATOM     28  C   UNL A   1      34.450  16.602  24.322  1.00  0.00     0.001 A 
ATOM     29  C   UNL A   1      33.065  16.610  24.270  1.00  0.00     0.002 A 
ENDBRANCH  13  17
ENDBRANCH   5   8
ENDBRANCH   3   4
ENDBRANCH   2   3
ENDBRANCH   1   2
BRANCH   1  30
ATOM     30  N   UNL A   1      32.960  31.516  26.769  1.00  0.00    -0.352 N 
ATOM     31  C   UNL A   1      33.779  32.211  27.626  1.00  0.00     0.251 C 
ATOM     32  H   UNL A   1      32.226  32.040  26.376  1.00  0.00     0.163 HD
ATOM     33  O   UNL A   1      33.464  33.344  27.986  1.00  0.00    -0.269 OA
BRANCH  31  34
ATOM     34  C   UNL A   1      35.021  31.590  28.132  1.00  0.00     0.039 A 
ATOM     35  C   UNL A   1      36.187  32.358  28.199  1.00  0.00     0.014 A 
ATOM     36  C   UNL A   1      35.038  30.258  28.551  1.00  0.00     0.014 A 
ATOM     37  C   UNL A   1      37.344  31.811  28.757  1.00  0.00     0.010 A 
ATOM     38  C   UNL A   1      36.156  29.751  29.204  1.00  0.00     0.010 A 
ATOM     39  C   UNL A   1      37.326  30.517  29.304  1.00  0.00    -0.014 A 
BRANCH  39  40
ATOM     40  C   UNL A   1      38.516  29.946  29.987  1.00  0.00     0.031 A 
ATOM     41  C   UNL A   1      38.905  30.426  31.361  1.00  0.00     0.074 A 
ATOM     42  C   UNL A   1      39.294  29.057  29.337  1.00  0.00     0.049 A 
ATOM     43  N   UNL A   1      39.935  30.086  32.091  1.00  0.00    -0.248 NA
ATOM     44  C   UNL A   1      38.040  31.442  31.984  1.00  0.00     0.031 C 
ATOM     45  C   UNL A   1      39.072  28.574  27.972  1.00  0.00     0.029 A 
ATOM     46  N   UNL A   1      40.444  28.418  29.729  1.00  0.00    -0.354 N 
ATOM     47  C   UNL A   1      39.862  30.867  33.238  1.00  0.00     0.074 A 
ATOM     48  C   UNL A   1      38.713  31.730  33.089  1.00  0.00     0.031 C 
ATOM     49  C   UNL A   1      40.042  27.704  27.647  1.00  0.00     0.029 A 
ATOM     50  C   UNL A   1      40.976  27.596  28.763  1.00  0.00     0.049 A 
ATOM     51  H   UNL A   1      40.850  28.536  30.618  1.00  0.00     0.167 HD
ATOM     52  C   UNL A   1      40.660  30.847  34.333  1.00  0.00     0.034 A 
ATOM     53  C   UNL A   1      42.095  26.845  28.770  1.00  0.00     0.034 A 
ATOM     54  C   UNL A   1      41.780  29.961  34.493  1.00  0.00     0.049 A 
ATOM     55  C   UNL A   1      42.949  26.820  30.009  1.00  0.00     0.074 A 
ATOM     56  C   UNL A   1      42.601  29.804  35.595  1.00  0.00     0.029 A 
ATOM     57  N   UNL A   1      42.245  29.088  33.521  1.00  0.00    -0.354 N 
ATOM     58  N   UNL A   1      42.776  27.453  31.144  1.00  0.00    -0.248 NA
ATOM     59  C   UNL A   1      44.133  25.949  29.983  1.00  0.00     0.031 C 
ATOM     60  C   UNL A   1      43.583  28.859  35.279  1.00  0.00     0.029 A 
ATOM     61  C   UNL A   1      43.349  28.399  33.993  1.00  0.00     0.049 A 
ATOM     62  H   UNL A   1      41.850  28.976  32.627  1.00  0.00     0.167 HD
ATOM     63  C   UNL A   1      43.803  27.029  31.978  1.00  0.00     0.074 A 
ATOM     64  C   UNL A   1      44.582  26.068  31.225  1.00  0.00     0.031 C 
ATOM     65  C   UNL A   1      44.085  27.409  33.249  1.00  0.00     0.034 A 
BRANCH  52  66
ATOM     66  C   UNL A   1      40.317  31.781  35.466  1.00  0.00     0.023 A 
ATOM     67  C   UNL A   1      41.094  32.940  35.675  1.00  0.00     0.012 A 
ATOM     68  C   UNL A   1      39.197  31.545  36.287  1.00  0.00     0.148 A 
ATOM     69  C   UNL A   1      40.787  33.827  36.706  1.00  0.00     0.002 A 
ATOM     70  C   UNL A   1      38.869  32.459  37.281  1.00  0.00     0.091 A 
ATOM     71  F   UNL A   1      38.482  30.429  36.087  1.00  0.00    -0.205 F 
ATOM     72  C   UNL A   1      39.669  33.591  37.500  1.00  0.00     0.022 A 
BRANCH  70  73
ATOM     73  S   UNL A   1      37.403  32.294  38.305  1.00  0.00     0.127 S 
ATOM     74  O   UNL A   1      36.426  33.078  37.551  1.00  0.00    -0.237 OA
ATOM     75  O   UNL A   1      37.174  30.849  38.283  1.00  0.00    -0.237 OA
ATOM     76  O   UNL A   1      37.760  32.833  39.610  1.00  0.00    -0.744 OA
ENDBRANCH  70  73
ENDBRANCH  52  66
BRANCH  53  77
ATOM     77  C   UNL A   1      42.441  26.006  27.587  1.00  0.00     0.023 A 
ATOM     78  C   UNL A   1      43.237  26.551  26.561  1.00  0.00     0.012 A 
ATOM     79  C   UNL A   1      42.005  24.671  27.482  1.00  0.00     0.148 A 
ATOM     80  C   UNL A   1      43.560  25.795  25.433  1.00  0.00     0.002 A 
ATOM     81  C   UNL A   1      42.377  23.905  26.384  1.00  0.00     0.091 A 
ATOM     82  F   UNL A   1      41.243  24.174  28.467  1.00  0.00    -0.205 F 
ATOM     83  C   UNL A   1      43.139  24.471  25.349  1.00  0.00     0.022 A 
BRANCH  81  84
ATOM     84  S   UNL A   1      41.992  22.156  26.252  1.00  0.00     0.127 S 
ATOM     85  O   UNL A   1      40.536  22.180  26.126  1.00  0.00    -0.237 OA
ATOM     86  O   UNL A   1      42.710  21.781  25.033  1.00  0.00    -0.237 OA
ATOM     87  O   UNL A   1      42.510  21.544  27.467  1.00  0.00    -0.744 OA
ENDBRANCH  81  84
ENDBRANCH  53  77
BRANCH  65  88
ATOM     88  C   UNL A   1      45.260  26.755  33.929  1.00  0.00     0.023 A 
ATOM     89  C   UNL A   1      46.534  27.353  33.870  1.00  0.00     0.012 A 
ATOM     90  C   UNL A   1      45.083  25.579  34.686  1.00  0.00     0.148 A 
ATOM     91  C   UNL A   1      47.621  26.771  34.521  1.00  0.00     0.002 A 
ATOM     92  C   UNL A   1      46.158  25.035  35.377  1.00  0.00     0.091 A 
ATOM     93  F   UNL A   1      43.866  25.015  34.718  1.00  0.00    -0.205 F 
ATOM     94  C   UNL A   1      47.431  25.621  35.283  1.00  0.00     0.022 A 
BRANCH  92  95
ATOM     95  S   UNL A   1      45.988  23.614  36.462  1.00  0.00     0.127 S 
ATOM     96  O   UNL A   1      45.662  22.551  35.512  1.00  0.00    -0.237 OA
ATOM     97  O   UNL A   1      47.323  23.516  37.053  1.00  0.00    -0.237 OA
ATOM     98  O   UNL A   1      44.933  23.952  37.407  1.00  0.00    -0.744 OA
ENDBRANCH  92  95
ENDBRANCH  65  88
ENDBRANCH  39  40
ENDBRANCH  31  34
ENDBRANCH   1  30
TORSDOF 14
ENDMDL
MODEL 3
REMARK VINA RESULT:     -13.3      1.840      2.513
REMARK SMILES CC1(C)S[C@@H](c2cccc3c2sc2ccccc23)[NH2+][C@@H]1C(=O)NCCCNC(=O)c1ccc(-c2c3nc(c(-c4cccc(S(=O)(=O)[O-])c4F)c4ccc([nH]4)c(-c4cccc(S(=O)(=O)[O-])c4F)c4nc(c(-c5cccc(S(=O)(=O)[O-])c5F)c5ccc2[nH]5)C=C4)C=C3)cc1
REMARK SMILES IDX 26 1 25 2 24 3 23 4 21 5 22 6 20 8 1 9 2 10 3 11 4 12 5 13
REMARK SMILES IDX 19 14 6 17 7 18 11 19 8 20 10 21 12 22 9 23 18 24 13 25
REMARK SMILES IDX 17 26 14 27 16 28 15 29 27 30 28 31 29 33 30 34 31 35 92 36
REMARK SMILES IDX 32 37 91 38 33 39 34 40 35 41 85 42 36 43 90 44 84 45 86 46
REMARK SMILES IDX 37 47 89 48 83 49 82 50 38 52 70 53 50 54 69 55 51 56 54 57
REMARK SMILES IDX 68 58 87 59 52 60 53 61 67 63 88 64 55 65 39 66 40 67 48 68
REMARK SMILES IDX 41 69 43 70 49 71 42 72 44 73 45 74 46 75 47 76 71 77 72 78
REMARK SMILES IDX 80 79 73 80 75 81 81 82 74 83 76 84 77 85 78 86 79 87 56 88
REMARK SMILES IDX 57 89 65 90 58 91 60 92 66 93 59 94 61 95 62 96 63 97 64 98
REMARK H PARENT 23 7 19 15 19 16 27 32 86 51 54 62
REMARK Flexibility Score: inf
ROOT
ATOM      1  C   UNL A   1      33.783  29.432  26.418  1.00  0.00     0.118 C 
ENDROOT
BRANCH   1   2
ATOM      2  C   UNL A   1      33.000  28.456  27.281  1.00  0.00     0.042 C 
BRANCH   2   3
ATOM      3  C   UNL A   1      31.550  28.283  26.866  1.00  0.00     0.118 C 
BRANCH   3   4
ATOM      4  N   UNL A   1      31.121  26.893  26.919  1.00  0.00    -0.351 N 
ATOM      5  C   UNL A   1      31.536  25.772  26.266  1.00  0.00     0.279 C 
ATOM      6  O   UNL A   1      30.863  24.762  26.493  1.00  0.00    -0.268 OA
ATOM      7  H   UNL A   1      30.387  26.731  27.553  1.00  0.00     0.163 HD
BRANCH   5   8
ATOM      8  C   UNL A   1      32.687  25.772  25.218  1.00  0.00     0.289 C 
ATOM      9  C   UNL A   1      33.364  26.090  22.779  1.00  0.00     0.030 C 
ATOM     10  C   UNL A   1      32.273  25.560  23.732  1.00  0.00     0.077 C 
ATOM     11  C   UNL A   1      30.932  26.145  23.286  1.00  0.00     0.030 C 
ATOM     12  S   UNL A   1      32.246  23.731  23.550  1.00  0.00    -0.081 SA
ATOM     13  C   UNL A   1      33.154  23.445  25.095  1.00  0.00     0.276 C 
ATOM     14  N   UNL A   1      33.711  24.736  25.504  1.00  0.00    -0.320 N 
ATOM     15  H   UNL A   1      34.562  24.930  24.976  1.00  0.00     0.348 HD
ATOM     16  H   UNL A   1      33.950  24.727  26.496  1.00  0.00     0.348 HD
BRANCH  13  17
ATOM     17  C   UNL A   1      34.239  22.389  24.998  1.00  0.00     0.038 A 
ATOM     18  C   UNL A   1      35.602  22.767  25.071  1.00  0.00     0.012 A 
ATOM     19  C   UNL A   1      33.969  20.991  24.894  1.00  0.00     0.046 A 
ATOM     20  C   UNL A   1      36.629  21.841  25.026  1.00  0.00     0.001 A 
ATOM     21  C   UNL A   1      34.991  20.037  24.825  1.00  0.00     0.001 A 
ATOM     22  S   UNL A   1      32.429  20.214  24.845  1.00  0.00    -0.135 S 
ATOM     23  C   UNL A   1      36.334  20.489  24.894  1.00  0.00     0.010 A 
ATOM     24  C   UNL A   1      34.484  18.682  24.689  1.00  0.00     0.000 A 
ATOM     25  C   UNL A   1      33.093  18.643  24.708  1.00  0.00     0.036 A 
ATOM     26  C   UNL A   1      35.178  17.450  24.555  1.00  0.00     0.010 A 
ATOM     27  C   UNL A   1      32.384  17.426  24.621  1.00  0.00     0.019 A 
ATOM     28  C   UNL A   1      34.482  16.242  24.452  1.00  0.00     0.001 A 
ATOM     29  C   UNL A   1      33.096  16.232  24.490  1.00  0.00     0.002 A 
ENDBRANCH  13  17
ENDBRANCH   5   8
ENDBRANCH   3   4
ENDBRANCH   2   3
ENDBRANCH   1   2
BRANCH   1  30
ATOM     30  N   UNL A   1      33.823  30.780  26.972  1.00  0.00    -0.352 N 
ATOM     31  C   UNL A   1      34.691  31.330  27.885  1.00  0.00     0.251 C 
ATOM     32  H   UNL A   1      33.121  31.386  26.644  1.00  0.00     0.163 HD
ATOM     33  O   UNL A   1      34.453  32.439  28.360  1.00  0.00    -0.269 OA
BRANCH  31  34
ATOM     34  C   UNL A   1      35.893  30.583  28.310  1.00  0.00     0.039 A 
ATOM     35  C   UNL A   1      37.081  30.741  27.591  1.00  0.00     0.014 A 
ATOM     36  C   UNL A   1      35.856  29.738  29.421  1.00  0.00     0.014 A 
ATOM     37  C   UNL A   1      38.245  30.111  28.034  1.00  0.00     0.010 A 
ATOM     38  C   UNL A   1      37.036  29.200  29.921  1.00  0.00     0.010 A 
ATOM     39  C   UNL A   1      38.243  29.369  29.228  1.00  0.00    -0.014 A 
BRANCH  39  40
ATOM     40  C   UNL A   1      39.488  28.767  29.770  1.00  0.00     0.031 A 
ATOM     41  C   UNL A   1      40.144  29.352  30.994  1.00  0.00     0.074 A 
ATOM     42  C   UNL A   1      40.074  27.744  29.115  1.00  0.00     0.049 A 
ATOM     43  N   UNL A   1      41.257  28.998  31.581  1.00  0.00    -0.248 NA
ATOM     44  C   UNL A   1      39.478  30.506  31.623  1.00  0.00     0.031 C 
ATOM     45  C   UNL A   1      39.582  27.141  27.874  1.00  0.00     0.029 A 
ATOM     46  N   UNL A   1      41.224  27.047  29.388  1.00  0.00    -0.354 N 
ATOM     47  C   UNL A   1      41.442  29.901  32.621  1.00  0.00     0.074 A 
ATOM     48  C   UNL A   1      40.351  30.847  32.558  1.00  0.00     0.031 C 
ATOM     49  C   UNL A   1      40.414  26.155  27.503  1.00  0.00     0.029 A 
ATOM     50  C   UNL A   1      41.518  26.080  28.455  1.00  0.00     0.049 A 
ATOM     51  H   UNL A   1      41.785  27.221  30.177  1.00  0.00     0.167 HD
ATOM     52  C   UNL A   1      42.414  29.925  33.564  1.00  0.00     0.034 A 
ATOM     53  C   UNL A   1      42.563  25.233  28.370  1.00  0.00     0.034 A 
ATOM     54  C   UNL A   1      43.477  28.960  33.645  1.00  0.00     0.049 A 
ATOM     55  C   UNL A   1      43.614  25.261  29.446  1.00  0.00     0.074 A 
ATOM     56  C   UNL A   1      44.463  28.847  34.609  1.00  0.00     0.029 A 
ATOM     57  N   UNL A   1      43.700  27.949  32.723  1.00  0.00    -0.354 N 
ATOM     58  N   UNL A   1      43.688  26.026  30.508  1.00  0.00    -0.248 NA
ATOM     59  C   UNL A   1      44.708  24.286  29.331  1.00  0.00     0.031 C 
ATOM     60  C   UNL A   1      45.303  27.786  34.253  1.00  0.00     0.029 A 
ATOM     61  C   UNL A   1      44.816  27.214  33.088  1.00  0.00     0.049 A 
ATOM     62  H   UNL A   1      43.148  27.779  31.926  1.00  0.00     0.167 HD
ATOM     63  C   UNL A   1      44.811  25.600  31.208  1.00  0.00     0.074 A 
ATOM     64  C   UNL A   1      45.374  24.495  30.459  1.00  0.00     0.031 C 
ATOM     65  C   UNL A   1      45.336  26.086  32.359  1.00  0.00     0.034 A 
BRANCH  52  66
ATOM     66  C   UNL A   1      42.344  31.003  34.616  1.00  0.00     0.023 A 
ATOM     67  C   UNL A   1      41.683  30.747  35.835  1.00  0.00     0.012 A 
ATOM     68  C   UNL A   1      42.977  32.246  34.423  1.00  0.00     0.148 A 
ATOM     69  C   UNL A   1      41.618  31.722  36.829  1.00  0.00     0.002 A 
ATOM     70  C   UNL A   1      42.951  33.195  35.438  1.00  0.00     0.091 A 
ATOM     71  F   UNL A   1      43.584  32.480  33.251  1.00  0.00    -0.205 F 
ATOM     72  C   UNL A   1      42.261  32.941  36.634  1.00  0.00     0.022 A 
BRANCH  70  73
ATOM     73  S   UNL A   1      43.818  34.764  35.323  1.00  0.00     0.127 S 
ATOM     74  O   UNL A   1      45.193  34.325  35.090  1.00  0.00    -0.237 OA
ATOM     75  O   UNL A   1      43.173  35.387  34.166  1.00  0.00    -0.237 OA
ATOM     76  O   UNL A   1      43.587  35.447  36.588  1.00  0.00    -0.744 OA
ENDBRANCH  70  73
ENDBRANCH  52  66
BRANCH  53  77
ATOM     77  C   UNL A   1      42.635  24.243  27.257  1.00  0.00     0.023 A 
ATOM     78  C   UNL A   1      43.338  24.573  26.081  1.00  0.00     0.012 A 
ATOM     79  C   UNL A   1      42.031  22.976  27.363  1.00  0.00     0.148 A 
ATOM     80  C   UNL A   1      43.405  23.674  25.016  1.00  0.00     0.002 A 
ATOM     81  C   UNL A   1      42.150  22.063  26.321  1.00  0.00     0.091 A 
ATOM     82  F   UNL A   1      41.361  22.684  28.487  1.00  0.00    -0.205 F 
ATOM     83  C   UNL A   1      42.821  22.416  25.140  1.00  0.00     0.022 A 
BRANCH  81  84
ATOM     84  S   UNL A   1      41.542  20.377  26.441  1.00  0.00     0.127 S 
ATOM     85  O   UNL A   1      40.106  20.563  26.249  1.00  0.00    -0.237 OA
ATOM     86  O   UNL A   1      42.235  19.727  25.328  1.00  0.00    -0.237 OA
ATOM     87  O   UNL A   1      41.946  19.904  27.758  1.00  0.00    -0.744 OA
ENDBRANCH  81  84
ENDBRANCH  53  77
BRANCH  65  88
ATOM     88  C   UNL A   1      46.560  25.402  32.912  1.00  0.00     0.023 A 
ATOM     89  C   UNL A   1      47.845  25.884  32.592  1.00  0.00     0.012 A 
ATOM     90  C   UNL A   1      46.431  24.320  33.806  1.00  0.00     0.148 A 
ATOM     91  C   UNL A   1      48.982  25.276  33.122  1.00  0.00     0.002 A 
ATOM     92  C   UNL A   1      47.566  23.754  34.373  1.00  0.00     0.091 A 
ATOM     93  F   UNL A   1      45.200  23.865  34.086  1.00  0.00    -0.205 F 
ATOM     94  C   UNL A   1      48.842  24.221  34.020  1.00  0.00     0.022 A 
BRANCH  92  95
ATOM     95  S   UNL A   1      47.480  22.459  35.614  1.00  0.00     0.127 S 
ATOM     96  O   UNL A   1      46.488  23.000  36.541  1.00  0.00    -0.237 OA
ATOM     97  O   UNL A   1      47.021  21.312  34.830  1.00  0.00    -0.237 OA
ATOM     98  O   UNL A   1      48.828  22.324  36.149  1.00  0.00    -0.744 OA
ENDBRANCH  92  95
ENDBRANCH  65  88
ENDBRANCH  39  40
ENDBRANCH  31  34
ENDBRANCH   1  30
TORSDOF 14
ENDMDL
