MODEL 1
REMARK VINA RESULT:     -11.5      0.000      0.000
REMARK SMILES C[C@@H](Oc1ccc(N)cc1)C(=O)NCCCNC(=O)c1ccc(-c2c3nc(c(-c4cccc(S(=O)(=O)[O-])c4F)c4ccc([nH]4)c(-c4cccc(S(=O)(=O)[O-])c4F)c4nc(c(-c5cccc(S(=O)(=O)[O-])c5F)c5ccc2[nH]5)C=C4)C=C3)cc1
REMARK SMILES IDX 15 1 14 2 13 3 11 4 12 5 2 7 1 8 3 9 4 10 5 11 10 12 6 13
REMARK SMILES IDX 9 14 7 15 8 16 16 19 17 20 18 21 19 23 20 24 21 25 82 26
REMARK SMILES IDX 22 27 81 28 23 29 24 30 25 31 75 32 26 33 80 34 74 35 76 36
REMARK SMILES IDX 27 37 79 38 73 39 72 40 28 42 60 43 40 44 59 45 41 46 44 47
REMARK SMILES IDX 58 48 77 49 42 50 43 51 57 53 78 54 45 55 29 56 30 57 38 58
REMARK SMILES IDX 31 59 33 60 39 61 32 62 34 63 35 64 36 65 37 66 61 67 62 68
REMARK SMILES IDX 70 69 63 70 65 71 71 72 64 73 66 74 67 75 68 76 69 77 46 78
REMARK SMILES IDX 47 79 55 80 48 81 50 82 56 83 49 84 51 85 52 86 53 87 54 88
REMARK H PARENT 13 6 8 17 8 18 17 22 76 41 44 52
REMARK Flexibility Score: inf
ROOT
ATOM      1  C   UNL A   1      36.100  22.206  24.329  1.00  0.00     0.042 C 
ENDROOT
BRANCH   1   2
ATOM      2  C   UNL A   1      35.224  23.449  24.275  1.00  0.00     0.118 C 
BRANCH   2   3
ATOM      3  N   UNL A   1      34.718  23.725  22.938  1.00  0.00    -0.353 N 
ATOM      4  C   UNL A   1      33.463  23.534  22.422  1.00  0.00     0.260 C 
ATOM      5  O   UNL A   1      33.250  23.908  21.266  1.00  0.00    -0.271 OA
ATOM      6  H   UNL A   1      35.374  24.107  22.312  1.00  0.00     0.163 HD
BRANCH   4   7
ATOM      7  C   UNL A   1      32.377  22.816  23.239  1.00  0.00     0.258 C 
ATOM      8  C   UNL A   1      31.125  23.689  23.229  1.00  0.00     0.064 C 
BRANCH   7   9
ATOM      9  O   UNL A   1      32.238  21.512  22.665  1.00  0.00    -0.481 OA
BRANCH   9  10
ATOM     10  C   UNL A   1      32.334  20.447  23.505  1.00  0.00     0.120 A 
ATOM     11  C   UNL A   1      32.283  19.134  23.047  1.00  0.00     0.048 A 
ATOM     12  C   UNL A   1      32.691  20.706  24.824  1.00  0.00     0.048 A 
ATOM     13  C   UNL A   1      32.529  18.079  23.926  1.00  0.00     0.029 A 
ATOM     14  C   UNL A   1      32.954  19.646  25.698  1.00  0.00     0.029 A 
ATOM     15  C   UNL A   1      32.895  18.324  25.251  1.00  0.00     0.032 A 
BRANCH  15  16
ATOM     16  N   UNL A   1      33.096  17.270  26.126  1.00  0.00    -0.399 N 
ATOM     17  H   UNL A   1      32.337  16.706  26.399  1.00  0.00     0.156 HD
ATOM     18  H   UNL A   1      33.998  17.085  26.475  1.00  0.00     0.156 HD
ENDBRANCH  15  16
ENDBRANCH   9  10
ENDBRANCH   7   9
ENDBRANCH   4   7
ENDBRANCH   2   3
ENDBRANCH   1   2
BRANCH   1  19
ATOM     19  C   UNL A   1      36.529  21.813  25.734  1.00  0.00     0.118 C 
BRANCH  19  20
ATOM     20  N   UNL A   1      37.574  20.795  25.740  1.00  0.00    -0.352 N 
ATOM     21  C   UNL A   1      38.919  20.909  25.987  1.00  0.00     0.251 C 
ATOM     22  H   UNL A   1      37.264  19.883  25.536  1.00  0.00     0.163 HD
ATOM     23  O   UNL A   1      39.660  19.954  25.759  1.00  0.00    -0.269 OA
BRANCH  21  24
ATOM     24  C   UNL A   1      39.482  22.175  26.502  1.00  0.00     0.039 A 
ATOM     25  C   UNL A   1      40.533  22.123  27.422  1.00  0.00     0.014 A 
ATOM     26  C   UNL A   1      38.975  23.409  26.089  1.00  0.00     0.014 A 
ATOM     27  C   UNL A   1      41.128  23.308  27.863  1.00  0.00     0.010 A 
ATOM     28  C   UNL A   1      39.622  24.583  26.462  1.00  0.00     0.010 A 
ATOM     29  C   UNL A   1      40.706  24.546  27.351  1.00  0.00    -0.014 A 
BRANCH  29  30
ATOM     30  C   UNL A   1      41.398  25.811  27.708  1.00  0.00     0.031 A 
ATOM     31  C   UNL A   1      40.668  26.896  28.451  1.00  0.00     0.074 A 
ATOM     32  C   UNL A   1      42.657  26.024  27.270  1.00  0.00     0.049 A 
ATOM     33  N   UNL A   1      41.076  28.098  28.766  1.00  0.00    -0.248 NA
ATOM     34  C   UNL A   1      39.288  26.603  28.872  1.00  0.00     0.031 C 
ATOM     35  C   UNL A   1      43.448  25.079  26.480  1.00  0.00     0.029 A 
ATOM     36  N   UNL A   1      43.479  27.117  27.399  1.00  0.00    -0.354 N 
ATOM     37  C   UNL A   1      39.998  28.716  29.388  1.00  0.00     0.074 A 
ATOM     38  C   UNL A   1      38.906  27.767  29.378  1.00  0.00     0.031 C 
ATOM     39  C   UNL A   1      44.638  25.631  26.194  1.00  0.00     0.029 A 
ATOM     40  C   UNL A   1      44.680  26.982  26.743  1.00  0.00     0.049 A 
ATOM     41  H   UNL A   1      43.232  27.920  27.912  1.00  0.00     0.167 HD
ATOM     42  C   UNL A   1      39.928  29.951  29.938  1.00  0.00     0.034 A 
ATOM     43  C   UNL A   1      45.694  27.856  26.581  1.00  0.00     0.034 A 
ATOM     44  C   UNL A   1      41.026  30.880  29.974  1.00  0.00     0.049 A 
ATOM     45  C   UNL A   1      45.597  29.217  27.214  1.00  0.00     0.074 A 
ATOM     46  C   UNL A   1      41.082  32.120  30.585  1.00  0.00     0.029 A 
ATOM     47  N   UNL A   1      42.254  30.680  29.362  1.00  0.00    -0.354 N 
ATOM     48  N   UNL A   1      44.625  29.725  27.932  1.00  0.00    -0.248 NA
ATOM     49  C   UNL A   1      46.748  30.115  27.042  1.00  0.00     0.031 C 
ATOM     50  C   UNL A   1      42.330  32.686  30.310  1.00  0.00     0.029 A 
ATOM     51  C   UNL A   1      43.068  31.781  29.564  1.00  0.00     0.049 A 
ATOM     52  H   UNL A   1      42.509  29.874  28.859  1.00  0.00     0.167 HD
ATOM     53  C   UNL A   1      45.060  30.984  28.326  1.00  0.00     0.074 A 
ATOM     54  C   UNL A   1      46.392  31.155  27.784  1.00  0.00     0.031 C 
ATOM     55  C   UNL A   1      44.411  31.920  29.061  1.00  0.00     0.034 A 
BRANCH  42  56
ATOM     56  C   UNL A   1      38.629  30.362  30.583  1.00  0.00     0.023 A 
ATOM     57  C   UNL A   1      38.408  30.082  31.947  1.00  0.00     0.012 A 
ATOM     58  C   UNL A   1      37.656  31.078  29.859  1.00  0.00     0.148 A 
ATOM     59  C   UNL A   1      37.224  30.476  32.570  1.00  0.00     0.002 A 
ATOM     60  C   UNL A   1      36.501  31.510  30.499  1.00  0.00     0.091 A 
ATOM     61  F   UNL A   1      37.876  31.318  28.558  1.00  0.00    -0.205 F 
ATOM     62  C   UNL A   1      36.277  31.198  31.850  1.00  0.00     0.022 A 
BRANCH  60  63
ATOM     63  S   UNL A   1      35.257  32.517  29.682  1.00  0.00     0.127 S 
ATOM     64  O   UNL A   1      34.317  32.766  30.774  1.00  0.00    -0.237 OA
ATOM     65  O   UNL A   1      36.034  33.686  29.269  1.00  0.00    -0.237 OA
ATOM     66  O   UNL A   1      34.740  31.711  28.586  1.00  0.00    -0.744 OA
ENDBRANCH  60  63
ENDBRANCH  42  56
BRANCH  43  67
ATOM     67  C   UNL A   1      46.911  27.452  25.821  1.00  0.00     0.023 A 
ATOM     68  C   UNL A   1      47.909  26.693  26.462  1.00  0.00     0.012 A 
ATOM     69  C   UNL A   1      47.075  27.794  24.464  1.00  0.00     0.148 A 
ATOM     70  C   UNL A   1      49.066  26.314  25.778  1.00  0.00     0.002 A 
ATOM     71  C   UNL A   1      48.201  27.364  23.773  1.00  0.00     0.091 A 
ATOM     72  F   UNL A   1      46.119  28.523  23.874  1.00  0.00    -0.205 F 
ATOM     73  C   UNL A   1      49.207  26.641  24.433  1.00  0.00     0.022 A 
BRANCH  71  74
ATOM     74  S   UNL A   1      48.407  27.623  22.007  1.00  0.00     0.127 S 
ATOM     75  O   UNL A   1      49.566  28.509  21.968  1.00  0.00    -0.237 OA
ATOM     76  O   UNL A   1      48.653  26.261  21.530  1.00  0.00    -0.237 OA
ATOM     77  O   UNL A   1      47.152  28.203  21.545  1.00  0.00    -0.744 OA
ENDBRANCH  71  74
ENDBRANCH  43  67
BRANCH  55  78
ATOM     78  C   UNL A   1      45.139  33.204  29.364  1.00  0.00     0.023 A 
ATOM     79  C   UNL A   1      45.944  33.304  30.516  1.00  0.00     0.012 A 
ATOM     80  C   UNL A   1      45.089  34.284  28.460  1.00  0.00     0.148 A 
ATOM     81  C   UNL A   1      46.664  34.468  30.779  1.00  0.00     0.002 A 
ATOM     82  C   UNL A   1      45.850  35.422  28.702  1.00  0.00     0.091 A 
ATOM     83  F   UNL A   1      44.304  34.177  27.378  1.00  0.00    -0.205 F 
ATOM     84  C   UNL A   1      46.627  35.520  29.867  1.00  0.00     0.022 A 
BRANCH  82  85
ATOM     85  S   UNL A   1      45.944  36.787  27.538  1.00  0.00     0.127 S 
ATOM     86  O   UNL A   1      44.566  37.277  27.542  1.00  0.00    -0.237 OA
ATOM     87  O   UNL A   1      46.910  37.675  28.184  1.00  0.00    -0.237 OA
ATOM     88  O   UNL A   1      46.396  36.213  26.277  1.00  0.00    -0.744 OA
ENDBRANCH  82  85
ENDBRANCH  55  78
ENDBRANCH  29  30
ENDBRANCH  21  24
ENDBRANCH  19  20
ENDBRANCH   1  19
TORSDOF 16
ENDMDL
MODEL 2
REMARK VINA RESULT:     -11.5      6.487     10.158
REMARK SMILES C[C@@H](Oc1ccc(N)cc1)C(=O)NCCCNC(=O)c1ccc(-c2c3nc(c(-c4cccc(S(=O)(=O)[O-])c4F)c4ccc([nH]4)c(-c4cccc(S(=O)(=O)[O-])c4F)c4nc(c(-c5cccc(S(=O)(=O)[O-])c5F)c5ccc2[nH]5)C=C4)C=C3)cc1
REMARK SMILES IDX 15 1 14 2 13 3 11 4 12 5 2 7 1 8 3 9 4 10 5 11 10 12 6 13
REMARK SMILES IDX 9 14 7 15 8 16 16 19 17 20 18 21 19 23 20 24 21 25 82 26
REMARK SMILES IDX 22 27 81 28 23 29 24 30 25 31 75 32 26 33 80 34 74 35 76 36
REMARK SMILES IDX 27 37 79 38 73 39 72 40 28 42 60 43 40 44 59 45 41 46 44 47
REMARK SMILES IDX 58 48 77 49 42 50 43 51 57 53 78 54 45 55 29 56 30 57 38 58
REMARK SMILES IDX 31 59 33 60 39 61 32 62 34 63 35 64 36 65 37 66 61 67 62 68
REMARK SMILES IDX 70 69 63 70 65 71 71 72 64 73 66 74 67 75 68 76 69 77 46 78
REMARK SMILES IDX 47 79 55 80 48 81 50 82 56 83 49 84 51 85 52 86 53 87 54 88
REMARK H PARENT 13 6 8 17 8 18 17 22 76 41 44 52
REMARK Flexibility Score: inf
ROOT
ATOM      1  C   UNL A   1      33.843  33.802  28.203  1.00  0.00     0.042 C 
ENDROOT
BRANCH   1   2
ATOM      2  C   UNL A   1      34.186  34.949  29.142  1.00  0.00     0.118 C 
BRANCH   2   3
ATOM      3  N   UNL A   1      33.012  35.518  29.790  1.00  0.00    -0.353 N 
ATOM      4  C   UNL A   1      32.851  35.955  31.078  1.00  0.00     0.260 C 
ATOM      5  O   UNL A   1      31.770  36.466  31.384  1.00  0.00    -0.271 OA
ATOM      6  H   UNL A   1      32.217  35.602  29.216  1.00  0.00     0.163 HD
BRANCH   4   7
ATOM      7  C   UNL A   1      33.961  35.755  32.123  1.00  0.00     0.258 C 
ATOM      8  C   UNL A   1      33.854  36.882  33.146  1.00  0.00     0.064 C 
BRANCH   7   9
ATOM      9  O   UNL A   1      33.799  34.427  32.631  1.00  0.00    -0.481 OA
BRANCH   9  10
ATOM     10  C   UNL A   1      34.913  33.792  33.083  1.00  0.00     0.120 A 
ATOM     11  C   UNL A   1      35.516  34.121  34.292  1.00  0.00     0.048 A 
ATOM     12  C   UNL A   1      35.322  32.654  32.394  1.00  0.00     0.048 A 
ATOM     13  C   UNL A   1      36.569  33.347  34.781  1.00  0.00     0.029 A 
ATOM     14  C   UNL A   1      36.366  31.871  32.895  1.00  0.00     0.029 A 
ATOM     15  C   UNL A   1      36.985  32.199  34.104  1.00  0.00     0.032 A 
BRANCH  15  16
ATOM     16  N   UNL A   1      38.058  31.461  34.574  1.00  0.00    -0.399 N 
ATOM     17  H   UNL A   1      38.479  31.697  35.432  1.00  0.00     0.156 HD
ATOM     18  H   UNL A   1      38.400  30.701  34.050  1.00  0.00     0.156 HD
ENDBRANCH  15  16
ENDBRANCH   9  10
ENDBRANCH   7   9
ENDBRANCH   4   7
ENDBRANCH   2   3
ENDBRANCH   1   2
BRANCH   1  19
ATOM     19  C   UNL A   1      34.169  32.426  28.764  1.00  0.00     0.118 C 
BRANCH  19  20
ATOM     20  N   UNL A   1      33.777  31.345  27.868  1.00  0.00    -0.352 N 
ATOM     21  C   UNL A   1      34.494  30.265  27.417  1.00  0.00     0.251 C 
ATOM     22  H   UNL A   1      32.851  31.398  27.535  1.00  0.00     0.163 HD
ATOM     23  O   UNL A   1      34.034  29.566  26.515  1.00  0.00    -0.269 OA
BRANCH  21  24
ATOM     24  C   UNL A   1      35.819  29.952  27.992  1.00  0.00     0.039 A 
ATOM     25  C   UNL A   1      35.889  29.446  29.294  1.00  0.00     0.014 A 
ATOM     26  C   UNL A   1      36.989  30.160  27.259  1.00  0.00     0.014 A 
ATOM     27  C   UNL A   1      37.126  29.073  29.827  1.00  0.00     0.010 A 
ATOM     28  C   UNL A   1      38.207  29.711  27.758  1.00  0.00     0.010 A 
ATOM     29  C   UNL A   1      38.290  29.161  29.046  1.00  0.00    -0.014 A 
BRANCH  29  30
ATOM     30  C   UNL A   1      39.598  28.660  29.542  1.00  0.00     0.031 A 
ATOM     31  C   UNL A   1      40.325  29.386  30.641  1.00  0.00     0.074 A 
ATOM     32  C   UNL A   1      40.179  27.607  28.930  1.00  0.00     0.049 A 
ATOM     33  N   UNL A   1      41.512  29.153  31.137  1.00  0.00    -0.248 NA
ATOM     34  C   UNL A   1      39.641  30.543  31.242  1.00  0.00     0.031 C 
ATOM     35  C   UNL A   1      39.607  26.861  27.807  1.00  0.00     0.029 A 
ATOM     36  N   UNL A   1      41.394  27.004  29.144  1.00  0.00    -0.354 N 
ATOM     37  C   UNL A   1      41.733  30.150  32.080  1.00  0.00     0.074 A 
ATOM     38  C   UNL A   1      40.570  31.010  32.064  1.00  0.00     0.031 C 
ATOM     39  C   UNL A   1      40.469  25.902  27.431  1.00  0.00     0.029 A 
ATOM     40  C   UNL A   1      41.669  25.991  28.256  1.00  0.00     0.049 A 
ATOM     41  H   UNL A   1      42.009  27.270  29.865  1.00  0.00     0.167 HD
ATOM     42  C   UNL A   1      42.796  30.322  32.900  1.00  0.00     0.034 A 
ATOM     43  C   UNL A   1      42.773  25.231  28.105  1.00  0.00     0.034 A 
ATOM     44  C   UNL A   1      43.937  29.446  32.935  1.00  0.00     0.049 A 
ATOM     45  C   UNL A   1      43.935  25.434  29.039  1.00  0.00     0.074 A 
ATOM     46  C   UNL A   1      45.024  29.485  33.791  1.00  0.00     0.029 A 
ATOM     47  N   UNL A   1      44.149  28.385  32.069  1.00  0.00    -0.354 N 
ATOM     48  N   UNL A   1      44.059  26.286  30.028  1.00  0.00    -0.248 NA
ATOM     49  C   UNL A   1      45.097  24.553  28.858  1.00  0.00     0.031 C 
ATOM     50  C   UNL A   1      45.910  28.471  33.417  1.00  0.00     0.029 A 
ATOM     51  C   UNL A   1      45.357  27.773  32.356  1.00  0.00     0.049 A 
ATOM     52  H   UNL A   1      43.531  28.108  31.355  1.00  0.00     0.167 HD
ATOM     53  C   UNL A   1      45.293  26.019  30.608  1.00  0.00     0.074 A 
ATOM     54  C   UNL A   1      45.871  24.913  29.872  1.00  0.00     0.031 C 
ATOM     55  C   UNL A   1      45.899  26.642  31.649  1.00  0.00     0.034 A 
BRANCH  42  56
ATOM     56  C   UNL A   1      42.763  31.484  33.861  1.00  0.00     0.023 A 
ATOM     57  C   UNL A   1      43.353  32.710  33.494  1.00  0.00     0.012 A 
ATOM     58  C   UNL A   1      42.095  31.381  35.096  1.00  0.00     0.148 A 
ATOM     59  C   UNL A   1      43.312  33.805  34.356  1.00  0.00     0.002 A 
ATOM     60  C   UNL A   1      42.016  32.490  35.930  1.00  0.00     0.091 A 
ATOM     61  F   UNL A   1      41.556  30.201  35.437  1.00  0.00    -0.205 F 
ATOM     62  C   UNL A   1      42.634  33.698  35.568  1.00  0.00     0.022 A 
BRANCH  60  63
ATOM     63  S   UNL A   1      41.097  32.482  37.473  1.00  0.00     0.127 S 
ATOM     64  O   UNL A   1      41.917  31.596  38.299  1.00  0.00    -0.237 OA
ATOM     65  O   UNL A   1      41.139  33.891  37.863  1.00  0.00    -0.237 OA
ATOM     66  O   UNL A   1      39.769  31.979  37.149  1.00  0.00    -0.744 OA
ENDBRANCH  60  63
ENDBRANCH  42  56
BRANCH  43  67
ATOM     67  C   UNL A   1      42.815  24.177  27.052  1.00  0.00     0.023 A 
ATOM     68  C   UNL A   1      43.495  24.430  25.845  1.00  0.00     0.012 A 
ATOM     69  C   UNL A   1      42.207  22.921  27.248  1.00  0.00     0.148 A 
ATOM     70  C   UNL A   1      43.536  23.466  24.836  1.00  0.00     0.002 A 
ATOM     71  C   UNL A   1      42.303  21.945  26.264  1.00  0.00     0.091 A 
ATOM     72  F   UNL A   1      41.559  22.703  28.400  1.00  0.00    -0.205 F 
ATOM     73  C   UNL A   1      42.950  22.221  25.049  1.00  0.00     0.022 A 
BRANCH  71  74
ATOM     74  S   UNL A   1      41.693  20.272  26.502  1.00  0.00     0.127 S 
ATOM     75  O   UNL A   1      42.255  19.581  25.345  1.00  0.00    -0.237 OA
ATOM     76  O   UNL A   1      42.295  19.913  27.787  1.00  0.00    -0.237 OA
ATOM     77  O   UNL A   1      40.241  20.381  26.529  1.00  0.00    -0.744 OA
ENDBRANCH  71  74
ENDBRANCH  43  67
BRANCH  55  78
ATOM     78  C   UNL A   1      47.243  26.123  32.091  1.00  0.00     0.023 A 
ATOM     79  C   UNL A   1      48.421  26.617  31.497  1.00  0.00     0.012 A 
ATOM     80  C   UNL A   1      47.339  25.206  33.157  1.00  0.00     0.148 A 
ATOM     81  C   UNL A   1      49.672  26.183  31.934  1.00  0.00     0.002 A 
ATOM     82  C   UNL A   1      48.589  24.818  33.623  1.00  0.00     0.091 A 
ATOM     83  F   UNL A   1      46.206  24.735  33.699  1.00  0.00    -0.205 F 
ATOM     84  C   UNL A   1      49.756  25.295  33.004  1.00  0.00     0.022 A 
BRANCH  82  85
ATOM     85  S   UNL A   1      48.799  23.756  35.056  1.00  0.00     0.127 S 
ATOM     86  O   UNL A   1      50.255  23.657  35.143  1.00  0.00    -0.237 OA
ATOM     87  O   UNL A   1      48.177  24.546  36.118  1.00  0.00    -0.237 OA
ATOM     88  O   UNL A   1      48.109  22.511  34.742  1.00  0.00    -0.744 OA
ENDBRANCH  82  85
ENDBRANCH  55  78
ENDBRANCH  29  30
ENDBRANCH  21  24
ENDBRANCH  19  20
ENDBRANCH   1  19
TORSDOF 16
ENDMDL
MODEL 3
REMARK VINA RESULT:     -11.4      6.508     11.589
REMARK SMILES C[C@@H](Oc1ccc(N)cc1)C(=O)NCCCNC(=O)c1ccc(-c2c3nc(c(-c4cccc(S(=O)(=O)[O-])c4F)c4ccc([nH]4)c(-c4cccc(S(=O)(=O)[O-])c4F)c4nc(c(-c5cccc(S(=O)(=O)[O-])c5F)c5ccc2[nH]5)C=C4)C=C3)cc1
REMARK SMILES IDX 15 1 14 2 13 3 11 4 12 5 2 7 1 8 3 9 4 10 5 11 10 12 6 13
REMARK SMILES IDX 9 14 7 15 8 16 16 19 17 20 18 21 19 23 20 24 21 25 82 26
REMARK SMILES IDX 22 27 81 28 23 29 24 30 25 31 75 32 26 33 80 34 74 35 76 36
REMARK SMILES IDX 27 37 79 38 73 39 72 40 28 42 60 43 40 44 59 45 41 46 44 47
REMARK SMILES IDX 58 48 77 49 42 50 43 51 57 53 78 54 45 55 29 56 30 57 38 58
REMARK SMILES IDX 31 59 33 60 39 61 32 62 34 63 35 64 36 65 37 66 61 67 62 68
REMARK SMILES IDX 70 69 63 70 65 71 71 72 64 73 66 74 67 75 68 76 69 77 46 78
REMARK SMILES IDX 47 79 55 80 48 81 50 82 56 83 49 84 51 85 52 86 53 87 54 88
REMARK H PARENT 13 6 8 17 8 18 17 22 76 41 44 52
REMARK Flexibility Score: inf
ROOT
ATOM      1  C   UNL A   1      31.689  31.653  26.632  1.00  0.00     0.042 C 
ENDROOT
BRANCH   1   2
ATOM      2  C   UNL A   1      32.070  30.353  25.939  1.00  0.00     0.118 C 
BRANCH   2   3
ATOM      3  N   UNL A   1      31.685  29.173  26.702  1.00  0.00    -0.353 N 
ATOM      4  C   UNL A   1      31.815  27.847  26.384  1.00  0.00     0.260 C 
ATOM      5  O   UNL A   1      31.471  27.015  27.228  1.00  0.00    -0.271 OA
ATOM      6  H   UNL A   1      31.269  29.356  27.575  1.00  0.00     0.163 HD
BRANCH   4   7
ATOM      7  C   UNL A   1      32.314  27.415  24.996  1.00  0.00     0.258 C 
ATOM      8  C   UNL A   1      33.599  26.613  25.185  1.00  0.00     0.064 C 
BRANCH   7   9
ATOM      9  O   UNL A   1      31.226  26.722  24.376  1.00  0.00    -0.481 OA
BRANCH   9  10
ATOM     10  C   UNL A   1      30.344  27.463  23.653  1.00  0.00     0.120 A 
ATOM     11  C   UNL A   1      28.969  27.279  23.745  1.00  0.00     0.048 A 
ATOM     12  C   UNL A   1      30.850  28.558  22.961  1.00  0.00     0.048 A 
ATOM     13  C   UNL A   1      28.102  28.157  23.094  1.00  0.00     0.029 A 
ATOM     14  C   UNL A   1      29.978  29.446  22.323  1.00  0.00     0.029 A 
ATOM     15  C   UNL A   1      28.596  29.265  22.402  1.00  0.00     0.032 A 
BRANCH  15  16
ATOM     16  N   UNL A   1      27.731  30.106  21.724  1.00  0.00    -0.399 N 
ATOM     17  H   UNL A   1      27.487  29.913  20.790  1.00  0.00     0.156 HD
ATOM     18  H   UNL A   1      27.358  30.899  22.175  1.00  0.00     0.156 HD
ENDBRANCH  15  16
ENDBRANCH   9  10
ENDBRANCH   7   9
ENDBRANCH   4   7
ENDBRANCH   2   3
ENDBRANCH   1   2
BRANCH   1  19
ATOM     19  C   UNL A   1      32.860  32.373  27.281  1.00  0.00     0.118 C 
BRANCH  19  20
ATOM     20  N   UNL A   1      32.561  33.766  27.594  1.00  0.00    -0.352 N 
ATOM     21  C   UNL A   1      33.084  34.587  28.562  1.00  0.00     0.251 C 
ATOM     22  H   UNL A   1      31.879  34.183  27.019  1.00  0.00     0.163 HD
ATOM     23  O   UNL A   1      32.560  35.680  28.777  1.00  0.00    -0.269 OA
BRANCH  21  24
ATOM     24  C   UNL A   1      34.254  34.159  29.357  1.00  0.00     0.039 A 
ATOM     25  C   UNL A   1      34.050  33.359  30.485  1.00  0.00     0.014 A 
ATOM     26  C   UNL A   1      35.547  34.546  28.999  1.00  0.00     0.014 A 
ATOM     27  C   UNL A   1      35.149  32.882  31.205  1.00  0.00     0.010 A 
ATOM     28  C   UNL A   1      36.641  34.003  29.665  1.00  0.00     0.010 A 
ATOM     29  C   UNL A   1      36.455  33.164  30.773  1.00  0.00    -0.014 A 
BRANCH  29  30
ATOM     30  C   UNL A   1      37.640  32.571  31.445  1.00  0.00     0.031 A 
ATOM     31  C   UNL A   1      38.380  31.424  30.812  1.00  0.00     0.074 A 
ATOM     32  C   UNL A   1      37.988  33.000  32.676  1.00  0.00     0.049 A 
ATOM     33  N   UNL A   1      39.374  30.721  31.290  1.00  0.00    -0.248 NA
ATOM     34  C   UNL A   1      37.926  30.991  29.480  1.00  0.00     0.031 C 
ATOM     35  C   UNL A   1      37.307  34.058  33.427  1.00  0.00     0.029 A 
ATOM     36  N   UNL A   1      38.979  32.577  33.527  1.00  0.00    -0.354 N 
ATOM     37  C   UNL A   1      39.641  29.744  30.339  1.00  0.00     0.074 A 
ATOM     38  C   UNL A   1      38.684  29.925  29.269  1.00  0.00     0.031 C 
ATOM     39  C   UNL A   1      37.898  34.200  34.623  1.00  0.00     0.029 A 
ATOM     40  C   UNL A   1      38.971  33.219  34.744  1.00  0.00     0.049 A 
ATOM     41  H   UNL A   1      39.633  31.881  33.289  1.00  0.00     0.167 HD
ATOM     42  C   UNL A   1      40.609  28.797  30.342  1.00  0.00     0.034 A 
ATOM     43  C   UNL A   1      39.728  33.026  35.843  1.00  0.00     0.034 A 
ATOM     44  C   UNL A   1      41.579  28.641  31.393  1.00  0.00     0.049 A 
ATOM     45  C   UNL A   1      40.805  31.976  35.815  1.00  0.00     0.074 A 
ATOM     46  C   UNL A   1      42.653  27.770  31.448  1.00  0.00     0.029 A 
ATOM     47  N   UNL A   1      41.586  29.359  32.579  1.00  0.00    -0.354 N 
ATOM     48  N   UNL A   1      41.142  31.165  34.841  1.00  0.00    -0.248 NA
ATOM     49  C   UNL A   1      41.628  31.835  37.025  1.00  0.00     0.031 C 
ATOM     50  C   UNL A   1      43.286  27.935  32.684  1.00  0.00     0.029 A 
ATOM     51  C   UNL A   1      42.632  28.938  33.381  1.00  0.00     0.049 A 
ATOM     52  H   UNL A   1      40.942  30.064  32.816  1.00  0.00     0.167 HD
ATOM     53  C   UNL A   1      42.235  30.444  35.307  1.00  0.00     0.074 A 
ATOM     54  C   UNL A   1      42.517  30.928  36.642  1.00  0.00     0.031 C 
ATOM     55  C   UNL A   1      42.935  29.461  34.689  1.00  0.00     0.034 A 
BRANCH  42  56
ATOM     56  C   UNL A   1      40.695  27.874  29.153  1.00  0.00     0.023 A 
ATOM     57  C   UNL A   1      39.865  26.736  29.092  1.00  0.00     0.012 A 
ATOM     58  C   UNL A   1      41.548  28.166  28.072  1.00  0.00     0.148 A 
ATOM     59  C   UNL A   1      39.911  25.883  27.990  1.00  0.00     0.002 A 
ATOM     60  C   UNL A   1      41.553  27.338  26.956  1.00  0.00     0.091 A 
ATOM     61  F   UNL A   1      42.344  29.242  28.157  1.00  0.00    -0.205 F 
ATOM     62  C   UNL A   1      40.745  26.190  26.919  1.00  0.00     0.022 A 
BRANCH  60  63
ATOM     63  S   UNL A   1      42.529  27.690  25.489  1.00  0.00     0.127 S 
ATOM     64  O   UNL A   1      42.264  26.509  24.669  1.00  0.00    -0.237 OA
ATOM     65  O   UNL A   1      41.913  28.923  25.000  1.00  0.00    -0.237 OA
ATOM     66  O   UNL A   1      43.904  27.836  25.946  1.00  0.00    -0.744 OA
ENDBRANCH  60  63
ENDBRANCH  42  56
BRANCH  43  67
ATOM     67  C   UNL A   1      39.521  33.877  37.049  1.00  0.00     0.023 A 
ATOM     68  C   UNL A   1      39.985  35.207  37.047  1.00  0.00     0.012 A 
ATOM     69  C   UNL A   1      38.850  33.386  38.186  1.00  0.00     0.148 A 
ATOM     70  C   UNL A   1      39.818  36.021  38.168  1.00  0.00     0.002 A 
ATOM     71  C   UNL A   1      38.635  34.220  39.276  1.00  0.00     0.091 A 
ATOM     72  F   UNL A   1      38.423  32.116  38.172  1.00  0.00    -0.205 F 
ATOM     73  C   UNL A   1      39.135  35.531  39.278  1.00  0.00     0.022 A 
BRANCH  71  74
ATOM     74  S   UNL A   1      37.652  33.720  40.695  1.00  0.00     0.127 S 
ATOM     75  O   UNL A   1      37.503  34.980  41.415  1.00  0.00    -0.237 OA
ATOM     76  O   UNL A   1      36.431  33.226  40.055  1.00  0.00    -0.237 OA
ATOM     77  O   UNL A   1      38.431  32.692  41.372  1.00  0.00    -0.744 OA
ENDBRANCH  71  74
ENDBRANCH  43  67
BRANCH  55  78
ATOM     78  C   UNL A   1      44.105  28.862  35.425  1.00  0.00     0.023 A 
ATOM     79  C   UNL A   1      45.390  29.423  35.283  1.00  0.00     0.012 A 
ATOM     80  C   UNL A   1      43.913  27.794  36.324  1.00  0.00     0.148 A 
ATOM     81  C   UNL A   1      46.470  28.911  36.000  1.00  0.00     0.002 A 
ATOM     82  C   UNL A   1      44.983  27.323  37.075  1.00  0.00     0.091 A 
ATOM     83  F   UNL A   1      42.686  27.264  36.434  1.00  0.00    -0.205 F 
ATOM     84  C   UNL A   1      46.264  27.871  36.904  1.00  0.00     0.022 A 
BRANCH  82  85
ATOM     85  S   UNL A   1      44.796  26.055  38.334  1.00  0.00     0.127 S 
ATOM     86  O   UNL A   1      46.081  26.134  39.028  1.00  0.00    -0.237 OA
ATOM     87  O   UNL A   1      43.655  26.552  39.103  1.00  0.00    -0.237 OA
ATOM     88  O   UNL A   1      44.550  24.809  37.619  1.00  0.00    -0.744 OA
ENDBRANCH  82  85
ENDBRANCH  55  78
ENDBRANCH  29  30
ENDBRANCH  21  24
ENDBRANCH  19  20
ENDBRANCH   1  19
TORSDOF 16
ENDMDL
