MODEL 1
REMARK VINA RESULT:     -12.6      0.000      0.000
REMARK SMILES CC(C)(C)OC(=O)N1CC[N@H+](Cc2ccc(Cl)nc2)[C@H](C(=O)NCCCNC(=O)c2ccc(-c3c4nc(c(-c5cccc(S(=O)(=O)[O-])c5F)c5ccc([nH]5)c(-c5cccc(S(=O)(=O)[O-])c5F)c5nc(c(-c6cccc(S(=O)(=O)[O-])c6F)c6ccc3[nH]6)C=C5)C=C4)cc2)C1
REMARK SMILES IDX 25 1 24 2 23 3 21 4 22 5 20 7 8 8 9 9 93 10 10 11 11 12 6 14
REMARK SMILES IDX 7 15 5 16 2 17 1 18 3 19 4 20 12 21 13 22 14 23 19 24 15 25
REMARK SMILES IDX 18 26 16 27 17 28 26 29 27 30 28 31 29 33 30 34 31 35 92 36
REMARK SMILES IDX 32 37 91 38 33 39 34 40 35 41 85 42 36 43 90 44 84 45 86 46
REMARK SMILES IDX 37 47 89 48 83 49 82 50 38 52 70 53 50 54 69 55 51 56 54 57
REMARK SMILES IDX 68 58 87 59 52 60 53 61 67 63 88 64 55 65 39 66 40 67 48 68
REMARK SMILES IDX 41 69 43 70 49 71 42 72 44 73 45 74 46 75 47 76 71 77 72 78
REMARK SMILES IDX 80 79 73 80 75 81 81 82 74 83 76 84 77 85 78 86 79 87 56 88
REMARK SMILES IDX 57 89 65 90 58 91 60 92 66 93 59 94 61 95 62 96 63 97 64 98
REMARK H PARENT 23 6 11 13 27 32 86 51 54 62
REMARK Flexibility Score: inf
ROOT
ATOM      1  C   UNL A   1      32.267  29.847  25.287  1.00  0.00     0.042 C 
ENDROOT
BRANCH   1   2
ATOM      2  C   UNL A   1      33.576  29.090  25.148  1.00  0.00     0.118 C 
BRANCH   2   3
ATOM      3  N   UNL A   1      33.680  28.263  23.954  1.00  0.00    -0.351 N 
ATOM      4  C   UNL A   1      32.982  27.130  23.631  1.00  0.00     0.280 C 
ATOM      5  O   UNL A   1      33.077  26.724  22.468  1.00  0.00    -0.268 OA
ATOM      6  H   UNL A   1      34.342  28.559  23.288  1.00  0.00     0.163 HD
BRANCH   4   7
ATOM      7  C   UNL A   1      32.177  26.356  24.695  1.00  0.00     0.294 C 
ATOM      8  N   UNL A   1      31.645  24.005  25.529  1.00  0.00    -0.296 N 
ATOM      9  C   UNL A   1      30.291  24.450  25.824  1.00  0.00     0.184 C 
ATOM     10  C   UNL A   1      32.504  24.838  24.667  1.00  0.00     0.198 C 
ATOM     11  C   UNL A   1      30.082  25.966  25.804  1.00  0.00     0.285 C 
ATOM     12  N   UNL A   1      30.727  26.666  24.693  1.00  0.00    -0.318 N 
ATOM     13  H   UNL A   1      30.681  27.673  24.845  1.00  0.00     0.349 HD
BRANCH   8  14
ATOM     14  C   UNL A   1      31.885  22.653  25.706  1.00  0.00     0.410 C 
ATOM     15  O   UNL A   1      30.984  21.853  25.951  1.00  0.00    -0.224 OA
BRANCH  14  16
ATOM     16  O   UNL A   1      33.201  22.330  25.659  1.00  0.00    -0.444 OA
BRANCH  16  17
ATOM     17  C   UNL A   1      33.721  21.571  24.532  1.00  0.00     0.106 C 
ATOM     18  C   UNL A   1      33.958  20.154  25.078  1.00  0.00     0.056 C 
ATOM     19  C   UNL A   1      35.056  22.165  24.076  1.00  0.00     0.056 C 
ATOM     20  C   UNL A   1      32.730  21.453  23.360  1.00  0.00     0.056 C 
ENDBRANCH  16  17
ENDBRANCH  14  16
ENDBRANCH   8  14
BRANCH  12  21
ATOM     21  C   UNL A   1      29.986  26.695  23.431  1.00  0.00     0.301 C 
BRANCH  21  22
ATOM     22  C   UNL A   1      29.439  27.992  22.913  1.00  0.00     0.025 A 
ATOM     23  C   UNL A   1      28.145  28.419  23.227  1.00  0.00     0.014 A 
ATOM     24  C   UNL A   1      30.234  28.859  22.165  1.00  0.00     0.122 A 
ATOM     25  C   UNL A   1      27.683  29.637  22.739  1.00  0.00     0.041 A 
ATOM     26  N   UNL A   1      29.819  30.055  21.694  1.00  0.00    -0.244 NA
ATOM     27  C   UNL A   1      28.552  30.404  21.985  1.00  0.00     0.129 A 
ATOM     28  Cl  UNL A   1      28.066  31.922  21.355  1.00  0.00    -0.062 Cl
ENDBRANCH  21  22
ENDBRANCH  12  21
ENDBRANCH   4   7
ENDBRANCH   2   3
ENDBRANCH   1   2
BRANCH   1  29
ATOM     29  C   UNL A   1      31.914  30.306  26.696  1.00  0.00     0.118 C 
BRANCH  29  30
ATOM     30  N   UNL A   1      32.045  31.742  26.923  1.00  0.00    -0.352 N 
ATOM     31  C   UNL A   1      33.073  32.490  27.455  1.00  0.00     0.251 C 
ATOM     32  H   UNL A   1      31.260  32.269  26.648  1.00  0.00     0.163 HD
ATOM     33  O   UNL A   1      32.916  33.699  27.613  1.00  0.00    -0.269 OA
BRANCH  31  34
ATOM     34  C   UNL A   1      34.336  31.850  27.885  1.00  0.00     0.039 A 
ATOM     35  C   UNL A   1      35.476  32.643  28.055  1.00  0.00     0.014 A 
ATOM     36  C   UNL A   1      34.403  30.484  28.151  1.00  0.00     0.014 A 
ATOM     37  C   UNL A   1      36.633  32.089  28.614  1.00  0.00     0.010 A 
ATOM     38  C   UNL A   1      35.506  29.965  28.818  1.00  0.00     0.010 A 
ATOM     39  C   UNL A   1      36.633  30.762  29.068  1.00  0.00    -0.014 A 
BRANCH  39  40
ATOM     40  C   UNL A   1      37.771  30.186  29.837  1.00  0.00     0.031 A 
ATOM     41  C   UNL A   1      38.016  30.609  31.263  1.00  0.00     0.074 A 
ATOM     42  C   UNL A   1      38.666  29.393  29.210  1.00  0.00     0.049 A 
ATOM     43  N   UNL A   1      39.034  30.342  32.040  1.00  0.00    -0.248 NA
ATOM     44  C   UNL A   1      37.007  31.486  31.882  1.00  0.00     0.031 C 
ATOM     45  C   UNL A   1      38.604  28.987  27.804  1.00  0.00     0.029 A 
ATOM     46  N   UNL A   1      39.826  28.815  29.666  1.00  0.00    -0.354 N 
ATOM     47  C   UNL A   1      38.818  31.061  33.210  1.00  0.00     0.074 A 
ATOM     48  C   UNL A   1      37.590  31.803  33.030  1.00  0.00     0.031 C 
ATOM     49  C   UNL A   1      39.669  28.222  27.515  1.00  0.00     0.029 A 
ATOM     50  C   UNL A   1      40.510  28.111  28.700  1.00  0.00     0.049 A 
ATOM     51  H   UNL A   1      40.139  28.896  30.596  1.00  0.00     0.167 HD
ATOM     52  C   UNL A   1      39.554  31.078  34.346  1.00  0.00     0.034 A 
ATOM     53  C   UNL A   1      41.688  27.456  28.758  1.00  0.00     0.034 A 
ATOM     54  C   UNL A   1      40.726  30.274  34.557  1.00  0.00     0.049 A 
ATOM     55  C   UNL A   1      42.438  27.417  30.061  1.00  0.00     0.074 A 
ATOM     56  C   UNL A   1      41.474  30.129  35.711  1.00  0.00     0.029 A 
ATOM     57  N   UNL A   1      41.317  29.471  33.594  1.00  0.00    -0.354 N 
ATOM     58  N   UNL A   1      42.129  27.974  31.207  1.00  0.00    -0.248 NA
ATOM     59  C   UNL A   1      43.682  26.634  30.091  1.00  0.00     0.031 C 
ATOM     60  C   UNL A   1      42.521  29.240  35.444  1.00  0.00     0.029 A 
ATOM     61  C   UNL A   1      42.419  28.826  34.126  1.00  0.00     0.049 A 
ATOM     62  H   UNL A   1      40.999  29.373  32.667  1.00  0.00     0.167 HD
ATOM     63  C   UNL A   1      43.118  27.583  32.100  1.00  0.00     0.074 A 
ATOM     64  C   UNL A   1      44.024  26.722  31.369  1.00  0.00     0.031 C 
ATOM     65  C   UNL A   1      43.274  27.922  33.403  1.00  0.00     0.034 A 
BRANCH  52  66
ATOM     66  C   UNL A   1      39.069  31.937  35.484  1.00  0.00     0.023 A 
ATOM     67  C   UNL A   1      39.261  33.333  35.427  1.00  0.00     0.012 A 
ATOM     68  C   UNL A   1      38.374  31.378  36.575  1.00  0.00     0.148 A 
ATOM     69  C   UNL A   1      38.801  34.157  36.453  1.00  0.00     0.002 A 
ATOM     70  C   UNL A   1      37.879  32.212  37.574  1.00  0.00     0.091 A 
ATOM     71  F   UNL A   1      38.219  30.048  36.623  1.00  0.00    -0.205 F 
ATOM     72  C   UNL A   1      38.102  33.597  37.520  1.00  0.00     0.022 A 
BRANCH  70  73
ATOM     73  S   UNL A   1      36.900  31.599  38.949  1.00  0.00     0.127 S 
ATOM     74  O   UNL A   1      37.871  31.640  40.043  1.00  0.00    -0.237 OA
ATOM     75  O   UNL A   1      35.836  32.600  39.041  1.00  0.00    -0.237 OA
ATOM     76  O   UNL A   1      36.450  30.270  38.560  1.00  0.00    -0.744 OA
ENDBRANCH  70  73
ENDBRANCH  52  66
BRANCH  53  77
ATOM     77  C   UNL A   1      42.188  26.715  27.565  1.00  0.00     0.023 A 
ATOM     78  C   UNL A   1      42.911  27.414  26.578  1.00  0.00     0.012 A 
ATOM     79  C   UNL A   1      41.985  25.330  27.413  1.00  0.00     0.148 A 
ATOM     80  C   UNL A   1      43.395  26.754  25.447  1.00  0.00     0.002 A 
ATOM     81  C   UNL A   1      42.518  24.668  26.312  1.00  0.00     0.091 A 
ATOM     82  F   UNL A   1      41.283  24.682  28.355  1.00  0.00    -0.205 F 
ATOM     83  C   UNL A   1      43.208  25.381  25.320  1.00  0.00     0.022 A 
BRANCH  81  84
ATOM     84  S   UNL A   1      42.443  22.880  26.143  1.00  0.00     0.127 S 
ATOM     85  O   UNL A   1      41.007  22.630  26.231  1.00  0.00    -0.237 OA
ATOM     86  O   UNL A   1      43.024  22.673  24.815  1.00  0.00    -0.237 OA
ATOM     87  O   UNL A   1      43.253  22.355  27.234  1.00  0.00    -0.744 OA
ENDBRANCH  81  84
ENDBRANCH  53  77
BRANCH  65  88
ATOM     88  C   UNL A   1      44.453  27.342  34.140  1.00  0.00     0.023 A 
ATOM     89  C   UNL A   1      45.691  28.014  34.110  1.00  0.00     0.012 A 
ATOM     90  C   UNL A   1      44.312  26.181  34.923  1.00  0.00     0.148 A 
ATOM     91  C   UNL A   1      46.779  27.524  34.830  1.00  0.00     0.002 A 
ATOM     92  C   UNL A   1      45.389  25.722  35.673  1.00  0.00     0.091 A 
ATOM     93  F   UNL A   1      43.132  25.544  34.920  1.00  0.00    -0.205 F 
ATOM     94  C   UNL A   1      46.625  26.386  35.619  1.00  0.00     0.022 A 
BRANCH  92  95
ATOM     95  S   UNL A   1      45.252  24.321  36.788  1.00  0.00     0.127 S 
ATOM     96  O   UNL A   1      44.228  24.784  37.723  1.00  0.00    -0.237 OA
ATOM     97  O   UNL A   1      44.818  23.248  35.892  1.00  0.00    -0.237 OA
ATOM     98  O   UNL A   1      46.581  24.131  37.353  1.00  0.00    -0.744 OA
ENDBRANCH  92  95
ENDBRANCH  65  88
ENDBRANCH  39  40
ENDBRANCH  31  34
ENDBRANCH  29  30
ENDBRANCH   1  29
TORSDOF 18
ENDMDL
MODEL 2
REMARK VINA RESULT:     -12.5      1.536      1.800
REMARK SMILES CC(C)(C)OC(=O)N1CC[N@H+](Cc2ccc(Cl)nc2)[C@H](C(=O)NCCCNC(=O)c2ccc(-c3c4nc(c(-c5cccc(S(=O)(=O)[O-])c5F)c5ccc([nH]5)c(-c5cccc(S(=O)(=O)[O-])c5F)c5nc(c(-c6cccc(S(=O)(=O)[O-])c6F)c6ccc3[nH]6)C=C5)C=C4)cc2)C1
REMARK SMILES IDX 25 1 24 2 23 3 21 4 22 5 20 7 8 8 9 9 93 10 10 11 11 12 6 14
REMARK SMILES IDX 7 15 5 16 2 17 1 18 3 19 4 20 12 21 13 22 14 23 19 24 15 25
REMARK SMILES IDX 18 26 16 27 17 28 26 29 27 30 28 31 29 33 30 34 31 35 92 36
REMARK SMILES IDX 32 37 91 38 33 39 34 40 35 41 85 42 36 43 90 44 84 45 86 46
REMARK SMILES IDX 37 47 89 48 83 49 82 50 38 52 70 53 50 54 69 55 51 56 54 57
REMARK SMILES IDX 68 58 87 59 52 60 53 61 67 63 88 64 55 65 39 66 40 67 48 68
REMARK SMILES IDX 41 69 43 70 49 71 42 72 44 73 45 74 46 75 47 76 71 77 72 78
REMARK SMILES IDX 80 79 73 80 75 81 81 82 74 83 76 84 77 85 78 86 79 87 56 88
REMARK SMILES IDX 57 89 65 90 58 91 60 92 66 93 59 94 61 95 62 96 63 97 64 98
REMARK H PARENT 23 6 11 13 27 32 86 51 54 62
REMARK Flexibility Score: inf
ROOT
ATOM      1  C   UNL A   1      32.498  29.687  25.213  1.00  0.00     0.042 C 
ENDROOT
BRANCH   1   2
ATOM      2  C   UNL A   1      33.705  28.778  25.058  1.00  0.00     0.118 C 
BRANCH   2   3
ATOM      3  N   UNL A   1      33.985  28.362  23.691  1.00  0.00    -0.351 N 
ATOM      4  C   UNL A   1      33.547  27.248  23.026  1.00  0.00     0.280 C 
ATOM      5  O   UNL A   1      33.728  27.216  21.805  1.00  0.00    -0.268 OA
ATOM      6  H   UNL A   1      34.568  28.964  23.174  1.00  0.00     0.163 HD
BRANCH   4   7
ATOM      7  C   UNL A   1      32.927  26.057  23.784  1.00  0.00     0.294 C 
ATOM      8  N   UNL A   1      32.729  23.514  23.761  1.00  0.00    -0.296 N 
ATOM      9  C   UNL A   1      31.365  23.647  24.251  1.00  0.00     0.184 C 
ATOM     10  C   UNL A   1      33.413  24.698  23.210  1.00  0.00     0.198 C 
ATOM     11  C   UNL A   1      30.991  25.036  24.775  1.00  0.00     0.285 C 
ATOM     12  N   UNL A   1      31.457  26.154  23.954  1.00  0.00    -0.318 N 
ATOM     13  H   UNL A   1      31.315  27.032  24.452  1.00  0.00     0.349 HD
BRANCH   8  14
ATOM     14  C   UNL A   1      33.128  22.228  23.441  1.00  0.00     0.410 C 
ATOM     15  O   UNL A   1      32.380  21.427  22.882  1.00  0.00    -0.224 OA
BRANCH  14  16
ATOM     16  O   UNL A   1      34.379  21.930  23.873  1.00  0.00    -0.444 OA
BRANCH  16  17
ATOM     17  C   UNL A   1      34.568  21.316  25.178  1.00  0.00     0.106 C 
ATOM     18  C   UNL A   1      35.805  20.418  25.024  1.00  0.00     0.056 C 
ATOM     19  C   UNL A   1      33.355  20.449  25.525  1.00  0.00     0.056 C 
ATOM     20  C   UNL A   1      34.870  22.330  26.296  1.00  0.00     0.056 C 
ENDBRANCH  16  17
ENDBRANCH  14  16
ENDBRANCH   8  14
BRANCH  12  21
ATOM     21  C   UNL A   1      30.610  26.516  22.816  1.00  0.00     0.301 C 
BRANCH  21  22
ATOM     22  C   UNL A   1      29.882  27.828  22.811  1.00  0.00     0.025 A 
ATOM     23  C   UNL A   1      30.474  28.992  22.313  1.00  0.00     0.014 A 
ATOM     24  C   UNL A   1      28.555  27.914  23.229  1.00  0.00     0.122 A 
ATOM     25  C   UNL A   1      29.757  30.184  22.311  1.00  0.00     0.041 A 
ATOM     26  N   UNL A   1      27.828  29.052  23.222  1.00  0.00    -0.244 NA
ATOM     27  C   UNL A   1      28.455  30.156  22.773  1.00  0.00     0.129 A 
ATOM     28  Cl  UNL A   1      27.498  31.579  22.795  1.00  0.00    -0.062 Cl
ENDBRANCH  21  22
ENDBRANCH  12  21
ENDBRANCH   4   7
ENDBRANCH   2   3
ENDBRANCH   1   2
BRANCH   1  29
ATOM     29  C   UNL A   1      32.169  30.112  26.638  1.00  0.00     0.118 C 
BRANCH  29  30
ATOM     30  N   UNL A   1      32.259  31.549  26.885  1.00  0.00    -0.352 N 
ATOM     31  C   UNL A   1      33.261  32.316  27.439  1.00  0.00     0.251 C 
ATOM     32  H   UNL A   1      31.464  32.058  26.607  1.00  0.00     0.163 HD
ATOM     33  O   UNL A   1      33.071  33.519  27.610  1.00  0.00    -0.269 OA
BRANCH  31  34
ATOM     34  C   UNL A   1      34.535  31.703  27.877  1.00  0.00     0.039 A 
ATOM     35  C   UNL A   1      35.646  32.527  28.092  1.00  0.00     0.014 A 
ATOM     36  C   UNL A   1      34.640  30.333  28.107  1.00  0.00     0.014 A 
ATOM     37  C   UNL A   1      36.808  31.993  28.660  1.00  0.00     0.010 A 
ATOM     38  C   UNL A   1      35.745  29.830  28.781  1.00  0.00     0.010 A 
ATOM     39  C   UNL A   1      36.841  30.654  29.077  1.00  0.00    -0.014 A 
BRANCH  39  40
ATOM     40  C   UNL A   1      37.981  30.092  29.853  1.00  0.00     0.031 A 
ATOM     41  C   UNL A   1      38.242  30.555  31.263  1.00  0.00     0.074 A 
ATOM     42  C   UNL A   1      38.865  29.274  29.242  1.00  0.00     0.049 A 
ATOM     43  N   UNL A   1      39.264  30.303  32.039  1.00  0.00    -0.248 NA
ATOM     44  C   UNL A   1      37.245  31.458  31.865  1.00  0.00     0.031 C 
ATOM     45  C   UNL A   1      38.788  28.827  27.849  1.00  0.00     0.029 A 
ATOM     46  N   UNL A   1      40.025  28.700  29.705  1.00  0.00    -0.354 N 
ATOM     47  C   UNL A   1      39.065  31.058  33.189  1.00  0.00     0.074 A 
ATOM     48  C   UNL A   1      37.840  31.803  32.997  1.00  0.00     0.031 C 
ATOM     49  C   UNL A   1      39.844  28.045  27.574  1.00  0.00     0.029 A 
ATOM     50  C   UNL A   1      40.695  27.962  28.755  1.00  0.00     0.049 A 
ATOM     51  H   UNL A   1      40.346  28.806  30.630  1.00  0.00     0.167 HD
ATOM     52  C   UNL A   1      39.811  31.102  34.318  1.00  0.00     0.034 A 
ATOM     53  C   UNL A   1      41.867  27.300  28.822  1.00  0.00     0.034 A 
ATOM     54  C   UNL A   1      40.978  30.295  34.542  1.00  0.00     0.049 A 
ATOM     55  C   UNL A   1      42.629  27.294  30.119  1.00  0.00     0.074 A 
ATOM     56  C   UNL A   1      41.735  30.178  35.694  1.00  0.00     0.029 A 
ATOM     57  N   UNL A   1      41.554  29.460  33.599  1.00  0.00    -0.354 N 
ATOM     58  N   UNL A   1      42.334  27.887  31.251  1.00  0.00    -0.248 NA
ATOM     59  C   UNL A   1      43.867  26.502  30.162  1.00  0.00     0.031 C 
ATOM     60  C   UNL A   1      42.772  29.274  35.445  1.00  0.00     0.029 A 
ATOM     61  C   UNL A   1      42.656  28.822  34.141  1.00  0.00     0.049 A 
ATOM     62  H   UNL A   1      41.228  29.337  32.678  1.00  0.00     0.167 HD
ATOM     63  C   UNL A   1      43.328  27.514  32.147  1.00  0.00     0.074 A 
ATOM     64  C   UNL A   1      44.221  26.625  31.433  1.00  0.00     0.031 C 
ATOM     65  C   UNL A   1      43.498  27.891  33.438  1.00  0.00     0.034 A 
BRANCH  52  66
ATOM     66  C   UNL A   1      39.342  31.999  35.434  1.00  0.00     0.023 A 
ATOM     67  C   UNL A   1      38.449  31.491  36.400  1.00  0.00     0.012 A 
ATOM     68  C   UNL A   1      39.824  33.316  35.564  1.00  0.00     0.148 A 
ATOM     69  C   UNL A   1      38.016  32.288  37.458  1.00  0.00     0.002 A 
ATOM     70  C   UNL A   1      39.422  34.091  36.647  1.00  0.00     0.091 A 
ATOM     71  F   UNL A   1      40.655  33.790  34.625  1.00  0.00    -0.205 F 
ATOM     72  C   UNL A   1      38.511  33.583  37.587  1.00  0.00     0.022 A 
BRANCH  70  73
ATOM     73  S   UNL A   1      40.060  35.744  36.945  1.00  0.00     0.127 S 
ATOM     74  O   UNL A   1      41.499  35.494  37.026  1.00  0.00    -0.237 OA
ATOM     75  O   UNL A   1      39.632  36.462  35.744  1.00  0.00    -0.237 OA
ATOM     76  O   UNL A   1      39.433  36.198  38.178  1.00  0.00    -0.744 OA
ENDBRANCH  70  73
ENDBRANCH  52  66
BRANCH  53  77
ATOM     77  C   UNL A   1      42.351  26.520  27.647  1.00  0.00     0.023 A 
ATOM     78  C   UNL A   1      43.150  27.163  26.680  1.00  0.00     0.012 A 
ATOM     79  C   UNL A   1      42.059  25.151  27.494  1.00  0.00     0.148 A 
ATOM     80  C   UNL A   1      43.622  26.466  25.567  1.00  0.00     0.002 A 
ATOM     81  C   UNL A   1      42.578  24.449  26.412  1.00  0.00     0.091 A 
ATOM     82  F   UNL A   1      41.287  24.558  28.416  1.00  0.00    -0.205 F 
ATOM     83  C   UNL A   1      43.345  25.107  25.438  1.00  0.00     0.022 A 
BRANCH  81  84
ATOM     84  S   UNL A   1      42.386  22.669  26.246  1.00  0.00     0.127 S 
ATOM     85  O   UNL A   1      40.934  22.521  26.261  1.00  0.00    -0.237 OA
ATOM     86  O   UNL A   1      43.020  22.411  24.952  1.00  0.00    -0.237 OA
ATOM     87  O   UNL A   1      43.100  22.097  27.380  1.00  0.00    -0.744 OA
ENDBRANCH  81  84
ENDBRANCH  53  77
BRANCH  65  88
ATOM     88  C   UNL A   1      44.678  27.323  34.181  1.00  0.00     0.023 A 
ATOM     89  C   UNL A   1      45.914  27.999  34.143  1.00  0.00     0.012 A 
ATOM     90  C   UNL A   1      44.542  26.171  34.978  1.00  0.00     0.148 A 
ATOM     91  C   UNL A   1      47.003  27.521  34.869  1.00  0.00     0.002 A 
ATOM     92  C   UNL A   1      45.620  25.725  35.733  1.00  0.00     0.091 A 
ATOM     93  F   UNL A   1      43.363  25.530  34.982  1.00  0.00    -0.205 F 
ATOM     94  C   UNL A   1      46.854  26.392  35.671  1.00  0.00     0.022 A 
BRANCH  92  95
ATOM     95  S   UNL A   1      45.487  24.336  36.865  1.00  0.00     0.127 S 
ATOM     96  O   UNL A   1      44.408  24.774  37.748  1.00  0.00    -0.237 OA
ATOM     97  O   UNL A   1      45.131  23.235  35.970  1.00  0.00    -0.237 OA
ATOM     98  O   UNL A   1      46.798  24.205  37.488  1.00  0.00    -0.744 OA
ENDBRANCH  92  95
ENDBRANCH  65  88
ENDBRANCH  39  40
ENDBRANCH  31  34
ENDBRANCH  29  30
ENDBRANCH   1  29
TORSDOF 18
ENDMDL
MODEL 3
REMARK VINA RESULT:     -12.5      1.592      7.551
REMARK SMILES CC(C)(C)OC(=O)N1CC[N@H+](Cc2ccc(Cl)nc2)[C@H](C(=O)NCCCNC(=O)c2ccc(-c3c4nc(c(-c5cccc(S(=O)(=O)[O-])c5F)c5ccc([nH]5)c(-c5cccc(S(=O)(=O)[O-])c5F)c5nc(c(-c6cccc(S(=O)(=O)[O-])c6F)c6ccc3[nH]6)C=C5)C=C4)cc2)C1
REMARK SMILES IDX 25 1 24 2 23 3 21 4 22 5 20 7 8 8 9 9 93 10 10 11 11 12 6 14
REMARK SMILES IDX 7 15 5 16 2 17 1 18 3 19 4 20 12 21 13 22 14 23 19 24 15 25
REMARK SMILES IDX 18 26 16 27 17 28 26 29 27 30 28 31 29 33 30 34 31 35 92 36
REMARK SMILES IDX 32 37 91 38 33 39 34 40 35 41 85 42 36 43 90 44 84 45 86 46
REMARK SMILES IDX 37 47 89 48 83 49 82 50 38 52 70 53 50 54 69 55 51 56 54 57
REMARK SMILES IDX 68 58 87 59 52 60 53 61 67 63 88 64 55 65 39 66 40 67 48 68
REMARK SMILES IDX 41 69 43 70 49 71 42 72 44 73 45 74 46 75 47 76 71 77 72 78
REMARK SMILES IDX 80 79 73 80 75 81 81 82 74 83 76 84 77 85 78 86 79 87 56 88
REMARK SMILES IDX 57 89 65 90 58 91 60 92 66 93 59 94 61 95 62 96 63 97 64 98
REMARK H PARENT 23 6 11 13 27 32 86 51 54 62
REMARK Flexibility Score: inf
ROOT
ATOM      1  C   UNL A   1      32.597  29.622  25.167  1.00  0.00     0.042 C 
ENDROOT
BRANCH   1   2
ATOM      2  C   UNL A   1      33.693  28.577  25.048  1.00  0.00     0.118 C 
BRANCH   2   3
ATOM      3  N   UNL A   1      33.971  28.135  23.689  1.00  0.00    -0.351 N 
ATOM      4  C   UNL A   1      33.437  27.075  23.005  1.00  0.00     0.280 C 
ATOM      5  O   UNL A   1      33.654  27.025  21.790  1.00  0.00    -0.268 OA
ATOM      6  H   UNL A   1      34.633  28.670  23.194  1.00  0.00     0.163 HD
BRANCH   4   7
ATOM      7  C   UNL A   1      32.667  25.958  23.736  1.00  0.00     0.294 C 
ATOM      8  N   UNL A   1      32.172  23.456  23.679  1.00  0.00    -0.296 N 
ATOM      9  C   UNL A   1      30.824  23.743  24.145  1.00  0.00     0.184 C 
ATOM     10  C   UNL A   1      33.001  24.557  23.155  1.00  0.00     0.198 C 
ATOM     11  C   UNL A   1      30.605  25.161  24.679  1.00  0.00     0.285 C 
ATOM     12  N   UNL A   1      31.215  26.225  23.880  1.00  0.00    -0.318 N 
ATOM     13  H   UNL A   1      31.166  27.108  24.386  1.00  0.00     0.349 HD
BRANCH   8  14
ATOM     14  C   UNL A   1      32.425  22.135  23.350  1.00  0.00     0.410 C 
ATOM     15  O   UNL A   1      32.535  21.758  22.185  1.00  0.00    -0.224 OA
BRANCH  14  16
ATOM     16  O   UNL A   1      32.456  21.310  24.426  1.00  0.00    -0.444 OA
BRANCH  16  17
ATOM     17  C   UNL A   1      33.732  20.950  25.026  1.00  0.00     0.106 C 
ATOM     18  C   UNL A   1      33.923  19.461  24.698  1.00  0.00     0.056 C 
ATOM     19  C   UNL A   1      33.660  21.127  26.545  1.00  0.00     0.056 C 
ATOM     20  C   UNL A   1      34.929  21.711  24.429  1.00  0.00     0.056 C 
ENDBRANCH  16  17
ENDBRANCH  14  16
ENDBRANCH   8  14
BRANCH  12  21
ATOM     21  C   UNL A   1      30.440  26.695  22.731  1.00  0.00     0.301 C 
BRANCH  21  22
ATOM     22  C   UNL A   1      29.763  28.033  22.780  1.00  0.00     0.025 A 
ATOM     23  C   UNL A   1      30.417  29.200  22.372  1.00  0.00     0.014 A 
ATOM     24  C   UNL A   1      28.426  28.148  23.158  1.00  0.00     0.122 A 
ATOM     25  C   UNL A   1      29.747  30.418  22.418  1.00  0.00     0.041 A 
ATOM     26  N   UNL A   1      27.745  29.313  23.195  1.00  0.00    -0.244 NA
ATOM     27  C   UNL A   1      28.428  30.416  22.835  1.00  0.00     0.129 A 
ATOM     28  Cl  UNL A   1      27.527  31.872  22.910  1.00  0.00    -0.062 Cl
ENDBRANCH  21  22
ENDBRANCH  12  21
ENDBRANCH   4   7
ENDBRANCH   2   3
ENDBRANCH   1   2
BRANCH   1  29
ATOM     29  C   UNL A   1      32.194  30.000  26.586  1.00  0.00     0.118 C 
BRANCH  29  30
ATOM     30  N   UNL A   1      32.109  31.436  26.836  1.00  0.00    -0.352 N 
ATOM     31  C   UNL A   1      33.019  32.323  27.370  1.00  0.00     0.251 C 
ATOM     32  H   UNL A   1      31.250  31.842  26.578  1.00  0.00     0.163 HD
ATOM     33  O   UNL A   1      32.684  33.492  27.550  1.00  0.00    -0.269 OA
BRANCH  31  34
ATOM     34  C   UNL A   1      34.370  31.874  27.776  1.00  0.00     0.039 A 
ATOM     35  C   UNL A   1      35.396  32.820  27.881  1.00  0.00     0.014 A 
ATOM     36  C   UNL A   1      34.630  30.541  28.082  1.00  0.00     0.014 A 
ATOM     37  C   UNL A   1      36.634  32.447  28.417  1.00  0.00     0.010 A 
ATOM     38  C   UNL A   1      35.813  30.199  28.727  1.00  0.00     0.010 A 
ATOM     39  C   UNL A   1      36.828  31.149  28.912  1.00  0.00    -0.014 A 
BRANCH  39  40
ATOM     40  C   UNL A   1      38.056  30.759  29.659  1.00  0.00     0.031 A 
ATOM     41  C   UNL A   1      39.024  29.769  29.065  1.00  0.00     0.074 A 
ATOM     42  C   UNL A   1      38.228  31.186  30.929  1.00  0.00     0.049 A 
ATOM     43  N   UNL A   1      40.059  29.191  29.620  1.00  0.00    -0.248 NA
ATOM     44  C   UNL A   1      38.770  29.334  27.680  1.00  0.00     0.031 C 
ATOM     45  C   UNL A   1      37.315  32.067  31.661  1.00  0.00     0.029 A 
ATOM     46  N   UNL A   1      39.214  30.905  31.843  1.00  0.00    -0.354 N 
ATOM     47  C   UNL A   1      40.540  28.287  28.679  1.00  0.00     0.074 A 
ATOM     48  C   UNL A   1      39.665  28.368  27.530  1.00  0.00     0.031 C 
ATOM     49  C   UNL A   1      37.785  32.261  32.903  1.00  0.00     0.029 A 
ATOM     50  C   UNL A   1      39.012  31.492  33.072  1.00  0.00     0.049 A 
ATOM     51  H   UNL A   1      39.993  30.338  31.639  1.00  0.00     0.167 HD
ATOM     52  C   UNL A   1      41.630  27.488  28.748  1.00  0.00     0.034 A 
ATOM     53  C   UNL A   1      39.729  31.415  34.212  1.00  0.00     0.034 A 
ATOM     54  C   UNL A   1      42.548  27.473  29.853  1.00  0.00     0.049 A 
ATOM     55  C   UNL A   1      40.986  30.589  34.229  1.00  0.00     0.074 A 
ATOM     56  C   UNL A   1      43.744  26.788  29.969  1.00  0.00     0.029 A 
ATOM     57  N   UNL A   1      42.377  28.182  31.032  1.00  0.00    -0.354 N 
ATOM     58  N   UNL A   1      41.511  29.867  33.269  1.00  0.00    -0.248 NA
ATOM     59  C   UNL A   1      41.768  30.591  35.474  1.00  0.00     0.031 C 
ATOM     60  C   UNL A   1      44.295  27.081  31.221  1.00  0.00     0.029 A 
ATOM     61  C   UNL A   1      43.446  27.954  31.880  1.00  0.00     0.049 A 
ATOM     62  H   UNL A   1      41.609  28.763  31.235  1.00  0.00     0.167 HD
ATOM     63  C   UNL A   1      42.698  29.358  33.780  1.00  0.00     0.074 A 
ATOM     64  C   UNL A   1      42.827  29.873  35.128  1.00  0.00     0.031 C 
ATOM     65  C   UNL A   1      43.591  28.523  33.194  1.00  0.00     0.034 A 
BRANCH  52  66
ATOM     66  C   UNL A   1      41.937  26.617  27.557  1.00  0.00     0.023 A 
ATOM     67  C   UNL A   1      42.606  27.174  26.448  1.00  0.00     0.012 A 
ATOM     68  C   UNL A   1      41.622  25.244  27.557  1.00  0.00     0.148 A 
ATOM     69  C   UNL A   1      42.926  26.388  25.342  1.00  0.00     0.002 A 
ATOM     70  C   UNL A   1      41.983  24.457  26.468  1.00  0.00     0.091 A 
ATOM     71  F   UNL A   1      40.967  24.737  28.611  1.00  0.00    -0.205 F 
ATOM     72  C   UNL A   1      42.624  25.029  25.357  1.00  0.00     0.022 A 
BRANCH  70  73
ATOM     73  S   UNL A   1      41.709  22.682  26.423  1.00  0.00     0.127 S 
ATOM     74  O   UNL A   1      42.394  22.310  25.185  1.00  0.00    -0.237 OA
ATOM     75  O   UNL A   1      42.375  22.235  27.647  1.00  0.00    -0.237 OA
ATOM     76  O   UNL A   1      40.264  22.501  26.418  1.00  0.00    -0.744 OA
ENDBRANCH  70  73
ENDBRANCH  52  66
BRANCH  53  77
ATOM     77  C   UNL A   1      39.317  32.206  35.407  1.00  0.00     0.023 A 
ATOM     78  C   UNL A   1      38.508  31.597  36.386  1.00  0.00     0.012 A 
ATOM     79  C   UNL A   1      39.742  33.535  35.599  1.00  0.00     0.148 A 
ATOM     80  C   UNL A   1      38.103  32.305  37.518  1.00  0.00     0.002 A 
ATOM     81  C   UNL A   1      39.381  34.217  36.755  1.00  0.00     0.091 A 
ATOM     82  F   UNL A   1      40.500  34.105  34.651  1.00  0.00    -0.205 F 
ATOM     83  C   UNL A   1      38.547  33.611  37.708  1.00  0.00     0.022 A 
BRANCH  81  84
ATOM     84  S   UNL A   1      40.025  35.850  37.142  1.00  0.00     0.127 S 
ATOM     85  O   UNL A   1      39.328  36.160  38.387  1.00  0.00    -0.237 OA
ATOM     86  O   UNL A   1      41.458  35.589  37.286  1.00  0.00    -0.237 OA
ATOM     87  O   UNL A   1      39.685  36.681  35.995  1.00  0.00    -0.744 OA
ENDBRANCH  81  84
ENDBRANCH  53  77
BRANCH  65  88
ATOM     88  C   UNL A   1      44.806  28.130  33.991  1.00  0.00     0.023 A 
ATOM     89  C   UNL A   1      45.944  28.960  33.979  1.00  0.00     0.012 A 
ATOM     90  C   UNL A   1      44.790  26.985  34.812  1.00  0.00     0.148 A 
ATOM     91  C   UNL A   1      47.059  28.642  34.753  1.00  0.00     0.002 A 
ATOM     92  C   UNL A   1      45.888  26.700  35.614  1.00  0.00     0.091 A 
ATOM     93  F   UNL A   1      43.706  26.197  34.792  1.00  0.00    -0.205 F 
ATOM     94  C   UNL A   1      47.027  27.521  35.578  1.00  0.00     0.022 A 
BRANCH  92  95
ATOM     95  S   UNL A   1      45.895  25.329  36.776  1.00  0.00     0.127 S 
ATOM     96  O   UNL A   1      45.794  24.179  35.879  1.00  0.00    -0.237 OA
ATOM     97  O   UNL A   1      47.195  25.478  37.430  1.00  0.00    -0.237 OA
ATOM     98  O   UNL A   1      44.752  25.546  37.653  1.00  0.00    -0.744 OA
ENDBRANCH  92  95
ENDBRANCH  65  88
ENDBRANCH  39  40
ENDBRANCH  31  34
ENDBRANCH  29  30
ENDBRANCH   1  29
TORSDOF 18
ENDMDL
