MODEL 1
REMARK VINA RESULT:     -14.5      0.000      0.000
REMARK SMILES Cc1ccc([C@@]23C[C@@H]4C[C@@H](C[C@@](C(=O)N5CCC(C(=O)NCCCNC(=O)c6ccc(-c7c8nc(c(-c9cccc(S(=O)(=O)[O-])c9F)c9ccc([nH]9)c(-c9cccc(S(=O)(=O)[O-])c9F)c9nc(c(-c%10cccc(S(=O)(=O)[O-])c%10F)c%10ccc7[nH]%10)C=C9)C=C8)cc6)CC5)(C4)C2)C3)cc1
REMARK SMILES IDX 23 1 22 2 21 3 19 4 20 5 18 7 13 8 14 9 15 10 16 11 92 12
REMARK SMILES IDX 17 13 91 14 12 15 6 16 7 17 94 18 95 19 8 20 10 21 9 22
REMARK SMILES IDX 93 23 11 24 5 25 1 26 2 27 3 28 97 29 4 30 96 31 24 32 25 33
REMARK SMILES IDX 26 34 27 36 28 37 29 38 90 39 30 40 89 41 31 42 32 43 33 44
REMARK SMILES IDX 83 45 34 46 88 47 82 48 84 49 35 50 87 51 81 52 80 53 36 55
REMARK SMILES IDX 68 56 48 57 67 58 49 59 52 60 66 61 85 62 50 63 51 64 65 66
REMARK SMILES IDX 86 67 53 68 37 69 38 70 46 71 39 72 41 73 47 74 40 75 42 76
REMARK SMILES IDX 43 77 44 78 45 79 69 80 70 81 78 82 71 83 73 84 79 85 72 86
REMARK SMILES IDX 74 87 75 88 76 89 77 90 54 91 55 92 63 93 56 94 58 95 64 96
REMARK SMILES IDX 57 97 59 98 60 99 61 100 62 101
REMARK H PARENT 21 6 25 35 84 54 52 65
REMARK Flexibility Score: inf
ROOT
ATOM      1  C   UNL A   1      33.228  29.505  25.809  1.00  0.00     0.042 C 
ENDROOT
BRANCH   1   2
ATOM      2  C   UNL A   1      32.022  28.813  25.195  1.00  0.00     0.117 C 
BRANCH   2   3
ATOM      3  N   UNL A   1      31.557  29.431  23.956  1.00  0.00    -0.356 N 
ATOM      4  C   UNL A   1      30.908  28.909  22.874  1.00  0.00     0.223 C 
ATOM      5  O   UNL A   1      30.575  29.670  21.964  1.00  0.00    -0.275 OA
ATOM      6  H   UNL A   1      31.744  30.395  23.889  1.00  0.00     0.163 HD
BRANCH   4   7
ATOM      7  C   UNL A   1      30.619  27.418  22.751  1.00  0.00     0.082 C 
ATOM      8  C   UNL A   1      32.320  24.911  25.357  1.00  0.00     0.228 C 
ATOM      9  O   UNL A   1      31.922  25.216  26.485  1.00  0.00    -0.274 OA
ATOM     10  N   UNL A   1      31.525  25.158  24.234  1.00  0.00    -0.342 N 
ATOM     11  C   UNL A   1      30.120  25.493  24.413  1.00  0.00     0.120 C 
ATOM     12  C   UNL A   1      31.929  25.232  22.832  1.00  0.00     0.120 C 
ATOM     13  C   UNL A   1      29.793  26.904  23.945  1.00  0.00     0.035 C 
ATOM     14  C   UNL A   1      31.911  26.677  22.386  1.00  0.00     0.035 C 
BRANCH   8  15
ATOM     15  C   UNL A   1      33.666  24.163  25.197  1.00  0.00     0.051 C 
ATOM     16  C   UNL A   1      34.561  21.765  24.900  1.00  0.00    -0.003 C 
ATOM     17  C   UNL A   1      35.285  22.302  23.628  1.00  0.00     0.015 C 
ATOM     18  C   UNL A   1      33.333  22.663  25.134  1.00  0.00     0.028 C 
ATOM     19  C   UNL A   1      35.489  21.959  26.126  1.00  0.00     0.015 C 
ATOM     20  C   UNL A   1      35.732  23.767  23.804  1.00  0.00    -0.009 C 
ATOM     21  C   UNL A   1      35.864  23.449  26.290  1.00  0.00    -0.009 C 
ATOM     22  C   UNL A   1      36.636  23.891  25.037  1.00  0.00     0.007 C 
ATOM     23  C   UNL A   1      34.503  24.663  24.004  1.00  0.00     0.020 C 
ATOM     24  C   UNL A   1      34.589  24.317  26.446  1.00  0.00     0.020 C 
BRANCH  16  25
ATOM     25  C   UNL A   1      34.137  20.296  24.720  1.00  0.00    -0.042 A 
ATOM     26  C   UNL A   1      32.942  16.129  24.471  1.00  0.00     0.044 C 
ATOM     27  C   UNL A   1      33.335  17.572  24.533  1.00  0.00    -0.051 A 
ATOM     28  C   UNL A   1      34.685  17.911  24.539  1.00  0.00     0.004 A 
ATOM     29  C   UNL A   1      32.386  18.596  24.600  1.00  0.00     0.004 A 
ATOM     30  C   UNL A   1      35.076  19.248  24.620  1.00  0.00     0.004 A 
ATOM     31  C   UNL A   1      32.781  19.937  24.688  1.00  0.00     0.004 A 
ENDBRANCH  16  25
ENDBRANCH   8  15
ENDBRANCH   4   7
ENDBRANCH   2   3
ENDBRANCH   1   2
BRANCH   1  32
ATOM     32  C   UNL A   1      33.043  29.866  27.265  1.00  0.00     0.118 C 
BRANCH  32  33
ATOM     33  N   UNL A   1      33.714  31.091  27.658  1.00  0.00    -0.352 N 
ATOM     34  C   UNL A   1      34.887  31.246  28.373  1.00  0.00     0.251 C 
ATOM     35  H   UNL A   1      33.273  31.926  27.377  1.00  0.00     0.163 HD
ATOM     36  O   UNL A   1      35.173  32.364  28.796  1.00  0.00    -0.269 OA
BRANCH  34  37
ATOM     37  C   UNL A   1      35.839  30.112  28.490  1.00  0.00     0.039 A 
ATOM     38  C   UNL A   1      36.113  29.628  29.775  1.00  0.00     0.014 A 
ATOM     39  C   UNL A   1      36.638  29.719  27.420  1.00  0.00     0.014 A 
ATOM     40  C   UNL A   1      37.331  29.007  30.030  1.00  0.00     0.010 A 
ATOM     41  C   UNL A   1      37.885  29.208  27.680  1.00  0.00     0.010 A 
ATOM     42  C   UNL A   1      38.254  28.927  28.997  1.00  0.00    -0.014 A 
BRANCH  42  43
ATOM     43  C   UNL A   1      39.652  28.582  29.150  1.00  0.00     0.031 A 
ATOM     44  C   UNL A   1      40.092  27.208  28.885  1.00  0.00     0.074 A 
ATOM     45  C   UNL A   1      40.538  29.597  29.236  1.00  0.00     0.049 A 
ATOM     46  N   UNL A   1      41.244  26.746  29.222  1.00  0.00    -0.248 NA
ATOM     47  C   UNL A   1      39.250  26.248  28.182  1.00  0.00     0.031 C 
ATOM     48  C   UNL A   1      41.964  29.568  28.943  1.00  0.00     0.029 A 
ATOM     49  N   UNL A   1      40.334  30.865  29.791  1.00  0.00    -0.354 N 
ATOM     50  C   UNL A   1      41.417  25.574  28.523  1.00  0.00     0.074 A 
ATOM     51  C   UNL A   1      40.122  25.261  27.962  1.00  0.00     0.031 C 
ATOM     52  C   UNL A   1      42.549  30.610  29.556  1.00  0.00     0.029 A 
ATOM     53  C   UNL A   1      41.545  31.202  30.423  1.00  0.00     0.049 A 
ATOM     54  H   UNL A   1      39.514  31.407  29.749  1.00  0.00     0.167 HD
ATOM     55  C   UNL A   1      42.677  25.092  28.332  1.00  0.00     0.034 A 
ATOM     56  C   UNL A   1      41.649  31.336  31.781  1.00  0.00     0.034 A 
ATOM     57  C   UNL A   1      43.683  25.957  28.967  1.00  0.00     0.049 A 
ATOM     58  C   UNL A   1      42.618  30.334  32.409  1.00  0.00     0.074 A 
ATOM     59  C   UNL A   1      44.541  26.944  28.506  1.00  0.00     0.029 A 
ATOM     60  N   UNL A   1      43.662  26.097  30.346  1.00  0.00    -0.354 N 
ATOM     61  N   UNL A   1      43.355  29.479  31.749  1.00  0.00    -0.248 NA
ATOM     62  C   UNL A   1      42.740  30.158  33.855  1.00  0.00     0.031 C 
ATOM     63  C   UNL A   1      45.018  27.689  29.628  1.00  0.00     0.029 A 
ATOM     64  C   UNL A   1      44.472  27.140  30.773  1.00  0.00     0.049 A 
ATOM     65  H   UNL A   1      43.135  25.526  30.951  1.00  0.00     0.167 HD
ATOM     66  C   UNL A   1      43.888  28.557  32.619  1.00  0.00     0.074 A 
ATOM     67  C   UNL A   1      43.497  29.052  33.931  1.00  0.00     0.031 C 
ATOM     68  C   UNL A   1      44.540  27.421  32.204  1.00  0.00     0.034 A 
BRANCH  55  69
ATOM     69  C   UNL A   1      42.979  24.043  27.283  1.00  0.00     0.023 A 
ATOM     70  C   UNL A   1      43.580  24.466  26.079  1.00  0.00     0.012 A 
ATOM     71  C   UNL A   1      42.646  22.671  27.370  1.00  0.00     0.148 A 
ATOM     72  C   UNL A   1      43.735  23.613  24.982  1.00  0.00     0.002 A 
ATOM     73  C   UNL A   1      42.722  21.840  26.249  1.00  0.00     0.091 A 
ATOM     74  F   UNL A   1      42.307  22.149  28.558  1.00  0.00    -0.205 F 
ATOM     75  C   UNL A   1      43.266  22.310  25.050  1.00  0.00     0.022 A 
BRANCH  73  76
ATOM     76  S   UNL A   1      41.993  20.191  26.225  1.00  0.00     0.127 S 
ATOM     77  O   UNL A   1      42.607  19.593  25.036  1.00  0.00    -0.237 OA
ATOM     78  O   UNL A   1      42.448  19.622  27.490  1.00  0.00    -0.237 OA
ATOM     79  O   UNL A   1      40.556  20.403  26.097  1.00  0.00    -0.744 OA
ENDBRANCH  73  76
ENDBRANCH  55  69
BRANCH  56  80
ATOM     80  C   UNL A   1      40.378  31.819  32.412  1.00  0.00     0.023 A 
ATOM     81  C   UNL A   1      39.310  30.891  32.497  1.00  0.00     0.012 A 
ATOM     82  C   UNL A   1      40.360  32.943  33.257  1.00  0.00     0.148 A 
ATOM     83  C   UNL A   1      38.358  30.986  33.515  1.00  0.00     0.002 A 
ATOM     84  C   UNL A   1      39.393  33.043  34.254  1.00  0.00     0.091 A 
ATOM     85  F   UNL A   1      41.329  33.858  33.138  1.00  0.00    -0.205 F 
ATOM     86  C   UNL A   1      38.427  32.039  34.421  1.00  0.00     0.022 A 
BRANCH  84  87
ATOM     87  S   UNL A   1      39.422  34.402  35.430  1.00  0.00     0.127 S 
ATOM     88  O   UNL A   1      39.145  35.542  34.562  1.00  0.00    -0.237 OA
ATOM     89  O   UNL A   1      38.342  34.054  36.352  1.00  0.00    -0.237 OA
ATOM     90  O   UNL A   1      40.751  34.345  36.021  1.00  0.00    -0.744 OA
ENDBRANCH  84  87
ENDBRANCH  56  80
BRANCH  68  91
ATOM     91  C   UNL A   1      45.228  26.418  33.128  1.00  0.00     0.023 A 
ATOM     92  C   UNL A   1      46.622  26.438  33.333  1.00  0.00     0.012 A 
ATOM     93  C   UNL A   1      44.528  25.346  33.751  1.00  0.00     0.148 A 
ATOM     94  C   UNL A   1      47.259  25.564  34.221  1.00  0.00     0.002 A 
ATOM     95  C   UNL A   1      45.166  24.456  34.612  1.00  0.00     0.091 A 
ATOM     96  F   UNL A   1      43.238  25.137  33.476  1.00  0.00    -0.205 F 
ATOM     97  C   UNL A   1      46.528  24.586  34.878  1.00  0.00     0.022 A 
BRANCH  95  98
ATOM     98  S   UNL A   1      44.308  23.079  35.392  1.00  0.00     0.127 S 
ATOM     99  O   UNL A   1      45.030  22.965  36.659  1.00  0.00    -0.237 OA
ATOM    100  O   UNL A   1      42.947  23.603  35.510  1.00  0.00    -0.237 OA
ATOM    101  O   UNL A   1      44.449  21.943  34.494  1.00  0.00    -0.744 OA
ENDBRANCH  95  98
ENDBRANCH  68  91
ENDBRANCH  42  43
ENDBRANCH  34  37
ENDBRANCH  32  33
ENDBRANCH   1  32
TORSDOF 15
ENDMDL
MODEL 2
REMARK VINA RESULT:     -14.1      1.746      2.106
REMARK SMILES Cc1ccc([C@@]23C[C@@H]4C[C@@H](C[C@@](C(=O)N5CCC(C(=O)NCCCNC(=O)c6ccc(-c7c8nc(c(-c9cccc(S(=O)(=O)[O-])c9F)c9ccc([nH]9)c(-c9cccc(S(=O)(=O)[O-])c9F)c9nc(c(-c%10cccc(S(=O)(=O)[O-])c%10F)c%10ccc7[nH]%10)C=C9)C=C8)cc6)CC5)(C4)C2)C3)cc1
REMARK SMILES IDX 23 1 22 2 21 3 19 4 20 5 18 7 13 8 14 9 15 10 16 11 92 12
REMARK SMILES IDX 17 13 91 14 12 15 6 16 7 17 94 18 95 19 8 20 10 21 9 22
REMARK SMILES IDX 93 23 11 24 5 25 1 26 2 27 3 28 97 29 4 30 96 31 24 32 25 33
REMARK SMILES IDX 26 34 27 36 28 37 29 38 90 39 30 40 89 41 31 42 32 43 33 44
REMARK SMILES IDX 83 45 34 46 88 47 82 48 84 49 35 50 87 51 81 52 80 53 36 55
REMARK SMILES IDX 68 56 48 57 67 58 49 59 52 60 66 61 85 62 50 63 51 64 65 66
REMARK SMILES IDX 86 67 53 68 37 69 38 70 46 71 39 72 41 73 47 74 40 75 42 76
REMARK SMILES IDX 43 77 44 78 45 79 69 80 70 81 78 82 71 83 73 84 79 85 72 86
REMARK SMILES IDX 74 87 75 88 76 89 77 90 54 91 55 92 63 93 56 94 58 95 64 96
REMARK SMILES IDX 57 97 59 98 60 99 61 100 62 101
REMARK H PARENT 21 6 25 35 84 54 52 65
REMARK Flexibility Score: inf
ROOT
ATOM      1  C   UNL A   1      32.809  30.084  27.259  1.00  0.00     0.042 C 
ENDROOT
BRANCH   1   2
ATOM      2  C   UNL A   1      32.489  28.906  26.355  1.00  0.00     0.117 C 
BRANCH   2   3
ATOM      3  N   UNL A   1      31.268  29.078  25.573  1.00  0.00    -0.356 N 
ATOM      4  C   UNL A   1      30.968  28.758  24.280  1.00  0.00     0.223 C 
ATOM      5  O   UNL A   1      29.825  28.965  23.871  1.00  0.00    -0.275 OA
ATOM      6  H   UNL A   1      30.527  29.499  26.066  1.00  0.00     0.163 HD
BRANCH   4   7
ATOM      7  C   UNL A   1      32.015  28.188  23.329  1.00  0.00     0.082 C 
ATOM      8  C   UNL A   1      32.790  24.269  23.453  1.00  0.00     0.228 C 
ATOM      9  O   UNL A   1      31.748  23.672  23.167  1.00  0.00    -0.274 OA
ATOM     10  N   UNL A   1      33.032  25.552  22.951  1.00  0.00    -0.342 N 
ATOM     11  C   UNL A   1      32.210  26.060  21.863  1.00  0.00     0.120 C 
ATOM     12  C   UNL A   1      33.972  26.557  23.440  1.00  0.00     0.120 C 
ATOM     13  C   UNL A   1      31.375  27.264  22.276  1.00  0.00     0.035 C 
ATOM     14  C   UNL A   1      33.204  27.657  24.139  1.00  0.00     0.035 C 
BRANCH   8  15
ATOM     15  C   UNL A   1      33.877  23.555  24.292  1.00  0.00     0.051 C 
ATOM     16  C   UNL A   1      34.499  21.189  25.102  1.00  0.00    -0.003 C 
ATOM     17  C   UNL A   1      35.888  21.439  24.441  1.00  0.00     0.015 C 
ATOM     18  C   UNL A   1      33.480  22.071  24.359  1.00  0.00     0.028 C 
ATOM     19  C   UNL A   1      34.539  21.700  26.565  1.00  0.00     0.015 C 
ATOM     20  C   UNL A   1      36.306  22.920  24.538  1.00  0.00    -0.009 C 
ATOM     21  C   UNL A   1      34.909  23.199  26.604  1.00  0.00    -0.009 C 
ATOM     22  C   UNL A   1      36.315  23.363  26.006  1.00  0.00     0.007 C 
ATOM     23  C   UNL A   1      35.306  23.791  23.768  1.00  0.00     0.020 C 
ATOM     24  C   UNL A   1      33.895  24.032  25.779  1.00  0.00     0.020 C 
BRANCH  16  25
ATOM     25  C   UNL A   1      34.101  19.705  25.017  1.00  0.00    -0.042 A 
ATOM     26  C   UNL A   1      33.070  15.486  25.017  1.00  0.00     0.044 C 
ATOM     27  C   UNL A   1      33.400  16.946  25.001  1.00  0.00    -0.051 A 
ATOM     28  C   UNL A   1      34.654  17.357  24.559  1.00  0.00     0.004 A 
ATOM     29  C   UNL A   1      32.489  17.915  25.431  1.00  0.00     0.004 A 
ATOM     30  C   UNL A   1      34.992  18.712  24.558  1.00  0.00     0.004 A 
ATOM     31  C   UNL A   1      32.834  19.274  25.435  1.00  0.00     0.004 A 
ENDBRANCH  16  25
ENDBRANCH   8  15
ENDBRANCH   4   7
ENDBRANCH   2   3
ENDBRANCH   1   2
BRANCH   1  32
ATOM     32  C   UNL A   1      34.070  30.822  26.870  1.00  0.00     0.118 C 
BRANCH  32  33
ATOM     33  N   UNL A   1      34.604  31.668  27.920  1.00  0.00    -0.352 N 
ATOM     34  C   UNL A   1      35.513  31.349  28.913  1.00  0.00     0.251 C 
ATOM     35  H   UNL A   1      34.274  32.596  27.929  1.00  0.00     0.163 HD
ATOM     36  O   UNL A   1      35.671  32.138  29.841  1.00  0.00    -0.269 OA
BRANCH  34  37
ATOM     37  C   UNL A   1      36.378  30.149  28.767  1.00  0.00     0.039 A 
ATOM     38  C   UNL A   1      36.604  29.373  29.910  1.00  0.00     0.014 A 
ATOM     39  C   UNL A   1      37.155  29.946  27.631  1.00  0.00     0.014 A 
ATOM     40  C   UNL A   1      37.770  28.622  30.012  1.00  0.00     0.010 A 
ATOM     41  C   UNL A   1      38.358  29.299  27.761  1.00  0.00     0.010 A 
ATOM     42  C   UNL A   1      38.694  28.706  28.979  1.00  0.00    -0.014 A 
BRANCH  42  43
ATOM     43  C   UNL A   1      40.061  28.233  29.040  1.00  0.00     0.031 A 
ATOM     44  C   UNL A   1      40.341  26.803  28.876  1.00  0.00     0.074 A 
ATOM     45  C   UNL A   1      41.044  29.155  28.946  1.00  0.00     0.049 A 
ATOM     46  N   UNL A   1      41.472  26.256  29.153  1.00  0.00    -0.248 NA
ATOM     47  C   UNL A   1      39.346  25.876  28.350  1.00  0.00     0.031 C 
ATOM     48  C   UNL A   1      42.425  28.952  28.531  1.00  0.00     0.029 A 
ATOM     49  N   UNL A   1      41.017  30.482  29.387  1.00  0.00    -0.354 N 
ATOM     50  C   UNL A   1      41.463  25.014  28.563  1.00  0.00     0.074 A 
ATOM     51  C   UNL A   1      40.096  24.787  28.153  1.00  0.00     0.031 C 
ATOM     52  C   UNL A   1      43.163  29.978  28.982  1.00  0.00     0.029 A 
ATOM     53  C   UNL A   1      42.310  30.748  29.872  1.00  0.00     0.049 A 
ATOM     54  H   UNL A   1      40.251  31.100  29.364  1.00  0.00     0.167 HD
ATOM     55  C   UNL A   1      42.646  24.389  28.309  1.00  0.00     0.034 A 
ATOM     56  C   UNL A   1      42.560  30.992  31.195  1.00  0.00     0.034 A 
ATOM     57  C   UNL A   1      43.788  25.199  28.763  1.00  0.00     0.049 A 
ATOM     58  C   UNL A   1      43.486  29.956  31.831  1.00  0.00     0.074 A 
ATOM     59  C   UNL A   1      44.686  26.046  28.131  1.00  0.00     0.029 A 
ATOM     60  N   UNL A   1      43.916  25.464  30.118  1.00  0.00    -0.354 N 
ATOM     61  N   UNL A   1      44.071  28.974  31.197  1.00  0.00    -0.248 NA
ATOM     62  C   UNL A   1      43.733  29.900  33.271  1.00  0.00     0.031 C 
ATOM     63  C   UNL A   1      45.339  26.835  29.125  1.00  0.00     0.029 A 
ATOM     64  C   UNL A   1      44.860  26.453  30.364  1.00  0.00     0.049 A 
ATOM     65  H   UNL A   1      43.400  25.008  30.820  1.00  0.00     0.167 HD
ATOM     66  C   UNL A   1      44.598  28.084  32.104  1.00  0.00     0.074 A 
ATOM     67  C   UNL A   1      44.386  28.733  33.389  1.00  0.00     0.031 C 
ATOM     68  C   UNL A   1      45.094  26.853  31.748  1.00  0.00     0.034 A 
BRANCH  55  69
ATOM     69  C   UNL A   1      42.744  23.224  27.347  1.00  0.00     0.023 A 
ATOM     70  C   UNL A   1      41.989  22.067  27.632  1.00  0.00     0.012 A 
ATOM     71  C   UNL A   1      43.588  23.160  26.214  1.00  0.00     0.148 A 
ATOM     72  C   UNL A   1      42.144  20.878  26.912  1.00  0.00     0.002 A 
ATOM     73  C   UNL A   1      43.807  21.951  25.548  1.00  0.00     0.091 A 
ATOM     74  F   UNL A   1      44.141  24.286  25.739  1.00  0.00    -0.205 F 
ATOM     75  C   UNL A   1      43.086  20.805  25.896  1.00  0.00     0.022 A 
BRANCH  73  76
ATOM     76  S   UNL A   1      45.120  21.751  24.328  1.00  0.00     0.127 S 
ATOM     77  O   UNL A   1      46.324  21.729  25.164  1.00  0.00    -0.237 OA
ATOM     78  O   UNL A   1      44.790  20.470  23.710  1.00  0.00    -0.237 OA
ATOM     79  O   UNL A   1      45.029  22.922  23.464  1.00  0.00    -0.744 OA
ENDBRANCH  73  76
ENDBRANCH  55  69
BRANCH  56  80
ATOM     80  C   UNL A   1      41.408  31.660  31.885  1.00  0.00     0.023 A 
ATOM     81  C   UNL A   1      41.034  32.942  31.412  1.00  0.00     0.012 A 
ATOM     82  C   UNL A   1      40.477  30.922  32.637  1.00  0.00     0.148 A 
ATOM     83  C   UNL A   1      39.716  33.392  31.530  1.00  0.00     0.002 A 
ATOM     84  C   UNL A   1      39.171  31.389  32.770  1.00  0.00     0.091 A 
ATOM     85  F   UNL A   1      40.844  29.739  33.142  1.00  0.00    -0.205 F 
ATOM     86  C   UNL A   1      38.774  32.594  32.170  1.00  0.00     0.022 A 
BRANCH  84  87
ATOM     87  S   UNL A   1      37.925  30.407  33.616  1.00  0.00     0.127 S 
ATOM     88  O   UNL A   1      36.694  31.036  33.150  1.00  0.00    -0.237 OA
ATOM     89  O   UNL A   1      38.166  29.063  33.092  1.00  0.00    -0.237 OA
ATOM     90  O   UNL A   1      38.237  30.560  35.030  1.00  0.00    -0.744 OA
ENDBRANCH  84  87
ENDBRANCH  56  80
BRANCH  68  91
ATOM     91  C   UNL A   1      45.773  25.872  32.702  1.00  0.00     0.023 A 
ATOM     92  C   UNL A   1      47.176  25.774  32.787  1.00  0.00     0.012 A 
ATOM     93  C   UNL A   1      45.040  24.932  33.481  1.00  0.00     0.148 A 
ATOM     94  C   UNL A   1      47.811  24.922  33.699  1.00  0.00     0.002 A 
ATOM     95  C   UNL A   1      45.672  24.062  34.367  1.00  0.00     0.091 A 
ATOM     96  F   UNL A   1      43.716  24.826  33.336  1.00  0.00    -0.205 F 
ATOM     97  C   UNL A   1      47.059  24.081  34.505  1.00  0.00     0.022 A 
BRANCH  95  98
ATOM     98  S   UNL A   1      44.770  22.848  35.342  1.00  0.00     0.127 S 
ATOM     99  O   UNL A   1      44.832  21.672  34.475  1.00  0.00    -0.237 OA
ATOM    100  O   UNL A   1      45.594  22.761  36.548  1.00  0.00    -0.237 OA
ATOM    101  O   UNL A   1      43.438  23.393  35.552  1.00  0.00    -0.744 OA
ENDBRANCH  95  98
ENDBRANCH  68  91
ENDBRANCH  42  43
ENDBRANCH  34  37
ENDBRANCH  32  33
ENDBRANCH   1  32
TORSDOF 15
ENDMDL
MODEL 3
REMARK VINA RESULT:     -14.0      3.826      9.646
REMARK SMILES Cc1ccc([C@@]23C[C@@H]4C[C@@H](C[C@@](C(=O)N5CCC(C(=O)NCCCNC(=O)c6ccc(-c7c8nc(c(-c9cccc(S(=O)(=O)[O-])c9F)c9ccc([nH]9)c(-c9cccc(S(=O)(=O)[O-])c9F)c9nc(c(-c%10cccc(S(=O)(=O)[O-])c%10F)c%10ccc7[nH]%10)C=C9)C=C8)cc6)CC5)(C4)C2)C3)cc1
REMARK SMILES IDX 23 1 22 2 21 3 19 4 20 5 18 7 13 8 14 9 15 10 16 11 92 12
REMARK SMILES IDX 17 13 91 14 12 15 6 16 7 17 94 18 95 19 8 20 10 21 9 22
REMARK SMILES IDX 93 23 11 24 5 25 1 26 2 27 3 28 97 29 4 30 96 31 24 32 25 33
REMARK SMILES IDX 26 34 27 36 28 37 29 38 90 39 30 40 89 41 31 42 32 43 33 44
REMARK SMILES IDX 83 45 34 46 88 47 82 48 84 49 35 50 87 51 81 52 80 53 36 55
REMARK SMILES IDX 68 56 48 57 67 58 49 59 52 60 66 61 85 62 50 63 51 64 65 66
REMARK SMILES IDX 86 67 53 68 37 69 38 70 46 71 39 72 41 73 47 74 40 75 42 76
REMARK SMILES IDX 43 77 44 78 45 79 69 80 70 81 78 82 71 83 73 84 79 85 72 86
REMARK SMILES IDX 74 87 75 88 76 89 77 90 54 91 55 92 63 93 56 94 58 95 64 96
REMARK SMILES IDX 57 97 59 98 60 99 61 100 62 101
REMARK H PARENT 21 6 25 35 84 54 52 65
REMARK Flexibility Score: inf
ROOT
ATOM      1  C   UNL A   1      37.004  21.634  24.628  1.00  0.00     0.042 C 
ENDROOT
BRANCH   1   2
ATOM      2  C   UNL A   1      35.502  21.420  24.700  1.00  0.00     0.117 C 
BRANCH   2   3
ATOM      3  N   UNL A   1      35.117  20.044  25.002  1.00  0.00    -0.356 N 
ATOM      4  C   UNL A   1      33.921  19.393  24.889  1.00  0.00     0.223 C 
ATOM      5  O   UNL A   1      33.875  18.194  25.166  1.00  0.00    -0.275 OA
ATOM      6  H   UNL A   1      35.849  19.485  25.348  1.00  0.00     0.163 HD
BRANCH   4   7
ATOM      7  C   UNL A   1      32.649  20.117  24.464  1.00  0.00     0.082 C 
ATOM      8  C   UNL A   1      32.918  23.906  23.221  1.00  0.00     0.228 C 
ATOM      9  O   UNL A   1      33.637  23.921  22.218  1.00  0.00    -0.274 OA
ATOM     10  N   UNL A   1      32.166  22.770  23.538  1.00  0.00    -0.342 N 
ATOM     11  C   UNL A   1      31.997  21.725  22.539  1.00  0.00     0.120 C 
ATOM     12  C   UNL A   1      31.572  22.401  24.820  1.00  0.00     0.120 C 
ATOM     13  C   UNL A   1      32.646  20.411  22.952  1.00  0.00     0.035 C 
ATOM     14  C   UNL A   1      32.373  21.274  25.433  1.00  0.00     0.035 C 
BRANCH   8  15
ATOM     15  C   UNL A   1      32.773  25.186  24.079  1.00  0.00     0.051 C 
ATOM     16  C   UNL A   1      31.565  27.462  24.030  1.00  0.00    -0.003 C 
ATOM     17  C   UNL A   1      30.986  27.069  25.423  1.00  0.00     0.015 C 
ATOM     18  C   UNL A   1      31.878  26.151  23.285  1.00  0.00     0.028 C 
ATOM     19  C   UNL A   1      32.920  28.186  24.234  1.00  0.00     0.015 C 
ATOM     20  C   UNL A   1      31.988  26.228  26.238  1.00  0.00    -0.009 C 
ATOM     21  C   UNL A   1      33.905  27.282  25.008  1.00  0.00    -0.009 C 
ATOM     22  C   UNL A   1      33.307  26.996  26.395  1.00  0.00     0.007 C 
ATOM     23  C   UNL A   1      32.271  24.909  25.509  1.00  0.00     0.020 C 
ATOM     24  C   UNL A   1      34.126  25.946  24.253  1.00  0.00     0.020 C 
BRANCH  16  25
ATOM     25  C   UNL A   1      30.565  28.318  23.232  1.00  0.00    -0.042 A 
ATOM     26  C   UNL A   1      27.716  30.882  21.191  1.00  0.00     0.044 C 
ATOM     27  C   UNL A   1      28.714  29.995  21.868  1.00  0.00    -0.051 A 
ATOM     28  C   UNL A   1      28.267  28.890  22.587  1.00  0.00     0.004 A 
ATOM     29  C   UNL A   1      30.087  30.249  21.814  1.00  0.00     0.004 A 
ATOM     30  C   UNL A   1      29.177  28.063  23.247  1.00  0.00     0.004 A 
ATOM     31  C   UNL A   1      30.999  29.421  22.482  1.00  0.00     0.004 A 
ENDBRANCH  16  25
ENDBRANCH   8  15
ENDBRANCH   4   7
ENDBRANCH   2   3
ENDBRANCH   1   2
BRANCH   1  32
ATOM     32  C   UNL A   1      37.514  22.683  25.590  1.00  0.00     0.118 C 
BRANCH  32  33
ATOM     33  N   UNL A   1      38.748  22.317  26.260  1.00  0.00    -0.352 N 
ATOM     34  C   UNL A   1      39.760  23.138  26.722  1.00  0.00     0.251 C 
ATOM     35  H   UNL A   1      38.883  21.352  26.404  1.00  0.00     0.163 HD
ATOM     36  O   UNL A   1      40.824  22.625  27.060  1.00  0.00    -0.269 OA
BRANCH  34  37
ATOM     37  C   UNL A   1      39.499  24.584  26.938  1.00  0.00     0.039 A 
ATOM     38  C   UNL A   1      40.390  25.495  26.358  1.00  0.00     0.014 A 
ATOM     39  C   UNL A   1      38.587  25.025  27.892  1.00  0.00     0.014 A 
ATOM     40  C   UNL A   1      40.563  26.750  26.933  1.00  0.00     0.010 A 
ATOM     41  C   UNL A   1      38.826  26.214  28.534  1.00  0.00     0.010 A 
ATOM     42  C   UNL A   1      39.866  27.036  28.098  1.00  0.00    -0.014 A 
BRANCH  42  43
ATOM     43  C   UNL A   1      40.132  28.156  28.977  1.00  0.00     0.031 A 
ATOM     44  C   UNL A   1      39.287  29.352  28.904  1.00  0.00     0.074 A 
ATOM     45  C   UNL A   1      40.951  27.940  30.030  1.00  0.00     0.049 A 
ATOM     46  N   UNL A   1      39.583  30.475  29.456  1.00  0.00    -0.248 NA
ATOM     47  C   UNL A   1      38.007  29.352  28.206  1.00  0.00     0.031 C 
ATOM     48  C   UNL A   1      41.030  28.695  31.272  1.00  0.00     0.029 A 
ATOM     49  N   UNL A   1      42.031  27.055  30.105  1.00  0.00    -0.354 N 
ATOM     50  C   UNL A   1      38.430  31.225  29.464  1.00  0.00     0.074 A 
ATOM     51  C   UNL A   1      37.505  30.525  28.601  1.00  0.00     0.031 C 
ATOM     52  C   UNL A   1      42.221  28.456  31.845  1.00  0.00     0.029 A 
ATOM     53  C   UNL A   1      43.007  27.710  30.877  1.00  0.00     0.049 A 
ATOM     54  H   UNL A   1      42.095  26.159  29.701  1.00  0.00     0.167 HD
ATOM     55  C   UNL A   1      38.311  32.255  30.347  1.00  0.00     0.034 A 
ATOM     56  C   UNL A   1      44.207  28.110  30.354  1.00  0.00     0.034 A 
ATOM     57  C   UNL A   1      39.524  32.399  31.167  1.00  0.00     0.049 A 
ATOM     58  C   UNL A   1      44.409  29.624  30.407  1.00  0.00     0.074 A 
ATOM     59  C   UNL A   1      39.876  32.012  32.451  1.00  0.00     0.029 A 
ATOM     60  N   UNL A   1      40.715  32.728  30.538  1.00  0.00    -0.354 N 
ATOM     61  N   UNL A   1      43.589  30.478  30.963  1.00  0.00    -0.248 NA
ATOM     62  C   UNL A   1      45.519  30.294  29.733  1.00  0.00     0.031 C 
ATOM     63  C   UNL A   1      41.296  32.095  32.575  1.00  0.00     0.029 A 
ATOM     64  C   UNL A   1      41.808  32.558  31.378  1.00  0.00     0.049 A 
ATOM     65  H   UNL A   1      40.779  33.044  29.609  1.00  0.00     0.167 HD
ATOM     66  C   UNL A   1      43.928  31.758  30.591  1.00  0.00     0.074 A 
ATOM     67  C   UNL A   1      45.168  31.585  29.847  1.00  0.00     0.031 C 
ATOM     68  C   UNL A   1      43.136  32.850  30.849  1.00  0.00     0.034 A 
BRANCH  55  69
ATOM     69  C   UNL A   1      36.970  32.875  30.675  1.00  0.00     0.023 A 
ATOM     70  C   UNL A   1      36.412  32.613  31.943  1.00  0.00     0.012 A 
ATOM     71  C   UNL A   1      36.179  33.644  29.788  1.00  0.00     0.148 A 
ATOM     72  C   UNL A   1      35.107  32.986  32.277  1.00  0.00     0.002 A 
ATOM     73  C   UNL A   1      34.847  33.943  30.087  1.00  0.00     0.091 A 
ATOM     74  F   UNL A   1      36.733  34.140  28.672  1.00  0.00    -0.205 F 
ATOM     75  C   UNL A   1      34.307  33.613  31.333  1.00  0.00     0.022 A 
BRANCH  73  76
ATOM     76  S   UNL A   1      33.714  34.615  28.856  1.00  0.00     0.127 S 
ATOM     77  O   UNL A   1      34.469  35.754  28.325  1.00  0.00    -0.237 OA
ATOM     78  O   UNL A   1      33.562  33.504  27.922  1.00  0.00    -0.237 OA
ATOM     79  O   UNL A   1      32.519  35.000  29.597  1.00  0.00    -0.744 OA
ENDBRANCH  73  76
ENDBRANCH  55  69
BRANCH  56  80
ATOM     80  C   UNL A   1      44.681  27.214  29.249  1.00  0.00     0.023 A 
ATOM     81  C   UNL A   1      44.928  25.859  29.583  1.00  0.00     0.012 A 
ATOM     82  C   UNL A   1      44.479  27.547  27.898  1.00  0.00     0.148 A 
ATOM     83  C   UNL A   1      44.795  24.850  28.626  1.00  0.00     0.002 A 
ATOM     84  C   UNL A   1      44.372  26.536  26.945  1.00  0.00     0.091 A 
ATOM     85  F   UNL A   1      44.311  28.832  27.566  1.00  0.00    -0.205 F 
ATOM     86  C   UNL A   1      44.473  25.187  27.316  1.00  0.00     0.022 A 
BRANCH  84  87
ATOM     87  S   UNL A   1      43.987  26.925  25.233  1.00  0.00     0.127 S 
ATOM     88  O   UNL A   1      45.305  27.271  24.711  1.00  0.00    -0.237 OA
ATOM     89  O   UNL A   1      43.440  25.665  24.733  1.00  0.00    -0.237 OA
ATOM     90  O   UNL A   1      43.017  28.007  25.312  1.00  0.00    -0.744 OA
ENDBRANCH  84  87
ENDBRANCH  56  80
BRANCH  68  91
ATOM     91  C   UNL A   1      43.513  34.298  30.540  1.00  0.00     0.023 A 
ATOM     92  C   UNL A   1      43.789  35.225  31.565  1.00  0.00     0.012 A 
ATOM     93  C   UNL A   1      43.508  34.825  29.218  1.00  0.00     0.148 A 
ATOM     94  C   UNL A   1      44.192  36.538  31.297  1.00  0.00     0.002 A 
ATOM     95  C   UNL A   1      43.880  36.140  28.950  1.00  0.00     0.091 A 
ATOM     96  F   UNL A   1      43.088  34.072  28.196  1.00  0.00    -0.205 F 
ATOM     97  C   UNL A   1      44.259  36.991  29.988  1.00  0.00     0.022 A 
BRANCH  95  98
ATOM     98  S   UNL A   1      43.857  36.835  27.290  1.00  0.00     0.127 S 
ATOM     99  O   UNL A   1      44.721  35.900  26.570  1.00  0.00    -0.237 OA
ATOM    100  O   UNL A   1      42.438  36.743  26.947  1.00  0.00    -0.237 OA
ATOM    101  O   UNL A   1      44.370  38.192  27.403  1.00  0.00    -0.744 OA
ENDBRANCH  95  98
ENDBRANCH  68  91
ENDBRANCH  42  43
ENDBRANCH  34  37
ENDBRANCH  32  33
ENDBRANCH   1  32
TORSDOF 15
ENDMDL
