MODEL 1
REMARK VINA RESULT:     -13.0      0.000      0.000
REMARK SMILES O=C(NCCCNC(=O)[C@@H]1C=C[C@H](NC(=O)[C@@H]2Cc3ccccc3O2)C1)c1ccc(-c2c3nc(c(-c4cccc(S(=O)(=O)[O-])c4F)c4ccc([nH]4)c(-c4cccc(S(=O)(=O)[O-])c4F)c4nc(c(-c5cccc(S(=O)(=O)[O-])c5F)c5ccc2[nH]5)C=C4)C=C3)cc1
REMARK SMILES IDX 4 1 3 2 1 3 2 4 27 6 28 7 89 8 29 9 88 10 30 11 31 12 32 13
REMARK SMILES IDX 82 14 33 15 87 16 81 17 83 18 34 19 86 20 80 21 79 22 35 24
REMARK SMILES IDX 67 25 47 26 66 27 48 28 51 29 65 30 84 31 49 32 50 33 64 35
REMARK SMILES IDX 85 36 52 37 36 38 37 39 45 40 38 41 40 42 46 43 39 44 41 45
REMARK SMILES IDX 42 46 43 47 44 48 68 49 69 50 77 51 70 52 72 53 78 54 71 55
REMARK SMILES IDX 73 56 74 57 75 58 76 59 53 60 54 61 62 62 55 63 57 64 63 65
REMARK SMILES IDX 56 66 58 67 59 68 60 69 61 70 5 71 6 72 7 73 8 74 9 76 10 77
REMARK SMILES IDX 11 78 26 79 12 80 13 81 14 82 15 83 16 85 17 86 18 87 25 88
REMARK SMILES IDX 19 89 24 90 20 91 23 92 21 93 22 94
REMARK H PARENT 3 5 83 23 51 34 7 75 14 84
REMARK Flexibility Score: inf
ROOT
ATOM      1  C   UNL A   1      32.598  32.500  27.226  1.00  0.00     0.118 C 
ENDROOT
BRANCH   1   2
ATOM      2  N   UNL A   1      32.437  33.878  27.651  1.00  0.00    -0.352 N 
ATOM      3  O   UNL A   1      32.737  35.736  28.865  1.00  0.00    -0.269 OA
ATOM      4  C   UNL A   1      33.143  34.618  28.566  1.00  0.00     0.251 C 
ATOM      5  H   UNL A   1      31.702  34.362  27.210  1.00  0.00     0.163 HD
BRANCH   4   6
ATOM      6  C   UNL A   1      34.363  34.077  29.206  1.00  0.00     0.039 A 
ATOM      7  C   UNL A   1      35.641  34.427  28.758  1.00  0.00     0.014 A 
ATOM      8  C   UNL A   1      34.217  33.252  30.324  1.00  0.00     0.014 A 
ATOM      9  C   UNL A   1      36.769  33.869  29.364  1.00  0.00     0.010 A 
ATOM     10  C   UNL A   1      35.347  32.734  30.959  1.00  0.00     0.010 A 
ATOM     11  C   UNL A   1      36.632  33.014  30.468  1.00  0.00    -0.014 A 
BRANCH  11  12
ATOM     12  C   UNL A   1      37.823  32.427  31.136  1.00  0.00     0.031 A 
ATOM     13  C   UNL A   1      38.546  31.262  30.519  1.00  0.00     0.074 A 
ATOM     14  C   UNL A   1      38.212  32.896  32.338  1.00  0.00     0.049 A 
ATOM     15  N   UNL A   1      39.539  30.559  30.995  1.00  0.00    -0.248 NA
ATOM     16  C   UNL A   1      38.078  30.821  29.194  1.00  0.00     0.031 C 
ATOM     17  C   UNL A   1      37.570  33.998  33.057  1.00  0.00     0.029 A 
ATOM     18  N   UNL A   1      39.212  32.482  33.182  1.00  0.00    -0.354 N 
ATOM     19  C   UNL A   1      39.790  29.566  30.055  1.00  0.00     0.074 A 
ATOM     20  C   UNL A   1      38.836  29.754  28.982  1.00  0.00     0.031 C 
ATOM     21  C   UNL A   1      38.179  34.159  34.243  1.00  0.00     0.029 A 
ATOM     22  C   UNL A   1      39.222  33.147  34.385  1.00  0.00     0.049 A 
ATOM     23  H   UNL A   1      39.858  31.777  32.948  1.00  0.00     0.167 HD
ATOM     24  C   UNL A   1      40.735  28.595  30.077  1.00  0.00     0.034 A 
ATOM     25  C   UNL A   1      39.961  32.946  35.493  1.00  0.00     0.034 A 
ATOM     26  C   UNL A   1      41.693  28.425  31.137  1.00  0.00     0.049 A 
ATOM     27  C   UNL A   1      41.006  31.865  35.495  1.00  0.00     0.074 A 
ATOM     28  C   UNL A   1      42.733  27.515  31.218  1.00  0.00     0.029 A 
ATOM     29  N   UNL A   1      41.719  29.167  32.308  1.00  0.00    -0.354 N 
ATOM     30  N   UNL A   1      41.314  31.017  34.545  1.00  0.00    -0.248 NA
ATOM     31  C   UNL A   1      41.826  31.732  36.708  1.00  0.00     0.031 C 
ATOM     32  C   UNL A   1      43.366  27.684  32.454  1.00  0.00     0.029 A 
ATOM     33  C   UNL A   1      42.747  28.727  33.125  1.00  0.00     0.049 A 
ATOM     34  H   UNL A   1      41.098  29.898  32.527  1.00  0.00     0.167 HD
ATOM     35  C   UNL A   1      42.390  30.279  35.025  1.00  0.00     0.074 A 
ATOM     36  C   UNL A   1      42.683  30.783  36.351  1.00  0.00     0.031 C 
ATOM     37  C   UNL A   1      43.068  29.272  34.421  1.00  0.00     0.034 A 
BRANCH  24  38
ATOM     38  C   UNL A   1      40.790  27.646  28.906  1.00  0.00     0.023 A 
ATOM     39  C   UNL A   1      39.856  26.592  28.814  1.00  0.00     0.012 A 
ATOM     40  C   UNL A   1      41.736  27.818  27.877  1.00  0.00     0.148 A 
ATOM     41  C   UNL A   1      39.892  25.702  27.742  1.00  0.00     0.002 A 
ATOM     42  C   UNL A   1      41.735  26.954  26.788  1.00  0.00     0.091 A 
ATOM     43  F   UNL A   1      42.629  28.812  27.987  1.00  0.00    -0.205 F 
ATOM     44  C   UNL A   1      40.825  25.888  26.725  1.00  0.00     0.022 A 
BRANCH  42  45
ATOM     45  S   UNL A   1      42.846  27.163  25.391  1.00  0.00     0.127 S 
ATOM     46  O   UNL A   1      42.684  25.888  24.693  1.00  0.00    -0.237 OA
ATOM     47  O   UNL A   1      42.263  28.313  24.699  1.00  0.00    -0.237 OA
ATOM     48  O   UNL A   1      44.164  27.405  25.961  1.00  0.00    -0.744 OA
ENDBRANCH  42  45
ENDBRANCH  24  38
BRANCH  25  49
ATOM     49  C   UNL A   1      39.755  33.826  36.677  1.00  0.00     0.023 A 
ATOM     50  C   UNL A   1      40.107  35.187  36.600  1.00  0.00     0.012 A 
ATOM     51  C   UNL A   1      39.151  33.335  37.852  1.00  0.00     0.148 A 
ATOM     52  C   UNL A   1      39.876  36.041  37.680  1.00  0.00     0.002 A 
ATOM     53  C   UNL A   1      38.874  34.202  38.901  1.00  0.00     0.091 A 
ATOM     54  F   UNL A   1      38.832  32.034  37.904  1.00  0.00    -0.205 F 
ATOM     55  C   UNL A   1      39.251  35.552  38.824  1.00  0.00     0.022 A 
BRANCH  53  56
ATOM     56  S   UNL A   1      37.954  33.696  40.359  1.00  0.00     0.127 S 
ATOM     57  O   UNL A   1      36.738  33.144  39.767  1.00  0.00    -0.237 OA
ATOM     58  O   UNL A   1      38.855  32.707  40.951  1.00  0.00    -0.237 OA
ATOM     59  O   UNL A   1      37.774  34.903  41.154  1.00  0.00    -0.744 OA
ENDBRANCH  53  56
ENDBRANCH  25  49
BRANCH  37  60
ATOM     60  C   UNL A   1      44.242  28.673  35.151  1.00  0.00     0.023 A 
ATOM     61  C   UNL A   1      45.540  29.174  34.937  1.00  0.00     0.012 A 
ATOM     62  C   UNL A   1      44.036  27.679  36.130  1.00  0.00     0.148 A 
ATOM     63  C   UNL A   1      46.619  28.680  35.670  1.00  0.00     0.002 A 
ATOM     64  C   UNL A   1      45.106  27.228  36.892  1.00  0.00     0.091 A 
ATOM     65  F   UNL A   1      42.794  27.203  36.304  1.00  0.00    -0.205 F 
ATOM     66  C   UNL A   1      46.400  27.719  36.656  1.00  0.00     0.022 A 
BRANCH  64  67
ATOM     67  S   UNL A   1      44.903  26.070  38.250  1.00  0.00     0.127 S 
ATOM     68  O   UNL A   1      44.771  24.799  37.540  1.00  0.00    -0.237 OA
ATOM     69  O   UNL A   1      46.158  26.232  38.984  1.00  0.00    -0.237 OA
ATOM     70  O   UNL A   1      43.717  26.502  38.976  1.00  0.00    -0.744 OA
ENDBRANCH  64  67
ENDBRANCH  37  60
ENDBRANCH  11  12
ENDBRANCH   4   6
ENDBRANCH   1   2
BRANCH   1  71
ATOM     71  C   UNL A   1      31.394  31.947  26.467  1.00  0.00     0.042 C 
BRANCH  71  72
ATOM     72  C   UNL A   1      31.415  30.443  26.192  1.00  0.00     0.117 C 
BRANCH  72  73
ATOM     73  N   UNL A   1      32.356  30.027  25.170  1.00  0.00    -0.356 N 
ATOM     74  C   UNL A   1      33.013  28.849  24.995  1.00  0.00     0.227 C 
ATOM     75  H   UNL A   1      32.552  30.711  24.489  1.00  0.00     0.163 HD
ATOM     76  O   UNL A   1      33.445  28.618  23.860  1.00  0.00    -0.274 OA
BRANCH  74  77
ATOM     77  C   UNL A   1      33.208  27.806  26.116  1.00  0.00     0.103 C 
ATOM     78  C   UNL A   1      34.145  26.660  25.893  1.00  0.00    -0.016 C 
ATOM     79  C   UNL A   1      31.863  27.069  26.393  1.00  0.00     0.047 C 
ATOM     80  C   UNL A   1      33.535  25.472  25.829  1.00  0.00    -0.006 C 
ATOM     81  C   UNL A   1      32.078  25.581  26.081  1.00  0.00     0.106 C 
BRANCH  81  82
ATOM     82  N   UNL A   1      31.317  24.938  25.022  1.00  0.00    -0.347 N 
ATOM     83  C   UNL A   1      30.520  25.355  23.995  1.00  0.00     0.261 C 
ATOM     84  H   UNL A   1      31.398  23.957  25.053  1.00  0.00     0.164 HD
ATOM     85  O   UNL A   1      30.146  24.495  23.194  1.00  0.00    -0.271 OA
BRANCH  83  86
ATOM     86  C   UNL A   1      30.079  26.808  23.882  1.00  0.00     0.266 C 
ATOM     87  C   UNL A   1      28.565  26.879  23.656  1.00  0.00     0.095 C 
ATOM     88  O   UNL A   1      30.685  27.572  22.808  1.00  0.00    -0.480 OA
ATOM     89  C   UNL A   1      28.516  28.267  23.143  1.00  0.00    -0.002 A 
ATOM     90  C   UNL A   1      29.760  28.575  22.614  1.00  0.00     0.123 A 
ATOM     91  C   UNL A   1      27.486  29.188  23.143  1.00  0.00     0.008 A 
ATOM     92  C   UNL A   1      30.014  29.794  22.023  1.00  0.00     0.047 A 
ATOM     93  C   UNL A   1      27.741  30.451  22.605  1.00  0.00     0.001 A 
ATOM     94  C   UNL A   1      28.995  30.750  22.043  1.00  0.00     0.004 A 
ENDBRANCH  83  86
ENDBRANCH  81  82
ENDBRANCH  74  77
ENDBRANCH  72  73
ENDBRANCH  71  72
ENDBRANCH   1  71
TORSDOF 15
ENDMDL
MODEL 2
REMARK VINA RESULT:     -12.9      1.685      3.125
REMARK SMILES O=C(NCCCNC(=O)[C@@H]1C=C[C@H](NC(=O)[C@@H]2Cc3ccccc3O2)C1)c1ccc(-c2c3nc(c(-c4cccc(S(=O)(=O)[O-])c4F)c4ccc([nH]4)c(-c4cccc(S(=O)(=O)[O-])c4F)c4nc(c(-c5cccc(S(=O)(=O)[O-])c5F)c5ccc2[nH]5)C=C4)C=C3)cc1
REMARK SMILES IDX 4 1 3 2 1 3 2 4 27 6 28 7 89 8 29 9 88 10 30 11 31 12 32 13
REMARK SMILES IDX 82 14 33 15 87 16 81 17 83 18 34 19 86 20 80 21 79 22 35 24
REMARK SMILES IDX 67 25 47 26 66 27 48 28 51 29 65 30 84 31 49 32 50 33 64 35
REMARK SMILES IDX 85 36 52 37 36 38 37 39 45 40 38 41 40 42 46 43 39 44 41 45
REMARK SMILES IDX 42 46 43 47 44 48 68 49 69 50 77 51 70 52 72 53 78 54 71 55
REMARK SMILES IDX 73 56 74 57 75 58 76 59 53 60 54 61 62 62 55 63 57 64 63 65
REMARK SMILES IDX 56 66 58 67 59 68 60 69 61 70 5 71 6 72 7 73 8 74 9 76 10 77
REMARK SMILES IDX 11 78 26 79 12 80 13 81 14 82 15 83 16 85 17 86 18 87 25 88
REMARK SMILES IDX 19 89 24 90 20 91 23 92 21 93 22 94
REMARK H PARENT 3 5 83 23 51 34 7 75 14 84
REMARK Flexibility Score: inf
ROOT
ATOM      1  C   UNL A   1      32.793  33.070  27.211  1.00  0.00     0.118 C 
ENDROOT
BRANCH   1   2
ATOM      2  N   UNL A   1      32.534  34.342  27.859  1.00  0.00    -0.352 N 
ATOM      3  O   UNL A   1      32.623  35.945  29.421  1.00  0.00    -0.269 OA
ATOM      4  C   UNL A   1      33.101  34.908  28.973  1.00  0.00     0.251 C 
ATOM      5  H   UNL A   1      31.838  34.890  27.429  1.00  0.00     0.163 HD
BRANCH   4   6
ATOM      6  C   UNL A   1      34.258  34.275  29.646  1.00  0.00     0.039 A 
ATOM      7  C   UNL A   1      34.089  33.410  30.732  1.00  0.00     0.014 A 
ATOM      8  C   UNL A   1      35.535  34.505  29.128  1.00  0.00     0.014 A 
ATOM      9  C   UNL A   1      35.206  32.860  31.365  1.00  0.00     0.010 A 
ATOM     10  C   UNL A   1      36.647  33.915  29.732  1.00  0.00     0.010 A 
ATOM     11  C   UNL A   1      36.496  33.110  30.872  1.00  0.00    -0.014 A 
BRANCH  11  12
ATOM     12  C   UNL A   1      37.694  32.515  31.521  1.00  0.00     0.031 A 
ATOM     13  C   UNL A   1      38.428  31.378  30.868  1.00  0.00     0.074 A 
ATOM     14  C   UNL A   1      38.078  32.951  32.737  1.00  0.00     0.049 A 
ATOM     15  N   UNL A   1      39.429  30.670  31.322  1.00  0.00    -0.248 NA
ATOM     16  C   UNL A   1      37.964  30.973  29.531  1.00  0.00     0.031 C 
ATOM     17  C   UNL A   1      37.426  34.023  33.489  1.00  0.00     0.029 A 
ATOM     18  N   UNL A   1      39.083  32.521  33.567  1.00  0.00    -0.354 N 
ATOM     19  C   UNL A   1      39.690  29.710  30.351  1.00  0.00     0.074 A 
ATOM     20  C   UNL A   1      38.732  29.921  29.285  1.00  0.00     0.031 C 
ATOM     21  C   UNL A   1      38.034  34.154  34.679  1.00  0.00     0.029 A 
ATOM     22  C   UNL A   1      39.087  33.149  34.790  1.00  0.00     0.049 A 
ATOM     23  H   UNL A   1      39.736  31.830  33.311  1.00  0.00     0.167 HD
ATOM     24  C   UNL A   1      40.644  28.748  30.343  1.00  0.00     0.034 A 
ATOM     25  C   UNL A   1      39.829  32.922  35.891  1.00  0.00     0.034 A 
ATOM     26  C   UNL A   1      41.604  28.555  31.397  1.00  0.00     0.049 A 
ATOM     27  C   UNL A   1      40.885  31.851  35.860  1.00  0.00     0.074 A 
ATOM     28  C   UNL A   1      42.654  27.654  31.450  1.00  0.00     0.029 A 
ATOM     29  N   UNL A   1      41.624  29.261  32.591  1.00  0.00    -0.354 N 
ATOM     30  N   UNL A   1      41.201  31.036  34.883  1.00  0.00    -0.248 NA
ATOM     31  C   UNL A   1      41.707  31.690  37.067  1.00  0.00     0.031 C 
ATOM     32  C   UNL A   1      43.286  27.791  32.690  1.00  0.00     0.029 A 
ATOM     33  C   UNL A   1      42.657  28.806  33.393  1.00  0.00     0.049 A 
ATOM     34  H   UNL A   1      40.996  29.978  32.832  1.00  0.00     0.167 HD
ATOM     35  C   UNL A   1      42.285  30.295  35.340  1.00  0.00     0.074 A 
ATOM     36  C   UNL A   1      42.574  30.761  36.681  1.00  0.00     0.031 C 
ATOM     37  C   UNL A   1      42.973  29.315  34.705  1.00  0.00     0.034 A 
BRANCH  24  38
ATOM     38  C   UNL A   1      40.708  27.836  29.143  1.00  0.00     0.023 A 
ATOM     39  C   UNL A   1      39.855  26.715  29.069  1.00  0.00     0.012 A 
ATOM     40  C   UNL A   1      41.580  28.109  28.071  1.00  0.00     0.148 A 
ATOM     41  C   UNL A   1      39.901  25.857  27.971  1.00  0.00     0.002 A 
ATOM     42  C   UNL A   1      41.586  27.275  26.958  1.00  0.00     0.091 A 
ATOM     43  F   UNL A   1      42.398  29.167  28.163  1.00  0.00    -0.205 F 
ATOM     44  C   UNL A   1      40.759  26.142  26.912  1.00  0.00     0.022 A 
BRANCH  42  45
ATOM     45  S   UNL A   1      42.599  27.606  25.511  1.00  0.00     0.127 S 
ATOM     46  O   UNL A   1      43.946  27.575  26.081  1.00  0.00    -0.237 OA
ATOM     47  O   UNL A   1      42.281  26.472  24.643  1.00  0.00    -0.237 OA
ATOM     48  O   UNL A   1      42.160  28.898  25.003  1.00  0.00    -0.744 OA
ENDBRANCH  42  45
ENDBRANCH  24  38
BRANCH  25  49
ATOM     49  C   UNL A   1      39.615  33.762  37.102  1.00  0.00     0.023 A 
ATOM     50  C   UNL A   1      40.026  35.108  37.094  1.00  0.00     0.012 A 
ATOM     51  C   UNL A   1      38.945  33.252  38.233  1.00  0.00     0.148 A 
ATOM     52  C   UNL A   1      39.791  35.928  38.199  1.00  0.00     0.002 A 
ATOM     53  C   UNL A   1      38.665  34.089  39.306  1.00  0.00     0.091 A 
ATOM     54  F   UNL A   1      38.569  31.965  38.219  1.00  0.00    -0.205 F 
ATOM     55  C   UNL A   1      39.101  35.423  39.297  1.00  0.00     0.022 A 
BRANCH  53  56
ATOM     56  S   UNL A   1      37.668  33.566  40.706  1.00  0.00     0.127 S 
ATOM     57  O   UNL A   1      38.524  32.555  41.321  1.00  0.00    -0.237 OA
ATOM     58  O   UNL A   1      37.544  34.811  41.464  1.00  0.00    -0.237 OA
ATOM     59  O   UNL A   1      36.419  33.074  40.142  1.00  0.00    -0.744 OA
ENDBRANCH  53  56
ENDBRANCH  25  49
BRANCH  37  60
ATOM     60  C   UNL A   1      44.153  28.705  35.416  1.00  0.00     0.023 A 
ATOM     61  C   UNL A   1      45.441  29.249  35.245  1.00  0.00     0.012 A 
ATOM     62  C   UNL A   1      43.962  27.655  36.337  1.00  0.00     0.148 A 
ATOM     63  C   UNL A   1      46.524  28.742  35.964  1.00  0.00     0.002 A 
ATOM     64  C   UNL A   1      45.034  27.189  37.086  1.00  0.00     0.091 A 
ATOM     65  F   UNL A   1      42.730  27.140  36.470  1.00  0.00    -0.205 F 
ATOM     66  C   UNL A   1      46.318  27.724  36.893  1.00  0.00     0.022 A 
BRANCH  64  67
ATOM     67  S   UNL A   1      44.845  25.954  38.377  1.00  0.00     0.127 S 
ATOM     68  O   UNL A   1      43.812  26.557  39.216  1.00  0.00    -0.237 OA
ATOM     69  O   UNL A   1      44.409  24.780  37.619  1.00  0.00    -0.237 OA
ATOM     70  O   UNL A   1      46.154  25.818  39.002  1.00  0.00    -0.744 OA
ENDBRANCH  64  67
ENDBRANCH  37  60
ENDBRANCH  11  12
ENDBRANCH   4   6
ENDBRANCH   1   2
BRANCH   1  71
ATOM     71  C   UNL A   1      31.527  32.302  26.837  1.00  0.00     0.042 C 
BRANCH  71  72
ATOM     72  C   UNL A   1      31.722  30.824  26.499  1.00  0.00     0.117 C 
BRANCH  72  73
ATOM     73  N   UNL A   1      31.367  30.461  25.140  1.00  0.00    -0.356 N 
ATOM     74  C   UNL A   1      31.068  29.252  24.594  1.00  0.00     0.227 C 
ATOM     75  H   UNL A   1      31.338  31.216  24.508  1.00  0.00     0.163 HD
ATOM     76  O   UNL A   1      30.435  29.265  23.532  1.00  0.00    -0.274 OA
BRANCH  74  77
ATOM     77  C   UNL A   1      31.449  27.905  25.243  1.00  0.00     0.103 C 
ATOM     78  C   UNL A   1      32.896  27.563  25.420  1.00  0.00    -0.016 C 
ATOM     79  C   UNL A   1      30.951  26.728  24.351  1.00  0.00     0.047 C 
ATOM     80  C   UNL A   1      33.301  26.537  24.666  1.00  0.00    -0.006 C 
ATOM     81  C   UNL A   1      32.185  25.936  23.897  1.00  0.00     0.106 C 
BRANCH  81  82
ATOM     82  N   UNL A   1      32.517  25.843  22.485  1.00  0.00    -0.347 N 
ATOM     83  C   UNL A   1      32.930  24.855  21.638  1.00  0.00     0.261 C 
ATOM     84  H   UNL A   1      32.418  26.707  22.024  1.00  0.00     0.164 HD
ATOM     85  O   UNL A   1      32.978  25.133  20.437  1.00  0.00    -0.271 OA
BRANCH  83  86
ATOM     86  C   UNL A   1      33.356  23.491  22.167  1.00  0.00     0.266 C 
ATOM     87  C   UNL A   1      32.145  22.756  22.751  1.00  0.00     0.095 C 
ATOM     88  O   UNL A   1      34.365  23.503  23.208  1.00  0.00    -0.480 OA
ATOM     89  C   UNL A   1      32.896  21.763  23.552  1.00  0.00    -0.002 A 
ATOM     90  C   UNL A   1      34.149  22.292  23.828  1.00  0.00     0.123 A 
ATOM     91  C   UNL A   1      32.532  20.507  23.995  1.00  0.00     0.008 A 
ATOM     92  C   UNL A   1      35.069  21.609  24.594  1.00  0.00     0.047 A 
ATOM     93  C   UNL A   1      33.472  19.773  24.720  1.00  0.00     0.001 A 
ATOM     94  C   UNL A   1      34.731  20.322  25.024  1.00  0.00     0.004 A 
ENDBRANCH  83  86
ENDBRANCH  81  82
ENDBRANCH  74  77
ENDBRANCH  72  73
ENDBRANCH  71  72
ENDBRANCH   1  71
TORSDOF 15
ENDMDL
MODEL 3
REMARK VINA RESULT:     -12.8      6.623     11.700
REMARK SMILES O=C(NCCCNC(=O)[C@@H]1C=C[C@H](NC(=O)[C@@H]2Cc3ccccc3O2)C1)c1ccc(-c2c3nc(c(-c4cccc(S(=O)(=O)[O-])c4F)c4ccc([nH]4)c(-c4cccc(S(=O)(=O)[O-])c4F)c4nc(c(-c5cccc(S(=O)(=O)[O-])c5F)c5ccc2[nH]5)C=C4)C=C3)cc1
REMARK SMILES IDX 4 1 3 2 1 3 2 4 27 6 28 7 89 8 29 9 88 10 30 11 31 12 32 13
REMARK SMILES IDX 82 14 33 15 87 16 81 17 83 18 34 19 86 20 80 21 79 22 35 24
REMARK SMILES IDX 67 25 47 26 66 27 48 28 51 29 65 30 84 31 49 32 50 33 64 35
REMARK SMILES IDX 85 36 52 37 36 38 37 39 45 40 38 41 40 42 46 43 39 44 41 45
REMARK SMILES IDX 42 46 43 47 44 48 68 49 69 50 77 51 70 52 72 53 78 54 71 55
REMARK SMILES IDX 73 56 74 57 75 58 76 59 53 60 54 61 62 62 55 63 57 64 63 65
REMARK SMILES IDX 56 66 58 67 59 68 60 69 61 70 5 71 6 72 7 73 8 74 9 76 10 77
REMARK SMILES IDX 11 78 26 79 12 80 13 81 14 82 15 83 16 85 17 86 18 87 25 88
REMARK SMILES IDX 19 89 24 90 20 91 23 92 21 93 22 94
REMARK H PARENT 3 5 83 23 51 34 7 75 14 84
REMARK Flexibility Score: inf
ROOT
ATOM      1  C   UNL A   1      38.834  20.216  25.694  1.00  0.00     0.118 C 
ENDROOT
BRANCH   1   2
ATOM      2  N   UNL A   1      39.953  19.299  25.811  1.00  0.00    -0.352 N 
ATOM      3  O   UNL A   1      42.075  18.610  26.011  1.00  0.00    -0.269 OA
ATOM      4  C   UNL A   1      41.273  19.535  26.101  1.00  0.00     0.251 C 
ATOM      5  H   UNL A   1      39.727  18.353  25.660  1.00  0.00     0.163 HD
BRANCH   4   6
ATOM      6  C   UNL A   1      41.739  20.883  26.494  1.00  0.00     0.039 A 
ATOM      7  C   UNL A   1      41.999  21.208  27.829  1.00  0.00     0.014 A 
ATOM      8  C   UNL A   1      41.982  21.822  25.487  1.00  0.00     0.014 A 
ATOM      9  C   UNL A   1      42.403  22.502  28.166  1.00  0.00     0.010 A 
ATOM     10  C   UNL A   1      42.433  23.100  25.822  1.00  0.00     0.010 A 
ATOM     11  C   UNL A   1      42.620  23.462  27.165  1.00  0.00    -0.014 A 
BRANCH  11  12
ATOM     12  C   UNL A   1      43.069  24.837  27.505  1.00  0.00     0.031 A 
ATOM     13  C   UNL A   1      42.116  25.815  28.133  1.00  0.00     0.074 A 
ATOM     14  C   UNL A   1      44.316  25.230  27.182  1.00  0.00     0.049 A 
ATOM     15  N   UNL A   1      42.293  27.080  28.413  1.00  0.00    -0.248 NA
ATOM     16  C   UNL A   1      40.779  25.305  28.479  1.00  0.00     0.031 C 
ATOM     17  C   UNL A   1      45.323  24.385  26.537  1.00  0.00     0.029 A 
ATOM     18  N   UNL A   1      44.936  26.447  27.315  1.00  0.00    -0.354 N 
ATOM     19  C   UNL A   1      41.084  27.531  28.927  1.00  0.00     0.074 A 
ATOM     20  C   UNL A   1      40.175  26.404  28.911  1.00  0.00     0.031 C 
ATOM     21  C   UNL A   1      46.427  25.115  26.312  1.00  0.00     0.029 A 
ATOM     22  C   UNL A   1      46.191  26.486  26.755  1.00  0.00     0.049 A 
ATOM     23  H   UNL A   1      44.521  27.218  27.766  1.00  0.00     0.167 HD
ATOM     24  C   UNL A   1      40.761  28.767  29.380  1.00  0.00     0.034 A 
ATOM     25  C   UNL A   1      47.045  27.513  26.584  1.00  0.00     0.034 A 
ATOM     26  C   UNL A   1      41.675  29.879  29.410  1.00  0.00     0.049 A 
ATOM     27  C   UNL A   1      46.669  28.876  27.097  1.00  0.00     0.074 A 
ATOM     28  C   UNL A   1      41.465  31.151  29.915  1.00  0.00     0.029 A 
ATOM     29  N   UNL A   1      42.965  29.859  28.901  1.00  0.00    -0.354 N 
ATOM     30  N   UNL A   1      45.567  29.255  27.696  1.00  0.00    -0.248 NA
ATOM     31  C   UNL A   1      47.666  29.946  26.941  1.00  0.00     0.031 C 
ATOM     32  C   UNL A   1      42.616  31.910  29.678  1.00  0.00     0.029 A 
ATOM     33  C   UNL A   1      43.558  31.099  29.065  1.00  0.00     0.049 A 
ATOM     34  H   UNL A   1      43.395  29.078  28.484  1.00  0.00     0.167 HD
ATOM     35  C   UNL A   1      45.751  30.592  28.027  1.00  0.00     0.074 A 
ATOM     36  C   UNL A   1      47.074  30.958  27.565  1.00  0.00     0.031 C 
ATOM     37  C   UNL A   1      44.898  31.439  28.652  1.00  0.00     0.034 A 
BRANCH  24  38
ATOM     38  C   UNL A   1      39.361  28.979  29.898  1.00  0.00     0.023 A 
ATOM     39  C   UNL A   1      39.029  28.573  31.207  1.00  0.00     0.012 A 
ATOM     40  C   UNL A   1      38.385  29.616  29.106  1.00  0.00     0.148 A 
ATOM     41  C   UNL A   1      37.738  28.757  31.703  1.00  0.00     0.002 A 
ATOM     42  C   UNL A   1      37.114  29.838  29.625  1.00  0.00     0.091 A 
ATOM     43  F   UNL A   1      38.709  29.980  27.857  1.00  0.00    -0.205 F 
ATOM     44  C   UNL A   1      36.785  29.397  30.916  1.00  0.00     0.022 A 
BRANCH  42  45
ATOM     45  S   UNL A   1      35.843  30.726  28.716  1.00  0.00     0.127 S 
ATOM     46  O   UNL A   1      35.085  31.347  29.801  1.00  0.00    -0.237 OA
ATOM     47  O   UNL A   1      36.632  31.661  27.912  1.00  0.00    -0.237 OA
ATOM     48  O   UNL A   1      35.128  29.719  27.944  1.00  0.00    -0.744 OA
ENDBRANCH  42  45
ENDBRANCH  24  38
BRANCH  25  49
ATOM     49  C   UNL A   1      48.359  27.269  25.927  1.00  0.00     0.023 A 
ATOM     50  C   UNL A   1      49.429  26.757  26.685  1.00  0.00     0.012 A 
ATOM     51  C   UNL A   1      48.531  27.477  24.544  1.00  0.00     0.148 A 
ATOM     52  C   UNL A   1      50.655  26.473  26.080  1.00  0.00     0.002 A 
ATOM     53  C   UNL A   1      49.735  27.140  23.939  1.00  0.00     0.091 A 
ATOM     54  F   UNL A   1      47.500  27.972  23.845  1.00  0.00    -0.205 F 
ATOM     55  C   UNL A   1      50.804  26.653  24.708  1.00  0.00     0.022 A 
BRANCH  53  56
ATOM     56  S   UNL A   1      49.978  27.211  22.160  1.00  0.00     0.127 S 
ATOM     57  O   UNL A   1      48.919  26.327  21.679  1.00  0.00    -0.237 OA
ATOM     58  O   UNL A   1      49.765  28.633  21.888  1.00  0.00    -0.237 OA
ATOM     59  O   UNL A   1      51.338  26.747  21.927  1.00  0.00    -0.744 OA
ENDBRANCH  53  56
ENDBRANCH  25  49
BRANCH  37  60
ATOM     60  C   UNL A   1      45.374  32.839  28.939  1.00  0.00     0.023 A 
ATOM     61  C   UNL A   1      46.087  33.117  30.121  1.00  0.00     0.012 A 
ATOM     62  C   UNL A   1      45.201  33.858  27.979  1.00  0.00     0.148 A 
ATOM     63  C   UNL A   1      46.602  34.392  30.353  1.00  0.00     0.002 A 
ATOM     64  C   UNL A   1      45.761  35.111  28.193  1.00  0.00     0.091 A 
ATOM     65  F   UNL A   1      44.503  33.576  26.869  1.00  0.00    -0.205 F 
ATOM     66  C   UNL A   1      46.452  35.383  29.384  1.00  0.00     0.022 A 
BRANCH  64  67
ATOM     67  S   UNL A   1      45.706  36.415  26.959  1.00  0.00     0.127 S 
ATOM     68  O   UNL A   1      46.664  37.378  27.501  1.00  0.00    -0.237 OA
ATOM     69  O   UNL A   1      46.157  35.719  25.754  1.00  0.00    -0.237 OA
ATOM     70  O   UNL A   1      44.324  36.871  26.914  1.00  0.00    -0.744 OA
ENDBRANCH  64  67
ENDBRANCH  37  60
ENDBRANCH  11  12
ENDBRANCH   4   6
ENDBRANCH   1   2
BRANCH   1  71
ATOM     71  C   UNL A   1      37.610  19.607  25.014  1.00  0.00     0.042 C 
BRANCH  71  72
ATOM     72  C   UNL A   1      36.463  20.575  24.720  1.00  0.00     0.117 C 
BRANCH  72  73
ATOM     73  N   UNL A   1      35.805  21.110  25.897  1.00  0.00    -0.356 N 
ATOM     74  C   UNL A   1      35.273  22.339  26.134  1.00  0.00     0.227 C 
ATOM     75  H   UNL A   1      35.733  20.479  26.650  1.00  0.00     0.163 HD
ATOM     76  O   UNL A   1      34.445  22.417  27.049  1.00  0.00    -0.274 OA
BRANCH  74  77
ATOM     77  C   UNL A   1      35.626  23.595  25.311  1.00  0.00     0.103 C 
ATOM     78  C   UNL A   1      35.065  24.921  25.723  1.00  0.00    -0.016 C 
ATOM     79  C   UNL A   1      35.073  23.452  23.861  1.00  0.00     0.047 C 
ATOM     80  C   UNL A   1      34.190  25.428  24.849  1.00  0.00    -0.006 C 
ATOM     81  C   UNL A   1      34.058  24.581  23.639  1.00  0.00     0.106 C 
BRANCH  81  82
ATOM     82  N   UNL A   1      32.663  24.270  23.371  1.00  0.00    -0.347 N 
ATOM     83  C   UNL A   1      31.888  23.146  23.393  1.00  0.00     0.261 C 
ATOM     84  H   UNL A   1      32.149  25.069  23.111  1.00  0.00     0.164 HD
ATOM     85  O   UNL A   1      30.674  23.302  23.234  1.00  0.00    -0.271 OA
BRANCH  83  86
ATOM     86  C   UNL A   1      32.508  21.765  23.557  1.00  0.00     0.266 C 
ATOM     87  C   UNL A   1      31.962  20.816  22.484  1.00  0.00     0.095 C 
ATOM     88  O   UNL A   1      32.275  21.114  24.832  1.00  0.00    -0.480 OA
ATOM     89  C   UNL A   1      32.342  19.547  23.146  1.00  0.00    -0.002 A 
ATOM     90  C   UNL A   1      32.445  19.785  24.508  1.00  0.00     0.123 A 
ATOM     91  C   UNL A   1      32.587  18.296  22.613  1.00  0.00     0.008 A 
ATOM     92  C   UNL A   1      32.751  18.777  25.397  1.00  0.00     0.047 A 
ATOM     93  C   UNL A   1      32.959  17.276  23.490  1.00  0.00     0.001 A 
ATOM     94  C   UNL A   1      33.034  17.513  24.875  1.00  0.00     0.004 A 
ENDBRANCH  83  86
ENDBRANCH  81  82
ENDBRANCH  74  77
ENDBRANCH  72  73
ENDBRANCH  71  72
ENDBRANCH   1  71
TORSDOF 15
ENDMDL
