MODEL 1
REMARK VINA RESULT:     -11.6      0.000      0.000
REMARK SMILES CC[C@@H]1SC[C@H](C(=O)NCCCNC(=O)c2ccc(-c3c4nc(c(-c5cccc(S(=O)(=O)[O-])c5F)c5ccc([nH]5)c(-c5cccc(S(=O)(=O)[O-])c5F)c5nc(c(-c6cccc(S(=O)(=O)[O-])c6F)c6ccc3[nH]6)C=C5)C=C4)cc2)N1C(=O)[C@](C)([NH3+])C(F)(F)F
REMARK SMILES IDX 11 1 10 2 9 3 7 4 8 5 6 7 3 8 4 9 79 10 5 11 2 12 1 13 80 14
REMARK SMILES IDX 81 15 82 16 83 17 84 18 85 22 86 23 87 24 88 25 12 26 13 27
REMARK SMILES IDX 14 28 15 30 16 31 17 32 78 33 18 34 77 35 19 36 20 37 21 38
REMARK SMILES IDX 71 39 22 40 76 41 70 42 72 43 23 44 75 45 69 46 68 47 24 49
REMARK SMILES IDX 56 50 36 51 55 52 37 53 40 54 54 55 73 56 38 57 39 58 53 60
REMARK SMILES IDX 74 61 41 62 25 63 26 64 34 65 27 66 29 67 35 68 28 69 30 70
REMARK SMILES IDX 31 71 32 72 33 73 57 74 58 75 66 76 59 77 61 78 67 79 60 80
REMARK SMILES IDX 62 81 63 82 64 83 65 84 42 85 43 86 51 87 44 88 46 89 52 90
REMARK SMILES IDX 45 91 47 92 48 93 49 94 50 95
REMARK H PARENT 9 6 84 19 84 20 84 21 13 29 72 48 40 59
REMARK Flexibility Score: inf
ROOT
ATOM      1  C   UNL A   1      31.626  29.021  26.594  1.00  0.00     0.042 C 
ENDROOT
BRANCH   1   2
ATOM      2  C   UNL A   1      32.247  27.658  26.820  1.00  0.00     0.117 C 
BRANCH   2   3
ATOM      3  N   UNL A   1      31.292  26.575  26.913  1.00  0.00    -0.354 N 
ATOM      4  C   UNL A   1      31.408  25.291  26.467  1.00  0.00     0.243 C 
ATOM      5  O   UNL A   1      30.460  24.530  26.698  1.00  0.00    -0.273 OA
ATOM      6  H   UNL A   1      30.442  26.795  27.358  1.00  0.00     0.163 HD
BRANCH   4   7
ATOM      7  C   UNL A   1      32.553  24.846  25.526  1.00  0.00     0.185 C 
ATOM      8  C   UNL A   1      33.141  23.150  23.835  1.00  0.00     0.144 C 
ATOM      9  S   UNL A   1      34.337  22.919  25.203  1.00  0.00    -0.134 SA
ATOM     10  N   UNL A   1      32.193  24.205  24.229  1.00  0.00    -0.312 N 
ATOM     11  C   UNL A   1      33.486  23.987  26.364  1.00  0.00     0.107 C 
BRANCH   8  12
ATOM     12  C   UNL A   1      32.603  21.748  23.507  1.00  0.00     0.033 C 
ATOM     13  C   UNL A   1      33.247  20.698  24.422  1.00  0.00     0.007 C 
ENDBRANCH   8  12
BRANCH  10  14
ATOM     14  C   UNL A   1      31.523  25.080  23.375  1.00  0.00     0.294 C 
ATOM     15  O   UNL A   1      30.313  24.831  23.165  1.00  0.00    -0.267 OA
BRANCH  14  16
ATOM     16  C   UNL A   1      32.058  26.292  22.526  1.00  0.00     0.267 C 
ATOM     17  C   UNL A   1      31.172  27.505  22.839  1.00  0.00     0.100 C 
BRANCH  16  18
ATOM     18  N   UNL A   1      31.715  25.928  21.082  1.00  0.00    -0.337 N 
ATOM     19  H   UNL A   1      32.412  25.277  20.720  1.00  0.00     0.345 HD
ATOM     20  H   UNL A   1      31.711  26.773  20.511  1.00  0.00     0.345 HD
ATOM     21  H   UNL A   1      30.794  25.492  21.050  1.00  0.00     0.345 HD
ENDBRANCH  16  18
BRANCH  16  22
ATOM     22  C   UNL A   1      33.520  26.716  22.613  1.00  0.00     0.453 C 
ATOM     23  F   UNL A   1      33.812  27.683  21.705  1.00  0.00    -0.164 F 
ATOM     24  F   UNL A   1      33.816  27.242  23.817  1.00  0.00    -0.164 F 
ATOM     25  F   UNL A   1      34.351  25.683  22.352  1.00  0.00    -0.164 F 
ENDBRANCH  16  22
ENDBRANCH  14  16
ENDBRANCH  10  14
ENDBRANCH   4   7
ENDBRANCH   2   3
ENDBRANCH   1   2
BRANCH   1  26
ATOM     26  C   UNL A   1      32.565  30.055  25.991  1.00  0.00     0.118 C 
BRANCH  26  27
ATOM     27  N   UNL A   1      32.326  31.419  26.447  1.00  0.00    -0.352 N 
ATOM     28  C   UNL A   1      33.080  32.239  27.265  1.00  0.00     0.251 C 
ATOM     29  H   UNL A   1      31.489  31.822  26.121  1.00  0.00     0.163 HD
ATOM     30  O   UNL A   1      32.633  33.316  27.622  1.00  0.00    -0.269 OA
BRANCH  28  31
ATOM     31  C   UNL A   1      34.416  31.792  27.731  1.00  0.00     0.039 A 
ATOM     32  C   UNL A   1      35.426  32.738  27.925  1.00  0.00     0.014 A 
ATOM     33  C   UNL A   1      34.660  30.449  28.009  1.00  0.00     0.014 A 
ATOM     34  C   UNL A   1      36.633  32.349  28.515  1.00  0.00     0.010 A 
ATOM     35  C   UNL A   1      35.804  30.089  28.712  1.00  0.00     0.010 A 
ATOM     36  C   UNL A   1      36.806  31.033  28.975  1.00  0.00    -0.014 A 
BRANCH  36  37
ATOM     37  C   UNL A   1      38.002  30.616  29.755  1.00  0.00     0.031 A 
ATOM     38  C   UNL A   1      38.981  29.630  29.173  1.00  0.00     0.074 A 
ATOM     39  C   UNL A   1      38.140  31.022  31.035  1.00  0.00     0.049 A 
ATOM     40  N   UNL A   1      40.012  29.057  29.739  1.00  0.00    -0.248 NA
ATOM     41  C   UNL A   1      38.747  29.195  27.785  1.00  0.00     0.031 C 
ATOM     42  C   UNL A   1      37.211  31.898  31.753  1.00  0.00     0.029 A 
ATOM     43  N   UNL A   1      39.101  30.726  31.971  1.00  0.00    -0.354 N 
ATOM     44  C   UNL A   1      40.514  28.164  28.801  1.00  0.00     0.074 A 
ATOM     45  C   UNL A   1      39.649  28.236  27.644  1.00  0.00     0.031 C 
ATOM     46  C   UNL A   1      37.650  32.077  33.008  1.00  0.00     0.029 A 
ATOM     47  C   UNL A   1      38.872  31.301  33.200  1.00  0.00     0.049 A 
ATOM     48  H   UNL A   1      39.879  30.155  31.781  1.00  0.00     0.167 HD
ATOM     49  C   UNL A   1      41.615  27.379  28.875  1.00  0.00     0.034 A 
ATOM     50  C   UNL A   1      39.560  31.211  34.355  1.00  0.00     0.034 A 
ATOM     51  C   UNL A   1      42.510  27.357  30.000  1.00  0.00     0.049 A 
ATOM     52  C   UNL A   1      40.813  30.379  34.394  1.00  0.00     0.074 A 
ATOM     53  C   UNL A   1      43.712  26.685  30.129  1.00  0.00     0.029 A 
ATOM     54  N   UNL A   1      42.299  28.033  31.191  1.00  0.00    -0.354 N 
ATOM     55  N   UNL A   1      41.365  29.674  33.436  1.00  0.00    -0.248 NA
ATOM     56  C   UNL A   1      41.557  30.357  35.661  1.00  0.00     0.031 C 
ATOM     57  C   UNL A   1      44.218  26.940  31.409  1.00  0.00     0.029 A 
ATOM     58  C   UNL A   1      43.342  27.788  32.067  1.00  0.00     0.049 A 
ATOM     59  H   UNL A   1      41.521  28.606  31.385  1.00  0.00     0.167 HD
ATOM     60  C   UNL A   1      42.534  29.148  33.975  1.00  0.00     0.074 A 
ATOM     61  C   UNL A   1      42.623  29.638  35.335  1.00  0.00     0.031 C 
ATOM     62  C   UNL A   1      43.441  28.320  33.401  1.00  0.00     0.034 A 
BRANCH  49  63
ATOM     63  C   UNL A   1      41.947  26.526  27.678  1.00  0.00     0.023 A 
ATOM     64  C   UNL A   1      42.631  27.099  26.585  1.00  0.00     0.012 A 
ATOM     65  C   UNL A   1      41.628  25.155  27.648  1.00  0.00     0.148 A 
ATOM     66  C   UNL A   1      42.953  26.334  25.465  1.00  0.00     0.002 A 
ATOM     67  C   UNL A   1      41.994  24.388  26.547  1.00  0.00     0.091 A 
ATOM     68  F   UNL A   1      40.958  24.630  28.684  1.00  0.00    -0.205 F 
ATOM     69  C   UNL A   1      42.644  24.977  25.451  1.00  0.00     0.022 A 
BRANCH  67  70
ATOM     70  S   UNL A   1      41.713  22.615  26.468  1.00  0.00     0.127 S 
ATOM     71  O   UNL A   1      42.380  22.268  25.213  1.00  0.00    -0.237 OA
ATOM     72  O   UNL A   1      42.396  22.140  27.672  1.00  0.00    -0.237 OA
ATOM     73  O   UNL A   1      40.269  22.436  26.480  1.00  0.00    -0.744 OA
ENDBRANCH  67  70
ENDBRANCH  49  63
BRANCH  50  74
ATOM     74  C   UNL A   1      39.117  31.987  35.548  1.00  0.00     0.023 A 
ATOM     75  C   UNL A   1      39.401  33.365  35.616  1.00  0.00     0.012 A 
ATOM     76  C   UNL A   1      38.388  31.384  36.592  1.00  0.00     0.148 A 
ATOM     77  C   UNL A   1      38.994  34.123  36.713  1.00  0.00     0.002 A 
ATOM     78  C   UNL A   1      37.938  32.157  37.657  1.00  0.00     0.091 A 
ATOM     79  F   UNL A   1      38.137  30.071  36.515  1.00  0.00    -0.205 F 
ATOM     80  C   UNL A   1      38.253  33.523  37.728  1.00  0.00     0.022 A 
BRANCH  78  81
ATOM     81  S   UNL A   1      36.864  31.500  38.939  1.00  0.00     0.127 S 
ATOM     82  O   UNL A   1      37.723  31.578  40.117  1.00  0.00    -0.237 OA
ATOM     83  O   UNL A   1      35.753  32.452  38.921  1.00  0.00    -0.237 OA
ATOM     84  O   UNL A   1      36.508  30.157  38.503  1.00  0.00    -0.744 OA
ENDBRANCH  78  81
ENDBRANCH  50  74
BRANCH  62  85
ATOM     85  C   UNL A   1      44.627  27.904  34.231  1.00  0.00     0.023 A 
ATOM     86  C   UNL A   1      45.779  28.714  34.259  1.00  0.00     0.012 A 
ATOM     87  C   UNL A   1      44.572  26.751  35.040  1.00  0.00     0.148 A 
ATOM     88  C   UNL A   1      46.870  28.368  35.055  1.00  0.00     0.002 A 
ATOM     89  C   UNL A   1      45.644  26.438  35.867  1.00  0.00     0.091 A 
ATOM     90  F   UNL A   1      43.473  25.983  34.985  1.00  0.00    -0.205 F 
ATOM     91  C   UNL A   1      46.798  27.239  35.867  1.00  0.00     0.022 A 
BRANCH  89  92
ATOM     92  S   UNL A   1      45.601  25.059  37.017  1.00  0.00     0.127 S 
ATOM     93  O   UNL A   1      44.375  25.333  37.765  1.00  0.00    -0.237 OA
ATOM     94  O   UNL A   1      45.521  23.907  36.118  1.00  0.00    -0.237 OA
ATOM     95  O   UNL A   1      46.835  25.139  37.787  1.00  0.00    -0.744 OA
ENDBRANCH  89  92
ENDBRANCH  62  85
ENDBRANCH  36  37
ENDBRANCH  28  31
ENDBRANCH  26  27
ENDBRANCH   1  26
TORSDOF 18
ENDMDL
MODEL 2
REMARK VINA RESULT:     -11.6      5.388      7.827
REMARK SMILES CC[C@@H]1SC[C@H](C(=O)NCCCNC(=O)c2ccc(-c3c4nc(c(-c5cccc(S(=O)(=O)[O-])c5F)c5ccc([nH]5)c(-c5cccc(S(=O)(=O)[O-])c5F)c5nc(c(-c6cccc(S(=O)(=O)[O-])c6F)c6ccc3[nH]6)C=C5)C=C4)cc2)N1C(=O)[C@](C)([NH3+])C(F)(F)F
REMARK SMILES IDX 11 1 10 2 9 3 7 4 8 5 6 7 3 8 4 9 79 10 5 11 2 12 1 13 80 14
REMARK SMILES IDX 81 15 82 16 83 17 84 18 85 22 86 23 87 24 88 25 12 26 13 27
REMARK SMILES IDX 14 28 15 30 16 31 17 32 78 33 18 34 77 35 19 36 20 37 21 38
REMARK SMILES IDX 71 39 22 40 76 41 70 42 72 43 23 44 75 45 69 46 68 47 24 49
REMARK SMILES IDX 56 50 36 51 55 52 37 53 40 54 54 55 73 56 38 57 39 58 53 60
REMARK SMILES IDX 74 61 41 62 25 63 26 64 34 65 27 66 29 67 35 68 28 69 30 70
REMARK SMILES IDX 31 71 32 72 33 73 57 74 58 75 66 76 59 77 61 78 67 79 60 80
REMARK SMILES IDX 62 81 63 82 64 83 65 84 42 85 43 86 51 87 44 88 46 89 52 90
REMARK SMILES IDX 45 91 47 92 48 93 49 94 50 95
REMARK H PARENT 9 6 84 19 84 20 84 21 13 29 72 48 40 59
REMARK Flexibility Score: inf
ROOT
ATOM      1  C   UNL A   1      36.754  22.073  24.038  1.00  0.00     0.042 C 
ENDROOT
BRANCH   1   2
ATOM      2  C   UNL A   1      36.194  23.478  23.947  1.00  0.00     0.117 C 
BRANCH   2   3
ATOM      3  N   UNL A   1      35.029  23.601  23.098  1.00  0.00    -0.354 N 
ATOM      4  C   UNL A   1      33.998  24.490  23.183  1.00  0.00     0.243 C 
ATOM      5  O   UNL A   1      33.125  24.421  22.310  1.00  0.00    -0.273 OA
ATOM      6  H   UNL A   1      34.972  22.955  22.357  1.00  0.00     0.163 HD
BRANCH   4   7
ATOM      7  C   UNL A   1      33.792  25.396  24.421  1.00  0.00     0.185 C 
ATOM      8  C   UNL A   1      32.066  26.180  25.999  1.00  0.00     0.144 C 
ATOM      9  S   UNL A   1      32.680  27.684  25.151  1.00  0.00    -0.134 SA
ATOM     10  N   UNL A   1      32.743  25.013  25.410  1.00  0.00    -0.312 N 
ATOM     11  C   UNL A   1      33.609  26.809  23.891  1.00  0.00     0.107 C 
BRANCH   8  12
ATOM     12  C   UNL A   1      30.533  26.262  25.940  1.00  0.00     0.033 C 
ATOM     13  C   UNL A   1      30.060  26.444  24.492  1.00  0.00     0.007 C 
ENDBRANCH   8  12
BRANCH  10  14
ATOM     14  C   UNL A   1      33.036  23.812  26.053  1.00  0.00     0.294 C 
ATOM     15  O   UNL A   1      34.119  23.770  26.681  1.00  0.00    -0.267 OA
BRANCH  14  16
ATOM     16  C   UNL A   1      32.278  22.433  26.041  1.00  0.00     0.267 C 
ATOM     17  C   UNL A   1      30.807  22.709  26.384  1.00  0.00     0.100 C 
BRANCH  16  18
ATOM     18  N   UNL A   1      32.822  21.688  27.260  1.00  0.00    -0.337 N 
ATOM     19  H   UNL A   1      32.478  20.728  27.254  1.00  0.00     0.345 HD
ATOM     20  H   UNL A   1      32.510  22.155  28.111  1.00  0.00     0.345 HD
ATOM     21  H   UNL A   1      33.842  21.683  27.230  1.00  0.00     0.345 HD
ENDBRANCH  16  18
BRANCH  16  22
ATOM     22  C   UNL A   1      32.336  21.524  24.818  1.00  0.00     0.453 C 
ATOM     23  F   UNL A   1      31.774  22.116  23.732  1.00  0.00    -0.164 F 
ATOM     24  F   UNL A   1      33.604  21.241  24.468  1.00  0.00    -0.164 F 
ATOM     25  F   UNL A   1      31.654  20.376  25.023  1.00  0.00    -0.164 F 
ENDBRANCH  16  22
ENDBRANCH  14  16
ENDBRANCH  10  14
ENDBRANCH   4   7
ENDBRANCH   2   3
ENDBRANCH   1   2
BRANCH   1  26
ATOM     26  C   UNL A   1      36.939  21.554  25.457  1.00  0.00     0.118 C 
BRANCH  26  27
ATOM     27  N   UNL A   1      38.068  20.645  25.619  1.00  0.00    -0.352 N 
ATOM     28  C   UNL A   1      39.349  20.876  26.082  1.00  0.00     0.251 C 
ATOM     29  H   UNL A   1      37.888  19.714  25.354  1.00  0.00     0.163 HD
ATOM     30  O   UNL A   1      40.184  19.989  26.022  1.00  0.00    -0.269 OA
BRANCH  28  31
ATOM     31  C   UNL A   1      39.712  22.211  26.618  1.00  0.00     0.039 A 
ATOM     32  C   UNL A   1      40.706  22.309  27.594  1.00  0.00     0.014 A 
ATOM     33  C   UNL A   1      39.101  23.364  26.131  1.00  0.00     0.014 A 
ATOM     34  C   UNL A   1      41.166  23.571  27.987  1.00  0.00     0.010 A 
ATOM     35  C   UNL A   1      39.646  24.608  26.423  1.00  0.00     0.010 A 
ATOM     36  C   UNL A   1      40.686  24.730  27.354  1.00  0.00    -0.014 A 
BRANCH  36  37
ATOM     37  C   UNL A   1      41.264  26.075  27.619  1.00  0.00     0.031 A 
ATOM     38  C   UNL A   1      42.673  26.392  27.192  1.00  0.00     0.074 A 
ATOM     39  C   UNL A   1      40.570  26.966  28.358  1.00  0.00     0.049 A 
ATOM     40  N   UNL A   1      43.391  27.459  27.437  1.00  0.00    -0.248 NA
ATOM     41  C   UNL A   1      43.390  25.358  26.426  1.00  0.00     0.031 C 
ATOM     42  C   UNL A   1      39.234  26.747  28.919  1.00  0.00     0.029 A 
ATOM     43  N   UNL A   1      40.906  28.226  28.792  1.00  0.00    -0.354 N 
ATOM     44  C   UNL A   1      44.647  27.203  26.903  1.00  0.00     0.074 A 
ATOM     45  C   UNL A   1      44.611  25.864  26.360  1.00  0.00     0.031 C 
ATOM     46  C   UNL A   1      38.861  27.835  29.610  1.00  0.00     0.029 A 
ATOM     47  C   UNL A   1      39.941  28.816  29.576  1.00  0.00     0.049 A 
ATOM     48  H   UNL A   1      41.757  28.664  28.565  1.00  0.00     0.167 HD
ATOM     49  C   UNL A   1      45.726  28.019  26.835  1.00  0.00     0.034 A 
ATOM     50  C   UNL A   1      39.927  30.009  30.204  1.00  0.00     0.034 A 
ATOM     51  C   UNL A   1      45.739  29.373  27.317  1.00  0.00     0.049 A 
ATOM     52  C   UNL A   1      41.115  30.921  30.062  1.00  0.00     0.074 A 
ATOM     53  C   UNL A   1      46.741  30.319  27.195  1.00  0.00     0.029 A 
ATOM     54  N   UNL A   1      44.705  29.973  28.017  1.00  0.00    -0.354 N 
ATOM     55  N   UNL A   1      42.232  30.724  29.405  1.00  0.00    -0.248 NA
ATOM     56  C   UNL A   1      41.028  32.232  30.722  1.00  0.00     0.031 C 
ATOM     57  C   UNL A   1      46.318  31.487  27.841  1.00  0.00     0.029 A 
ATOM     58  C   UNL A   1      45.045  31.274  28.345  1.00  0.00     0.049 A 
ATOM     59  H   UNL A   1      43.851  29.538  28.247  1.00  0.00     0.167 HD
ATOM     60  C   UNL A   1      42.968  31.895  29.546  1.00  0.00     0.074 A 
ATOM     61  C   UNL A   1      42.158  32.805  30.330  1.00  0.00     0.031 C 
ATOM     62  C   UNL A   1      44.210  32.184  29.084  1.00  0.00     0.034 A 
BRANCH  49  63
ATOM     63  C   UNL A   1      46.963  27.487  26.158  1.00  0.00     0.023 A 
ATOM     64  C   UNL A   1      47.162  27.732  24.782  1.00  0.00     0.012 A 
ATOM     65  C   UNL A   1      47.947  26.788  26.882  1.00  0.00     0.148 A 
ATOM     66  C   UNL A   1      48.297  27.253  24.130  1.00  0.00     0.002 A 
ATOM     67  C   UNL A   1      49.099  26.354  26.234  1.00  0.00     0.091 A 
ATOM     68  F   UNL A   1      47.733  26.543  28.182  1.00  0.00    -0.205 F 
ATOM     69  C   UNL A   1      49.269  26.574  24.858  1.00  0.00     0.022 A 
BRANCH  67  70
ATOM     70  S   UNL A   1      50.448  25.542  27.100  1.00  0.00     0.127 S 
ATOM     71  O   UNL A   1      51.396  25.306  26.011  1.00  0.00    -0.237 OA
ATOM     72  O   UNL A   1      50.863  26.568  28.057  1.00  0.00    -0.237 OA
ATOM     73  O   UNL A   1      49.876  24.347  27.702  1.00  0.00    -0.744 OA
ENDBRANCH  67  70
ENDBRANCH  49  63
BRANCH  50  74
ATOM     74  C   UNL A   1      38.717  30.436  30.962  1.00  0.00     0.023 A 
ATOM     75  C   UNL A   1      38.646  30.177  32.345  1.00  0.00     0.012 A 
ATOM     76  C   UNL A   1      37.659  31.124  30.337  1.00  0.00     0.148 A 
ATOM     77  C   UNL A   1      37.532  30.570  33.087  1.00  0.00     0.002 A 
ATOM     78  C   UNL A   1      36.577  31.561  31.093  1.00  0.00     0.091 A 
ATOM     79  F   UNL A   1      37.740  31.351  29.019  1.00  0.00    -0.205 F 
ATOM     80  C   UNL A   1      36.503  31.271  32.465  1.00  0.00     0.022 A 
BRANCH  78  81
ATOM     81  S   UNL A   1      35.271  32.587  30.405  1.00  0.00     0.127 S 
ATOM     82  O   UNL A   1      36.000  33.803  30.055  1.00  0.00    -0.237 OA
ATOM     83  O   UNL A   1      34.826  31.785  29.264  1.00  0.00    -0.237 OA
ATOM     84  O   UNL A   1      34.280  32.723  31.463  1.00  0.00    -0.744 OA
ENDBRANCH  78  81
ENDBRANCH  50  74
BRANCH  62  85
ATOM     85  C   UNL A   1      44.768  33.549  29.393  1.00  0.00     0.023 A 
ATOM     86  C   UNL A   1      45.490  33.755  30.585  1.00  0.00     0.012 A 
ATOM     87  C   UNL A   1      44.642  34.605  28.469  1.00  0.00     0.148 A 
ATOM     88  C   UNL A   1      46.051  34.999  30.867  1.00  0.00     0.002 A 
ATOM     89  C   UNL A   1      45.245  35.828  28.734  1.00  0.00     0.091 A 
ATOM     90  F   UNL A   1      43.936  34.393  27.348  1.00  0.00    -0.205 F 
ATOM     91  C   UNL A   1      45.939  36.031  29.938  1.00  0.00     0.022 A 
BRANCH  89  92
ATOM     92  S   UNL A   1      45.236  37.182  27.554  1.00  0.00     0.127 S 
ATOM     93  O   UNL A   1      45.925  38.232  28.301  1.00  0.00    -0.237 OA
ATOM     94  O   UNL A   1      46.002  36.625  26.437  1.00  0.00    -0.237 OA
ATOM     95  O   UNL A   1      43.835  37.443  27.253  1.00  0.00    -0.744 OA
ENDBRANCH  89  92
ENDBRANCH  62  85
ENDBRANCH  36  37
ENDBRANCH  28  31
ENDBRANCH  26  27
ENDBRANCH   1  26
TORSDOF 18
ENDMDL
MODEL 3
REMARK VINA RESULT:     -11.4      1.440      7.693
REMARK SMILES CC[C@@H]1SC[C@H](C(=O)NCCCNC(=O)c2ccc(-c3c4nc(c(-c5cccc(S(=O)(=O)[O-])c5F)c5ccc([nH]5)c(-c5cccc(S(=O)(=O)[O-])c5F)c5nc(c(-c6cccc(S(=O)(=O)[O-])c6F)c6ccc3[nH]6)C=C5)C=C4)cc2)N1C(=O)[C@](C)([NH3+])C(F)(F)F
REMARK SMILES IDX 11 1 10 2 9 3 7 4 8 5 6 7 3 8 4 9 79 10 5 11 2 12 1 13 80 14
REMARK SMILES IDX 81 15 82 16 83 17 84 18 85 22 86 23 87 24 88 25 12 26 13 27
REMARK SMILES IDX 14 28 15 30 16 31 17 32 78 33 18 34 77 35 19 36 20 37 21 38
REMARK SMILES IDX 71 39 22 40 76 41 70 42 72 43 23 44 75 45 69 46 68 47 24 49
REMARK SMILES IDX 56 50 36 51 55 52 37 53 40 54 54 55 73 56 38 57 39 58 53 60
REMARK SMILES IDX 74 61 41 62 25 63 26 64 34 65 27 66 29 67 35 68 28 69 30 70
REMARK SMILES IDX 31 71 32 72 33 73 57 74 58 75 66 76 59 77 61 78 67 79 60 80
REMARK SMILES IDX 62 81 63 82 64 83 65 84 42 85 43 86 51 87 44 88 46 89 52 90
REMARK SMILES IDX 45 91 47 92 48 93 49 94 50 95
REMARK H PARENT 9 6 84 19 84 20 84 21 13 29 72 48 40 59
REMARK Flexibility Score: inf
ROOT
ATOM      1  C   UNL A   1      31.761  28.995  26.777  1.00  0.00     0.042 C 
ENDROOT
BRANCH   1   2
ATOM      2  C   UNL A   1      32.372  27.609  26.758  1.00  0.00     0.117 C 
BRANCH   2   3
ATOM      3  N   UNL A   1      31.417  26.535  26.930  1.00  0.00    -0.354 N 
ATOM      4  C   UNL A   1      31.463  25.263  26.439  1.00  0.00     0.243 C 
ATOM      5  O   UNL A   1      30.537  24.507  26.755  1.00  0.00    -0.273 OA
ATOM      6  H   UNL A   1      30.626  26.751  27.474  1.00  0.00     0.163 HD
BRANCH   4   7
ATOM      7  C   UNL A   1      32.487  24.832  25.361  1.00  0.00     0.185 C 
ATOM      8  C   UNL A   1      32.766  23.331  23.424  1.00  0.00     0.144 C 
ATOM      9  S   UNL A   1      34.012  22.788  24.653  1.00  0.00    -0.134 SA
ATOM     10  N   UNL A   1      31.973  24.417  24.024  1.00  0.00    -0.312 N 
ATOM     11  C   UNL A   1      33.365  23.772  26.005  1.00  0.00     0.107 C 
BRANCH   8  12
ATOM     12  C   UNL A   1      32.050  22.053  22.960  1.00  0.00     0.033 C 
ATOM     13  C   UNL A   1      32.406  20.875  23.876  1.00  0.00     0.007 C 
ENDBRANCH   8  12
BRANCH  10  14
ATOM     14  C   UNL A   1      31.357  25.467  23.345  1.00  0.00     0.294 C 
ATOM     15  O   UNL A   1      30.105  25.496  23.389  1.00  0.00    -0.267 OA
BRANCH  14  16
ATOM     16  C   UNL A   1      31.967  26.589  22.426  1.00  0.00     0.267 C 
ATOM     17  C   UNL A   1      31.098  27.844  22.586  1.00  0.00     0.100 C 
BRANCH  16  18
ATOM     18  N   UNL A   1      31.688  26.109  21.001  1.00  0.00    -0.337 N 
ATOM     19  H   UNL A   1      31.086  26.782  20.527  1.00  0.00     0.345 HD
ATOM     20  H   UNL A   1      31.224  25.201  21.034  1.00  0.00     0.345 HD
ATOM     21  H   UNL A   1      32.568  26.023  20.492  1.00  0.00     0.345 HD
ENDBRANCH  16  18
BRANCH  16  22
ATOM     22  C   UNL A   1      33.434  26.987  22.553  1.00  0.00     0.453 C 
ATOM     23  F   UNL A   1      33.714  27.461  23.795  1.00  0.00    -0.164 F 
ATOM     24  F   UNL A   1      34.253  25.935  22.367  1.00  0.00    -0.164 F 
ATOM     25  F   UNL A   1      33.755  27.972  21.686  1.00  0.00    -0.164 F 
ENDBRANCH  16  22
ENDBRANCH  14  16
ENDBRANCH  10  14
ENDBRANCH   4   7
ENDBRANCH   2   3
ENDBRANCH   1   2
BRANCH   1  26
ATOM     26  C   UNL A   1      32.559  30.050  26.025  1.00  0.00     0.118 C 
BRANCH  26  27
ATOM     27  N   UNL A   1      32.357  31.411  26.509  1.00  0.00    -0.352 N 
ATOM     28  C   UNL A   1      33.130  32.191  27.347  1.00  0.00     0.251 C 
ATOM     29  H   UNL A   1      31.534  31.845  26.186  1.00  0.00     0.163 HD
ATOM     30  O   UNL A   1      32.712  33.273  27.726  1.00  0.00    -0.269 OA
BRANCH  28  31
ATOM     31  C   UNL A   1      34.449  31.695  27.811  1.00  0.00     0.039 A 
ATOM     32  C   UNL A   1      35.369  32.598  28.351  1.00  0.00     0.014 A 
ATOM     33  C   UNL A   1      34.763  30.340  27.746  1.00  0.00     0.014 A 
ATOM     34  C   UNL A   1      36.546  32.118  28.936  1.00  0.00     0.010 A 
ATOM     35  C   UNL A   1      35.865  29.855  28.440  1.00  0.00     0.010 A 
ATOM     36  C   UNL A   1      36.771  30.736  29.045  1.00  0.00    -0.014 A 
BRANCH  36  37
ATOM     37  C   UNL A   1      37.923  30.178  29.804  1.00  0.00     0.031 A 
ATOM     38  C   UNL A   1      38.198  30.638  31.212  1.00  0.00     0.074 A 
ATOM     39  C   UNL A   1      38.797  29.358  29.184  1.00  0.00     0.049 A 
ATOM     40  N   UNL A   1      39.213  30.360  31.989  1.00  0.00    -0.248 NA
ATOM     41  C   UNL A   1      37.225  31.567  31.814  1.00  0.00     0.031 C 
ATOM     42  C   UNL A   1      38.704  28.914  27.791  1.00  0.00     0.029 A 
ATOM     43  N   UNL A   1      39.957  28.776  29.636  1.00  0.00    -0.354 N 
ATOM     44  C   UNL A   1      39.028  31.115  33.140  1.00  0.00     0.074 A 
ATOM     45  C   UNL A   1      37.828  31.896  32.946  1.00  0.00     0.031 C 
ATOM     46  C   UNL A   1      39.750  28.123  27.506  1.00  0.00     0.029 A 
ATOM     47  C   UNL A   1      40.611  28.031  28.681  1.00  0.00     0.049 A 
ATOM     48  H   UNL A   1      40.288  28.882  30.556  1.00  0.00     0.167 HD
ATOM     49  C   UNL A   1      39.768  31.132  34.275  1.00  0.00     0.034 A 
ATOM     50  C   UNL A   1      41.776  27.356  28.740  1.00  0.00     0.034 A 
ATOM     51  C   UNL A   1      40.924  30.306  34.492  1.00  0.00     0.049 A 
ATOM     52  C   UNL A   1      42.547  27.343  30.031  1.00  0.00     0.074 A 
ATOM     53  C   UNL A   1      41.675  30.163  35.645  1.00  0.00     0.029 A 
ATOM     54  N   UNL A   1      41.499  29.485  33.535  1.00  0.00    -0.354 N 
ATOM     55  N   UNL A   1      42.262  27.931  31.168  1.00  0.00    -0.248 NA
ATOM     56  C   UNL A   1      43.783  26.547  30.059  1.00  0.00     0.031 C 
ATOM     57  C   UNL A   1      42.718  29.269  35.378  1.00  0.00     0.029 A 
ATOM     58  C   UNL A   1      42.603  28.840  34.066  1.00  0.00     0.049 A 
ATOM     59  H   UNL A   1      41.170  29.375  32.613  1.00  0.00     0.167 HD
ATOM     60  C   UNL A   1      43.266  27.553  32.054  1.00  0.00     0.074 A 
ATOM     61  C   UNL A   1      44.151  26.666  31.328  1.00  0.00     0.031 C 
ATOM     62  C   UNL A   1      43.447  27.923  33.345  1.00  0.00     0.034 A 
BRANCH  49  63
ATOM     63  C   UNL A   1      39.308  32.030  35.395  1.00  0.00     0.023 A 
ATOM     64  C   UNL A   1      38.371  31.547  36.333  1.00  0.00     0.012 A 
ATOM     65  C   UNL A   1      39.830  33.328  35.550  1.00  0.00     0.148 A 
ATOM     66  C   UNL A   1      37.929  32.355  37.379  1.00  0.00     0.002 A 
ATOM     67  C   UNL A   1      39.420  34.111  36.623  1.00  0.00     0.091 A 
ATOM     68  F   UNL A   1      40.703  33.781  34.638  1.00  0.00    -0.205 F 
ATOM     69  C   UNL A   1      38.461  33.632  37.530  1.00  0.00     0.022 A 
BRANCH  67  70
ATOM     70  S   UNL A   1      40.106  35.738  36.952  1.00  0.00     0.127 S 
ATOM     71  O   UNL A   1      39.676  36.484  35.769  1.00  0.00    -0.237 OA
ATOM     72  O   UNL A   1      39.425  36.116  38.191  1.00  0.00    -0.237 OA
ATOM     73  O   UNL A   1      41.544  35.549  37.084  1.00  0.00    -0.744 OA
ENDBRANCH  67  70
ENDBRANCH  49  63
BRANCH  50  74
ATOM     74  C   UNL A   1      42.244  26.578  27.557  1.00  0.00     0.023 A 
ATOM     75  C   UNL A   1      43.006  27.226  26.566  1.00  0.00     0.012 A 
ATOM     76  C   UNL A   1      41.975  25.202  27.426  1.00  0.00     0.148 A 
ATOM     77  C   UNL A   1      43.467  26.526  25.451  1.00  0.00     0.002 A 
ATOM     78  C   UNL A   1      42.484  24.498  26.340  1.00  0.00     0.091 A 
ATOM     79  F   UNL A   1      41.239  24.605  28.374  1.00  0.00    -0.205 F 
ATOM     80  C   UNL A   1      43.216  25.161  25.342  1.00  0.00     0.022 A 
BRANCH  78  81
ATOM     81  S   UNL A   1      42.326  22.714  26.186  1.00  0.00     0.127 S 
ATOM     82  O   UNL A   1      43.053  22.248  27.363  1.00  0.00    -0.237 OA
ATOM     83  O   UNL A   1      40.875  22.533  26.245  1.00  0.00    -0.237 OA
ATOM     84  O   UNL A   1      42.918  22.377  24.899  1.00  0.00    -0.744 OA
ENDBRANCH  78  81
ENDBRANCH  50  74
BRANCH  62  85
ATOM     85  C   UNL A   1      44.638  27.353  34.072  1.00  0.00     0.023 A 
ATOM     86  C   UNL A   1      45.869  28.038  34.039  1.00  0.00     0.012 A 
ATOM     87  C   UNL A   1      44.517  26.183  34.847  1.00  0.00     0.148 A 
ATOM     88  C   UNL A   1      46.969  27.550  34.741  1.00  0.00     0.002 A 
ATOM     89  C   UNL A   1      45.605  25.728  35.583  1.00  0.00     0.091 A 
ATOM     90  F   UNL A   1      43.342  25.536  34.850  1.00  0.00    -0.205 F 
ATOM     91  C   UNL A   1      46.835  26.404  35.521  1.00  0.00     0.022 A 
BRANCH  89  92
ATOM     92  S   UNL A   1      45.496  24.318  36.689  1.00  0.00     0.127 S 
ATOM     93  O   UNL A   1      45.152  23.240  35.764  1.00  0.00    -0.237 OA
ATOM     94  O   UNL A   1      46.853  24.245  37.233  1.00  0.00    -0.237 OA
ATOM     95  O   UNL A   1      44.472  24.654  37.668  1.00  0.00    -0.744 OA
ENDBRANCH  89  92
ENDBRANCH  62  85
ENDBRANCH  36  37
ENDBRANCH  28  31
ENDBRANCH  26  27
ENDBRANCH   1  26
TORSDOF 18
ENDMDL
