MODEL 1
REMARK VINA RESULT:     -12.7      0.000      0.000
REMARK SMILES NS(=O)(=O)c1ccc(-c2coc(=O)n2-c2ccc(C(=O)NCCCNC(=O)c3ccc(-c4c5nc(c(-c6cccc(S(=O)(=O)[O-])c6F)c6ccc([nH]6)c(-c6cccc(S(=O)(=O)[O-])c6F)c6nc(c(-c7cccc(S(=O)(=O)[O-])c7F)c7ccc4[nH]7)C=C6)C=C5)cc3)cc2)cc1
REMARK SMILES IDX 22 1 21 2 19 3 20 4 18 6 15 7 16 8 92 9 17 10 91 11 14 12
REMARK SMILES IDX 9 13 10 14 11 15 12 16 13 17 8 18 5 19 6 20 94 21 7 22 93 23
REMARK SMILES IDX 2 24 3 25 4 26 1 27 23 30 24 31 25 32 26 33 27 35 28 36
REMARK SMILES IDX 29 37 90 38 30 39 89 40 31 41 32 42 33 43 83 44 34 45 88 46
REMARK SMILES IDX 82 47 84 48 35 49 87 50 81 51 80 52 36 54 68 55 48 56 67 57
REMARK SMILES IDX 49 58 52 59 66 60 85 61 50 62 51 63 65 65 86 66 53 67 37 68
REMARK SMILES IDX 38 69 46 70 39 71 41 72 47 73 40 74 42 75 43 76 44 77 45 78
REMARK SMILES IDX 69 79 70 80 78 81 71 82 73 83 79 84 72 85 74 86 75 87 76 88
REMARK SMILES IDX 77 89 54 90 55 91 63 92 56 93 58 94 64 95 57 96 59 97 60 98
REMARK SMILES IDX 61 99 62 100
REMARK H PARENT 21 5 1 28 1 29 25 34 84 53 52 64
REMARK Flexibility Score: inf
ROOT
ATOM      1  C   UNL A   1      37.869  20.668  25.087  1.00  0.00     0.118 C 
ENDROOT
BRANCH   1   2
ATOM      2  N   UNL A   1      38.526  21.942  25.343  1.00  0.00    -0.352 N 
ATOM      3  C   UNL A   1      38.064  23.236  25.359  1.00  0.00     0.251 C 
ATOM      4  O   UNL A   1      38.825  24.113  25.763  1.00  0.00    -0.269 OA
ATOM      5  H   UNL A   1      39.486  21.860  25.544  1.00  0.00     0.163 HD
BRANCH   3   6
ATOM      6  C   UNL A   1      36.672  23.612  24.983  1.00  0.00     0.039 A 
ATOM      7  C   UNL A   1      33.958  24.099  24.433  1.00  0.00     0.053 A 
ATOM      8  C   UNL A   1      34.442  24.274  25.729  1.00  0.00     0.028 A 
ATOM      9  C   UNL A   1      34.848  23.790  23.406  1.00  0.00     0.028 A 
ATOM     10  C   UNL A   1      35.789  24.000  26.007  1.00  0.00     0.016 A 
ATOM     11  C   UNL A   1      36.197  23.605  23.676  1.00  0.00     0.016 A 
BRANCH   7  12
ATOM     12  N   UNL A   1      32.592  24.202  24.127  1.00  0.00    -0.242 N 
ATOM     13  C   UNL A   1      31.752  23.203  23.720  1.00  0.00     0.095 A 
ATOM     14  C   UNL A   1      30.624  23.800  23.359  1.00  0.00     0.228 A 
ATOM     15  O   UNL A   1      30.635  25.186  23.509  1.00  0.00    -0.415 OA
ATOM     16  C   UNL A   1      31.916  25.412  24.019  1.00  0.00     0.424 A 
ATOM     17  O   UNL A   1      32.331  26.535  24.267  1.00  0.00    -0.223 OA
BRANCH  13  18
ATOM     18  C   UNL A   1      32.032  21.768  23.808  1.00  0.00     0.002 A 
ATOM     19  C   UNL A   1      32.643  19.040  24.015  1.00  0.00     0.082 A 
ATOM     20  C   UNL A   1      32.551  19.813  25.172  1.00  0.00     0.022 A 
ATOM     21  C   UNL A   1      32.432  19.614  22.756  1.00  0.00     0.022 A 
ATOM     22  C   UNL A   1      32.245  21.172  25.065  1.00  0.00     0.012 A 
ATOM     23  C   UNL A   1      32.119  20.974  22.657  1.00  0.00     0.012 A 
BRANCH  19  24
ATOM     24  S   UNL A   1      33.053  17.324  24.139  1.00  0.00     0.238 S 
ATOM     25  O   UNL A   1      34.229  17.161  24.952  1.00  0.00    -0.207 OA
ATOM     26  O   UNL A   1      32.909  16.719  22.830  1.00  0.00    -0.207 OA
BRANCH  24  27
ATOM     27  N   UNL A   1      31.790  16.717  25.069  1.00  0.00    -0.225 NA
ATOM     28  H   UNL A   1      31.618  17.341  25.858  1.00  0.00     0.137 HD
ATOM     29  H   UNL A   1      32.038  15.791  25.417  1.00  0.00     0.137 HD
ENDBRANCH  24  27
ENDBRANCH  19  24
ENDBRANCH  13  18
ENDBRANCH   7  12
ENDBRANCH   3   6
ENDBRANCH   1   2
BRANCH   1  30
ATOM     30  C   UNL A   1      38.791  19.473  25.370  1.00  0.00     0.042 C 
BRANCH  30  31
ATOM     31  C   UNL A   1      39.915  19.843  26.317  1.00  0.00     0.118 C 
BRANCH  31  32
ATOM     32  N   UNL A   1      41.183  19.209  25.940  1.00  0.00    -0.352 N 
ATOM     33  C   UNL A   1      42.420  19.799  25.771  1.00  0.00     0.251 C 
ATOM     34  H   UNL A   1      41.147  18.237  25.789  1.00  0.00     0.163 HD
ATOM     35  O   UNL A   1      43.297  19.233  25.127  1.00  0.00    -0.269 OA
BRANCH  33  36
ATOM     36  C   UNL A   1      42.665  21.115  26.384  1.00  0.00     0.039 A 
ATOM     37  C   UNL A   1      42.827  22.270  25.615  1.00  0.00     0.014 A 
ATOM     38  C   UNL A   1      42.703  21.176  27.773  1.00  0.00     0.014 A 
ATOM     39  C   UNL A   1      42.960  23.490  26.272  1.00  0.00     0.010 A 
ATOM     40  C   UNL A   1      42.605  22.381  28.405  1.00  0.00     0.010 A 
ATOM     41  C   UNL A   1      42.830  23.533  27.670  1.00  0.00    -0.014 A 
BRANCH  41  42
ATOM     42  C   UNL A   1      42.789  24.789  28.400  1.00  0.00     0.031 A 
ATOM     43  C   UNL A   1      41.496  25.498  28.238  1.00  0.00     0.074 A 
ATOM     44  C   UNL A   1      43.736  25.139  29.300  1.00  0.00     0.049 A 
ATOM     45  N   UNL A   1      41.275  26.545  27.518  1.00  0.00    -0.248 NA
ATOM     46  C   UNL A   1      40.268  24.857  28.743  1.00  0.00     0.031 C 
ATOM     47  C   UNL A   1      44.877  24.339  29.773  1.00  0.00     0.029 A 
ATOM     48  N   UNL A   1      43.803  26.235  30.101  1.00  0.00    -0.354 N 
ATOM     49  C   UNL A   1      39.938  26.861  27.732  1.00  0.00     0.074 A 
ATOM     50  C   UNL A   1      39.327  25.667  28.249  1.00  0.00     0.031 C 
ATOM     51  C   UNL A   1      45.341  24.853  30.934  1.00  0.00     0.029 A 
ATOM     52  C   UNL A   1      44.649  26.100  31.203  1.00  0.00     0.049 A 
ATOM     53  H   UNL A   1      43.296  27.059  29.919  1.00  0.00     0.167 HD
ATOM     54  C   UNL A   1      39.533  28.160  27.769  1.00  0.00     0.034 A 
ATOM     55  C   UNL A   1      44.724  26.926  32.279  1.00  0.00     0.034 A 
ATOM     56  C   UNL A   1      40.574  29.033  27.277  1.00  0.00     0.049 A 
ATOM     57  C   UNL A   1      44.127  28.218  31.869  1.00  0.00     0.074 A 
ATOM     58  C   UNL A   1      41.286  29.143  26.099  1.00  0.00     0.029 A 
ATOM     59  N   UNL A   1      41.311  29.691  28.233  1.00  0.00    -0.354 N 
ATOM     60  N   UNL A   1      44.653  28.993  30.963  1.00  0.00    -0.248 NA
ATOM     61  C   UNL A   1      42.708  28.410  32.118  1.00  0.00     0.031 C 
ATOM     62  C   UNL A   1      42.619  29.445  26.505  1.00  0.00     0.029 A 
ATOM     63  C   UNL A   1      42.632  29.602  27.892  1.00  0.00     0.049 A 
ATOM     64  H   UNL A   1      40.948  30.147  29.027  1.00  0.00     0.167 HD
ATOM     65  C   UNL A   1      43.567  29.390  30.195  1.00  0.00     0.074 A 
ATOM     66  C   UNL A   1      42.390  29.094  31.015  1.00  0.00     0.031 C 
ATOM     67  C   UNL A   1      43.707  29.625  28.858  1.00  0.00     0.034 A 
BRANCH  54  68
ATOM     68  C   UNL A   1      38.410  28.708  28.624  1.00  0.00     0.023 A 
ATOM     69  C   UNL A   1      37.383  29.407  27.948  1.00  0.00     0.012 A 
ATOM     70  C   UNL A   1      38.441  28.825  30.033  1.00  0.00     0.148 A 
ATOM     71  C   UNL A   1      36.482  30.231  28.629  1.00  0.00     0.002 A 
ATOM     72  C   UNL A   1      37.495  29.582  30.713  1.00  0.00     0.091 A 
ATOM     73  F   UNL A   1      39.459  28.316  30.728  1.00  0.00    -0.205 F 
ATOM     74  C   UNL A   1      36.534  30.316  30.015  1.00  0.00     0.022 A 
BRANCH  72  75
ATOM     75  S   UNL A   1      37.483  29.697  32.508  1.00  0.00     0.127 S 
ATOM     76  O   UNL A   1      37.404  28.290  32.889  1.00  0.00    -0.237 OA
ATOM     77  O   UNL A   1      38.771  30.339  32.768  1.00  0.00    -0.237 OA
ATOM     78  O   UNL A   1      36.326  30.516  32.845  1.00  0.00    -0.744 OA
ENDBRANCH  72  75
ENDBRANCH  54  68
BRANCH  55  79
ATOM     79  C   UNL A   1      44.988  26.630  33.710  1.00  0.00     0.023 A 
ATOM     80  C   UNL A   1      46.259  26.915  34.260  1.00  0.00     0.012 A 
ATOM     81  C   UNL A   1      43.923  26.385  34.602  1.00  0.00     0.148 A 
ATOM     82  C   UNL A   1      46.447  27.001  35.646  1.00  0.00     0.002 A 
ATOM     83  C   UNL A   1      44.115  26.475  35.979  1.00  0.00     0.091 A 
ATOM     84  F   UNL A   1      42.702  26.165  34.100  1.00  0.00    -0.205 F 
ATOM     85  C   UNL A   1      45.372  26.794  36.506  1.00  0.00     0.022 A 
BRANCH  83  86
ATOM     86  S   UNL A   1      42.763  26.272  37.148  1.00  0.00     0.127 S 
ATOM     87  O   UNL A   1      41.879  27.379  36.781  1.00  0.00    -0.237 OA
ATOM     88  O   UNL A   1      42.262  24.946  36.799  1.00  0.00    -0.237 OA
ATOM     89  O   UNL A   1      43.364  26.395  38.469  1.00  0.00    -0.744 OA
ENDBRANCH  83  86
ENDBRANCH  55  79
BRANCH  67  90
ATOM     90  C   UNL A   1      45.105  29.726  28.301  1.00  0.00     0.023 A 
ATOM     91  C   UNL A   1      45.905  30.884  28.403  1.00  0.00     0.012 A 
ATOM     92  C   UNL A   1      45.675  28.550  27.792  1.00  0.00     0.148 A 
ATOM     93  C   UNL A   1      47.239  30.868  27.983  1.00  0.00     0.002 A 
ATOM     94  C   UNL A   1      47.011  28.525  27.420  1.00  0.00     0.091 A 
ATOM     95  F   UNL A   1      44.898  27.459  27.700  1.00  0.00    -0.205 F 
ATOM     96  C   UNL A   1      47.796  29.685  27.504  1.00  0.00     0.022 A 
BRANCH  94  97
ATOM     97  S   UNL A   1      47.799  26.996  26.913  1.00  0.00     0.127 S 
ATOM     98  O   UNL A   1      49.209  27.379  26.880  1.00  0.00    -0.237 OA
ATOM     99  O   UNL A   1      47.438  26.081  27.998  1.00  0.00    -0.237 OA
ATOM    100  O   UNL A   1      47.210  26.650  25.626  1.00  0.00    -0.744 OA
ENDBRANCH  94  97
ENDBRANCH  67  90
ENDBRANCH  41  42
ENDBRANCH  33  36
ENDBRANCH  31  32
ENDBRANCH  30  31
ENDBRANCH   1  30
TORSDOF 17
ENDMDL
MODEL 2
REMARK VINA RESULT:     -12.2      3.617      8.538
REMARK SMILES NS(=O)(=O)c1ccc(-c2coc(=O)n2-c2ccc(C(=O)NCCCNC(=O)c3ccc(-c4c5nc(c(-c6cccc(S(=O)(=O)[O-])c6F)c6ccc([nH]6)c(-c6cccc(S(=O)(=O)[O-])c6F)c6nc(c(-c7cccc(S(=O)(=O)[O-])c7F)c7ccc4[nH]7)C=C6)C=C5)cc3)cc2)cc1
REMARK SMILES IDX 22 1 21 2 19 3 20 4 18 6 15 7 16 8 92 9 17 10 91 11 14 12
REMARK SMILES IDX 9 13 10 14 11 15 12 16 13 17 8 18 5 19 6 20 94 21 7 22 93 23
REMARK SMILES IDX 2 24 3 25 4 26 1 27 23 30 24 31 25 32 26 33 27 35 28 36
REMARK SMILES IDX 29 37 90 38 30 39 89 40 31 41 32 42 33 43 83 44 34 45 88 46
REMARK SMILES IDX 82 47 84 48 35 49 87 50 81 51 80 52 36 54 68 55 48 56 67 57
REMARK SMILES IDX 49 58 52 59 66 60 85 61 50 62 51 63 65 65 86 66 53 67 37 68
REMARK SMILES IDX 38 69 46 70 39 71 41 72 47 73 40 74 42 75 43 76 44 77 45 78
REMARK SMILES IDX 69 79 70 80 78 81 71 82 73 83 79 84 72 85 74 86 75 87 76 88
REMARK SMILES IDX 77 89 54 90 55 91 63 92 56 93 58 94 64 95 57 96 59 97 60 98
REMARK SMILES IDX 61 99 62 100
REMARK H PARENT 21 5 1 28 1 29 25 34 84 53 52 64
REMARK Flexibility Score: inf
ROOT
ATOM      1  C   UNL A   1      33.418  31.468  27.623  1.00  0.00     0.118 C 
ENDROOT
BRANCH   1   2
ATOM      2  N   UNL A   1      34.553  30.601  27.902  1.00  0.00    -0.352 N 
ATOM      3  C   UNL A   1      34.898  29.351  27.447  1.00  0.00     0.251 C 
ATOM      4  O   UNL A   1      36.011  28.919  27.742  1.00  0.00    -0.269 OA
ATOM      5  H   UNL A   1      35.199  30.985  28.538  1.00  0.00     0.163 HD
BRANCH   3   6
ATOM      6  C   UNL A   1      34.024  28.533  26.560  1.00  0.00     0.039 A 
ATOM      7  C   UNL A   1      32.437  26.765  25.057  1.00  0.00     0.053 A 
ATOM      8  C   UNL A   1      32.069  27.081  26.364  1.00  0.00     0.028 A 
ATOM      9  C   UNL A   1      33.525  27.414  24.476  1.00  0.00     0.028 A 
ATOM     10  C   UNL A   1      32.880  27.938  27.122  1.00  0.00     0.016 A 
ATOM     11  C   UNL A   1      34.272  28.327  25.207  1.00  0.00     0.016 A 
BRANCH   7  12
ATOM     12  N   UNL A   1      31.758  25.793  24.305  1.00  0.00    -0.242 N 
ATOM     13  C   UNL A   1      30.604  25.950  23.589  1.00  0.00     0.095 A 
ATOM     14  C   UNL A   1      30.235  24.730  23.220  1.00  0.00     0.228 A 
ATOM     15  O   UNL A   1      31.098  23.718  23.641  1.00  0.00    -0.415 OA
ATOM     16  C   UNL A   1      32.077  24.440  24.329  1.00  0.00     0.424 A 
ATOM     17  O   UNL A   1      33.021  23.895  24.884  1.00  0.00    -0.223 OA
BRANCH  13  18
ATOM     18  C   UNL A   1      30.003  27.231  23.214  1.00  0.00     0.002 A 
ATOM     19  C   UNL A   1      28.797  29.642  22.445  1.00  0.00     0.082 A 
ATOM     20  C   UNL A   1      28.044  28.682  23.120  1.00  0.00     0.022 A 
ATOM     21  C   UNL A   1      30.145  29.413  22.151  1.00  0.00     0.022 A 
ATOM     22  C   UNL A   1      28.650  27.482  23.502  1.00  0.00     0.012 A 
ATOM     23  C   UNL A   1      30.747  28.212  22.544  1.00  0.00     0.012 A 
BRANCH  19  24
ATOM     24  S   UNL A   1      28.033  31.154  21.936  1.00  0.00     0.238 S 
ATOM     25  O   UNL A   1      27.099  31.591  22.940  1.00  0.00    -0.207 OA
ATOM     26  O   UNL A   1      27.690  31.050  20.532  1.00  0.00    -0.207 OA
BRANCH  24  27
ATOM     27  N   UNL A   1      29.308  32.249  22.019  1.00  0.00    -0.225 NA
ATOM     28  H   UNL A   1      29.024  33.062  22.565  1.00  0.00     0.137 HD
ATOM     29  H   UNL A   1      29.565  32.545  21.077  1.00  0.00     0.137 HD
ENDBRANCH  24  27
ENDBRANCH  19  24
ENDBRANCH  13  18
ENDBRANCH   7  12
ENDBRANCH   3   6
ENDBRANCH   1   2
BRANCH   1  30
ATOM     30  C   UNL A   1      33.705  32.934  27.981  1.00  0.00     0.042 C 
BRANCH  30  31
ATOM     31  C   UNL A   1      34.994  33.077  28.765  1.00  0.00     0.118 C 
BRANCH  31  32
ATOM     32  N   UNL A   1      34.775  32.959  30.210  1.00  0.00    -0.352 N 
ATOM     33  C   UNL A   1      35.381  32.095  31.102  1.00  0.00     0.251 C 
ATOM     34  H   UNL A   1      34.112  33.575  30.595  1.00  0.00     0.163 HD
ATOM     35  O   UNL A   1      34.865  31.861  32.189  1.00  0.00    -0.269 OA
BRANCH  33  36
ATOM     36  C   UNL A   1      36.657  31.467  30.722  1.00  0.00     0.039 A 
ATOM     37  C   UNL A   1      37.784  32.224  30.394  1.00  0.00     0.014 A 
ATOM     38  C   UNL A   1      36.712  30.077  30.727  1.00  0.00     0.014 A 
ATOM     39  C   UNL A   1      38.979  31.557  30.137  1.00  0.00     0.010 A 
ATOM     40  C   UNL A   1      37.920  29.444  30.701  1.00  0.00     0.010 A 
ATOM     41  C   UNL A   1      39.037  30.164  30.312  1.00  0.00    -0.014 A 
BRANCH  41  42
ATOM     42  C   UNL A   1      40.288  29.429  30.227  1.00  0.00     0.031 A 
ATOM     43  C   UNL A   1      40.836  29.084  31.562  1.00  0.00     0.074 A 
ATOM     44  C   UNL A   1      40.759  28.928  29.063  1.00  0.00     0.049 A 
ATOM     45  N   UNL A   1      41.840  29.641  32.150  1.00  0.00    -0.248 NA
ATOM     46  C   UNL A   1      40.060  28.187  32.436  1.00  0.00     0.031 C 
ATOM     47  C   UNL A   1      40.107  28.931  27.744  1.00  0.00     0.029 A 
ATOM     48  N   UNL A   1      41.865  28.172  28.833  1.00  0.00    -0.354 N 
ATOM     49  C   UNL A   1      41.997  28.942  33.343  1.00  0.00     0.074 A 
ATOM     50  C   UNL A   1      40.745  28.276  33.580  1.00  0.00     0.031 C 
ATOM     51  C   UNL A   1      40.687  28.003  26.949  1.00  0.00     0.029 A 
ATOM     52  C   UNL A   1      41.845  27.460  27.633  1.00  0.00     0.049 A 
ATOM     53  H   UNL A   1      42.621  28.129  29.464  1.00  0.00     0.167 HD
ATOM     54  C   UNL A   1      43.239  28.718  33.853  1.00  0.00     0.034 A 
ATOM     55  C   UNL A   1      42.689  26.460  27.265  1.00  0.00     0.034 A 
ATOM     56  C   UNL A   1      44.224  29.528  33.173  1.00  0.00     0.049 A 
ATOM     57  C   UNL A   1      43.895  26.582  28.115  1.00  0.00     0.074 A 
ATOM     58  C   UNL A   1      44.403  30.881  32.960  1.00  0.00     0.029 A 
ATOM     59  N   UNL A   1      44.977  28.887  32.218  1.00  0.00    -0.354 N 
ATOM     60  N   UNL A   1      44.716  27.591  28.051  1.00  0.00    -0.248 NA
ATOM     61  C   UNL A   1      43.920  25.825  29.356  1.00  0.00     0.031 C 
ATOM     62  C   UNL A   1      44.867  30.981  31.616  1.00  0.00     0.029 A 
ATOM     63  C   UNL A   1      45.042  29.689  31.113  1.00  0.00     0.049 A 
ATOM     64  H   UNL A   1      45.397  28.002  32.314  1.00  0.00     0.167 HD
ATOM     65  C   UNL A   1      44.971  27.896  29.381  1.00  0.00     0.074 A 
ATOM     66  C   UNL A   1      44.547  26.713  30.132  1.00  0.00     0.031 C 
ATOM     67  C   UNL A   1      45.205  29.183  29.769  1.00  0.00     0.034 A 
BRANCH  54  68
ATOM     68  C   UNL A   1      43.660  27.495  34.639  1.00  0.00     0.023 A 
ATOM     69  C   UNL A   1      44.254  27.727  35.901  1.00  0.00     0.012 A 
ATOM     70  C   UNL A   1      43.768  26.186  34.114  1.00  0.00     0.148 A 
ATOM     71  C   UNL A   1      44.974  26.732  36.571  1.00  0.00     0.002 A 
ATOM     72  C   UNL A   1      44.418  25.179  34.819  1.00  0.00     0.091 A 
ATOM     73  F   UNL A   1      43.362  25.924  32.871  1.00  0.00    -0.205 F 
ATOM     74  C   UNL A   1      45.052  25.455  36.031  1.00  0.00     0.022 A 
BRANCH  72  75
ATOM     75  S   UNL A   1      44.515  23.495  34.195  1.00  0.00     0.127 S 
ATOM     76  O   UNL A   1      43.106  23.182  33.978  1.00  0.00    -0.237 OA
ATOM     77  O   UNL A   1      45.304  23.680  32.976  1.00  0.00    -0.237 OA
ATOM     78  O   UNL A   1      45.188  22.726  35.233  1.00  0.00    -0.744 OA
ENDBRANCH  72  75
ENDBRANCH  54  68
BRANCH  55  79
ATOM     79  C   UNL A   1      42.444  25.235  26.461  1.00  0.00     0.023 A 
ATOM     80  C   UNL A   1      43.359  24.868  25.449  1.00  0.00     0.012 A 
ATOM     81  C   UNL A   1      41.516  24.265  26.894  1.00  0.00     0.148 A 
ATOM     82  C   UNL A   1      43.380  23.569  24.925  1.00  0.00     0.002 A 
ATOM     83  C   UNL A   1      41.542  22.973  26.372  1.00  0.00     0.091 A 
ATOM     84  F   UNL A   1      40.675  24.578  27.889  1.00  0.00    -0.205 F 
ATOM     85  C   UNL A   1      42.480  22.617  25.396  1.00  0.00     0.022 A 
BRANCH  83  86
ATOM     86  S   UNL A   1      40.447  21.678  26.970  1.00  0.00     0.127 S 
ATOM     87  O   UNL A   1      40.880  20.528  26.176  1.00  0.00    -0.237 OA
ATOM     88  O   UNL A   1      40.802  21.615  28.384  1.00  0.00    -0.237 OA
ATOM     89  O   UNL A   1      39.096  22.138  26.675  1.00  0.00    -0.744 OA
ENDBRANCH  83  86
ENDBRANCH  55  79
BRANCH  67  90
ATOM     90  C   UNL A   1      45.464  30.210  28.695  1.00  0.00     0.023 A 
ATOM     91  C   UNL A   1      44.459  31.032  28.141  1.00  0.00     0.012 A 
ATOM     92  C   UNL A   1      46.803  30.448  28.350  1.00  0.00     0.148 A 
ATOM     93  C   UNL A   1      44.788  32.054  27.245  1.00  0.00     0.002 A 
ATOM     94  C   UNL A   1      47.129  31.493  27.498  1.00  0.00     0.091 A 
ATOM     95  F   UNL A   1      47.744  29.655  28.884  1.00  0.00    -0.205 F 
ATOM     96  C   UNL A   1      46.125  32.294  26.934  1.00  0.00     0.022 A 
BRANCH  94  97
ATOM     97  S   UNL A   1      48.841  31.911  27.166  1.00  0.00     0.127 S 
ATOM     98  O   UNL A   1      49.342  30.680  26.560  1.00  0.00    -0.237 OA
ATOM     99  O   UNL A   1      48.716  33.041  26.242  1.00  0.00    -0.237 OA
ATOM    100  O   UNL A   1      49.425  32.262  28.454  1.00  0.00    -0.744 OA
ENDBRANCH  94  97
ENDBRANCH  67  90
ENDBRANCH  41  42
ENDBRANCH  33  36
ENDBRANCH  31  32
ENDBRANCH  30  31
ENDBRANCH   1  30
TORSDOF 17
ENDMDL
MODEL 3
REMARK VINA RESULT:     -11.9      2.238      6.406
REMARK SMILES NS(=O)(=O)c1ccc(-c2coc(=O)n2-c2ccc(C(=O)NCCCNC(=O)c3ccc(-c4c5nc(c(-c6cccc(S(=O)(=O)[O-])c6F)c6ccc([nH]6)c(-c6cccc(S(=O)(=O)[O-])c6F)c6nc(c(-c7cccc(S(=O)(=O)[O-])c7F)c7ccc4[nH]7)C=C6)C=C5)cc3)cc2)cc1
REMARK SMILES IDX 22 1 21 2 19 3 20 4 18 6 15 7 16 8 92 9 17 10 91 11 14 12
REMARK SMILES IDX 9 13 10 14 11 15 12 16 13 17 8 18 5 19 6 20 94 21 7 22 93 23
REMARK SMILES IDX 2 24 3 25 4 26 1 27 23 30 24 31 25 32 26 33 27 35 28 36
REMARK SMILES IDX 29 37 90 38 30 39 89 40 31 41 32 42 33 43 83 44 34 45 88 46
REMARK SMILES IDX 82 47 84 48 35 49 87 50 81 51 80 52 36 54 68 55 48 56 67 57
REMARK SMILES IDX 49 58 52 59 66 60 85 61 50 62 51 63 65 65 86 66 53 67 37 68
REMARK SMILES IDX 38 69 46 70 39 71 41 72 47 73 40 74 42 75 43 76 44 77 45 78
REMARK SMILES IDX 69 79 70 80 78 81 71 82 73 83 79 84 72 85 74 86 75 87 76 88
REMARK SMILES IDX 77 89 54 90 55 91 63 92 56 93 58 94 64 95 57 96 59 97 60 98
REMARK SMILES IDX 61 99 62 100
REMARK H PARENT 21 5 1 28 1 29 25 34 84 53 52 64
REMARK Flexibility Score: inf
ROOT
ATOM      1  C   UNL A   1      38.332  20.977  25.381  1.00  0.00     0.118 C 
ENDROOT
BRANCH   1   2
ATOM      2  N   UNL A   1      38.782  22.316  25.733  1.00  0.00    -0.352 N 
ATOM      3  C   UNL A   1      38.146  23.534  25.744  1.00  0.00     0.251 C 
ATOM      4  O   UNL A   1      38.741  24.488  26.242  1.00  0.00    -0.269 OA
ATOM      5  H   UNL A   1      39.723  22.356  26.020  1.00  0.00     0.163 HD
BRANCH   3   6
ATOM      6  C   UNL A   1      36.754  23.734  25.252  1.00  0.00     0.039 A 
ATOM      7  C   UNL A   1      34.052  23.893  24.492  1.00  0.00     0.053 A 
ATOM      8  C   UNL A   1      34.420  24.202  25.801  1.00  0.00     0.028 A 
ATOM      9  C   UNL A   1      35.040  23.614  23.550  1.00  0.00     0.028 A 
ATOM     10  C   UNL A   1      35.764  24.091  26.185  1.00  0.00     0.016 A 
ATOM     11  C   UNL A   1      36.379  23.592  23.920  1.00  0.00     0.016 A 
BRANCH   7  12
ATOM     12  N   UNL A   1      32.708  23.829  24.091  1.00  0.00    -0.242 N 
ATOM     13  C   UNL A   1      32.007  22.722  23.702  1.00  0.00     0.095 A 
ATOM     14  C   UNL A   1      30.852  23.171  23.226  1.00  0.00     0.228 A 
ATOM     15  O   UNL A   1      30.711  24.557  23.278  1.00  0.00    -0.415 OA
ATOM     16  C   UNL A   1      31.922  24.951  23.853  1.00  0.00     0.424 A 
ATOM     17  O   UNL A   1      32.201  26.125  24.048  1.00  0.00    -0.223 OA
BRANCH  13  18
ATOM     18  C   UNL A   1      32.424  21.334  23.910  1.00  0.00     0.002 A 
ATOM     19  C   UNL A   1      33.306  18.704  24.312  1.00  0.00     0.082 A 
ATOM     20  C   UNL A   1      33.543  19.666  25.293  1.00  0.00     0.022 A 
ATOM     21  C   UNL A   1      32.633  19.040  23.133  1.00  0.00     0.022 A 
ATOM     22  C   UNL A   1      33.101  20.976  25.089  1.00  0.00     0.012 A 
ATOM     23  C   UNL A   1      32.186  20.352  22.939  1.00  0.00     0.012 A 
BRANCH  19  24
ATOM     24  S   UNL A   1      33.883  17.049  24.552  1.00  0.00     0.238 S 
ATOM     25  O   UNL A   1      35.301  17.056  24.792  1.00  0.00    -0.207 OA
ATOM     26  O   UNL A   1      33.255  16.193  23.565  1.00  0.00    -0.207 OA
BRANCH  24  27
ATOM     27  N   UNL A   1      33.191  16.635  26.028  1.00  0.00    -0.225 NA
ATOM     28  H   UNL A   1      32.996  15.634  26.044  1.00  0.00     0.137 HD
ATOM     29  H   UNL A   1      32.320  17.152  26.153  1.00  0.00     0.137 HD
ENDBRANCH  24  27
ENDBRANCH  19  24
ENDBRANCH  13  18
ENDBRANCH   7  12
ENDBRANCH   3   6
ENDBRANCH   1   2
BRANCH   1  30
ATOM     30  C   UNL A   1      39.364  19.901  25.754  1.00  0.00     0.042 C 
BRANCH  30  31
ATOM     31  C   UNL A   1      40.506  20.478  26.565  1.00  0.00     0.118 C 
BRANCH  31  32
ATOM     32  N   UNL A   1      41.806  19.947  26.140  1.00  0.00    -0.352 N 
ATOM     33  C   UNL A   1      42.929  20.645  25.743  1.00  0.00     0.251 C 
ATOM     34  H   UNL A   1      41.888  18.967  26.137  1.00  0.00     0.163 HD
ATOM     35  O   UNL A   1      43.807  20.093  25.090  1.00  0.00    -0.269 OA
BRANCH  33  36
ATOM     36  C   UNL A   1      43.052  22.062  26.124  1.00  0.00     0.039 A 
ATOM     37  C   UNL A   1      42.350  23.070  25.460  1.00  0.00     0.014 A 
ATOM     38  C   UNL A   1      43.879  22.365  27.201  1.00  0.00     0.014 A 
ATOM     39  C   UNL A   1      42.446  24.373  25.940  1.00  0.00     0.010 A 
ATOM     40  C   UNL A   1      43.794  23.586  27.803  1.00  0.00     0.010 A 
ATOM     41  C   UNL A   1      43.160  24.614  27.127  1.00  0.00    -0.014 A 
BRANCH  41  42
ATOM     42  C   UNL A   1      43.159  25.916  27.773  1.00  0.00     0.031 A 
ATOM     43  C   UNL A   1      44.306  26.759  27.353  1.00  0.00     0.074 A 
ATOM     44  C   UNL A   1      42.107  26.372  28.489  1.00  0.00     0.049 A 
ATOM     45  N   UNL A   1      45.360  27.029  28.046  1.00  0.00    -0.248 NA
ATOM     46  C   UNL A   1      44.407  27.164  25.939  1.00  0.00     0.031 C 
ATOM     47  C   UNL A   1      40.792  25.738  28.673  1.00  0.00     0.029 A 
ATOM     48  N   UNL A   1      41.930  27.578  29.091  1.00  0.00    -0.354 N 
ATOM     49  C   UNL A   1      46.108  27.891  27.251  1.00  0.00     0.074 A 
ATOM     50  C   UNL A   1      45.624  27.713  25.909  1.00  0.00     0.031 C 
ATOM     51  C   UNL A   1      39.898  26.661  29.095  1.00  0.00     0.029 A 
ATOM     52  C   UNL A   1      40.601  27.901  29.368  1.00  0.00     0.049 A 
ATOM     53  H   UNL A   1      42.679  28.176  29.314  1.00  0.00     0.167 HD
ATOM     54  C   UNL A   1      46.830  28.898  27.815  1.00  0.00     0.034 A 
ATOM     55  C   UNL A   1      40.117  29.116  29.738  1.00  0.00     0.034 A 
ATOM     56  C   UNL A   1      46.920  28.721  29.247  1.00  0.00     0.049 A 
ATOM     57  C   UNL A   1      41.265  29.894  30.256  1.00  0.00     0.074 A 
ATOM     58  C   UNL A   1      47.389  27.728  30.084  1.00  0.00     0.029 A 
ATOM     59  N   UNL A   1      46.071  29.493  30.004  1.00  0.00    -0.354 N 
ATOM     60  N   UNL A   1      41.911  29.578  31.343  1.00  0.00    -0.248 NA
ATOM     61  C   UNL A   1      41.988  30.732  29.314  1.00  0.00     0.031 C 
ATOM     62  C   UNL A   1      46.445  27.675  31.152  1.00  0.00     0.029 A 
ATOM     63  C   UNL A   1      45.511  28.697  30.965  1.00  0.00     0.049 A 
ATOM     64  H   UNL A   1      45.896  30.452  29.876  1.00  0.00     0.167 HD
ATOM     65  C   UNL A   1      43.245  29.738  30.995  1.00  0.00     0.074 A 
ATOM     66  C   UNL A   1      43.227  30.553  29.779  1.00  0.00     0.031 C 
ATOM     67  C   UNL A   1      44.208  28.940  31.541  1.00  0.00     0.034 A 
BRANCH  54  68
ATOM     68  C   UNL A   1      47.090  30.251  27.190  1.00  0.00     0.023 A 
ATOM     69  C   UNL A   1      48.412  30.745  27.276  1.00  0.00     0.012 A 
ATOM     70  C   UNL A   1      46.091  31.168  26.787  1.00  0.00     0.148 A 
ATOM     71  C   UNL A   1      48.712  32.091  27.042  1.00  0.00     0.002 A 
ATOM     72  C   UNL A   1      46.406  32.487  26.480  1.00  0.00     0.091 A 
ATOM     73  F   UNL A   1      44.804  30.819  26.821  1.00  0.00    -0.205 F 
ATOM     74  C   UNL A   1      47.708  32.963  26.639  1.00  0.00     0.022 A 
BRANCH  72  75
ATOM     75  S   UNL A   1      45.160  33.652  25.912  1.00  0.00     0.127 S 
ATOM     76  O   UNL A   1      44.611  32.952  24.754  1.00  0.00    -0.237 OA
ATOM     77  O   UNL A   1      44.272  33.721  27.073  1.00  0.00    -0.237 OA
ATOM     78  O   UNL A   1      45.874  34.890  25.629  1.00  0.00    -0.744 OA
ENDBRANCH  72  75
ENDBRANCH  54  68
BRANCH  55  79
ATOM     79  C   UNL A   1      38.827  29.781  29.421  1.00  0.00     0.023 A 
ATOM     80  C   UNL A   1      38.024  29.284  28.370  1.00  0.00     0.012 A 
ATOM     81  C   UNL A   1      38.236  30.677  30.337  1.00  0.00     0.148 A 
ATOM     82  C   UNL A   1      36.669  29.627  28.267  1.00  0.00     0.002 A 
ATOM     83  C   UNL A   1      36.888  31.012  30.232  1.00  0.00     0.091 A 
ATOM     84  F   UNL A   1      38.967  31.117  31.368  1.00  0.00    -0.205 F 
ATOM     85  C   UNL A   1      36.097  30.481  29.206  1.00  0.00     0.022 A 
BRANCH  83  86
ATOM     86  S   UNL A   1      36.069  32.067  31.437  1.00  0.00     0.127 S 
ATOM     87  O   UNL A   1      36.911  33.263  31.412  1.00  0.00    -0.237 OA
ATOM     88  O   UNL A   1      34.748  32.234  30.838  1.00  0.00    -0.237 OA
ATOM     89  O   UNL A   1      36.106  31.331  32.693  1.00  0.00    -0.744 OA
ENDBRANCH  83  86
ENDBRANCH  55  79
BRANCH  67  90
ATOM     90  C   UNL A   1      43.833  28.091  32.729  1.00  0.00     0.023 A 
ATOM     91  C   UNL A   1      43.572  26.707  32.648  1.00  0.00     0.012 A 
ATOM     92  C   UNL A   1      43.900  28.696  33.993  1.00  0.00     0.148 A 
ATOM     93  C   UNL A   1      43.360  25.952  33.806  1.00  0.00     0.002 A 
ATOM     94  C   UNL A   1      43.736  27.936  35.142  1.00  0.00     0.091 A 
ATOM     95  F   UNL A   1      44.147  30.014  34.051  1.00  0.00    -0.205 F 
ATOM     96  C   UNL A   1      43.456  26.564  35.054  1.00  0.00     0.022 A 
BRANCH  94  97
ATOM     97  S   UNL A   1      43.970  28.657  36.766  1.00  0.00     0.127 S 
ATOM     98  O   UNL A   1      42.815  29.546  36.872  1.00  0.00    -0.237 OA
ATOM     99  O   UNL A   1      43.922  27.484  37.642  1.00  0.00    -0.237 OA
ATOM    100  O   UNL A   1      45.270  29.315  36.729  1.00  0.00    -0.744 OA
ENDBRANCH  94  97
ENDBRANCH  67  90
ENDBRANCH  41  42
ENDBRANCH  33  36
ENDBRANCH  31  32
ENDBRANCH  30  31
ENDBRANCH   1  30
TORSDOF 17
ENDMDL
