MODEL 1
REMARK VINA RESULT:     -12.7      0.000      0.000
REMARK SMILES O=C(NCCCNC(=O)[C@H](NC(=O)c1ccc(Br)nc1)c1ccccc1)c1ccc(-c2c3nc(c(-c4cccc(S(=O)(=O)[O-])c4F)c4ccc([nH]4)c(-c4cccc(S(=O)(=O)[O-])c4F)c4nc(c(-c5cccc(S(=O)(=O)[O-])c5F)c5ccc2[nH]5)C=C4)C=C3)cc1
REMARK SMILES IDX 4 1 3 2 1 3 2 4 27 6 28 7 89 8 29 9 88 10 30 11 31 12 32 13
REMARK SMILES IDX 82 14 33 15 87 16 81 17 83 18 34 19 86 20 80 21 79 22 35 24
REMARK SMILES IDX 67 25 47 26 66 27 48 28 51 29 65 30 84 31 49 32 50 33 64 35
REMARK SMILES IDX 85 36 52 37 36 38 37 39 45 40 38 41 40 42 46 43 39 44 41 45
REMARK SMILES IDX 42 46 43 47 44 48 68 49 69 50 77 51 70 52 72 53 78 54 71 55
REMARK SMILES IDX 73 56 74 57 75 58 76 59 53 60 54 61 62 62 55 63 57 64 63 65
REMARK SMILES IDX 56 66 58 67 59 68 60 69 61 70 5 71 6 72 7 73 8 74 9 76 10 77
REMARK SMILES IDX 21 78 22 79 26 80 23 81 25 82 24 83 11 84 12 85 13 87 14 88
REMARK SMILES IDX 15 89 20 90 16 91 19 92 17 93 18 94
REMARK H PARENT 3 5 83 23 51 34 7 75 11 86
REMARK Flexibility Score: inf
ROOT
ATOM      1  C   UNL A   1      32.737  31.262  26.899  1.00  0.00     0.118 C 
ENDROOT
BRANCH   1   2
ATOM      2  N   UNL A   1      32.598  32.695  27.123  1.00  0.00    -0.352 N 
ATOM      3  O   UNL A   1      32.798  34.596  28.314  1.00  0.00    -0.269 OA
ATOM      4  C   UNL A   1      33.253  33.489  28.033  1.00  0.00     0.251 C 
ATOM      5  H   UNL A   1      31.948  33.156  26.546  1.00  0.00     0.163 HD
BRANCH   4   6
ATOM      6  C   UNL A   1      34.497  32.996  28.655  1.00  0.00     0.039 A 
ATOM      7  C   UNL A   1      34.421  32.223  29.815  1.00  0.00     0.014 A 
ATOM      8  C   UNL A   1      35.740  33.289  28.088  1.00  0.00     0.014 A 
ATOM      9  C   UNL A   1      35.575  31.899  30.503  1.00  0.00     0.010 A 
ATOM     10  C   UNL A   1      36.907  32.832  28.708  1.00  0.00     0.010 A 
ATOM     11  C   UNL A   1      36.833  32.149  29.931  1.00  0.00    -0.014 A 
BRANCH  11  12
ATOM     12  C   UNL A   1      38.018  31.550  30.593  1.00  0.00     0.031 A 
ATOM     13  C   UNL A   1      38.384  31.871  32.013  1.00  0.00     0.074 A 
ATOM     14  C   UNL A   1      38.737  30.652  29.886  1.00  0.00     0.049 A 
ATOM     15  N   UNL A   1      39.347  31.365  32.739  1.00  0.00    -0.248 NA
ATOM     16  C   UNL A   1      37.583  32.890  32.707  1.00  0.00     0.031 C 
ATOM     17  C   UNL A   1      38.497  30.309  28.479  1.00  0.00     0.029 A 
ATOM     18  N   UNL A   1      39.788  29.852  30.243  1.00  0.00    -0.354 N 
ATOM     19  C   UNL A   1      39.290  32.020  33.962  1.00  0.00     0.074 A 
ATOM     20  C   UNL A   1      38.204  32.973  33.877  1.00  0.00     0.031 C 
ATOM     21  C   UNL A   1      39.335  29.331  28.112  1.00  0.00     0.029 A 
ATOM     22  C   UNL A   1      40.227  29.039  29.224  1.00  0.00     0.049 A 
ATOM     23  H   UNL A   1      40.191  29.858  31.141  1.00  0.00     0.167 HD
ATOM     24  C   UNL A   1      40.065  31.829  35.057  1.00  0.00     0.034 A 
ATOM     25  C   UNL A   1      41.253  28.173  29.174  1.00  0.00     0.034 A 
ATOM     26  C   UNL A   1      41.131  30.863  35.131  1.00  0.00     0.049 A 
ATOM     27  C   UNL A   1      42.078  27.976  30.410  1.00  0.00     0.074 A 
ATOM     28  C   UNL A   1      41.954  30.571  36.206  1.00  0.00     0.029 A 
ATOM     29  N   UNL A   1      41.531  30.037  34.090  1.00  0.00    -0.354 N 
ATOM     30  N   UNL A   1      41.939  28.530  31.589  1.00  0.00    -0.248 NA
ATOM     31  C   UNL A   1      43.183  27.015  30.318  1.00  0.00     0.031 C 
ATOM     32  C   UNL A   1      42.866  29.587  35.806  1.00  0.00     0.029 A 
ATOM     33  C   UNL A   1      42.589  29.240  34.494  1.00  0.00     0.049 A 
ATOM     34  H   UNL A   1      41.122  30.020  33.195  1.00  0.00     0.167 HD
ATOM     35  C   UNL A   1      42.929  27.975  32.387  1.00  0.00     0.074 A 
ATOM     36  C   UNL A   1      43.629  27.006  31.566  1.00  0.00     0.031 C 
ATOM     37  C   UNL A   1      43.250  28.258  33.673  1.00  0.00     0.034 A 
BRANCH  24  38
ATOM     38  C   UNL A   1      39.771  32.654  36.285  1.00  0.00     0.023 A 
ATOM     39  C   UNL A   1      40.399  33.905  36.451  1.00  0.00     0.012 A 
ATOM     40  C   UNL A   1      38.810  32.234  37.228  1.00  0.00     0.148 A 
ATOM     41  C   UNL A   1      40.094  34.714  37.546  1.00  0.00     0.002 A 
ATOM     42  C   UNL A   1      38.480  33.065  38.292  1.00  0.00     0.091 A 
ATOM     43  F   UNL A   1      38.236  31.034  37.062  1.00  0.00    -0.205 F 
ATOM     44  C   UNL A   1      39.128  34.300  38.459  1.00  0.00     0.022 A 
BRANCH  42  45
ATOM     45  S   UNL A   1      37.194  32.663  39.481  1.00  0.00     0.127 S 
ATOM     46  O   UNL A   1      37.614  31.338  39.935  1.00  0.00    -0.237 OA
ATOM     47  O   UNL A   1      37.352  33.725  40.474  1.00  0.00    -0.237 OA
ATOM     48  O   UNL A   1      35.938  32.697  38.746  1.00  0.00    -0.744 OA
ENDBRANCH  42  45
ENDBRANCH  24  38
BRANCH  25  49
ATOM     49  C   UNL A   1      41.551  27.440  27.912  1.00  0.00     0.023 A 
ATOM     50  C   UNL A   1      42.059  28.132  26.797  1.00  0.00     0.012 A 
ATOM     51  C   UNL A   1      41.352  26.048  27.824  1.00  0.00     0.148 A 
ATOM     52  C   UNL A   1      42.324  27.457  25.604  1.00  0.00     0.002 A 
ATOM     53  C   UNL A   1      41.684  25.372  26.658  1.00  0.00     0.091 A 
ATOM     54  F   UNL A   1      40.854  25.407  28.891  1.00  0.00    -0.205 F 
ATOM     55  C   UNL A   1      42.148  26.077  25.539  1.00  0.00     0.022 A 
BRANCH  53  56
ATOM     56  S   UNL A   1      41.633  23.581  26.549  1.00  0.00     0.127 S 
ATOM     57  O   UNL A   1      40.196  23.325  26.504  1.00  0.00    -0.237 OA
ATOM     58  O   UNL A   1      42.343  23.330  25.295  1.00  0.00    -0.237 OA
ATOM     59  O   UNL A   1      42.329  23.098  27.735  1.00  0.00    -0.744 OA
ENDBRANCH  53  56
ENDBRANCH  25  49
BRANCH  37  60
ATOM     60  C   UNL A   1      44.395  27.484  34.273  1.00  0.00     0.023 A 
ATOM     61  C   UNL A   1      45.710  27.983  34.167  1.00  0.00     0.012 A 
ATOM     62  C   UNL A   1      44.166  26.275  34.955  1.00  0.00     0.148 A 
ATOM     63  C   UNL A   1      46.784  27.262  34.685  1.00  0.00     0.002 A 
ATOM     64  C   UNL A   1      45.235  25.591  35.519  1.00  0.00     0.091 A 
ATOM     65  F   UNL A   1      42.911  25.808  35.029  1.00  0.00    -0.205 F 
ATOM     66  C   UNL A   1      46.546  26.072  35.369  1.00  0.00     0.022 A 
BRANCH  64  67
ATOM     67  S   UNL A   1      45.015  24.102  36.496  1.00  0.00     0.127 S 
ATOM     68  O   UNL A   1      44.350  24.624  37.690  1.00  0.00    -0.237 OA
ATOM     69  O   UNL A   1      44.161  23.286  35.631  1.00  0.00    -0.237 OA
ATOM     70  O   UNL A   1      46.350  23.560  36.709  1.00  0.00    -0.744 OA
ENDBRANCH  64  67
ENDBRANCH  37  60
ENDBRANCH  11  12
ENDBRANCH   4   6
ENDBRANCH   1   2
BRANCH   1  71
ATOM     71  C   UNL A   1      31.503  30.694  26.220  1.00  0.00     0.042 C 
BRANCH  71  72
ATOM     72  C   UNL A   1      31.810  29.380  25.512  1.00  0.00     0.117 C 
BRANCH  72  73
ATOM     73  N   UNL A   1      32.731  29.594  24.410  1.00  0.00    -0.354 N 
ATOM     74  C   UNL A   1      32.792  28.871  23.246  1.00  0.00     0.247 C 
ATOM     75  H   UNL A   1      33.376  30.332  24.508  1.00  0.00     0.163 HD
ATOM     76  O   UNL A   1      33.722  29.073  22.461  1.00  0.00    -0.272 OA
BRANCH  74  77
ATOM     77  C   UNL A   1      31.670  27.843  22.962  1.00  0.00     0.202 C 
BRANCH  77  78
ATOM     78  C   UNL A   1      30.342  28.529  22.708  1.00  0.00    -0.016 A 
ATOM     79  C   UNL A   1      30.306  29.702  21.934  1.00  0.00     0.006 A 
ATOM     80  C   UNL A   1      29.135  28.019  23.204  1.00  0.00     0.006 A 
ATOM     81  C   UNL A   1      29.116  30.396  21.734  1.00  0.00     0.000 A 
ATOM     82  C   UNL A   1      27.935  28.693  22.968  1.00  0.00     0.000 A 
ATOM     83  C   UNL A   1      27.929  29.891  22.254  1.00  0.00     0.000 A 
ENDBRANCH  77  78
BRANCH  77  84
ATOM     84  N   UNL A   1      32.079  26.946  21.882  1.00  0.00    -0.336 N 
ATOM     85  C   UNL A   1      32.821  25.794  22.001  1.00  0.00     0.253 C 
ATOM     86  H   UNL A   1      31.792  27.193  20.972  1.00  0.00     0.165 HD
ATOM     87  O   UNL A   1      33.372  25.277  21.039  1.00  0.00    -0.269 OA
BRANCH  85  88
ATOM     88  C   UNL A   1      32.955  25.178  23.331  1.00  0.00     0.058 A 
ATOM     89  C   UNL A   1      34.034  25.491  24.153  1.00  0.00     0.018 A 
ATOM     90  C   UNL A   1      32.055  24.213  23.751  1.00  0.00     0.126 A 
ATOM     91  C   UNL A   1      34.225  24.765  25.327  1.00  0.00     0.037 A 
ATOM     92  N   UNL A   1      32.230  23.481  24.880  1.00  0.00    -0.249 NA
ATOM     93  C   UNL A   1      33.313  23.766  25.640  1.00  0.00     0.106 A 
ATOM     94  Br  UNL A   1      33.631  22.693  27.171  1.00  0.00    -0.029 Br
ENDBRANCH  85  88
ENDBRANCH  77  84
ENDBRANCH  74  77
ENDBRANCH  72  73
ENDBRANCH  71  72
ENDBRANCH   1  71
TORSDOF 16
ENDMDL
MODEL 2
REMARK VINA RESULT:     -12.6      2.511      3.423
REMARK SMILES O=C(NCCCNC(=O)[C@H](NC(=O)c1ccc(Br)nc1)c1ccccc1)c1ccc(-c2c3nc(c(-c4cccc(S(=O)(=O)[O-])c4F)c4ccc([nH]4)c(-c4cccc(S(=O)(=O)[O-])c4F)c4nc(c(-c5cccc(S(=O)(=O)[O-])c5F)c5ccc2[nH]5)C=C4)C=C3)cc1
REMARK SMILES IDX 4 1 3 2 1 3 2 4 27 6 28 7 89 8 29 9 88 10 30 11 31 12 32 13
REMARK SMILES IDX 82 14 33 15 87 16 81 17 83 18 34 19 86 20 80 21 79 22 35 24
REMARK SMILES IDX 67 25 47 26 66 27 48 28 51 29 65 30 84 31 49 32 50 33 64 35
REMARK SMILES IDX 85 36 52 37 36 38 37 39 45 40 38 41 40 42 46 43 39 44 41 45
REMARK SMILES IDX 42 46 43 47 44 48 68 49 69 50 77 51 70 52 72 53 78 54 71 55
REMARK SMILES IDX 73 56 74 57 75 58 76 59 53 60 54 61 62 62 55 63 57 64 63 65
REMARK SMILES IDX 56 66 58 67 59 68 60 69 61 70 5 71 6 72 7 73 8 74 9 76 10 77
REMARK SMILES IDX 21 78 22 79 26 80 23 81 25 82 24 83 11 84 12 85 13 87 14 88
REMARK SMILES IDX 15 89 20 90 16 91 19 92 17 93 18 94
REMARK H PARENT 3 5 83 23 51 34 7 75 11 86
REMARK Flexibility Score: inf
ROOT
ATOM      1  C   UNL A   1      34.112  28.565  26.826  1.00  0.00     0.118 C 
ENDROOT
BRANCH   1   2
ATOM      2  N   UNL A   1      33.963  29.981  27.140  1.00  0.00    -0.352 N 
ATOM      3  O   UNL A   1      34.253  31.826  28.397  1.00  0.00    -0.269 OA
ATOM      4  C   UNL A   1      34.701  30.750  28.006  1.00  0.00     0.251 C 
ATOM      5  H   UNL A   1      33.236  30.448  26.669  1.00  0.00     0.163 HD
BRANCH   4   6
ATOM      6  C   UNL A   1      36.024  30.268  28.450  1.00  0.00     0.039 A 
ATOM      7  C   UNL A   1      37.150  30.554  27.677  1.00  0.00     0.014 A 
ATOM      8  C   UNL A   1      36.152  29.540  29.636  1.00  0.00     0.014 A 
ATOM      9  C   UNL A   1      38.363  29.968  27.986  1.00  0.00     0.010 A 
ATOM     10  C   UNL A   1      37.411  29.072  30.025  1.00  0.00     0.010 A 
ATOM     11  C   UNL A   1      38.524  29.267  29.192  1.00  0.00    -0.014 A 
BRANCH  11  12
ATOM     12  C   UNL A   1      39.902  28.887  29.586  1.00  0.00     0.031 A 
ATOM     13  C   UNL A   1      40.634  29.584  30.696  1.00  0.00     0.074 A 
ATOM     14  C   UNL A   1      40.466  27.843  28.943  1.00  0.00     0.049 A 
ATOM     15  N   UNL A   1      41.811  29.308  31.193  1.00  0.00    -0.248 NA
ATOM     16  C   UNL A   1      39.976  30.741  31.322  1.00  0.00     0.031 C 
ATOM     17  C   UNL A   1      39.860  27.128  27.813  1.00  0.00     0.029 A 
ATOM     18  N   UNL A   1      41.648  27.184  29.150  1.00  0.00    -0.354 N 
ATOM     19  C   UNL A   1      42.051  30.267  32.168  1.00  0.00     0.074 A 
ATOM     20  C   UNL A   1      40.901  31.146  32.183  1.00  0.00     0.031 C 
ATOM     21  C   UNL A   1      40.644  26.100  27.465  1.00  0.00     0.029 A 
ATOM     22  C   UNL A   1      41.846  26.133  28.285  1.00  0.00     0.049 A 
ATOM     23  H   UNL A   1      42.293  27.438  29.848  1.00  0.00     0.167 HD
ATOM     24  C   UNL A   1      43.127  30.391  32.983  1.00  0.00     0.034 A 
ATOM     25  C   UNL A   1      42.892  25.301  28.142  1.00  0.00     0.034 A 
ATOM     26  C   UNL A   1      44.257  29.497  32.967  1.00  0.00     0.049 A 
ATOM     27  C   UNL A   1      44.057  25.457  29.072  1.00  0.00     0.074 A 
ATOM     28  C   UNL A   1      45.382  29.517  33.773  1.00  0.00     0.029 A 
ATOM     29  N   UNL A   1      44.413  28.426  32.097  1.00  0.00    -0.354 N 
ATOM     30  N   UNL A   1      44.216  26.306  30.057  1.00  0.00    -0.248 NA
ATOM     31  C   UNL A   1      45.175  24.524  28.890  1.00  0.00     0.031 C 
ATOM     32  C   UNL A   1      46.228  28.476  33.374  1.00  0.00     0.029 A 
ATOM     33  C   UNL A   1      45.615  27.783  32.343  1.00  0.00     0.049 A 
ATOM     34  H   UNL A   1      43.763  28.162  31.406  1.00  0.00     0.167 HD
ATOM     35  C   UNL A   1      45.444  26.002  30.625  1.00  0.00     0.074 A 
ATOM     36  C   UNL A   1      45.964  24.858  29.901  1.00  0.00     0.031 C 
ATOM     37  C   UNL A   1      46.099  26.626  31.635  1.00  0.00     0.034 A 
BRANCH  24  38
ATOM     38  C   UNL A   1      43.126  31.511  33.991  1.00  0.00     0.023 A 
ATOM     39  C   UNL A   1      43.721  32.746  33.662  1.00  0.00     0.012 A 
ATOM     40  C   UNL A   1      42.462  31.375  35.228  1.00  0.00     0.148 A 
ATOM     41  C   UNL A   1      43.677  33.818  34.554  1.00  0.00     0.002 A 
ATOM     42  C   UNL A   1      42.384  32.460  36.092  1.00  0.00     0.091 A 
ATOM     43  F   UNL A   1      41.915  30.188  35.530  1.00  0.00    -0.205 F 
ATOM     44  C   UNL A   1      42.999  33.679  35.762  1.00  0.00     0.022 A 
BRANCH  42  45
ATOM     45  S   UNL A   1      41.468  32.413  37.638  1.00  0.00     0.127 S 
ATOM     46  O   UNL A   1      42.290  31.510  38.442  1.00  0.00    -0.237 OA
ATOM     47  O   UNL A   1      41.508  33.813  38.060  1.00  0.00    -0.237 OA
ATOM     48  O   UNL A   1      40.141  31.912  37.307  1.00  0.00    -0.744 OA
ENDBRANCH  42  45
ENDBRANCH  24  38
BRANCH  25  49
ATOM     49  C   UNL A   1      42.878  24.259  27.078  1.00  0.00     0.023 A 
ATOM     50  C   UNL A   1      43.571  24.473  25.872  1.00  0.00     0.012 A 
ATOM     51  C   UNL A   1      42.194  23.043  27.270  1.00  0.00     0.148 A 
ATOM     52  C   UNL A   1      43.548  23.510  24.861  1.00  0.00     0.002 A 
ATOM     53  C   UNL A   1      42.234  22.061  26.289  1.00  0.00     0.091 A 
ATOM     54  F   UNL A   1      41.527  22.861  28.419  1.00  0.00    -0.205 F 
ATOM     55  C   UNL A   1      42.891  22.301  25.074  1.00  0.00     0.022 A 
BRANCH  53  56
ATOM     56  S   UNL A   1      41.545  20.424  26.553  1.00  0.00     0.127 S 
ATOM     57  O   UNL A   1      40.111  20.700  26.554  1.00  0.00    -0.237 OA
ATOM     58  O   UNL A   1      42.032  19.696  25.380  1.00  0.00    -0.237 OA
ATOM     59  O   UNL A   1      42.108  19.963  27.816  1.00  0.00    -0.744 OA
ENDBRANCH  53  56
ENDBRANCH  25  49
BRANCH  37  60
ATOM     60  C   UNL A   1      47.438  26.060  32.028  1.00  0.00     0.023 A 
ATOM     61  C   UNL A   1      48.595  26.436  31.314  1.00  0.00     0.012 A 
ATOM     62  C   UNL A   1      47.551  25.172  33.114  1.00  0.00     0.148 A 
ATOM     63  C   UNL A   1      49.836  25.895  31.643  1.00  0.00     0.002 A 
ATOM     64  C   UNL A   1      48.800  24.681  33.472  1.00  0.00     0.091 A 
ATOM     65  F   UNL A   1      46.437  24.812  33.768  1.00  0.00    -0.205 F 
ATOM     66  C   UNL A   1      49.940  25.026  32.727  1.00  0.00     0.022 A 
BRANCH  64  67
ATOM     67  S   UNL A   1      49.045  23.632  34.908  1.00  0.00     0.127 S 
ATOM     68  O   UNL A   1      50.488  23.401  34.866  1.00  0.00    -0.237 OA
ATOM     69  O   UNL A   1      48.597  24.495  36.001  1.00  0.00    -0.237 OA
ATOM     70  O   UNL A   1      48.215  22.454  34.690  1.00  0.00    -0.744 OA
ENDBRANCH  64  67
ENDBRANCH  37  60
ENDBRANCH  11  12
ENDBRANCH   4   6
ENDBRANCH   1   2
BRANCH   1  71
ATOM     71  C   UNL A   1      32.764  27.866  26.805  1.00  0.00     0.042 C 
BRANCH  71  72
ATOM     72  C   UNL A   1      31.835  28.474  25.762  1.00  0.00     0.117 C 
BRANCH  72  73
ATOM     73  N   UNL A   1      32.598  29.043  24.665  1.00  0.00    -0.354 N 
ATOM     74  C   UNL A   1      32.487  28.714  23.338  1.00  0.00     0.247 C 
ATOM     75  H   UNL A   1      33.259  29.735  24.897  1.00  0.00     0.163 HD
ATOM     76  O   UNL A   1      33.301  29.175  22.535  1.00  0.00    -0.272 OA
BRANCH  74  77
ATOM     77  C   UNL A   1      31.323  27.788  22.906  1.00  0.00     0.202 C 
BRANCH  77  78
ATOM     78  C   UNL A   1      30.058  28.579  22.636  1.00  0.00    -0.016 A 
ATOM     79  C   UNL A   1      30.125  29.745  21.855  1.00  0.00     0.006 A 
ATOM     80  C   UNL A   1      28.809  28.174  23.124  1.00  0.00     0.006 A 
ATOM     81  C   UNL A   1      28.997  30.534  21.639  1.00  0.00     0.000 A 
ATOM     82  C   UNL A   1      27.670  28.941  22.873  1.00  0.00     0.000 A 
ATOM     83  C   UNL A   1      27.768  30.131  22.152  1.00  0.00     0.000 A 
ENDBRANCH  77  78
BRANCH  77  84
ATOM     84  N   UNL A   1      31.742  26.955  21.781  1.00  0.00    -0.336 N 
ATOM     85  C   UNL A   1      32.611  25.889  21.820  1.00  0.00     0.253 C 
ATOM     86  H   UNL A   1      31.360  27.180  20.900  1.00  0.00     0.165 HD
ATOM     87  O   UNL A   1      33.139  25.448  20.807  1.00  0.00    -0.269 OA
BRANCH  85  88
ATOM     88  C   UNL A   1      32.914  25.276  23.122  1.00  0.00     0.058 A 
ATOM     89  C   UNL A   1      34.101  25.571  23.788  1.00  0.00     0.018 A 
ATOM     90  C   UNL A   1      32.063  24.329  23.667  1.00  0.00     0.126 A 
ATOM     91  C   UNL A   1      34.436  24.846  24.929  1.00  0.00     0.037 A 
ATOM     92  N   UNL A   1      32.376  23.598  24.766  1.00  0.00    -0.249 NA
ATOM     93  C   UNL A   1      33.557  23.865  25.370  1.00  0.00     0.106 A 
ATOM     94  Br  UNL A   1      34.062  22.793  26.850  1.00  0.00    -0.029 Br
ENDBRANCH  85  88
ENDBRANCH  77  84
ENDBRANCH  74  77
ENDBRANCH  72  73
ENDBRANCH  71  72
ENDBRANCH   1  71
TORSDOF 16
ENDMDL
MODEL 3
REMARK VINA RESULT:     -12.6      1.855      2.398
REMARK SMILES O=C(NCCCNC(=O)[C@H](NC(=O)c1ccc(Br)nc1)c1ccccc1)c1ccc(-c2c3nc(c(-c4cccc(S(=O)(=O)[O-])c4F)c4ccc([nH]4)c(-c4cccc(S(=O)(=O)[O-])c4F)c4nc(c(-c5cccc(S(=O)(=O)[O-])c5F)c5ccc2[nH]5)C=C4)C=C3)cc1
REMARK SMILES IDX 4 1 3 2 1 3 2 4 27 6 28 7 89 8 29 9 88 10 30 11 31 12 32 13
REMARK SMILES IDX 82 14 33 15 87 16 81 17 83 18 34 19 86 20 80 21 79 22 35 24
REMARK SMILES IDX 67 25 47 26 66 27 48 28 51 29 65 30 84 31 49 32 50 33 64 35
REMARK SMILES IDX 85 36 52 37 36 38 37 39 45 40 38 41 40 42 46 43 39 44 41 45
REMARK SMILES IDX 42 46 43 47 44 48 68 49 69 50 77 51 70 52 72 53 78 54 71 55
REMARK SMILES IDX 73 56 74 57 75 58 76 59 53 60 54 61 62 62 55 63 57 64 63 65
REMARK SMILES IDX 56 66 58 67 59 68 60 69 61 70 5 71 6 72 7 73 8 74 9 76 10 77
REMARK SMILES IDX 21 78 22 79 26 80 23 81 25 82 24 83 11 84 12 85 13 87 14 88
REMARK SMILES IDX 15 89 20 90 16 91 19 92 17 93 18 94
REMARK H PARENT 3 5 83 23 51 34 7 75 11 86
REMARK Flexibility Score: inf
ROOT
ATOM      1  C   UNL A   1      33.732  28.966  25.044  1.00  0.00     0.118 C 
ENDROOT
BRANCH   1   2
ATOM      2  N   UNL A   1      33.028  30.164  25.483  1.00  0.00    -0.352 N 
ATOM      3  O   UNL A   1      32.328  31.669  27.005  1.00  0.00    -0.269 OA
ATOM      4  C   UNL A   1      33.204  30.890  26.636  1.00  0.00     0.251 C 
ATOM      5  H   UNL A   1      32.333  30.498  24.872  1.00  0.00     0.163 HD
BRANCH   4   6
ATOM      6  C   UNL A   1      34.449  30.721  27.411  1.00  0.00     0.039 A 
ATOM      7  C   UNL A   1      34.747  29.473  27.961  1.00  0.00     0.014 A 
ATOM      8  C   UNL A   1      35.327  31.793  27.586  1.00  0.00     0.014 A 
ATOM      9  C   UNL A   1      35.815  29.341  28.828  1.00  0.00     0.010 A 
ATOM     10  C   UNL A   1      36.489  31.616  28.345  1.00  0.00     0.010 A 
ATOM     11  C   UNL A   1      36.732  30.393  28.987  1.00  0.00    -0.014 A 
BRANCH  11  12
ATOM     12  C   UNL A   1      37.988  30.103  29.722  1.00  0.00     0.031 A 
ATOM     13  C   UNL A   1      38.237  30.624  31.108  1.00  0.00     0.074 A 
ATOM     14  C   UNL A   1      38.888  29.299  29.119  1.00  0.00     0.049 A 
ATOM     15  N   UNL A   1      39.254  30.388  31.894  1.00  0.00    -0.248 NA
ATOM     16  C   UNL A   1      37.231  31.530  31.684  1.00  0.00     0.031 C 
ATOM     17  C   UNL A   1      38.766  28.781  27.751  1.00  0.00     0.029 A 
ATOM     18  N   UNL A   1      40.062  28.757  29.570  1.00  0.00    -0.354 N 
ATOM     19  C   UNL A   1      39.032  31.134  33.044  1.00  0.00     0.074 A 
ATOM     20  C   UNL A   1      37.786  31.844  32.848  1.00  0.00     0.031 C 
ATOM     21  C   UNL A   1      39.789  27.955  27.496  1.00  0.00     0.029 A 
ATOM     22  C   UNL A   1      40.683  27.951  28.644  1.00  0.00     0.049 A 
ATOM     23  H   UNL A   1      40.426  28.928  30.469  1.00  0.00     0.167 HD
ATOM     24  C   UNL A   1      39.792  31.204  34.164  1.00  0.00     0.034 A 
ATOM     25  C   UNL A   1      41.858  27.301  28.696  1.00  0.00     0.034 A 
ATOM     26  C   UNL A   1      41.021  30.476  34.350  1.00  0.00     0.049 A 
ATOM     27  C   UNL A   1      42.664  27.389  29.957  1.00  0.00     0.074 A 
ATOM     28  C   UNL A   1      41.849  30.455  35.459  1.00  0.00     0.029 A 
ATOM     29  N   UNL A   1      41.607  29.648  33.403  1.00  0.00    -0.354 N 
ATOM     30  N   UNL A   1      42.382  28.016  31.072  1.00  0.00    -0.248 NA
ATOM     31  C   UNL A   1      43.936  26.658  29.978  1.00  0.00     0.031 C 
ATOM     32  C   UNL A   1      42.946  29.634  35.174  1.00  0.00     0.029 A 
ATOM     33  C   UNL A   1      42.785  29.115  33.900  1.00  0.00     0.049 A 
ATOM     34  H   UNL A   1      41.239  29.465  32.508  1.00  0.00     0.167 HD
ATOM     35  C   UNL A   1      43.432  27.744  31.936  1.00  0.00     0.074 A 
ATOM     36  C   UNL A   1      44.333  26.856  31.227  1.00  0.00     0.031 C 
ATOM     37  C   UNL A   1      43.650  28.206  33.191  1.00  0.00     0.034 A 
BRANCH  24  38
ATOM     38  C   UNL A   1      39.303  32.069  35.298  1.00  0.00     0.023 A 
ATOM     39  C   UNL A   1      38.413  31.532  36.250  1.00  0.00     0.012 A 
ATOM     40  C   UNL A   1      39.790  33.381  35.472  1.00  0.00     0.148 A 
ATOM     41  C   UNL A   1      37.997  32.293  37.343  1.00  0.00     0.002 A 
ATOM     42  C   UNL A   1      39.405  34.117  36.587  1.00  0.00     0.091 A 
ATOM     43  F   UNL A   1      40.623  33.881  34.547  1.00  0.00    -0.205 F 
ATOM     44  C   UNL A   1      38.502  33.579  37.518  1.00  0.00     0.022 A 
BRANCH  42  45
ATOM     45  S   UNL A   1      40.056  35.752  36.949  1.00  0.00     0.127 S 
ATOM     46  O   UNL A   1      39.597  36.517  35.790  1.00  0.00    -0.237 OA
ATOM     47  O   UNL A   1      39.379  36.081  38.203  1.00  0.00    -0.237 OA
ATOM     48  O   UNL A   1      41.500  35.599  37.056  1.00  0.00    -0.744 OA
ENDBRANCH  42  45
ENDBRANCH  24  38
BRANCH  25  49
ATOM     49  C   UNL A   1      42.333  26.522  27.519  1.00  0.00     0.023 A 
ATOM     50  C   UNL A   1      43.143  27.138  26.546  1.00  0.00     0.012 A 
ATOM     51  C   UNL A   1      42.002  25.161  27.375  1.00  0.00     0.148 A 
ATOM     52  C   UNL A   1      43.579  26.421  25.430  1.00  0.00     0.002 A 
ATOM     53  C   UNL A   1      42.495  24.436  26.299  1.00  0.00     0.091 A 
ATOM     54  F   UNL A   1      41.218  24.595  28.303  1.00  0.00    -0.205 F 
ATOM     55  C   UNL A   1      43.265  25.070  25.313  1.00  0.00     0.022 A 
BRANCH  53  56
ATOM     56  S   UNL A   1      42.266  22.661  26.161  1.00  0.00     0.127 S 
ATOM     57  O   UNL A   1      42.878  22.380  24.866  1.00  0.00    -0.237 OA
ATOM     58  O   UNL A   1      43.015  22.166  27.317  1.00  0.00    -0.237 OA
ATOM     59  O   UNL A   1      40.827  22.446  26.248  1.00  0.00    -0.744 OA
ENDBRANCH  53  56
ENDBRANCH  25  49
BRANCH  37  60
ATOM     60  C   UNL A   1      44.902  27.732  33.882  1.00  0.00     0.023 A 
ATOM     61  C   UNL A   1      46.097  28.470  33.751  1.00  0.00     0.012 A 
ATOM     62  C   UNL A   1      44.889  26.568  34.672  1.00  0.00     0.148 A 
ATOM     63  C   UNL A   1      47.272  28.026  34.355  1.00  0.00     0.002 A 
ATOM     64  C   UNL A   1      46.051  26.163  35.318  1.00  0.00     0.091 A 
ATOM     65  F   UNL A   1      43.748  25.870  34.769  1.00  0.00    -0.205 F 
ATOM     66  C   UNL A   1      47.247  26.879  35.145  1.00  0.00     0.022 A 
BRANCH  64  67
ATOM     67  S   UNL A   1      46.091  24.754  36.429  1.00  0.00     0.127 S 
ATOM     68  O   UNL A   1      47.485  24.762  36.870  1.00  0.00    -0.237 OA
ATOM     69  O   UNL A   1      45.125  25.143  37.458  1.00  0.00    -0.237 OA
ATOM     70  O   UNL A   1      45.692  23.602  35.632  1.00  0.00    -0.744 OA
ENDBRANCH  64  67
ENDBRANCH  37  60
ENDBRANCH  11  12
ENDBRANCH   4   6
ENDBRANCH   1   2
BRANCH   1  71
ATOM     71  C   UNL A   1      33.574  28.757  23.549  1.00  0.00     0.042 C 
BRANCH  71  72
ATOM     72  C   UNL A   1      33.894  27.322  23.149  1.00  0.00     0.117 C 
BRANCH  72  73
ATOM     73  N   UNL A   1      33.254  26.986  21.890  1.00  0.00    -0.354 N 
ATOM     74  C   UNL A   1      32.051  26.346  21.732  1.00  0.00     0.247 C 
ATOM     75  H   UNL A   1      33.730  27.244  21.067  1.00  0.00     0.163 HD
ATOM     76  O   UNL A   1      31.700  25.997  20.603  1.00  0.00    -0.272 OA
BRANCH  74  77
ATOM     77  C   UNL A   1      31.176  26.109  22.987  1.00  0.00     0.202 C 
BRANCH  77  78
ATOM     78  C   UNL A   1      30.012  27.079  23.041  1.00  0.00    -0.016 A 
ATOM     79  C   UNL A   1      30.161  28.370  22.506  1.00  0.00     0.006 A 
ATOM     80  C   UNL A   1      28.773  26.723  23.591  1.00  0.00     0.006 A 
ATOM     81  C   UNL A   1      29.137  29.309  22.595  1.00  0.00     0.000 A 
ATOM     82  C   UNL A   1      27.731  27.652  23.642  1.00  0.00     0.000 A 
ATOM     83  C   UNL A   1      27.921  28.949  23.166  1.00  0.00     0.000 A 
ENDBRANCH  77  78
BRANCH  77  84
ATOM     84  N   UNL A   1      30.770  24.707  23.054  1.00  0.00    -0.336 N 
ATOM     85  C   UNL A   1      31.587  23.619  23.257  1.00  0.00     0.253 C 
ATOM     86  H   UNL A   1      29.809  24.521  22.941  1.00  0.00     0.165 HD
ATOM     87  O   UNL A   1      31.224  22.479  22.996  1.00  0.00    -0.269 OA
BRANCH  85  88
ATOM     88  C   UNL A   1      32.937  23.844  23.796  1.00  0.00     0.058 A 
ATOM     89  C   UNL A   1      34.065  23.595  23.017  1.00  0.00     0.018 A 
ATOM     90  C   UNL A   1      33.111  24.226  25.116  1.00  0.00     0.126 A 
ATOM     91  C   UNL A   1      35.324  23.651  23.609  1.00  0.00     0.037 A 
ATOM     92  N   UNL A   1      34.326  24.270  25.719  1.00  0.00    -0.249 NA
ATOM     93  C   UNL A   1      35.405  23.975  24.957  1.00  0.00     0.106 A 
ATOM     94  Br  UNL A   1      37.103  23.936  25.800  1.00  0.00    -0.029 Br
ENDBRANCH  85  88
ENDBRANCH  77  84
ENDBRANCH  74  77
ENDBRANCH  72  73
ENDBRANCH  71  72
ENDBRANCH   1  71
TORSDOF 16
ENDMDL
