MODEL 1
REMARK VINA RESULT:     -12.2      0.000      0.000
REMARK SMILES C[C@@H](Sc1nc(-c2ccc3c(c2)OCO3)ccc1C#N)C(=O)NCCCNC(=O)c1ccc(-c2c3nc(c(-c4cccc(S(=O)(=O)[O-])c4F)c4ccc([nH]4)c(-c4cccc(S(=O)(=O)[O-])c4F)c4nc(c(-c5cccc(S(=O)(=O)[O-])c5F)c5ccc2[nH]5)C=C4)C=C3)cc1
REMARK SMILES IDX 25 1 24 2 23 3 21 4 22 5 2 7 1 8 3 9 4 10 5 11 18 12 6 13
REMARK SMILES IDX 17 14 16 15 19 16 20 17 7 18 8 19 12 20 9 21 11 22 10 23
REMARK SMILES IDX 13 24 15 25 14 26 26 27 27 28 28 29 29 31 30 32 31 33 92 34
REMARK SMILES IDX 32 35 91 36 33 37 34 38 35 39 85 40 36 41 90 42 84 43 86 44
REMARK SMILES IDX 37 45 89 46 83 47 82 48 38 50 70 51 50 52 69 53 51 54 54 55
REMARK SMILES IDX 68 56 87 57 52 58 53 59 67 61 88 62 55 63 39 64 40 65 48 66
REMARK SMILES IDX 41 67 43 68 49 69 42 70 44 71 45 72 46 73 47 74 71 75 72 76
REMARK SMILES IDX 80 77 73 78 75 79 81 80 74 81 76 82 77 83 78 84 79 85 56 86
REMARK SMILES IDX 57 87 65 88 58 89 60 90 66 91 59 92 61 93 62 94 63 95 64 96
REMARK H PARENT 23 6 27 30 86 49 54 60
REMARK Flexibility Score: inf
ROOT
ATOM      1  C   UNL A   1      38.534  19.583  25.255  1.00  0.00     0.042 C 
ENDROOT
BRANCH   1   2
ATOM      2  C   UNL A   1      37.741  20.830  24.887  1.00  0.00     0.117 C 
BRANCH   2   3
ATOM      3  N   UNL A   1      38.279  22.014  25.532  1.00  0.00    -0.355 N 
ATOM      4  C   UNL A   1      37.824  23.297  25.547  1.00  0.00     0.233 C 
ATOM      5  O   UNL A   1      38.476  24.117  26.201  1.00  0.00    -0.274 OA
ATOM      6  H   UNL A   1      39.109  21.865  26.042  1.00  0.00     0.163 HD
BRANCH   4   7
ATOM      7  C   UNL A   1      36.559  23.725  24.794  1.00  0.00     0.139 C 
ATOM      8  C   UNL A   1      36.549  23.230  23.352  1.00  0.00     0.030 C 
BRANCH   7   9
ATOM      9  S   UNL A   1      35.095  23.316  25.850  1.00  0.00    -0.092 SA
BRANCH   9  10
ATOM     10  C   UNL A   1      34.038  22.305  24.832  1.00  0.00     0.115 A 
ATOM     11  N   UNL A   1      34.181  20.972  25.101  1.00  0.00    -0.240 NA
ATOM     12  C   UNL A   1      33.080  22.773  23.933  1.00  0.00     0.084 A 
ATOM     13  C   UNL A   1      33.392  20.078  24.455  1.00  0.00     0.072 A 
ATOM     14  C   UNL A   1      32.275  21.838  23.275  1.00  0.00     0.024 A 
ATOM     15  C   UNL A   1      32.428  20.484  23.538  1.00  0.00     0.030 A 
BRANCH  12  16
ATOM     16  C   UNL A   1      32.841  24.154  23.661  1.00  0.00     0.102 C 
ATOM     17  N   UNL A   1      32.693  25.274  23.406  1.00  0.00    -0.192 NA
ENDBRANCH  12  16
BRANCH  13  18
ATOM     18  C   UNL A   1      33.574  18.651  24.767  1.00  0.00     0.004 A 
ATOM     19  C   UNL A   1      34.778  17.992  24.401  1.00  0.00     0.014 A 
ATOM     20  C   UNL A   1      32.545  17.890  25.352  1.00  0.00     0.061 A 
ATOM     21  C   UNL A   1      34.947  16.614  24.572  1.00  0.00     0.051 A 
ATOM     22  C   UNL A   1      32.732  16.526  25.497  1.00  0.00     0.166 A 
ATOM     23  C   UNL A   1      33.898  15.908  25.111  1.00  0.00     0.165 A 
ATOM     24  O   UNL A   1      31.822  15.642  25.988  1.00  0.00    -0.454 OA
ATOM     25  O   UNL A   1      33.870  14.563  25.310  1.00  0.00    -0.454 OA
ATOM     26  C   UNL A   1      32.546  14.401  25.857  1.00  0.00     0.468 C 
ENDBRANCH  13  18
ENDBRANCH   9  10
ENDBRANCH   7   9
ENDBRANCH   4   7
ENDBRANCH   2   3
ENDBRANCH   1   2
BRANCH   1  27
ATOM     27  C   UNL A   1      39.632  19.845  26.276  1.00  0.00     0.118 C 
BRANCH  27  28
ATOM     28  N   UNL A   1      40.842  19.077  26.001  1.00  0.00    -0.352 N 
ATOM     29  C   UNL A   1      42.134  19.504  25.833  1.00  0.00     0.251 C 
ATOM     30  H   UNL A   1      40.710  18.105  25.923  1.00  0.00     0.163 HD
ATOM     31  O   UNL A   1      42.979  18.732  25.388  1.00  0.00    -0.269 OA
BRANCH  29  32
ATOM     32  C   UNL A   1      42.503  20.893  26.175  1.00  0.00     0.039 A 
ATOM     33  C   UNL A   1      42.702  21.233  27.515  1.00  0.00     0.014 A 
ATOM     34  C   UNL A   1      42.651  21.859  25.176  1.00  0.00     0.014 A 
ATOM     35  C   UNL A   1      43.113  22.524  27.845  1.00  0.00     0.010 A 
ATOM     36  C   UNL A   1      43.157  23.113  25.498  1.00  0.00     0.010 A 
ATOM     37  C   UNL A   1      43.384  23.464  26.836  1.00  0.00    -0.014 A 
BRANCH  37  38
ATOM     38  C   UNL A   1      43.911  24.813  27.160  1.00  0.00     0.031 A 
ATOM     39  C   UNL A   1      43.002  25.865  27.735  1.00  0.00     0.074 A 
ATOM     40  C   UNL A   1      45.191  25.114  26.866  1.00  0.00     0.049 A 
ATOM     41  N   UNL A   1      43.268  27.110  28.031  1.00  0.00    -0.248 NA
ATOM     42  C   UNL A   1      41.604  25.477  27.990  1.00  0.00     0.031 C 
ATOM     43  C   UNL A   1      46.154  24.200  26.245  1.00  0.00     0.029 A 
ATOM     44  N   UNL A   1      45.898  26.279  27.026  1.00  0.00    -0.354 N 
ATOM     45  C   UNL A   1      42.071  27.661  28.471  1.00  0.00     0.074 A 
ATOM     46  C   UNL A   1      41.067  26.626  28.370  1.00  0.00     0.031 C 
ATOM     47  C   UNL A   1      47.326  24.835  26.090  1.00  0.00     0.029 A 
ATOM     48  C   UNL A   1      47.187  26.212  26.551  1.00  0.00     0.049 A 
ATOM     49  H   UNL A   1      45.519  27.087  27.443  1.00  0.00     0.167 HD
ATOM     50  C   UNL A   1      41.833  28.909  28.938  1.00  0.00     0.034 A 
ATOM     51  C   UNL A   1      48.144  27.158  26.473  1.00  0.00     0.034 A 
ATOM     52  C   UNL A   1      42.838  29.931  29.052  1.00  0.00     0.049 A 
ATOM     53  C   UNL A   1      47.851  28.538  26.996  1.00  0.00     0.074 A 
ATOM     54  C   UNL A   1      42.714  31.202  29.584  1.00  0.00     0.029 A 
ATOM     55  N   UNL A   1      44.145  29.809  28.606  1.00  0.00    -0.354 N 
ATOM     56  N   UNL A   1      46.751  28.998  27.539  1.00  0.00    -0.248 NA
ATOM     57  C   UNL A   1      48.942  29.520  26.925  1.00  0.00     0.031 C 
ATOM     58  C   UNL A   1      43.929  31.869  29.407  1.00  0.00     0.029 A 
ATOM     59  C   UNL A   1      44.831  30.991  28.827  1.00  0.00     0.049 A 
ATOM     60  H   UNL A   1      44.528  29.002  28.192  1.00  0.00     0.167 HD
ATOM     61  C   UNL A   1      47.029  30.308  27.911  1.00  0.00     0.074 A 
ATOM     62  C   UNL A   1      48.407  30.561  27.546  1.00  0.00     0.031 C 
ATOM     63  C   UNL A   1      46.214  31.220  28.496  1.00  0.00     0.034 A 
BRANCH  50  64
ATOM     64  C   UNL A   1      40.429  29.238  29.380  1.00  0.00     0.023 A 
ATOM     65  C   UNL A   1      39.498  29.749  28.451  1.00  0.00     0.012 A 
ATOM     66  C   UNL A   1      40.017  28.987  30.702  1.00  0.00     0.148 A 
ATOM     67  C   UNL A   1      38.192  30.042  28.842  1.00  0.00     0.002 A 
ATOM     68  C   UNL A   1      38.701  29.231  31.072  1.00  0.00     0.091 A 
ATOM     69  F   UNL A   1      40.920  28.517  31.576  1.00  0.00    -0.205 F 
ATOM     70  C   UNL A   1      37.791  29.773  30.148  1.00  0.00     0.022 A 
BRANCH  68  71
ATOM     71  S   UNL A   1      38.062  28.840  32.704  1.00  0.00     0.127 S 
ATOM     72  O   UNL A   1      36.691  29.339  32.611  1.00  0.00    -0.237 OA
ATOM     73  O   UNL A   1      38.179  27.382  32.736  1.00  0.00    -0.237 OA
ATOM     74  O   UNL A   1      38.916  29.542  33.651  1.00  0.00    -0.744 OA
ENDBRANCH  68  71
ENDBRANCH  50  64
BRANCH  51  75
ATOM     75  C   UNL A   1      49.480  26.825  25.901  1.00  0.00     0.023 A 
ATOM     76  C   UNL A   1      50.423  26.133  26.685  1.00  0.00     0.012 A 
ATOM     77  C   UNL A   1      49.814  27.185  24.581  1.00  0.00     0.148 A 
ATOM     78  C   UNL A   1      51.691  25.843  26.179  1.00  0.00     0.002 A 
ATOM     79  C   UNL A   1      51.057  26.841  24.064  1.00  0.00     0.091 A 
ATOM     80  F   UNL A   1      48.903  27.847  23.854  1.00  0.00    -0.205 F 
ATOM     81  C   UNL A   1      52.005  26.188  24.868  1.00  0.00     0.022 A 
BRANCH  79  82
ATOM     82  S   UNL A   1      51.501  27.132  22.349  1.00  0.00     0.127 S 
ATOM     83  O   UNL A   1      50.296  26.695  21.649  1.00  0.00    -0.237 OA
ATOM     84  O   UNL A   1      51.729  28.578  22.340  1.00  0.00    -0.237 OA
ATOM     85  O   UNL A   1      52.695  26.334  22.106  1.00  0.00    -0.744 OA
ENDBRANCH  79  82
ENDBRANCH  51  75
BRANCH  63  86
ATOM     86  C   UNL A   1      46.799  32.566  28.840  1.00  0.00     0.023 A 
ATOM     87  C   UNL A   1      47.422  32.777  30.085  1.00  0.00     0.012 A 
ATOM     88  C   UNL A   1      46.790  33.604  27.886  1.00  0.00     0.148 A 
ATOM     89  C   UNL A   1      47.997  34.011  30.389  1.00  0.00     0.002 A 
ATOM     90  C   UNL A   1      47.415  34.810  28.173  1.00  0.00     0.091 A 
ATOM     91  F   UNL A   1      46.179  33.388  26.712  1.00  0.00    -0.205 F 
ATOM     92  C   UNL A   1      48.005  35.022  29.429  1.00  0.00     0.022 A 
BRANCH  90  93
ATOM     93  S   UNL A   1      47.563  36.132  26.967  1.00  0.00     0.127 S 
ATOM     94  O   UNL A   1      46.161  36.472  26.725  1.00  0.00    -0.237 OA
ATOM     95  O   UNL A   1      48.317  37.142  27.709  1.00  0.00    -0.237 OA
ATOM     96  O   UNL A   1      48.267  35.564  25.826  1.00  0.00    -0.744 OA
ENDBRANCH  90  93
ENDBRANCH  63  86
ENDBRANCH  37  38
ENDBRANCH  29  32
ENDBRANCH  27  28
ENDBRANCH   1  27
TORSDOF 17
ENDMDL
MODEL 2
REMARK VINA RESULT:     -12.1      0.754      7.646
REMARK SMILES C[C@@H](Sc1nc(-c2ccc3c(c2)OCO3)ccc1C#N)C(=O)NCCCNC(=O)c1ccc(-c2c3nc(c(-c4cccc(S(=O)(=O)[O-])c4F)c4ccc([nH]4)c(-c4cccc(S(=O)(=O)[O-])c4F)c4nc(c(-c5cccc(S(=O)(=O)[O-])c5F)c5ccc2[nH]5)C=C4)C=C3)cc1
REMARK SMILES IDX 25 1 24 2 23 3 21 4 22 5 2 7 1 8 3 9 4 10 5 11 18 12 6 13
REMARK SMILES IDX 17 14 16 15 19 16 20 17 7 18 8 19 12 20 9 21 11 22 10 23
REMARK SMILES IDX 13 24 15 25 14 26 26 27 27 28 28 29 29 31 30 32 31 33 92 34
REMARK SMILES IDX 32 35 91 36 33 37 34 38 35 39 85 40 36 41 90 42 84 43 86 44
REMARK SMILES IDX 37 45 89 46 83 47 82 48 38 50 70 51 50 52 69 53 51 54 54 55
REMARK SMILES IDX 68 56 87 57 52 58 53 59 67 61 88 62 55 63 39 64 40 65 48 66
REMARK SMILES IDX 41 67 43 68 49 69 42 70 44 71 45 72 46 73 47 74 71 75 72 76
REMARK SMILES IDX 80 77 73 78 75 79 81 80 74 81 76 82 77 83 78 84 79 85 56 86
REMARK SMILES IDX 57 87 65 88 58 89 60 90 66 91 59 92 61 93 62 94 63 95 64 96
REMARK H PARENT 23 6 27 30 86 49 54 60
REMARK Flexibility Score: inf
ROOT
ATOM      1  C   UNL A   1      38.489  19.638  25.172  1.00  0.00     0.042 C 
ENDROOT
BRANCH   1   2
ATOM      2  C   UNL A   1      37.451  20.739  25.006  1.00  0.00     0.117 C 
BRANCH   2   3
ATOM      3  N   UNL A   1      37.839  21.949  25.709  1.00  0.00    -0.355 N 
ATOM      4  C   UNL A   1      37.385  23.227  25.588  1.00  0.00     0.233 C 
ATOM      5  O   UNL A   1      37.884  24.074  26.336  1.00  0.00    -0.274 OA
ATOM      6  H   UNL A   1      38.545  21.825  26.384  1.00  0.00     0.163 HD
BRANCH   4   7
ATOM      7  C   UNL A   1      36.301  23.617  24.576  1.00  0.00     0.139 C 
ATOM      8  C   UNL A   1      36.506  22.947  23.221  1.00  0.00     0.030 C 
BRANCH   7   9
ATOM      9  S   UNL A   1      34.652  23.412  25.391  1.00  0.00    -0.092 SA
BRANCH   9  10
ATOM     10  C   UNL A   1      33.747  22.273  24.362  1.00  0.00     0.115 A 
ATOM     11  N   UNL A   1      33.938  20.971  24.738  1.00  0.00    -0.240 NA
ATOM     12  C   UNL A   1      32.850  22.619  23.353  1.00  0.00     0.084 A 
ATOM     13  C   UNL A   1      33.261  19.990  24.093  1.00  0.00     0.072 A 
ATOM     14  C   UNL A   1      32.159  21.596  22.698  1.00  0.00     0.024 A 
ATOM     15  C   UNL A   1      32.363  20.274  23.070  1.00  0.00     0.030 A 
BRANCH  12  16
ATOM     16  C   UNL A   1      32.560  23.962  22.963  1.00  0.00     0.102 C 
ATOM     17  N   UNL A   1      32.377  25.068  22.669  1.00  0.00    -0.192 NA
ENDBRANCH  12  16
BRANCH  13  18
ATOM     18  C   UNL A   1      33.492  18.601  24.522  1.00  0.00     0.004 A 
ATOM     19  C   UNL A   1      34.769  18.006  24.342  1.00  0.00     0.014 A 
ATOM     20  C   UNL A   1      32.450  17.808  25.036  1.00  0.00     0.061 A 
ATOM     21  C   UNL A   1      35.002  16.656  24.627  1.00  0.00     0.051 A 
ATOM     22  C   UNL A   1      32.703  16.472  25.295  1.00  0.00     0.166 A 
ATOM     23  C   UNL A   1      33.942  15.913  25.089  1.00  0.00     0.165 A 
ATOM     24  O   UNL A   1      31.796  15.559  25.739  1.00  0.00    -0.454 OA
ATOM     25  O   UNL A   1      33.973  14.585  25.376  1.00  0.00    -0.454 OA
ATOM     26  C   UNL A   1      32.607  14.364  25.777  1.00  0.00     0.468 C 
ENDBRANCH  13  18
ENDBRANCH   9  10
ENDBRANCH   7   9
ENDBRANCH   4   7
ENDBRANCH   2   3
ENDBRANCH   1   2
BRANCH   1  27
ATOM     27  C   UNL A   1      39.616  20.009  26.126  1.00  0.00     0.118 C 
BRANCH  27  28
ATOM     28  N   UNL A   1      40.732  19.072  26.058  1.00  0.00    -0.352 N 
ATOM     29  C   UNL A   1      42.082  19.315  26.023  1.00  0.00     0.251 C 
ATOM     30  H   UNL A   1      40.478  18.122  26.033  1.00  0.00     0.163 HD
ATOM     31  O   UNL A   1      42.858  18.406  25.742  1.00  0.00    -0.269 OA
BRANCH  29  32
ATOM     32  C   UNL A   1      42.596  20.670  26.309  1.00  0.00     0.039 A 
ATOM     33  C   UNL A   1      43.018  21.474  25.248  1.00  0.00     0.014 A 
ATOM     34  C   UNL A   1      42.664  21.145  27.621  1.00  0.00     0.014 A 
ATOM     35  C   UNL A   1      43.446  22.778  25.500  1.00  0.00     0.010 A 
ATOM     36  C   UNL A   1      42.993  22.474  27.858  1.00  0.00     0.010 A 
ATOM     37  C   UNL A   1      43.398  23.303  26.802  1.00  0.00    -0.014 A 
BRANCH  37  38
ATOM     38  C   UNL A   1      43.759  24.716  27.077  1.00  0.00     0.031 A 
ATOM     39  C   UNL A   1      45.193  25.163  26.991  1.00  0.00     0.074 A 
ATOM     40  C   UNL A   1      42.806  25.580  27.479  1.00  0.00     0.049 A 
ATOM     41  N   UNL A   1      45.706  26.339  27.247  1.00  0.00    -0.248 NA
ATOM     42  C   UNL A   1      46.187  24.154  26.587  1.00  0.00     0.031 C 
ATOM     43  C   UNL A   1      41.390  25.249  27.666  1.00  0.00     0.029 A 
ATOM     44  N   UNL A   1      42.885  26.904  27.828  1.00  0.00    -0.354 N 
ATOM     45  C   UNL A   1      47.077  26.203  27.070  1.00  0.00     0.074 A 
ATOM     46  C   UNL A   1      47.324  24.822  26.721  1.00  0.00     0.031 C 
ATOM     47  C   UNL A   1      40.734  26.344  28.081  1.00  0.00     0.029 A 
ATOM     48  C   UNL A   1      41.686  27.439  28.240  1.00  0.00     0.049 A 
ATOM     49  H   UNL A   1      43.720  27.425  27.786  1.00  0.00     0.167 HD
ATOM     50  C   UNL A   1      48.043  27.146  27.168  1.00  0.00     0.034 A 
ATOM     51  C   UNL A   1      41.388  28.665  28.713  1.00  0.00     0.034 A 
ATOM     52  C   UNL A   1      47.791  28.522  27.500  1.00  0.00     0.049 A 
ATOM     53  C   UNL A   1      42.481  29.693  28.815  1.00  0.00     0.074 A 
ATOM     54  C   UNL A   1      48.691  29.572  27.549  1.00  0.00     0.029 A 
ATOM     55  N   UNL A   1      46.556  29.037  27.862  1.00  0.00    -0.354 N 
ATOM     56  N   UNL A   1      43.751  29.582  28.508  1.00  0.00    -0.248 NA
ATOM     57  C   UNL A   1      42.095  31.027  29.300  1.00  0.00     0.031 C 
ATOM     58  C   UNL A   1      48.012  30.708  27.997  1.00  0.00     0.029 A 
ATOM     59  C   UNL A   1      46.675  30.383  28.162  1.00  0.00     0.049 A 
ATOM     60  H   UNL A   1      45.719  28.521  27.902  1.00  0.00     0.167 HD
ATOM     61  C   UNL A   1      44.306  30.838  28.721  1.00  0.00     0.074 A 
ATOM     62  C   UNL A   1      43.230  31.699  29.168  1.00  0.00     0.031 C 
ATOM     63  C   UNL A   1      45.591  31.240  28.567  1.00  0.00     0.034 A 
BRANCH  50  64
ATOM     64  C   UNL A   1      49.465  26.727  26.896  1.00  0.00     0.023 A 
ATOM     65  C   UNL A   1      50.180  25.985  27.859  1.00  0.00     0.012 A 
ATOM     66  C   UNL A   1      50.074  27.019  25.660  1.00  0.00     0.148 A 
ATOM     67  C   UNL A   1      51.490  25.577  27.614  1.00  0.00     0.002 A 
ATOM     68  C   UNL A   1      51.361  26.564  25.402  1.00  0.00     0.091 A 
ATOM     69  F   UNL A   1      49.386  27.739  24.762  1.00  0.00    -0.205 F 
ATOM     70  C   UNL A   1      52.076  25.857  26.382  1.00  0.00     0.022 A 
BRANCH  68  71
ATOM     71  S   UNL A   1      52.172  26.798  23.816  1.00  0.00     0.127 S 
ATOM     72  O   UNL A   1      51.044  26.704  22.891  1.00  0.00    -0.237 OA
ATOM     73  O   UNL A   1      52.736  28.141  23.958  1.00  0.00    -0.237 OA
ATOM     74  O   UNL A   1      53.157  25.732  23.706  1.00  0.00    -0.744 OA
ENDBRANCH  68  71
ENDBRANCH  50  64
BRANCH  51  75
ATOM     75  C   UNL A   1      39.988  28.997  29.102  1.00  0.00     0.023 A 
ATOM     76  C   UNL A   1      39.034  29.276  28.105  1.00  0.00     0.012 A 
ATOM     77  C   UNL A   1      39.598  29.028  30.455  1.00  0.00     0.148 A 
ATOM     78  C   UNL A   1      37.726  29.623  28.450  1.00  0.00     0.002 A 
ATOM     79  C   UNL A   1      38.281  29.315  30.789  1.00  0.00     0.091 A 
ATOM     80  F   UNL A   1      40.524  28.763  31.387  1.00  0.00    -0.205 F 
ATOM     81  C   UNL A   1      37.348  29.634  29.790  1.00  0.00     0.022 A 
BRANCH  79  82
ATOM     82  S   UNL A   1      37.674  29.230  32.476  1.00  0.00     0.127 S 
ATOM     83  O   UNL A   1      38.572  30.154  33.165  1.00  0.00    -0.237 OA
ATOM     84  O   UNL A   1      36.298  29.704  32.325  1.00  0.00    -0.237 OA
ATOM     85  O   UNL A   1      37.787  27.832  32.869  1.00  0.00    -0.744 OA
ENDBRANCH  79  82
ENDBRANCH  51  75
BRANCH  63  86
ATOM     86  C   UNL A   1      45.909  32.691  28.824  1.00  0.00     0.023 A 
ATOM     87  C   UNL A   1      46.361  33.109  30.091  1.00  0.00     0.012 A 
ATOM     88  C   UNL A   1      45.825  33.630  27.775  1.00  0.00     0.148 A 
ATOM     89  C   UNL A   1      46.693  34.445  30.319  1.00  0.00     0.002 A 
ATOM     90  C   UNL A   1      46.212  34.944  27.994  1.00  0.00     0.091 A 
ATOM     91  F   UNL A   1      45.378  33.214  26.581  1.00  0.00    -0.205 F 
ATOM     92  C   UNL A   1      46.630  35.359  29.269  1.00  0.00     0.022 A 
BRANCH  90  93
ATOM     93  S   UNL A   1      46.260  36.167  26.680  1.00  0.00     0.127 S 
ATOM     94  O   UNL A   1      44.901  36.081  26.143  1.00  0.00    -0.237 OA
ATOM     95  O   UNL A   1      46.548  37.398  27.417  1.00  0.00    -0.237 OA
ATOM     96  O   UNL A   1      47.313  35.743  25.769  1.00  0.00    -0.744 OA
ENDBRANCH  90  93
ENDBRANCH  63  86
ENDBRANCH  37  38
ENDBRANCH  29  32
ENDBRANCH  27  28
ENDBRANCH   1  27
TORSDOF 17
ENDMDL
MODEL 3
REMARK VINA RESULT:     -12.1      3.478      9.238
REMARK SMILES C[C@@H](Sc1nc(-c2ccc3c(c2)OCO3)ccc1C#N)C(=O)NCCCNC(=O)c1ccc(-c2c3nc(c(-c4cccc(S(=O)(=O)[O-])c4F)c4ccc([nH]4)c(-c4cccc(S(=O)(=O)[O-])c4F)c4nc(c(-c5cccc(S(=O)(=O)[O-])c5F)c5ccc2[nH]5)C=C4)C=C3)cc1
REMARK SMILES IDX 25 1 24 2 23 3 21 4 22 5 2 7 1 8 3 9 4 10 5 11 18 12 6 13
REMARK SMILES IDX 17 14 16 15 19 16 20 17 7 18 8 19 12 20 9 21 11 22 10 23
REMARK SMILES IDX 13 24 15 25 14 26 26 27 27 28 28 29 29 31 30 32 31 33 92 34
REMARK SMILES IDX 32 35 91 36 33 37 34 38 35 39 85 40 36 41 90 42 84 43 86 44
REMARK SMILES IDX 37 45 89 46 83 47 82 48 38 50 70 51 50 52 69 53 51 54 54 55
REMARK SMILES IDX 68 56 87 57 52 58 53 59 67 61 88 62 55 63 39 64 40 65 48 66
REMARK SMILES IDX 41 67 43 68 49 69 42 70 44 71 45 72 46 73 47 74 71 75 72 76
REMARK SMILES IDX 80 77 73 78 75 79 81 80 74 81 76 82 77 83 78 84 79 85 56 86
REMARK SMILES IDX 57 87 65 88 58 89 60 90 66 91 59 92 61 93 62 94 63 95 64 96
REMARK H PARENT 23 6 27 30 86 49 54 60
REMARK Flexibility Score: inf
ROOT
ATOM      1  C   UNL A   1      36.632  22.333  26.086  1.00  0.00     0.042 C 
ENDROOT
BRANCH   1   2
ATOM      2  C   UNL A   1      35.376  21.475  26.030  1.00  0.00     0.117 C 
BRANCH   2   3
ATOM      3  N   UNL A   1      34.522  21.704  27.181  1.00  0.00    -0.355 N 
ATOM      4  C   UNL A   1      33.307  22.312  27.275  1.00  0.00     0.233 C 
ATOM      5  O   UNL A   1      32.784  22.354  28.393  1.00  0.00    -0.274 OA
ATOM      6  H   UNL A   1      34.878  21.363  28.034  1.00  0.00     0.163 HD
BRANCH   4   7
ATOM      7  C   UNL A   1      32.602  22.922  26.058  1.00  0.00     0.139 C 
ATOM      8  C   UNL A   1      31.085  22.808  26.151  1.00  0.00     0.030 C 
BRANCH   7   9
ATOM      9  S   UNL A   1      33.317  24.604  25.762  1.00  0.00    -0.092 SA
BRANCH   9  10
ATOM     10  C   UNL A   1      32.796  25.064  24.121  1.00  0.00     0.115 A 
ATOM     11  N   UNL A   1      31.784  25.984  24.138  1.00  0.00    -0.240 NA
ATOM     12  C   UNL A   1      33.390  24.650  22.930  1.00  0.00     0.084 A 
ATOM     13  C   UNL A   1      31.325  26.485  22.964  1.00  0.00     0.072 A 
ATOM     14  C   UNL A   1      32.905  25.176  21.728  1.00  0.00     0.024 A 
ATOM     15  C   UNL A   1      31.869  26.100  21.744  1.00  0.00     0.030 A 
BRANCH  12  16
ATOM     16  C   UNL A   1      34.491  23.744  22.854  1.00  0.00     0.102 C 
ATOM     17  N   UNL A   1      35.417  23.048  22.821  1.00  0.00    -0.192 NA
ENDBRANCH  12  16
BRANCH  13  18
ATOM     18  C   UNL A   1      30.234  27.472  23.020  1.00  0.00     0.004 A 
ATOM     19  C   UNL A   1      28.965  27.098  23.537  1.00  0.00     0.014 A 
ATOM     20  C   UNL A   1      30.389  28.767  22.493  1.00  0.00     0.061 A 
ATOM     21  C   UNL A   1      27.869  27.967  23.501  1.00  0.00     0.051 A 
ATOM     22  C   UNL A   1      29.284  29.601  22.456  1.00  0.00     0.166 A 
ATOM     23  C   UNL A   1      28.060  29.207  22.941  1.00  0.00     0.165 A 
ATOM     24  O   UNL A   1      29.249  30.857  21.932  1.00  0.00    -0.454 OA
ATOM     25  O   UNL A   1      27.102  30.159  22.784  1.00  0.00    -0.454 OA
ATOM     26  C   UNL A   1      27.861  31.198  22.134  1.00  0.00     0.468 C 
ENDBRANCH  13  18
ENDBRANCH   9  10
ENDBRANCH   7   9
ENDBRANCH   4   7
ENDBRANCH   2   3
ENDBRANCH   1   2
BRANCH   1  27
ATOM     27  C   UNL A   1      37.727  21.862  25.139  1.00  0.00     0.118 C 
BRANCH  27  28
ATOM     28  N   UNL A   1      38.634  20.908  25.768  1.00  0.00    -0.352 N 
ATOM     29  C   UNL A   1      39.805  21.126  26.449  1.00  0.00     0.251 C 
ATOM     30  H   UNL A   1      38.365  19.964  25.692  1.00  0.00     0.163 HD
ATOM     31  O   UNL A   1      40.542  20.180  26.714  1.00  0.00    -0.269 OA
BRANCH  29  32
ATOM     32  C   UNL A   1      40.181  22.497  26.850  1.00  0.00     0.039 A 
ATOM     33  C   UNL A   1      41.038  22.675  27.939  1.00  0.00     0.014 A 
ATOM     34  C   UNL A   1      39.690  23.604  26.154  1.00  0.00     0.014 A 
ATOM     35  C   UNL A   1      41.451  23.961  28.287  1.00  0.00     0.010 A 
ATOM     36  C   UNL A   1      40.182  24.873  26.439  1.00  0.00     0.010 A 
ATOM     37  C   UNL A   1      41.059  25.067  27.514  1.00  0.00    -0.014 A 
BRANCH  37  38
ATOM     38  C   UNL A   1      41.563  26.432  27.811  1.00  0.00     0.031 A 
ATOM     39  C   UNL A   1      42.981  26.807  27.476  1.00  0.00     0.074 A 
ATOM     40  C   UNL A   1      40.765  27.310  28.451  1.00  0.00     0.049 A 
ATOM     41  N   UNL A   1      43.612  27.928  27.708  1.00  0.00    -0.248 NA
ATOM     42  C   UNL A   1      43.807  25.781  26.816  1.00  0.00     0.031 C 
ATOM     43  C   UNL A   1      39.393  27.042  28.888  1.00  0.00     0.029 A 
ATOM     44  N   UNL A   1      41.000  28.596  28.868  1.00  0.00    -0.354 N 
ATOM     45  C   UNL A   1      44.912  27.733  27.256  1.00  0.00     0.074 A 
ATOM     46  C   UNL A   1      44.991  26.374  26.770  1.00  0.00     0.031 C 
ATOM     47  C   UNL A   1      38.905  28.133  29.499  1.00  0.00     0.029 A 
ATOM     48  C   UNL A   1      39.942  29.158  29.544  1.00  0.00     0.049 A 
ATOM     49  H   UNL A   1      41.846  29.072  28.700  1.00  0.00     0.167 HD
ATOM     50  C   UNL A   1      45.941  28.612  27.229  1.00  0.00     0.034 A 
ATOM     51  C   UNL A   1      39.826  30.356  30.151  1.00  0.00     0.034 A 
ATOM     52  C   UNL A   1      45.853  29.968  27.698  1.00  0.00     0.049 A 
ATOM     53  C   UNL A   1      40.986  31.312  30.108  1.00  0.00     0.074 A 
ATOM     54  C   UNL A   1      46.816  30.960  27.642  1.00  0.00     0.029 A 
ATOM     55  N   UNL A   1      44.748  30.517  28.331  1.00  0.00    -0.354 N 
ATOM     56  N   UNL A   1      42.162  31.158  29.550  1.00  0.00    -0.248 NA
ATOM     57  C   UNL A   1      40.793  32.620  30.750  1.00  0.00     0.031 C 
ATOM     58  C   UNL A   1      46.315  32.091  28.293  1.00  0.00     0.029 A 
ATOM     59  C   UNL A   1      45.015  31.826  28.695  1.00  0.00     0.049 A 
ATOM     60  H   UNL A   1      43.901  30.046  28.498  1.00  0.00     0.167 HD
ATOM     61  C   UNL A   1      42.833  32.361  29.738  1.00  0.00     0.074 A 
ATOM     62  C   UNL A   1      41.925  33.239  30.446  1.00  0.00     0.031 C 
ATOM     63  C   UNL A   1      44.090  32.704  29.363  1.00  0.00     0.034 A 
BRANCH  50  64
ATOM     64  C   UNL A   1      47.253  28.140  26.654  1.00  0.00     0.023 A 
ATOM     65  C   UNL A   1      48.304  27.758  27.514  1.00  0.00     0.012 A 
ATOM     66  C   UNL A   1      47.424  28.021  25.261  1.00  0.00     0.148 A 
ATOM     67  C   UNL A   1      49.516  27.305  26.996  1.00  0.00     0.002 A 
ATOM     68  C   UNL A   1      48.615  27.519  24.754  1.00  0.00     0.091 A 
ATOM     69  F   UNL A   1      46.420  28.405  24.459  1.00  0.00    -0.205 F 
ATOM     70  C   UNL A   1      49.668  27.175  25.618  1.00  0.00     0.022 A 
BRANCH  68  71
ATOM     71  S   UNL A   1      48.879  27.233  23.000  1.00  0.00     0.127 S 
ATOM     72  O   UNL A   1      50.339  27.229  22.920  1.00  0.00    -0.237 OA
ATOM     73  O   UNL A   1      48.253  25.925  22.807  1.00  0.00    -0.237 OA
ATOM     74  O   UNL A   1      48.221  28.332  22.308  1.00  0.00    -0.744 OA
ENDBRANCH  68  71
ENDBRANCH  50  64
BRANCH  51  75
ATOM     75  C   UNL A   1      38.552  30.730  30.828  1.00  0.00     0.023 A 
ATOM     76  C   UNL A   1      38.356  30.395  32.182  1.00  0.00     0.012 A 
ATOM     77  C   UNL A   1      37.539  31.423  30.138  1.00  0.00     0.148 A 
ATOM     78  C   UNL A   1      37.156  30.707  32.824  1.00  0.00     0.002 A 
ATOM     79  C   UNL A   1      36.371  31.783  30.799  1.00  0.00     0.091 A 
ATOM     80  F   UNL A   1      37.745  31.728  28.849  1.00  0.00    -0.205 F 
ATOM     81  C   UNL A   1      36.169  31.407  32.137  1.00  0.00     0.022 A 
BRANCH  79  82
ATOM     82  S   UNL A   1      35.101  32.793  30.032  1.00  0.00     0.127 S 
ATOM     83  O   UNL A   1      34.605  31.905  28.984  1.00  0.00    -0.237 OA
ATOM     84  O   UNL A   1      34.177  33.009  31.146  1.00  0.00    -0.237 OA
ATOM     85  O   UNL A   1      35.776  33.997  29.569  1.00  0.00    -0.744 OA
ENDBRANCH  79  82
ENDBRANCH  51  75
BRANCH  63  86
ATOM     86  C   UNL A   1      44.550  34.110  29.653  1.00  0.00     0.023 A 
ATOM     87  C   UNL A   1      45.161  34.422  30.883  1.00  0.00     0.012 A 
ATOM     88  C   UNL A   1      44.438  35.109  28.664  1.00  0.00     0.148 A 
ATOM     89  C   UNL A   1      45.622  35.714  31.138  1.00  0.00     0.002 A 
ATOM     90  C   UNL A   1      44.951  36.376  28.902  1.00  0.00     0.091 A 
ATOM     91  F   UNL A   1      43.840  34.795  27.505  1.00  0.00    -0.205 F 
ATOM     92  C   UNL A   1      45.529  36.686  30.144  1.00  0.00     0.022 A 
BRANCH  90  93
ATOM     93  S   UNL A   1      44.966  37.662  27.649  1.00  0.00     0.127 S 
ATOM     94  O   UNL A   1      45.537  38.789  28.387  1.00  0.00    -0.237 OA
ATOM     95  O   UNL A   1      45.848  37.089  26.631  1.00  0.00    -0.237 OA
ATOM     96  O   UNL A   1      43.583  37.835  27.228  1.00  0.00    -0.744 OA
ENDBRANCH  90  93
ENDBRANCH  63  86
ENDBRANCH  37  38
ENDBRANCH  29  32
ENDBRANCH  27  28
ENDBRANCH   1  27
TORSDOF 17
ENDMDL
