MODEL 1
REMARK VINA RESULT:     -10.3      0.000      0.000
REMARK SMILES C=C(C)COc1cc2oc(=O)c(CC(=O)N3CCC[C@H](C(=O)NCCCNC(=O)c4ccc(-c5c6nc(c(-c7cccc(S(=O)(=O)[O-])c7F)c7ccc([nH]7)c(-c7cccc(S(=O)(=O)[O-])c7F)c7nc(c(-c8cccc(S(=O)(=O)[O-])c8F)c8ccc5[nH]8)C=C7)C=C6)cc4)C3)c(C)c2cc1Cl
REMARK SMILES IDX 21 1 22 2 23 3 20 5 16 6 17 7 93 8 18 9 19 10 14 11 15 12
REMARK SMILES IDX 13 13 12 14 6 15 7 16 98 17 8 18 97 19 99 20 9 21 96 22
REMARK SMILES IDX 10 23 94 24 11 25 95 26 5 27 4 28 2 29 1 30 3 31 24 32 25 33
REMARK SMILES IDX 26 34 27 35 28 36 29 38 30 39 31 40 92 41 32 42 91 43 33 44
REMARK SMILES IDX 34 45 35 46 85 47 36 48 90 49 84 50 86 51 37 52 89 53 83 54
REMARK SMILES IDX 82 55 38 57 70 58 50 59 69 60 51 61 54 62 68 63 87 64 52 65
REMARK SMILES IDX 53 66 67 68 88 69 55 70 39 71 40 72 48 73 41 74 43 75 49 76
REMARK SMILES IDX 42 77 44 78 45 79 46 80 47 81 71 82 72 83 80 84 73 85 75 86
REMARK SMILES IDX 81 87 74 88 76 89 77 90 78 91 79 92 56 93 57 94 65 95 58 96
REMARK SMILES IDX 60 97 66 98 59 99 61 100 62 101 63 102 64 103
REMARK H PARENT 23 4 27 37 86 56 54 67
REMARK Flexibility Score: inf
ROOT
ATOM      1  C   UNL A   1      46.753  25.062  24.968  1.00  0.00     0.224 C 
ATOM      2  O   UNL A   1      47.418  24.857  23.944  1.00  0.00    -0.275 OA
ATOM      3  N   UNL A   1      46.071  26.233  25.010  1.00  0.00    -0.356 N 
ATOM      4  H   UNL A   1      46.319  26.872  24.302  1.00  0.00     0.163 HD
ENDROOT
BRANCH   1   5
ATOM      5  C   UNL A   1      46.739  23.996  26.073  1.00  0.00     0.098 C 
ATOM      6  N   UNL A   1      44.425  23.352  26.803  1.00  0.00    -0.342 N 
ATOM      7  C   UNL A   1      44.747  23.652  28.205  1.00  0.00     0.119 C 
ATOM      8  C   UNL A   1      45.579  23.003  25.983  1.00  0.00     0.133 C 
ATOM      9  C   UNL A   1      45.824  24.721  28.369  1.00  0.00     0.022 C 
ATOM     10  C   UNL A   1      47.044  24.497  27.483  1.00  0.00     0.017 C 
BRANCH   6  11
ATOM     11  C   UNL A   1      43.102  23.460  26.392  1.00  0.00     0.227 C 
ATOM     12  O   UNL A   1      42.848  23.772  25.220  1.00  0.00    -0.275 OA
BRANCH  11  13
ATOM     13  C   UNL A   1      41.893  23.327  27.343  1.00  0.00     0.143 C 
BRANCH  13  14
ATOM     14  C   UNL A   1      40.532  22.917  26.852  1.00  0.00     0.051 A 
ATOM     15  C   UNL A   1      35.949  22.112  24.864  1.00  0.00     0.142 A 
ATOM     16  C   UNL A   1      37.085  21.330  25.053  1.00  0.00     0.096 A 
ATOM     17  C   UNL A   1      35.912  23.412  25.376  1.00  0.00     0.083 A 
ATOM     18  C   UNL A   1      38.195  21.886  25.692  1.00  0.00     0.142 A 
ATOM     19  C   UNL A   1      37.049  23.960  25.982  1.00  0.00     0.036 A 
ATOM     20  Cl  UNL A   1      34.487  24.382  25.319  1.00  0.00    -0.080 Cl
ATOM     21  O   UNL A   1      39.289  21.033  25.887  1.00  0.00    -0.422 OA
ATOM     22  C   UNL A   1      38.221  23.206  26.136  1.00  0.00     0.023 A 
ATOM     23  C   UNL A   1      40.432  21.462  26.534  1.00  0.00     0.340 A 
ATOM     24  C   UNL A   1      39.472  23.744  26.708  1.00  0.00    -0.029 A 
ATOM     25  O   UNL A   1      41.347  20.680  26.767  1.00  0.00    -0.246 OA
ATOM     26  C   UNL A   1      39.499  25.216  27.029  1.00  0.00     0.046 C 
BRANCH  15  27
ATOM     27  O   UNL A   1      34.861  21.547  24.251  1.00  0.00    -0.488 OA
BRANCH  27  28
ATOM     28  C   UNL A   1      34.472  20.319  24.892  1.00  0.00     0.260 C 
BRANCH  28  29
ATOM     29  C   UNL A   1      33.015  20.028  24.628  1.00  0.00    -0.043 C 
ATOM     30  C   UNL A   1      32.537  18.772  24.581  1.00  0.00     0.011 C 
ATOM     31  C   UNL A   1      32.115  21.220  24.474  1.00  0.00     0.042 C 
ENDBRANCH  28  29
ENDBRANCH  27  28
ENDBRANCH  15  27
ENDBRANCH  13  14
ENDBRANCH  11  13
ENDBRANCH   6  11
ENDBRANCH   1   5
BRANCH   3  32
ATOM     32  C   UNL A   1      45.045  26.711  25.911  1.00  0.00     0.117 C 
BRANCH  32  33
ATOM     33  C   UNL A   1      44.948  28.223  25.991  1.00  0.00     0.042 C 
BRANCH  33  34
ATOM     34  C   UNL A   1      45.860  28.810  27.055  1.00  0.00     0.118 C 
BRANCH  34  35
ATOM     35  N   UNL A   1      47.016  29.512  26.493  1.00  0.00    -0.352 N 
ATOM     36  C   UNL A   1      48.321  29.609  26.930  1.00  0.00     0.251 C 
ATOM     37  H   UNL A   1      46.829  30.001  25.659  1.00  0.00     0.163 HD
ATOM     38  O   UNL A   1      49.089  30.374  26.363  1.00  0.00    -0.269 OA
BRANCH  36  39
ATOM     39  C   UNL A   1      48.775  28.822  28.098  1.00  0.00     0.039 A 
ATOM     40  C   UNL A   1      49.118  27.481  27.953  1.00  0.00     0.014 A 
ATOM     41  C   UNL A   1      48.828  29.420  29.361  1.00  0.00     0.014 A 
ATOM     42  C   UNL A   1      49.258  26.685  29.080  1.00  0.00     0.010 A 
ATOM     43  C   UNL A   1      49.111  28.639  30.488  1.00  0.00     0.010 A 
ATOM     44  C   UNL A   1      49.260  27.251  30.365  1.00  0.00    -0.014 A 
BRANCH  44  45
ATOM     45  C   UNL A   1      49.429  26.358  31.543  1.00  0.00     0.031 A 
ATOM     46  C   UNL A   1      48.238  25.859  32.322  1.00  0.00     0.074 A 
ATOM     47  C   UNL A   1      50.669  25.938  31.870  1.00  0.00     0.049 A 
ATOM     48  N   UNL A   1      48.217  25.058  33.357  1.00  0.00    -0.248 NA
ATOM     49  C   UNL A   1      46.903  26.314  31.897  1.00  0.00     0.031 C 
ATOM     50  C   UNL A   1      51.903  26.362  31.202  1.00  0.00     0.029 A 
ATOM     51  N   UNL A   1      51.097  25.041  32.813  1.00  0.00    -0.354 N 
ATOM     52  C   UNL A   1      46.885  24.962  33.742  1.00  0.00     0.074 A 
ATOM     53  C   UNL A   1      46.121  25.778  32.825  1.00  0.00     0.031 C 
ATOM     54  C   UNL A   1      52.935  25.671  31.702  1.00  0.00     0.029 A 
ATOM     55  C   UNL A   1      52.453  24.815  32.778  1.00  0.00     0.049 A 
ATOM     56  H   UNL A   1      50.493  24.600  33.454  1.00  0.00     0.167 HD
ATOM     57  C   UNL A   1      46.346  24.245  34.755  1.00  0.00     0.034 A 
ATOM     58  C   UNL A   1      53.234  24.018  33.534  1.00  0.00     0.034 A 
ATOM     59  C   UNL A   1      47.096  23.373  35.618  1.00  0.00     0.049 A 
ATOM     60  C   UNL A   1      52.606  23.209  34.627  1.00  0.00     0.074 A 
ATOM     61  C   UNL A   1      46.627  22.571  36.644  1.00  0.00     0.029 A 
ATOM     62  N   UNL A   1      48.466  23.175  35.547  1.00  0.00    -0.354 N 
ATOM     63  N   UNL A   1      51.338  23.101  34.940  1.00  0.00    -0.248 NA
ATOM     64  C   UNL A   1      53.509  22.416  35.471  1.00  0.00     0.031 C 
ATOM     65  C   UNL A   1      47.714  21.888  37.195  1.00  0.00     0.029 A 
ATOM     66  C   UNL A   1      48.859  22.261  36.510  1.00  0.00     0.049 A 
ATOM     67  H   UNL A   1      49.069  23.617  34.908  1.00  0.00     0.167 HD
ATOM     68  C   UNL A   1      51.289  22.228  36.018  1.00  0.00     0.074 A 
ATOM     69  C   UNL A   1      52.651  21.814  36.287  1.00  0.00     0.031 C 
ATOM     70  C   UNL A   1      50.212  21.828  36.735  1.00  0.00     0.034 A 
BRANCH  57  71
ATOM     71  C   UNL A   1      44.859  24.321  34.971  1.00  0.00     0.023 A 
ATOM     72  C   UNL A   1      44.026  23.359  34.370  1.00  0.00     0.012 A 
ATOM     73  C   UNL A   1      44.305  25.271  35.852  1.00  0.00     0.148 A 
ATOM     74  C   UNL A   1      42.657  23.344  34.636  1.00  0.00     0.002 A 
ATOM     75  C   UNL A   1      42.944  25.232  36.134  1.00  0.00     0.091 A 
ATOM     76  F   UNL A   1      45.118  26.183  36.402  1.00  0.00    -0.205 F 
ATOM     77  C   UNL A   1      42.119  24.272  35.525  1.00  0.00     0.022 A 
BRANCH  75  78
ATOM     78  S   UNL A   1      42.158  26.344  37.306  1.00  0.00     0.127 S 
ATOM     79  O   UNL A   1      40.817  25.769  37.403  1.00  0.00    -0.237 OA
ATOM     80  O   UNL A   1      42.985  26.166  38.498  1.00  0.00    -0.237 OA
ATOM     81  O   UNL A   1      42.221  27.671  36.708  1.00  0.00    -0.744 OA
ENDBRANCH  75  78
ENDBRANCH  57  71
BRANCH  58  82
ATOM     82  C   UNL A   1      54.689  23.936  33.235  1.00  0.00     0.023 A 
ATOM     83  C   UNL A   1      55.123  23.187  32.127  1.00  0.00     0.012 A 
ATOM     84  C   UNL A   1      55.626  24.682  33.977  1.00  0.00     0.148 A 
ATOM     85  C   UNL A   1      56.469  23.183  31.760  1.00  0.00     0.002 A 
ATOM     86  C   UNL A   1      56.955  24.715  33.576  1.00  0.00     0.091 A 
ATOM     87  F   UNL A   1      55.185  25.380  35.034  1.00  0.00    -0.205 F 
ATOM     88  C   UNL A   1      57.381  23.958  32.473  1.00  0.00     0.022 A 
BRANCH  86  89
ATOM     89  S   UNL A   1      58.170  25.788  34.349  1.00  0.00     0.127 S 
ATOM     90  O   UNL A   1      59.329  25.601  33.480  1.00  0.00    -0.237 OA
ATOM     91  O   UNL A   1      57.523  27.096  34.244  1.00  0.00    -0.237 OA
ATOM     92  O   UNL A   1      58.319  25.298  35.713  1.00  0.00    -0.744 OA
ENDBRANCH  86  89
ENDBRANCH  58  82
BRANCH  70  93
ATOM     93  C   UNL A   1      50.448  20.893  37.886  1.00  0.00     0.023 A 
ATOM     94  C   UNL A   1      50.518  19.509  37.641  1.00  0.00     0.012 A 
ATOM     95  C   UNL A   1      50.715  21.391  39.174  1.00  0.00     0.148 A 
ATOM     96  C   UNL A   1      50.847  18.628  38.669  1.00  0.00     0.002 A 
ATOM     97  C   UNL A   1      51.074  20.509  40.187  1.00  0.00     0.091 A 
ATOM     98  F   UNL A   1      50.631  22.713  39.379  1.00  0.00    -0.205 F 
ATOM     99  C   UNL A   1      51.136  19.129  39.937  1.00  0.00     0.022 A 
BRANCH  97 100
ATOM    100  S   UNL A   1      51.534  21.062  41.833  1.00  0.00     0.127 S 
ATOM    101  O   UNL A   1      51.396  19.830  42.609  1.00  0.00    -0.237 OA
ATOM    102  O   UNL A   1      52.913  21.508  41.634  1.00  0.00    -0.237 OA
ATOM    103  O   UNL A   1      50.596  22.121  42.181  1.00  0.00    -0.744 OA
ENDBRANCH  97 100
ENDBRANCH  70  93
ENDBRANCH  44  45
ENDBRANCH  36  39
ENDBRANCH  34  35
ENDBRANCH  33  34
ENDBRANCH  32  33
ENDBRANCH   3  32
TORSDOF 19
ENDMDL
MODEL 2
REMARK VINA RESULT:     -10.2      9.487     14.638
REMARK SMILES C=C(C)COc1cc2oc(=O)c(CC(=O)N3CCC[C@H](C(=O)NCCCNC(=O)c4ccc(-c5c6nc(c(-c7cccc(S(=O)(=O)[O-])c7F)c7ccc([nH]7)c(-c7cccc(S(=O)(=O)[O-])c7F)c7nc(c(-c8cccc(S(=O)(=O)[O-])c8F)c8ccc5[nH]8)C=C7)C=C6)cc4)C3)c(C)c2cc1Cl
REMARK SMILES IDX 21 1 22 2 23 3 20 5 16 6 17 7 93 8 18 9 19 10 14 11 15 12
REMARK SMILES IDX 13 13 12 14 6 15 7 16 98 17 8 18 97 19 99 20 9 21 96 22
REMARK SMILES IDX 10 23 94 24 11 25 95 26 5 27 4 28 2 29 1 30 3 31 24 32 25 33
REMARK SMILES IDX 26 34 27 35 28 36 29 38 30 39 31 40 92 41 32 42 91 43 33 44
REMARK SMILES IDX 34 45 35 46 85 47 36 48 90 49 84 50 86 51 37 52 89 53 83 54
REMARK SMILES IDX 82 55 38 57 70 58 50 59 69 60 51 61 54 62 68 63 87 64 52 65
REMARK SMILES IDX 53 66 67 68 88 69 55 70 39 71 40 72 48 73 41 74 43 75 49 76
REMARK SMILES IDX 42 77 44 78 45 79 46 80 47 81 71 82 72 83 80 84 73 85 75 86
REMARK SMILES IDX 81 87 74 88 76 89 77 90 78 91 79 92 56 93 57 94 65 95 58 96
REMARK SMILES IDX 60 97 66 98 59 99 61 100 62 101 63 102 64 103
REMARK H PARENT 23 4 27 37 86 56 54 67
REMARK Flexibility Score: inf
ROOT
ATOM      1  C   UNL A   1      37.388  30.705  32.888  1.00  0.00     0.224 C 
ATOM      2  O   UNL A   1      36.596  30.088  32.164  1.00  0.00    -0.275 OA
ATOM      3  N   UNL A   1      37.779  30.070  34.019  1.00  0.00    -0.356 N 
ATOM      4  H   UNL A   1      37.256  29.263  34.232  1.00  0.00     0.163 HD
ENDROOT
BRANCH   1   5
ATOM      5  C   UNL A   1      37.866  32.098  32.452  1.00  0.00     0.098 C 
ATOM      6  N   UNL A   1      36.314  33.215  30.825  1.00  0.00    -0.342 N 
ATOM      7  C   UNL A   1      37.410  33.420  29.868  1.00  0.00     0.119 C 
ATOM      8  C   UNL A   1      36.743  33.109  32.214  1.00  0.00     0.133 C 
ATOM      9  C   UNL A   1      38.519  32.376  29.976  1.00  0.00     0.022 C 
ATOM     10  C   UNL A   1      38.979  32.122  31.406  1.00  0.00     0.017 C 
BRANCH   6  11
ATOM     11  C   UNL A   1      35.019  33.110  30.332  1.00  0.00     0.227 C 
ATOM     12  O   UNL A   1      34.120  32.669  31.062  1.00  0.00    -0.275 OA
BRANCH  11  13
ATOM     13  C   UNL A   1      34.631  33.401  28.867  1.00  0.00     0.143 C 
BRANCH  13  14
ATOM     14  C   UNL A   1      33.975  32.367  27.995  1.00  0.00     0.051 A 
ATOM     15  C   UNL A   1      31.975  28.441  25.506  1.00  0.00     0.142 A 
ATOM     16  C   UNL A   1      31.534  29.721  25.830  1.00  0.00     0.096 A 
ATOM     17  C   UNL A   1      33.286  28.065  25.806  1.00  0.00     0.083 A 
ATOM     18  C   UNL A   1      32.393  30.582  26.516  1.00  0.00     0.142 A 
ATOM     19  C   UNL A   1      34.119  28.933  26.524  1.00  0.00     0.036 A 
ATOM     20  Cl  UNL A   1      33.950  26.557  25.295  1.00  0.00    -0.080 Cl
ATOM     21  O   UNL A   1      31.902  31.868  26.776  1.00  0.00    -0.422 OA
ATOM     22  C   UNL A   1      33.676  30.207  26.906  1.00  0.00     0.023 A 
ATOM     23  C   UNL A   1      32.673  32.818  27.420  1.00  0.00     0.340 A 
ATOM     24  C   UNL A   1      34.480  31.143  27.718  1.00  0.00    -0.029 A 
ATOM     25  O   UNL A   1      32.258  33.962  27.568  1.00  0.00    -0.246 OA
ATOM     26  C   UNL A   1      35.796  30.634  28.248  1.00  0.00     0.046 C 
BRANCH  15  27
ATOM     27  O   UNL A   1      31.127  27.613  24.818  1.00  0.00    -0.488 OA
BRANCH  27  28
ATOM     28  C   UNL A   1      30.397  28.328  23.804  1.00  0.00     0.260 C 
BRANCH  28  29
ATOM     29  C   UNL A   1      29.052  27.682  23.573  1.00  0.00    -0.043 C 
ATOM     30  C   UNL A   1      28.798  26.415  23.943  1.00  0.00     0.011 C 
ATOM     31  C   UNL A   1      27.994  28.550  22.954  1.00  0.00     0.042 C 
ENDBRANCH  28  29
ENDBRANCH  27  28
ENDBRANCH  15  27
ENDBRANCH  13  14
ENDBRANCH  11  13
ENDBRANCH   6  11
ENDBRANCH   1   5
BRANCH   3  32
ATOM     32  C   UNL A   1      38.829  30.367  34.970  1.00  0.00     0.117 C 
BRANCH  32  33
ATOM     33  C   UNL A   1      38.328  30.921  36.291  1.00  0.00     0.042 C 
BRANCH  33  34
ATOM     34  C   UNL A   1      37.562  32.222  36.125  1.00  0.00     0.118 C 
BRANCH  34  35
ATOM     35  N   UNL A   1      38.027  33.279  37.025  1.00  0.00    -0.352 N 
ATOM     36  C   UNL A   1      39.121  34.116  36.955  1.00  0.00     0.251 C 
ATOM     37  H   UNL A   1      37.460  33.415  37.819  1.00  0.00     0.163 HD
ATOM     38  O   UNL A   1      39.387  34.839  37.906  1.00  0.00    -0.269 OA
BRANCH  36  39
ATOM     39  C   UNL A   1      39.987  34.111  35.755  1.00  0.00     0.039 A 
ATOM     40  C   UNL A   1      41.268  33.569  35.814  1.00  0.00     0.014 A 
ATOM     41  C   UNL A   1      39.529  34.683  34.565  1.00  0.00     0.014 A 
ATOM     42  C   UNL A   1      42.166  33.825  34.789  1.00  0.00     0.010 A 
ATOM     43  C   UNL A   1      40.399  34.814  33.476  1.00  0.00     0.010 A 
ATOM     44  C   UNL A   1      41.747  34.448  33.603  1.00  0.00    -0.014 A 
BRANCH  44  45
ATOM     45  C   UNL A   1      42.744  34.689  32.526  1.00  0.00     0.031 A 
ATOM     46  C   UNL A   1      43.487  35.997  32.425  1.00  0.00     0.074 A 
ATOM     47  C   UNL A   1      43.033  33.686  31.670  1.00  0.00     0.049 A 
ATOM     48  N   UNL A   1      44.402  36.353  31.559  1.00  0.00    -0.248 NA
ATOM     49  C   UNL A   1      43.164  37.043  33.410  1.00  0.00     0.031 C 
ATOM     50  C   UNL A   1      42.373  32.377  31.656  1.00  0.00     0.029 A 
ATOM     51  N   UNL A   1      43.973  33.591  30.677  1.00  0.00    -0.354 N 
ATOM     52  C   UNL A   1      44.718  37.673  31.855  1.00  0.00     0.074 A 
ATOM     53  C   UNL A   1      43.906  38.059  32.987  1.00  0.00     0.031 C 
ATOM     54  C   UNL A   1      42.977  31.588  30.757  1.00  0.00     0.029 A 
ATOM     55  C   UNL A   1      44.012  32.354  30.076  1.00  0.00     0.049 A 
ATOM     56  H   UNL A   1      44.563  34.336  30.418  1.00  0.00     0.167 HD
ATOM     57  C   UNL A   1      45.617  38.484  31.250  1.00  0.00     0.034 A 
ATOM     58  C   UNL A   1      44.784  31.884  29.077  1.00  0.00     0.034 A 
ATOM     59  C   UNL A   1      46.479  38.077  30.174  1.00  0.00     0.049 A 
ATOM     60  C   UNL A   1      45.794  32.793  28.447  1.00  0.00     0.074 A 
ATOM     61  C   UNL A   1      47.453  38.819  29.528  1.00  0.00     0.029 A 
ATOM     62  N   UNL A   1      46.484  36.817  29.597  1.00  0.00    -0.354 N 
ATOM     63  N   UNL A   1      46.105  34.023  28.776  1.00  0.00    -0.248 NA
ATOM     64  C   UNL A   1      46.556  32.258  27.312  1.00  0.00     0.031 C 
ATOM     65  C   UNL A   1      48.048  38.006  28.559  1.00  0.00     0.029 A 
ATOM     66  C   UNL A   1      47.447  36.759  28.605  1.00  0.00     0.049 A 
ATOM     67  H   UNL A   1      45.893  36.074  29.855  1.00  0.00     0.167 HD
ATOM     68  C   UNL A   1      47.100  34.410  27.889  1.00  0.00     0.074 A 
ATOM     69  C   UNL A   1      47.360  33.275  27.027  1.00  0.00     0.031 C 
ATOM     70  C   UNL A   1      47.722  35.608  27.785  1.00  0.00     0.034 A 
BRANCH  57  71
ATOM     71  C   UNL A   1      45.763  39.892  31.760  1.00  0.00     0.023 A 
ATOM     72  C   UNL A   1      46.817  40.199  32.642  1.00  0.00     0.012 A 
ATOM     73  C   UNL A   1      44.933  40.925  31.281  1.00  0.00     0.148 A 
ATOM     74  C   UNL A   1      47.039  41.514  33.049  1.00  0.00     0.002 A 
ATOM     75  C   UNL A   1      45.178  42.237  31.669  1.00  0.00     0.091 A 
ATOM     76  F   UNL A   1      43.931  40.605  30.451  1.00  0.00    -0.205 F 
ATOM     77  C   UNL A   1      46.227  42.533  32.555  1.00  0.00     0.022 A 
BRANCH  75  78
ATOM     78  S   UNL A   1      44.230  43.631  31.048  1.00  0.00     0.127 S 
ATOM     79  O   UNL A   1      44.657  44.702  31.949  1.00  0.00    -0.237 OA
ATOM     80  O   UNL A   1      44.727  43.753  29.678  1.00  0.00    -0.237 OA
ATOM     81  O   UNL A   1      42.829  43.250  31.161  1.00  0.00    -0.744 OA
ENDBRANCH  75  78
ENDBRANCH  57  71
BRANCH  58  82
ATOM     82  C   UNL A   1      44.636  30.465  28.655  1.00  0.00     0.023 A 
ATOM     83  C   UNL A   1      45.370  29.469  29.322  1.00  0.00     0.012 A 
ATOM     84  C   UNL A   1      43.696  30.093  27.674  1.00  0.00     0.148 A 
ATOM     85  C   UNL A   1      45.170  28.121  29.022  1.00  0.00     0.002 A 
ATOM     86  C   UNL A   1      43.464  28.748  27.416  1.00  0.00     0.091 A 
ATOM     87  F   UNL A   1      43.017  31.064  27.048  1.00  0.00    -0.205 F 
ATOM     88  C   UNL A   1      44.207  27.760  28.081  1.00  0.00     0.022 A 
BRANCH  86  89
ATOM     89  S   UNL A   1      42.153  28.188  26.324  1.00  0.00     0.127 S 
ATOM     90  O   UNL A   1      42.658  28.597  25.016  1.00  0.00    -0.237 OA
ATOM     91  O   UNL A   1      42.160  26.744  26.565  1.00  0.00    -0.237 OA
ATOM     92  O   UNL A   1      40.945  28.866  26.775  1.00  0.00    -0.744 OA
ENDBRANCH  86  89
ENDBRANCH  58  82
BRANCH  70  93
ATOM     93  C   UNL A   1      48.748  35.771  26.702  1.00  0.00     0.023 A 
ATOM     94  C   UNL A   1      48.375  36.389  25.493  1.00  0.00     0.012 A 
ATOM     95  C   UNL A   1      50.093  35.425  26.925  1.00  0.00     0.148 A 
ATOM     96  C   UNL A   1      49.331  36.656  24.515  1.00  0.00     0.002 A 
ATOM     97  C   UNL A   1      51.046  35.723  25.958  1.00  0.00     0.091 A 
ATOM     98  F   UNL A   1      50.416  34.829  28.082  1.00  0.00    -0.205 F 
ATOM     99  C   UNL A   1      50.665  36.334  24.752  1.00  0.00     0.022 A 
BRANCH  97 100
ATOM    100  S   UNL A   1      52.799  35.414  26.199  1.00  0.00     0.127 S 
ATOM    101  O   UNL A   1      53.360  35.890  24.935  1.00  0.00    -0.237 OA
ATOM    102  O   UNL A   1      53.103  36.252  27.358  1.00  0.00    -0.237 OA
ATOM    103  O   UNL A   1      52.928  33.982  26.433  1.00  0.00    -0.744 OA
ENDBRANCH  97 100
ENDBRANCH  70  93
ENDBRANCH  44  45
ENDBRANCH  36  39
ENDBRANCH  34  35
ENDBRANCH  33  34
ENDBRANCH  32  33
ENDBRANCH   3  32
TORSDOF 19
ENDMDL
MODEL 3
REMARK VINA RESULT:     -10.2     10.901     16.064
REMARK SMILES C=C(C)COc1cc2oc(=O)c(CC(=O)N3CCC[C@H](C(=O)NCCCNC(=O)c4ccc(-c5c6nc(c(-c7cccc(S(=O)(=O)[O-])c7F)c7ccc([nH]7)c(-c7cccc(S(=O)(=O)[O-])c7F)c7nc(c(-c8cccc(S(=O)(=O)[O-])c8F)c8ccc5[nH]8)C=C7)C=C6)cc4)C3)c(C)c2cc1Cl
REMARK SMILES IDX 21 1 22 2 23 3 20 5 16 6 17 7 93 8 18 9 19 10 14 11 15 12
REMARK SMILES IDX 13 13 12 14 6 15 7 16 98 17 8 18 97 19 99 20 9 21 96 22
REMARK SMILES IDX 10 23 94 24 11 25 95 26 5 27 4 28 2 29 1 30 3 31 24 32 25 33
REMARK SMILES IDX 26 34 27 35 28 36 29 38 30 39 31 40 92 41 32 42 91 43 33 44
REMARK SMILES IDX 34 45 35 46 85 47 36 48 90 49 84 50 86 51 37 52 89 53 83 54
REMARK SMILES IDX 82 55 38 57 70 58 50 59 69 60 51 61 54 62 68 63 87 64 52 65
REMARK SMILES IDX 53 66 67 68 88 69 55 70 39 71 40 72 48 73 41 74 43 75 49 76
REMARK SMILES IDX 42 77 44 78 45 79 46 80 47 81 71 82 72 83 80 84 73 85 75 86
REMARK SMILES IDX 81 87 74 88 76 89 77 90 78 91 79 92 56 93 57 94 65 95 58 96
REMARK SMILES IDX 60 97 66 98 59 99 61 100 62 101 63 102 64 103
REMARK H PARENT 23 4 27 37 86 56 54 67
REMARK Flexibility Score: inf
ROOT
ATOM      1  C   UNL A   1      42.202  40.859  29.562  1.00  0.00     0.224 C 
ATOM      2  O   UNL A   1      41.131  40.792  28.944  1.00  0.00    -0.275 OA
ATOM      3  N   UNL A   1      42.383  41.968  30.320  1.00  0.00    -0.356 N 
ATOM      4  H   UNL A   1      41.723  42.681  30.159  1.00  0.00     0.163 HD
ENDROOT
BRANCH   1   5
ATOM      5  C   UNL A   1      43.208  39.705  29.437  1.00  0.00     0.098 C 
ATOM      6  N   UNL A   1      44.413  39.672  27.235  1.00  0.00    -0.342 N 
ATOM      7  C   UNL A   1      44.006  38.280  26.995  1.00  0.00     0.119 C 
ATOM      8  C   UNL A   1      44.470  40.046  28.643  1.00  0.00     0.133 C 
ATOM      9  C   UNL A   1      42.690  37.903  27.672  1.00  0.00     0.022 C 
ATOM     10  C   UNL A   1      42.611  38.333  29.131  1.00  0.00     0.017 C 
BRANCH   6  11
ATOM     11  C   UNL A   1      44.662  40.485  26.137  1.00  0.00     0.227 C 
ATOM     12  O   UNL A   1      45.533  40.158  25.317  1.00  0.00    -0.275 OA
BRANCH  11  13
ATOM     13  C   UNL A   1      43.996  41.860  25.917  1.00  0.00     0.143 C 
BRANCH  13  14
ATOM     14  C   UNL A   1      43.659  42.373  24.544  1.00  0.00     0.051 A 
ATOM     15  C   UNL A   1      43.153  43.955  19.763  1.00  0.00     0.142 A 
ATOM     16  C   UNL A   1      42.376  43.191  20.629  1.00  0.00     0.096 A 
ATOM     17  C   UNL A   1      44.326  44.551  20.233  1.00  0.00     0.083 A 
ATOM     18  C   UNL A   1      42.822  42.977  21.935  1.00  0.00     0.142 A 
ATOM     19  C   UNL A   1      44.771  44.295  21.536  1.00  0.00     0.036 A 
ATOM     20  Cl  UNL A   1      45.256  45.637  19.267  1.00  0.00    -0.080 Cl
ATOM     21  O   UNL A   1      41.972  42.234  22.765  1.00  0.00    -0.422 OA
ATOM     22  C   UNL A   1      44.029  43.486  22.407  1.00  0.00     0.023 A 
ATOM     23  C   UNL A   1      42.292  41.984  24.086  1.00  0.00     0.340 A 
ATOM     24  C   UNL A   1      44.473  43.126  23.769  1.00  0.00    -0.029 A 
ATOM     25  O   UNL A   1      41.502  41.402  24.820  1.00  0.00    -0.246 OA
ATOM     26  C   UNL A   1      45.854  43.570  24.178  1.00  0.00     0.046 C 
BRANCH  15  27
ATOM     27  O   UNL A   1      42.694  44.170  18.491  1.00  0.00    -0.488 OA
BRANCH  27  28
ATOM     28  C   UNL A   1      41.630  45.139  18.469  1.00  0.00     0.260 C 
BRANCH  28  29
ATOM     29  C   UNL A   1      41.739  46.010  17.240  1.00  0.00    -0.043 C 
ATOM     30  C   UNL A   1      41.644  45.503  15.999  1.00  0.00     0.011 C 
ATOM     31  C   UNL A   1      41.906  47.482  17.481  1.00  0.00     0.042 C 
ENDBRANCH  28  29
ENDBRANCH  27  28
ENDBRANCH  15  27
ENDBRANCH  13  14
ENDBRANCH  11  13
ENDBRANCH   6  11
ENDBRANCH   1   5
BRANCH   3  32
ATOM     32  C   UNL A   1      43.374  42.290  31.324  1.00  0.00     0.117 C 
BRANCH  32  33
ATOM     33  C   UNL A   1      42.788  42.700  32.662  1.00  0.00     0.042 C 
BRANCH  33  34
ATOM     34  C   UNL A   1      42.517  41.512  33.569  1.00  0.00     0.118 C 
BRANCH  34  35
ATOM     35  N   UNL A   1      43.434  41.441  34.709  1.00  0.00    -0.352 N 
ATOM     36  C   UNL A   1      44.195  40.400  35.199  1.00  0.00     0.251 C 
ATOM     37  H   UNL A   1      43.521  42.282  35.213  1.00  0.00     0.163 HD
ATOM     38  O   UNL A   1      44.788  40.538  36.261  1.00  0.00    -0.269 OA
BRANCH  36  39
ATOM     39  C   UNL A   1      44.260  39.116  34.467  1.00  0.00     0.039 A 
ATOM     40  C   UNL A   1      44.268  39.099  33.075  1.00  0.00     0.014 A 
ATOM     41  C   UNL A   1      44.280  37.912  35.176  1.00  0.00     0.014 A 
ATOM     42  C   UNL A   1      44.038  37.908  32.404  1.00  0.00     0.010 A 
ATOM     43  C   UNL A   1      44.190  36.697  34.486  1.00  0.00     0.010 A 
ATOM     44  C   UNL A   1      43.998  36.687  33.097  1.00  0.00    -0.014 A 
BRANCH  44  45
ATOM     45  C   UNL A   1      43.762  35.434  32.332  1.00  0.00     0.031 A 
ATOM     46  C   UNL A   1      42.422  34.742  32.358  1.00  0.00     0.074 A 
ATOM     47  C   UNL A   1      44.750  34.954  31.548  1.00  0.00     0.049 A 
ATOM     48  N   UNL A   1      42.051  33.656  31.729  1.00  0.00    -0.248 NA
ATOM     49  C   UNL A   1      41.365  35.332  33.197  1.00  0.00     0.031 C 
ATOM     50  C   UNL A   1      46.096  35.525  31.448  1.00  0.00     0.029 A 
ATOM     51  N   UNL A   1      44.771  33.906  30.664  1.00  0.00    -0.354 N 
ATOM     52  C   UNL A   1      40.748  33.401  32.138  1.00  0.00     0.074 A 
ATOM     53  C   UNL A   1      40.383  34.449  33.065  1.00  0.00     0.031 C 
ATOM     54  C   UNL A   1      46.783  34.873  30.502  1.00  0.00     0.029 A 
ATOM     55  C   UNL A   1      45.960  33.788  29.983  1.00  0.00     0.049 A 
ATOM     56  H   UNL A   1      44.008  33.297  30.529  1.00  0.00     0.167 HD
ATOM     57  C   UNL A   1      39.925  32.395  31.762  1.00  0.00     0.034 A 
ATOM     58  C   UNL A   1      46.357  32.900  29.052  1.00  0.00     0.034 A 
ATOM     59  C   UNL A   1      40.260  31.397  30.783  1.00  0.00     0.049 A 
ATOM     60  C   UNL A   1      45.413  31.816  28.629  1.00  0.00     0.074 A 
ATOM     61  C   UNL A   1      39.471  30.365  30.306  1.00  0.00     0.029 A 
ATOM     62  N   UNL A   1      41.474  31.315  30.120  1.00  0.00    -0.354 N 
ATOM     63  N   UNL A   1      44.171  31.624  28.998  1.00  0.00    -0.248 NA
ATOM     64  C   UNL A   1      45.921  30.827  27.669  1.00  0.00     0.031 C 
ATOM     65  C   UNL A   1      40.209  29.657  29.353  1.00  0.00     0.029 A 
ATOM     66  C   UNL A   1      41.455  30.251  29.234  1.00  0.00     0.049 A 
ATOM     67  H   UNL A   1      42.236  31.923  30.257  1.00  0.00     0.167 HD
ATOM     68  C   UNL A   1      43.745  30.493  28.315  1.00  0.00     0.074 A 
ATOM     69  C   UNL A   1      44.853  30.059  27.489  1.00  0.00     0.031 C 
ATOM     70  C   UNL A   1      42.551  29.860  28.388  1.00  0.00     0.034 A 
BRANCH  57  71
ATOM     71  C   UNL A   1      38.549  32.335  32.369  1.00  0.00     0.023 A 
ATOM     72  C   UNL A   1      38.403  31.916  33.705  1.00  0.00     0.012 A 
ATOM     73  C   UNL A   1      37.424  32.795  31.656  1.00  0.00     0.148 A 
ATOM     74  C   UNL A   1      37.154  31.949  34.324  1.00  0.00     0.002 A 
ATOM     75  C   UNL A   1      36.187  32.852  32.289  1.00  0.00     0.091 A 
ATOM     76  F   UNL A   1      37.588  33.177  30.382  1.00  0.00    -0.205 F 
ATOM     77  C   UNL A   1      36.050  32.426  33.621  1.00  0.00     0.022 A 
BRANCH  75  78
ATOM     78  S   UNL A   1      34.713  33.502  31.494  1.00  0.00     0.127 S 
ATOM     79  O   UNL A   1      34.503  32.528  30.423  1.00  0.00    -0.237 OA
ATOM     80  O   UNL A   1      33.731  33.441  32.575  1.00  0.00    -0.237 OA
ATOM     81  O   UNL A   1      35.054  34.846  31.049  1.00  0.00    -0.744 OA
ENDBRANCH  75  78
ENDBRANCH  57  71
BRANCH  58  82
ATOM     82  C   UNL A   1      47.707  33.044  28.443  1.00  0.00     0.023 A 
ATOM     83  C   UNL A   1      48.733  32.162  28.829  1.00  0.00     0.012 A 
ATOM     84  C   UNL A   1      47.945  33.975  27.414  1.00  0.00     0.148 A 
ATOM     85  C   UNL A   1      49.975  32.202  28.196  1.00  0.00     0.002 A 
ATOM     86  C   UNL A   1      49.167  33.976  26.753  1.00  0.00     0.091 A 
ATOM     87  F   UNL A   1      46.952  34.809  27.074  1.00  0.00    -0.205 F 
ATOM     88  C   UNL A   1      50.187  33.097  27.149  1.00  0.00     0.022 A 
BRANCH  86  89
ATOM     89  S   UNL A   1      49.482  34.997  25.310  1.00  0.00     0.127 S 
ATOM     90  O   UNL A   1      50.552  34.255  24.648  1.00  0.00    -0.237 OA
ATOM     91  O   UNL A   1      48.188  34.956  24.627  1.00  0.00    -0.237 OA
ATOM     92  O   UNL A   1      49.849  36.309  25.825  1.00  0.00    -0.744 OA
ENDBRANCH  86  89
ENDBRANCH  58  82
BRANCH  70  93
ATOM     93  C   UNL A   1      42.364  28.622  27.559  1.00  0.00     0.023 A 
ATOM     94  C   UNL A   1      41.994  28.754  26.207  1.00  0.00     0.012 A 
ATOM     95  C   UNL A   1      42.670  27.352  28.080  1.00  0.00     0.148 A 
ATOM     96  C   UNL A   1      41.924  27.632  25.384  1.00  0.00     0.002 A 
ATOM     97  C   UNL A   1      42.628  26.242  27.245  1.00  0.00     0.091 A 
ATOM     98  F   UNL A   1      43.010  27.257  29.374  1.00  0.00    -0.205 F 
ATOM     99  C   UNL A   1      42.253  26.380  25.899  1.00  0.00     0.022 A 
BRANCH  97 100
ATOM    100  S   UNL A   1      43.102  24.599  27.796  1.00  0.00     0.127 S 
ATOM    101  O   UNL A   1      43.363  23.924  26.525  1.00  0.00    -0.237 OA
ATOM    102  O   UNL A   1      44.294  24.875  28.598  1.00  0.00    -0.237 OA
ATOM    103  O   UNL A   1      41.968  24.082  28.550  1.00  0.00    -0.744 OA
ENDBRANCH  97 100
ENDBRANCH  70  93
ENDBRANCH  44  45
ENDBRANCH  36  39
ENDBRANCH  34  35
ENDBRANCH  33  34
ENDBRANCH  32  33
ENDBRANCH   3  32
TORSDOF 19
ENDMDL
