MODEL 1
REMARK VINA RESULT:     -13.5      0.000      0.000
REMARK SMILES O=C(NCCCNC(=O)c1nnn(-c2cccc(Br)c2)c1[C@@H]1COc2ccccc2O1)c1ccc(-c2c3nc(c(-c4cccc(S(=O)(=O)[O-])c4F)c4ccc([nH]4)c(-c4cccc(S(=O)(=O)[O-])c4F)c4nc(c(-c5cccc(S(=O)(=O)[O-])c5F)c5ccc2[nH]5)C=C4)C=C3)cc1
REMARK SMILES IDX 4 1 3 2 1 3 2 4 32 6 33 7 94 8 34 9 93 10 35 11 36 12 37 13
REMARK SMILES IDX 87 14 38 15 92 16 86 17 88 18 39 19 91 20 85 21 84 22 40 24
REMARK SMILES IDX 72 25 52 26 71 27 53 28 56 29 70 30 89 31 54 32 55 33 69 35
REMARK SMILES IDX 90 36 57 37 41 38 42 39 50 40 43 41 45 42 51 43 44 44 46 45
REMARK SMILES IDX 47 46 48 47 49 48 73 49 74 50 82 51 75 52 77 53 83 54 76 55
REMARK SMILES IDX 78 56 79 57 80 58 81 59 58 60 59 61 67 62 60 63 62 64 68 65
REMARK SMILES IDX 61 66 63 67 64 68 65 69 66 70 5 71 6 72 7 73 8 74 9 76 10 77
REMARK SMILES IDX 11 78 21 79 12 80 13 81 22 82 23 83 31 84 24 85 30 86 25 87
REMARK SMILES IDX 29 88 26 89 28 90 27 91 14 92 15 93 20 94 16 95 18 96 17 97
REMARK SMILES IDX 19 98
REMARK H PARENT 3 5 88 23 56 34 7 75
REMARK Flexibility Score: inf
ROOT
ATOM      1  C   UNL A   1      33.707  29.364  26.976  1.00  0.00     0.118 C 
ENDROOT
BRANCH   1   2
ATOM      2  N   UNL A   1      33.983  30.727  27.391  1.00  0.00    -0.352 N 
ATOM      3  O   UNL A   1      34.981  32.648  27.853  1.00  0.00    -0.269 OA
ATOM      4  C   UNL A   1      35.104  31.425  27.760  1.00  0.00     0.251 C 
ATOM      5  H   UNL A   1      33.171  31.284  27.415  1.00  0.00     0.163 HD
BRANCH   4   6
ATOM      6  C   UNL A   1      36.397  30.795  28.122  1.00  0.00     0.039 A 
ATOM      7  C   UNL A   1      36.715  29.464  27.863  1.00  0.00     0.014 A 
ATOM      8  C   UNL A   1      37.343  31.598  28.787  1.00  0.00     0.014 A 
ATOM      9  C   UNL A   1      37.878  28.907  28.367  1.00  0.00     0.010 A 
ATOM     10  C   UNL A   1      38.545  31.060  29.242  1.00  0.00     0.010 A 
ATOM     11  C   UNL A   1      38.794  29.703  29.056  1.00  0.00    -0.014 A 
BRANCH  11  12
ATOM     12  C   UNL A   1      40.087  29.089  29.339  1.00  0.00     0.031 A 
ATOM     13  C   UNL A   1      40.330  28.830  30.788  1.00  0.00     0.074 A 
ATOM     14  C   UNL A   1      40.956  28.660  28.409  1.00  0.00     0.049 A 
ATOM     15  N   UNL A   1      41.266  29.305  31.544  1.00  0.00    -0.248 NA
ATOM     16  C   UNL A   1      39.313  28.048  31.506  1.00  0.00     0.031 C 
ATOM     17  C   UNL A   1      40.722  28.550  26.970  1.00  0.00     0.029 A 
ATOM     18  N   UNL A   1      42.185  28.084  28.582  1.00  0.00    -0.354 N 
ATOM     19  C   UNL A   1      41.082  28.693  32.785  1.00  0.00     0.074 A 
ATOM     20  C   UNL A   1      39.775  28.098  32.754  1.00  0.00     0.031 C 
ATOM     21  C   UNL A   1      41.647  27.719  26.443  1.00  0.00     0.029 A 
ATOM     22  C   UNL A   1      42.590  27.339  27.483  1.00  0.00     0.049 A 
ATOM     23  H   UNL A   1      42.724  28.188  29.399  1.00  0.00     0.167 HD
ATOM     24  C   UNL A   1      42.120  28.493  33.643  1.00  0.00     0.034 A 
ATOM     25  C   UNL A   1      43.564  26.399  27.458  1.00  0.00     0.034 A 
ATOM     26  C   UNL A   1      43.238  29.351  33.339  1.00  0.00     0.049 A 
ATOM     27  C   UNL A   1      44.449  26.612  28.624  1.00  0.00     0.074 A 
ATOM     28  C   UNL A   1      43.455  30.711  33.246  1.00  0.00     0.029 A 
ATOM     29  N   UNL A   1      44.334  28.752  32.775  1.00  0.00    -0.354 N 
ATOM     30  N   UNL A   1      45.266  27.619  28.753  1.00  0.00    -0.248 NA
ATOM     31  C   UNL A   1      44.224  25.833  29.832  1.00  0.00     0.031 C 
ATOM     32  C   UNL A   1      44.489  30.865  32.275  1.00  0.00     0.029 A 
ATOM     33  C   UNL A   1      44.853  29.592  31.833  1.00  0.00     0.049 A 
ATOM     34  H   UNL A   1      44.689  27.863  33.010  1.00  0.00     0.167 HD
ATOM     35  C   UNL A   1      45.311  27.858  30.119  1.00  0.00     0.074 A 
ATOM     36  C   UNL A   1      44.797  26.637  30.728  1.00  0.00     0.031 C 
ATOM     37  C   UNL A   1      45.466  29.126  30.606  1.00  0.00     0.034 A 
BRANCH  24  38
ATOM     38  C   UNL A   1      42.315  27.228  34.473  1.00  0.00     0.023 A 
ATOM     39  C   UNL A   1      42.134  27.352  35.872  1.00  0.00     0.012 A 
ATOM     40  C   UNL A   1      42.981  26.063  34.026  1.00  0.00     0.148 A 
ATOM     41  C   UNL A   1      42.703  26.446  36.775  1.00  0.00     0.002 A 
ATOM     42  C   UNL A   1      43.488  25.129  34.925  1.00  0.00     0.091 A 
ATOM     43  F   UNL A   1      43.245  25.884  32.731  1.00  0.00    -0.205 F 
ATOM     44  C   UNL A   1      43.391  25.339  36.301  1.00  0.00     0.022 A 
BRANCH  42  45
ATOM     45  S   UNL A   1      44.355  23.660  34.357  1.00  0.00     0.127 S 
ATOM     46  O   UNL A   1      45.510  24.250  33.687  1.00  0.00    -0.237 OA
ATOM     47  O   UNL A   1      44.646  22.977  35.618  1.00  0.00    -0.237 OA
ATOM     48  O   UNL A   1      43.406  22.953  33.504  1.00  0.00    -0.744 OA
ENDBRANCH  42  45
ENDBRANCH  24  38
BRANCH  25  49
ATOM     49  C   UNL A   1      43.685  25.207  26.589  1.00  0.00     0.023 A 
ATOM     50  C   UNL A   1      44.756  25.116  25.679  1.00  0.00     0.012 A 
ATOM     51  C   UNL A   1      42.895  24.055  26.800  1.00  0.00     0.148 A 
ATOM     52  C   UNL A   1      45.041  23.916  25.016  1.00  0.00     0.002 A 
ATOM     53  C   UNL A   1      43.161  22.873  26.116  1.00  0.00     0.091 A 
ATOM     54  F   UNL A   1      41.939  24.084  27.738  1.00  0.00    -0.205 F 
ATOM     55  C   UNL A   1      44.243  22.795  25.232  1.00  0.00     0.022 A 
BRANCH  53  56
ATOM     56  S   UNL A   1      42.144  21.407  26.335  1.00  0.00     0.127 S 
ATOM     57  O   UNL A   1      40.813  21.897  25.972  1.00  0.00    -0.237 OA
ATOM     58  O   UNL A   1      42.735  20.478  25.377  1.00  0.00    -0.237 OA
ATOM     59  O   UNL A   1      42.277  21.048  27.742  1.00  0.00    -0.744 OA
ENDBRANCH  53  56
ENDBRANCH  25  49
BRANCH  37  60
ATOM     60  C   UNL A   1      46.017  30.184  29.687  1.00  0.00     0.023 A 
ATOM     61  C   UNL A   1      47.399  30.440  29.583  1.00  0.00     0.012 A 
ATOM     62  C   UNL A   1      45.138  30.832  28.801  1.00  0.00     0.148 A 
ATOM     63  C   UNL A   1      47.888  31.353  28.647  1.00  0.00     0.002 A 
ATOM     64  C   UNL A   1      45.634  31.701  27.836  1.00  0.00     0.091 A 
ATOM     65  F   UNL A   1      43.824  30.577  28.902  1.00  0.00    -0.205 F 
ATOM     66  C   UNL A   1      47.008  31.974  27.765  1.00  0.00     0.022 A 
BRANCH  64  67
ATOM     67  S   UNL A   1      44.559  32.418  26.590  1.00  0.00     0.127 S 
ATOM     68  O   UNL A   1      43.875  33.469  27.340  1.00  0.00    -0.237 OA
ATOM     69  O   UNL A   1      45.508  32.903  25.587  1.00  0.00    -0.237 OA
ATOM     70  O   UNL A   1      43.719  31.321  26.123  1.00  0.00    -0.744 OA
ENDBRANCH  64  67
ENDBRANCH  37  60
ENDBRANCH  11  12
ENDBRANCH   4   6
ENDBRANCH   1   2
BRANCH   1  71
ATOM     71  C   UNL A   1      32.284  28.840  27.184  1.00  0.00     0.042 C 
BRANCH  71  72
ATOM     72  C   UNL A   1      32.059  27.365  26.887  1.00  0.00     0.118 C 
BRANCH  72  73
ATOM     73  N   UNL A   1      30.768  27.073  26.286  1.00  0.00    -0.351 N 
ATOM     74  C   UNL A   1      30.285  25.839  25.917  1.00  0.00     0.273 C 
ATOM     75  H   UNL A   1      30.174  27.843  26.127  1.00  0.00     0.163 HD
ATOM     76  O   UNL A   1      29.151  25.741  25.442  1.00  0.00    -0.267 OA
BRANCH  74  77
ATOM     77  C   UNL A   1      31.182  24.709  26.045  1.00  0.00     0.178 A 
ATOM     78  N   UNL A   1      31.279  24.074  27.250  1.00  0.00    -0.124 NA
ATOM     79  C   UNL A   1      31.945  24.041  25.086  1.00  0.00     0.122 A 
ATOM     80  N   UNL A   1      31.992  22.982  27.077  1.00  0.00    -0.061 NA
ATOM     81  N   UNL A   1      32.395  22.921  25.787  1.00  0.00    -0.213 N 
BRANCH  79  82
ATOM     82  C   UNL A   1      32.188  24.292  23.623  1.00  0.00     0.262 C 
ATOM     83  C   UNL A   1      33.613  24.750  23.297  1.00  0.00     0.281 C 
ATOM     84  O   UNL A   1      31.197  25.181  23.090  1.00  0.00    -0.477 OA
ATOM     85  O   UNL A   1      33.870  26.082  23.745  1.00  0.00    -0.485 OA
ATOM     86  C   UNL A   1      31.609  26.479  22.953  1.00  0.00     0.162 A 
ATOM     87  C   UNL A   1      32.870  26.929  23.342  1.00  0.00     0.161 A 
ATOM     88  C   UNL A   1      30.655  27.389  22.499  1.00  0.00     0.050 A 
ATOM     89  C   UNL A   1      33.130  28.296  23.408  1.00  0.00     0.050 A 
ATOM     90  C   UNL A   1      30.927  28.757  22.529  1.00  0.00     0.004 A 
ATOM     91  C   UNL A   1      32.151  29.212  23.016  1.00  0.00     0.004 A 
ENDBRANCH  79  82
BRANCH  81  92
ATOM     92  C   UNL A   1      33.082  21.757  25.358  1.00  0.00     0.068 A 
ATOM     93  C   UNL A   1      32.421  20.578  25.002  1.00  0.00     0.028 A 
ATOM     94  C   UNL A   1      34.486  21.812  25.308  1.00  0.00     0.044 A 
ATOM     95  C   UNL A   1      33.163  19.444  24.658  1.00  0.00     0.003 A 
ATOM     96  C   UNL A   1      35.214  20.672  24.983  1.00  0.00     0.020 A 
ATOM     97  C   UNL A   1      34.559  19.485  24.667  1.00  0.00     0.016 A 
ATOM     98  Br  UNL A   1      37.103  20.730  25.001  1.00  0.00    -0.051 Br
ENDBRANCH  81  92
ENDBRANCH  74  77
ENDBRANCH  72  73
ENDBRANCH  71  72
ENDBRANCH   1  71
TORSDOF 15
ENDMDL
MODEL 2
REMARK VINA RESULT:     -13.4      3.252      8.783
REMARK SMILES O=C(NCCCNC(=O)c1nnn(-c2cccc(Br)c2)c1[C@@H]1COc2ccccc2O1)c1ccc(-c2c3nc(c(-c4cccc(S(=O)(=O)[O-])c4F)c4ccc([nH]4)c(-c4cccc(S(=O)(=O)[O-])c4F)c4nc(c(-c5cccc(S(=O)(=O)[O-])c5F)c5ccc2[nH]5)C=C4)C=C3)cc1
REMARK SMILES IDX 4 1 3 2 1 3 2 4 32 6 33 7 94 8 34 9 93 10 35 11 36 12 37 13
REMARK SMILES IDX 87 14 38 15 92 16 86 17 88 18 39 19 91 20 85 21 84 22 40 24
REMARK SMILES IDX 72 25 52 26 71 27 53 28 56 29 70 30 89 31 54 32 55 33 69 35
REMARK SMILES IDX 90 36 57 37 41 38 42 39 50 40 43 41 45 42 51 43 44 44 46 45
REMARK SMILES IDX 47 46 48 47 49 48 73 49 74 50 82 51 75 52 77 53 83 54 76 55
REMARK SMILES IDX 78 56 79 57 80 58 81 59 58 60 59 61 67 62 60 63 62 64 68 65
REMARK SMILES IDX 61 66 63 67 64 68 65 69 66 70 5 71 6 72 7 73 8 74 9 76 10 77
REMARK SMILES IDX 11 78 21 79 12 80 13 81 22 82 23 83 31 84 24 85 30 86 25 87
REMARK SMILES IDX 29 88 26 89 28 90 27 91 14 92 15 93 20 94 16 95 18 96 17 97
REMARK SMILES IDX 19 98
REMARK H PARENT 3 5 88 23 56 34 7 75
REMARK Flexibility Score: inf
ROOT
ATOM      1  C   UNL A   1      37.460  22.882  25.634  1.00  0.00     0.118 C 
ENDROOT
BRANCH   1   2
ATOM      2  N   UNL A   1      38.748  22.279  25.926  1.00  0.00    -0.352 N 
ATOM      3  O   UNL A   1      40.669  21.724  26.875  1.00  0.00    -0.269 OA
ATOM      4  C   UNL A   1      39.814  22.600  26.726  1.00  0.00     0.251 C 
ATOM      5  H   UNL A   1      38.890  21.440  25.431  1.00  0.00     0.163 HD
BRANCH   4   6
ATOM      6  C   UNL A   1      40.027  23.935  27.336  1.00  0.00     0.039 A 
ATOM      7  C   UNL A   1      39.119  24.987  27.246  1.00  0.00     0.014 A 
ATOM      8  C   UNL A   1      41.236  24.144  28.027  1.00  0.00     0.014 A 
ATOM      9  C   UNL A   1      39.454  26.248  27.708  1.00  0.00     0.010 A 
ATOM     10  C   UNL A   1      41.554  25.395  28.551  1.00  0.00     0.010 A 
ATOM     11  C   UNL A   1      40.671  26.454  28.361  1.00  0.00    -0.014 A 
BRANCH  11  12
ATOM     12  C   UNL A   1      40.832  27.747  29.017  1.00  0.00     0.031 A 
ATOM     13  C   UNL A   1      41.862  28.622  28.385  1.00  0.00     0.074 A 
ATOM     14  C   UNL A   1      40.061  28.205  30.017  1.00  0.00     0.049 A 
ATOM     15  N   UNL A   1      42.945  29.098  28.909  1.00  0.00    -0.248 NA
ATOM     16  C   UNL A   1      41.724  28.882  26.944  1.00  0.00     0.031 C 
ATOM     17  C   UNL A   1      38.825  27.608  30.520  1.00  0.00     0.029 A 
ATOM     18  N   UNL A   1      40.145  29.393  30.692  1.00  0.00    -0.354 N 
ATOM     19  C   UNL A   1      43.507  29.907  27.920  1.00  0.00     0.074 A 
ATOM     20  C   UNL A   1      42.830  29.581  26.696  1.00  0.00     0.031 C 
ATOM     21  C   UNL A   1      38.145  28.543  31.217  1.00  0.00     0.029 A 
ATOM     22  C   UNL A   1      38.950  29.752  31.299  1.00  0.00     0.049 A 
ATOM     23  H   UNL A   1      40.965  29.935  30.740  1.00  0.00     0.167 HD
ATOM     24  C   UNL A   1      44.298  30.970  28.232  1.00  0.00     0.034 A 
ATOM     25  C   UNL A   1      38.606  30.983  31.744  1.00  0.00     0.034 A 
ATOM     26  C   UNL A   1      44.824  30.869  29.571  1.00  0.00     0.049 A 
ATOM     27  C   UNL A   1      39.842  31.775  31.927  1.00  0.00     0.074 A 
ATOM     28  C   UNL A   1      45.600  29.968  30.272  1.00  0.00     0.029 A 
ATOM     29  N   UNL A   1      44.291  31.720  30.505  1.00  0.00    -0.354 N 
ATOM     30  N   UNL A   1      40.723  31.558  32.864  1.00  0.00    -0.248 NA
ATOM     31  C   UNL A   1      40.271  32.671  30.864  1.00  0.00     0.031 C 
ATOM     32  C   UNL A   1      45.177  30.080  31.631  1.00  0.00     0.029 A 
ATOM     33  C   UNL A   1      44.173  31.048  31.687  1.00  0.00     0.049 A 
ATOM     34  H   UNL A   1      44.036  32.658  30.348  1.00  0.00     0.167 HD
ATOM     35  C   UNL A   1      41.934  31.925  32.294  1.00  0.00     0.074 A 
ATOM     36  C   UNL A   1      41.572  32.751  31.149  1.00  0.00     0.031 C 
ATOM     37  C   UNL A   1      43.091  31.275  32.622  1.00  0.00     0.034 A 
BRANCH  24  38
ATOM     38  C   UNL A   1      44.247  32.317  27.517  1.00  0.00     0.023 A 
ATOM     39  C   UNL A   1      45.244  32.555  26.540  1.00  0.00     0.012 A 
ATOM     40  C   UNL A   1      43.530  33.447  27.973  1.00  0.00     0.148 A 
ATOM     41  C   UNL A   1      45.601  33.851  26.149  1.00  0.00     0.002 A 
ATOM     42  C   UNL A   1      43.843  34.729  27.531  1.00  0.00     0.091 A 
ATOM     43  F   UNL A   1      42.609  33.328  28.930  1.00  0.00    -0.205 F 
ATOM     44  C   UNL A   1      44.908  34.941  26.654  1.00  0.00     0.022 A 
BRANCH  42  45
ATOM     45  S   UNL A   1      42.947  36.168  28.130  1.00  0.00     0.127 S 
ATOM     46  O   UNL A   1      43.630  37.247  27.421  1.00  0.00    -0.237 OA
ATOM     47  O   UNL A   1      41.586  35.886  27.672  1.00  0.00    -0.237 OA
ATOM     48  O   UNL A   1      43.102  36.149  29.579  1.00  0.00    -0.744 OA
ENDBRANCH  42  45
ENDBRANCH  24  38
BRANCH  25  49
ATOM     49  C   UNL A   1      37.262  31.593  31.853  1.00  0.00     0.023 A 
ATOM     50  C   UNL A   1      36.712  31.840  33.126  1.00  0.00     0.012 A 
ATOM     51  C   UNL A   1      36.606  32.144  30.730  1.00  0.00     0.148 A 
ATOM     52  C   UNL A   1      35.560  32.623  33.276  1.00  0.00     0.002 A 
ATOM     53  C   UNL A   1      35.445  32.895  30.880  1.00  0.00     0.091 A 
ATOM     54  F   UNL A   1      37.167  32.015  29.520  1.00  0.00    -0.205 F 
ATOM     55  C   UNL A   1      34.926  33.149  32.154  1.00  0.00     0.022 A 
BRANCH  53  56
ATOM     56  S   UNL A   1      34.569  33.572  29.463  1.00  0.00     0.127 S 
ATOM     57  O   UNL A   1      34.192  32.363  28.727  1.00  0.00    -0.237 OA
ATOM     58  O   UNL A   1      33.456  34.273  30.095  1.00  0.00    -0.237 OA
ATOM     59  O   UNL A   1      35.541  34.407  28.767  1.00  0.00    -0.744 OA
ENDBRANCH  53  56
ENDBRANCH  25  49
BRANCH  37  60
ATOM     60  C   UNL A   1      43.125  30.472  33.896  1.00  0.00     0.023 A 
ATOM     61  C   UNL A   1      43.514  31.037  35.127  1.00  0.00     0.012 A 
ATOM     62  C   UNL A   1      42.614  29.162  33.881  1.00  0.00     0.148 A 
ATOM     63  C   UNL A   1      43.436  30.298  36.309  1.00  0.00     0.002 A 
ATOM     64  C   UNL A   1      42.489  28.448  35.068  1.00  0.00     0.091 A 
ATOM     65  F   UNL A   1      42.239  28.634  32.705  1.00  0.00    -0.205 F 
ATOM     66  C   UNL A   1      42.912  29.008  36.282  1.00  0.00     0.022 A 
BRANCH  64  67
ATOM     67  S   UNL A   1      41.694  26.839  35.105  1.00  0.00     0.127 S 
ATOM     68  O   UNL A   1      41.346  26.698  36.516  1.00  0.00    -0.237 OA
ATOM     69  O   UNL A   1      40.550  27.025  34.210  1.00  0.00    -0.237 OA
ATOM     70  O   UNL A   1      42.690  25.901  34.598  1.00  0.00    -0.744 OA
ENDBRANCH  64  67
ENDBRANCH  37  60
ENDBRANCH  11  12
ENDBRANCH   4   6
ENDBRANCH   1   2
BRANCH   1  71
ATOM     71  C   UNL A   1      36.861  22.624  24.250  1.00  0.00     0.042 C 
BRANCH  71  72
ATOM     72  C   UNL A   1      35.683  23.500  23.851  1.00  0.00     0.118 C 
BRANCH  72  73
ATOM     73  N   UNL A   1      34.683  22.818  23.046  1.00  0.00    -0.351 N 
ATOM     74  C   UNL A   1      33.604  23.384  22.409  1.00  0.00     0.273 C 
ATOM     75  H   UNL A   1      34.791  21.844  22.947  1.00  0.00     0.163 HD
ATOM     76  O   UNL A   1      32.851  22.679  21.734  1.00  0.00    -0.267 OA
BRANCH  74  77
ATOM     77  C   UNL A   1      33.368  24.797  22.629  1.00  0.00     0.178 A 
ATOM     78  N   UNL A   1      33.959  25.704  21.797  1.00  0.00    -0.124 NA
ATOM     79  C   UNL A   1      32.522  25.448  23.528  1.00  0.00     0.122 A 
ATOM     80  N   UNL A   1      33.456  26.889  22.065  1.00  0.00    -0.061 NA
ATOM     81  N   UNL A   1      32.577  26.772  23.088  1.00  0.00    -0.213 N 
BRANCH  79  82
ATOM     82  C   UNL A   1      31.634  24.948  24.634  1.00  0.00     0.262 C 
ATOM     83  C   UNL A   1      31.979  25.513  26.015  1.00  0.00     0.281 C 
ATOM     84  O   UNL A   1      31.579  23.515  24.632  1.00  0.00    -0.477 OA
ATOM     85  O   UNL A   1      33.205  24.984  26.526  1.00  0.00    -0.485 OA
ATOM     86  C   UNL A   1      32.377  22.912  25.567  1.00  0.00     0.162 A 
ATOM     87  C   UNL A   1      33.220  23.617  26.426  1.00  0.00     0.161 A 
ATOM     88  C   UNL A   1      32.403  21.518  25.555  1.00  0.00     0.050 A 
ATOM     89  C   UNL A   1      34.180  22.936  27.170  1.00  0.00     0.050 A 
ATOM     90  C   UNL A   1      33.340  20.833  26.328  1.00  0.00     0.004 A 
ATOM     91  C   UNL A   1      34.252  21.542  27.109  1.00  0.00     0.004 A 
ENDBRANCH  79  82
BRANCH  81  92
ATOM     92  C   UNL A   1      31.830  27.918  23.459  1.00  0.00     0.068 A 
ATOM     93  C   UNL A   1      32.206  28.756  24.512  1.00  0.00     0.028 A 
ATOM     94  C   UNL A   1      30.659  28.195  22.731  1.00  0.00     0.044 A 
ATOM     95  C   UNL A   1      31.384  29.828  24.873  1.00  0.00     0.003 A 
ATOM     96  C   UNL A   1      29.840  29.254  23.111  1.00  0.00     0.020 A 
ATOM     97  C   UNL A   1      30.192  30.066  24.185  1.00  0.00     0.016 A 
ATOM     98  Br  UNL A   1      28.225  29.568  22.181  1.00  0.00    -0.051 Br
ENDBRANCH  81  92
ENDBRANCH  74  77
ENDBRANCH  72  73
ENDBRANCH  71  72
ENDBRANCH   1  71
TORSDOF 15
ENDMDL
MODEL 3
REMARK VINA RESULT:     -13.4      3.163      8.645
REMARK SMILES O=C(NCCCNC(=O)c1nnn(-c2cccc(Br)c2)c1[C@@H]1COc2ccccc2O1)c1ccc(-c2c3nc(c(-c4cccc(S(=O)(=O)[O-])c4F)c4ccc([nH]4)c(-c4cccc(S(=O)(=O)[O-])c4F)c4nc(c(-c5cccc(S(=O)(=O)[O-])c5F)c5ccc2[nH]5)C=C4)C=C3)cc1
REMARK SMILES IDX 4 1 3 2 1 3 2 4 32 6 33 7 94 8 34 9 93 10 35 11 36 12 37 13
REMARK SMILES IDX 87 14 38 15 92 16 86 17 88 18 39 19 91 20 85 21 84 22 40 24
REMARK SMILES IDX 72 25 52 26 71 27 53 28 56 29 70 30 89 31 54 32 55 33 69 35
REMARK SMILES IDX 90 36 57 37 41 38 42 39 50 40 43 41 45 42 51 43 44 44 46 45
REMARK SMILES IDX 47 46 48 47 49 48 73 49 74 50 82 51 75 52 77 53 83 54 76 55
REMARK SMILES IDX 78 56 79 57 80 58 81 59 58 60 59 61 67 62 60 63 62 64 68 65
REMARK SMILES IDX 61 66 63 67 64 68 65 69 66 70 5 71 6 72 7 73 8 74 9 76 10 77
REMARK SMILES IDX 11 78 21 79 12 80 13 81 22 82 23 83 31 84 24 85 30 86 25 87
REMARK SMILES IDX 29 88 26 89 28 90 27 91 14 92 15 93 20 94 16 95 18 96 17 97
REMARK SMILES IDX 19 98
REMARK H PARENT 3 5 88 23 56 34 7 75
REMARK Flexibility Score: inf
ROOT
ATOM      1  C   UNL A   1      37.400  22.894  25.516  1.00  0.00     0.118 C 
ENDROOT
BRANCH   1   2
ATOM      2  N   UNL A   1      38.589  22.104  25.781  1.00  0.00    -0.352 N 
ATOM      3  O   UNL A   1      40.427  21.268  26.688  1.00  0.00    -0.269 OA
ATOM      4  C   UNL A   1      39.711  22.263  26.553  1.00  0.00     0.251 C 
ATOM      5  H   UNL A   1      38.590  21.251  25.289  1.00  0.00     0.163 HD
BRANCH   4   6
ATOM      6  C   UNL A   1      40.139  23.552  27.149  1.00  0.00     0.039 A 
ATOM      7  C   UNL A   1      41.277  23.705  27.937  1.00  0.00     0.014 A 
ATOM      8  C   UNL A   1      39.324  24.674  26.913  1.00  0.00     0.014 A 
ATOM      9  C   UNL A   1      41.528  24.903  28.585  1.00  0.00     0.010 A 
ATOM     10  C   UNL A   1      39.605  25.901  27.511  1.00  0.00     0.010 A 
ATOM     11  C   UNL A   1      40.693  26.001  28.373  1.00  0.00    -0.014 A 
BRANCH  11  12
ATOM     12  C   UNL A   1      41.167  27.275  28.905  1.00  0.00     0.031 A 
ATOM     13  C   UNL A   1      42.452  27.741  28.307  1.00  0.00     0.074 A 
ATOM     14  C   UNL A   1      40.483  28.056  29.758  1.00  0.00     0.049 A 
ATOM     15  N   UNL A   1      43.580  27.964  28.899  1.00  0.00    -0.248 NA
ATOM     16  C   UNL A   1      42.510  27.835  26.841  1.00  0.00     0.031 C 
ATOM     17  C   UNL A   1      39.091  27.895  30.176  1.00  0.00     0.029 A 
ATOM     18  N   UNL A   1      40.850  29.252  30.310  1.00  0.00    -0.354 N 
ATOM     19  C   UNL A   1      44.428  28.449  27.902  1.00  0.00     0.074 A 
ATOM     20  C   UNL A   1      43.786  28.163  26.649  1.00  0.00     0.031 C 
ATOM     21  C   UNL A   1      38.655  29.065  30.690  1.00  0.00     0.029 A 
ATOM     22  C   UNL A   1      39.764  30.004  30.737  1.00  0.00     0.049 A 
ATOM     23  H   UNL A   1      41.785  29.549  30.395  1.00  0.00     0.167 HD
ATOM     24  C   UNL A   1      45.464  29.284  28.190  1.00  0.00     0.034 A 
ATOM     25  C   UNL A   1      39.755  31.330  31.009  1.00  0.00     0.034 A 
ATOM     26  C   UNL A   1      45.831  29.220  29.583  1.00  0.00     0.049 A 
ATOM     27  C   UNL A   1      41.148  31.768  31.249  1.00  0.00     0.074 A 
ATOM     28  C   UNL A   1      46.255  28.241  30.458  1.00  0.00     0.029 A 
ATOM     29  N   UNL A   1      45.492  30.300  30.357  1.00  0.00    -0.354 N 
ATOM     30  N   UNL A   1      41.851  31.441  32.297  1.00  0.00    -0.248 NA
ATOM     31  C   UNL A   1      41.899  32.361  30.154  1.00  0.00     0.031 C 
ATOM     32  C   UNL A   1      45.776  28.643  31.741  1.00  0.00     0.029 A 
ATOM     33  C   UNL A   1      45.091  29.849  31.581  1.00  0.00     0.049 A 
ATOM     34  H   UNL A   1      45.530  31.243  30.075  1.00  0.00     0.167 HD
ATOM     35  C   UNL A   1      43.157  31.382  31.834  1.00  0.00     0.074 A 
ATOM     36  C   UNL A   1      43.141  32.117  30.575  1.00  0.00     0.031 C 
ATOM     37  C   UNL A   1      44.049  30.487  32.358  1.00  0.00     0.034 A 
BRANCH  24  38
ATOM     38  C   UNL A   1      45.860  30.486  27.338  1.00  0.00     0.023 A 
ATOM     39  C   UNL A   1      47.247  30.712  27.164  1.00  0.00     0.012 A 
ATOM     40  C   UNL A   1      45.001  31.559  27.006  1.00  0.00     0.148 A 
ATOM     41  C   UNL A   1      47.753  31.971  26.820  1.00  0.00     0.002 A 
ATOM     42  C   UNL A   1      45.506  32.791  26.600  1.00  0.00     0.091 A 
ATOM     43  F   UNL A   1      43.684  31.458  27.187  1.00  0.00    -0.205 F 
ATOM     44  C   UNL A   1      46.882  33.016  26.549  1.00  0.00     0.022 A 
BRANCH  42  45
ATOM     45  S   UNL A   1      44.415  34.163  26.201  1.00  0.00     0.127 S 
ATOM     46  O   UNL A   1      45.378  35.215  25.893  1.00  0.00    -0.237 OA
ATOM     47  O   UNL A   1      43.678  33.636  25.052  1.00  0.00    -0.237 OA
ATOM     48  O   UNL A   1      43.595  34.366  27.390  1.00  0.00    -0.744 OA
ENDBRANCH  42  45
ENDBRANCH  24  38
BRANCH  25  49
ATOM     49  C   UNL A   1      38.638  32.296  30.900  1.00  0.00     0.023 A 
ATOM     50  C   UNL A   1      38.063  32.555  29.641  1.00  0.00     0.012 A 
ATOM     51  C   UNL A   1      37.981  32.798  32.046  1.00  0.00     0.148 A 
ATOM     52  C   UNL A   1      36.865  33.272  29.528  1.00  0.00     0.002 A 
ATOM     53  C   UNL A   1      36.808  33.537  31.928  1.00  0.00     0.091 A 
ATOM     54  F   UNL A   1      38.449  32.476  33.259  1.00  0.00    -0.205 F 
ATOM     55  C   UNL A   1      36.239  33.765  30.670  1.00  0.00     0.022 A 
BRANCH  53  56
ATOM     56  S   UNL A   1      35.976  34.223  33.366  1.00  0.00     0.127 S 
ATOM     57  O   UNL A   1      37.064  34.928  34.045  1.00  0.00    -0.237 OA
ATOM     58  O   UNL A   1      34.973  35.089  32.757  1.00  0.00    -0.237 OA
ATOM     59  O   UNL A   1      35.467  33.073  34.105  1.00  0.00    -0.744 OA
ENDBRANCH  53  56
ENDBRANCH  25  49
BRANCH  37  60
ATOM     60  C   UNL A   1      43.749  29.882  33.704  1.00  0.00     0.023 A 
ATOM     61  C   UNL A   1      44.027  30.558  34.908  1.00  0.00     0.012 A 
ATOM     62  C   UNL A   1      43.036  28.670  33.754  1.00  0.00     0.148 A 
ATOM     63  C   UNL A   1      43.643  30.018  36.137  1.00  0.00     0.002 A 
ATOM     64  C   UNL A   1      42.610  28.161  34.976  1.00  0.00     0.091 A 
ATOM     65  F   UNL A   1      42.769  28.036  32.602  1.00  0.00    -0.205 F 
ATOM     66  C   UNL A   1      42.923  28.826  36.171  1.00  0.00     0.022 A 
BRANCH  64  67
ATOM     67  S   UNL A   1      41.564  26.705  35.062  1.00  0.00     0.127 S 
ATOM     68  O   UNL A   1      41.155  26.700  36.464  1.00  0.00    -0.237 OA
ATOM     69  O   UNL A   1      40.494  27.022  34.115  1.00  0.00    -0.237 OA
ATOM     70  O   UNL A   1      42.410  25.593  34.643  1.00  0.00    -0.744 OA
ENDBRANCH  64  67
ENDBRANCH  37  60
ENDBRANCH  11  12
ENDBRANCH   4   6
ENDBRANCH   1   2
BRANCH   1  71
ATOM     71  C   UNL A   1      36.948  23.016  24.060  1.00  0.00     0.042 C 
BRANCH  71  72
ATOM     72  C   UNL A   1      35.619  23.718  23.823  1.00  0.00     0.118 C 
BRANCH  72  73
ATOM     73  N   UNL A   1      34.652  22.921  23.087  1.00  0.00    -0.351 N 
ATOM     74  C   UNL A   1      33.517  23.372  22.452  1.00  0.00     0.273 C 
ATOM     75  H   UNL A   1      34.828  21.954  23.037  1.00  0.00     0.163 HD
ATOM     76  O   UNL A   1      32.801  22.577  21.839  1.00  0.00    -0.267 OA
BRANCH  74  77
ATOM     77  C   UNL A   1      33.184  24.774  22.602  1.00  0.00     0.178 A 
ATOM     78  N   UNL A   1      33.717  25.678  21.729  1.00  0.00    -0.124 NA
ATOM     79  C   UNL A   1      32.290  25.409  23.466  1.00  0.00     0.122 A 
ATOM     80  N   UNL A   1      33.132  26.837  21.937  1.00  0.00    -0.061 NA
ATOM     81  N   UNL A   1      32.257  26.710  22.962  1.00  0.00    -0.213 N 
BRANCH  79  82
ATOM     82  C   UNL A   1      31.432  24.903  24.594  1.00  0.00     0.262 C 
ATOM     83  C   UNL A   1      31.820  25.453  25.968  1.00  0.00     0.281 C 
ATOM     84  O   UNL A   1      31.369  23.470  24.580  1.00  0.00    -0.477 OA
ATOM     85  O   UNL A   1      33.057  24.913  26.438  1.00  0.00    -0.485 OA
ATOM     86  C   UNL A   1      32.191  22.855  25.486  1.00  0.00     0.162 A 
ATOM     87  C   UNL A   1      33.062  23.547  26.326  1.00  0.00     0.161 A 
ATOM     88  C   UNL A   1      32.208  21.461  25.461  1.00  0.00     0.050 A 
ATOM     89  C   UNL A   1      34.040  22.854  27.036  1.00  0.00     0.050 A 
ATOM     90  C   UNL A   1      33.164  20.763  26.199  1.00  0.00     0.004 A 
ATOM     91  C   UNL A   1      34.102  21.461  26.959  1.00  0.00     0.004 A 
ENDBRANCH  79  82
BRANCH  81  92
ATOM     92  C   UNL A   1      31.431  27.819  23.275  1.00  0.00     0.068 A 
ATOM     93  C   UNL A   1      30.310  28.164  22.515  1.00  0.00     0.028 A 
ATOM     94  C   UNL A   1      31.780  28.593  24.395  1.00  0.00     0.044 A 
ATOM     95  C   UNL A   1      29.582  29.314  22.837  1.00  0.00     0.003 A 
ATOM     96  C   UNL A   1      31.059  29.745  24.694  1.00  0.00     0.020 A 
ATOM     97  C   UNL A   1      29.967  30.114  23.915  1.00  0.00     0.016 A 
ATOM     98  Br  UNL A   1      31.587  30.828  26.150  1.00  0.00    -0.051 Br
ENDBRANCH  81  92
ENDBRANCH  74  77
ENDBRANCH  72  73
ENDBRANCH  71  72
ENDBRANCH   1  71
TORSDOF 15
ENDMDL
