MODEL 1
REMARK VINA RESULT:     -13.7      0.000      0.000
REMARK SMILES Cc1cccc(-n2c(C)cc(/C=N\c3ccc(O)c(C(=O)NCCCNC(=O)c4ccc(-c5c6nc(c(-c7cccc(S(=O)(=O)[O-])c7F)c7ccc([nH]7)c(-c7cccc(S(=O)(=O)[O-])c7F)c7nc(c(-c8cccc(S(=O)(=O)[O-])c8F)c8ccc5[nH]8)C=C7)C=C6)cc4)c3)c2C)c1
REMARK SMILES IDX 24 1 23 2 22 3 20 4 21 5 19 7 14 8 15 9 92 10 16 11 17 12
REMARK SMILES IDX 13 13 12 14 11 15 7 16 8 17 93 18 9 19 10 20 94 21 6 22 1 23
REMARK SMILES IDX 2 24 3 25 95 26 4 27 5 28 18 29 25 31 26 32 27 33 28 35
REMARK SMILES IDX 29 36 30 37 91 38 31 39 90 40 32 41 33 42 34 43 84 44 35 45
REMARK SMILES IDX 89 46 83 47 85 48 36 49 88 50 82 51 81 52 37 54 69 55 49 56
REMARK SMILES IDX 68 57 50 58 53 59 67 60 86 61 51 62 52 63 66 65 87 66 54 67
REMARK SMILES IDX 38 68 39 69 47 70 40 71 42 72 48 73 41 74 43 75 44 76 45 77
REMARK SMILES IDX 46 78 70 79 71 80 79 81 72 82 74 83 80 84 73 85 75 86 76 87
REMARK SMILES IDX 77 88 78 89 55 90 56 91 64 92 57 93 59 94 65 95 58 96 60 97
REMARK SMILES IDX 61 98 62 99 63 100
REMARK H PARENT 22 6 18 30 26 34 85 53 53 64
REMARK Flexibility Score: inf
ROOT
ATOM      1  C   UNL A   1      32.655  29.801  27.174  1.00  0.00     0.042 C 
ENDROOT
BRANCH   1   2
ATOM      2  C   UNL A   1      32.512  30.119  25.700  1.00  0.00     0.118 C 
BRANCH   2   3
ATOM      3  N   UNL A   1      33.258  29.348  24.710  1.00  0.00    -0.352 N 
ATOM      4  C   UNL A   1      32.866  28.346  23.834  1.00  0.00     0.255 C 
ATOM      5  O   UNL A   1      33.642  28.013  22.939  1.00  0.00    -0.269 OA
ATOM      6  H   UNL A   1      34.213  29.580  24.656  1.00  0.00     0.163 HD
BRANCH   4   7
ATOM      7  C   UNL A   1      31.556  27.636  23.950  1.00  0.00     0.083 A 
ATOM      8  C   UNL A   1      29.968  26.291  25.202  1.00  0.00     0.064 A 
ATOM      9  C   UNL A   1      28.979  26.567  24.256  1.00  0.00     0.032 A 
ATOM     10  C   UNL A   1      31.192  26.985  25.139  1.00  0.00     0.046 A 
ATOM     11  C   UNL A   1      29.343  27.157  23.060  1.00  0.00     0.049 A 
ATOM     12  C   UNL A   1      30.686  27.449  22.881  1.00  0.00     0.128 A 
BRANCH   8  13
ATOM     13  N   UNL A   1      29.754  25.302  26.164  1.00  0.00    -0.256 NA
ATOM     14  C   UNL A   1      30.520  24.253  26.323  1.00  0.00     0.121 C 
BRANCH  14  15
ATOM     15  C   UNL A   1      31.771  23.775  25.694  1.00  0.00     0.014 A 
ATOM     16  N   UNL A   1      33.853  22.968  25.193  1.00  0.00    -0.318 N 
ATOM     17  C   UNL A   1      33.272  23.338  23.997  1.00  0.00     0.021 A 
ATOM     18  C   UNL A   1      32.891  23.113  26.195  1.00  0.00     0.029 A 
ATOM     19  C   UNL A   1      33.922  23.116  22.679  1.00  0.00     0.065 C 
ATOM     20  C   UNL A   1      32.011  23.837  24.282  1.00  0.00     0.033 A 
ATOM     21  C   UNL A   1      33.220  22.733  27.574  1.00  0.00     0.065 C 
BRANCH  16  22
ATOM     22  C   UNL A   1      35.225  22.608  25.412  1.00  0.00     0.046 A 
ATOM     23  C   UNL A   1      37.504  19.596  24.841  1.00  0.00     0.044 C 
ATOM     24  C   UNL A   1      37.015  20.989  25.112  1.00  0.00    -0.049 A 
ATOM     25  C   UNL A   1      37.957  22.017  25.264  1.00  0.00     0.003 A 
ATOM     26  C   UNL A   1      35.642  21.288  25.184  1.00  0.00     0.030 A 
ATOM     27  C   UNL A   1      37.544  23.314  25.551  1.00  0.00     0.002 A 
ATOM     28  C   UNL A   1      36.184  23.599  25.660  1.00  0.00     0.026 A 
ENDBRANCH  16  22
ENDBRANCH  14  15
ENDBRANCH   8  13
BRANCH  12  29
ATOM     29  O   UNL A   1      31.164  27.063  21.634  1.00  0.00    -0.507 OA
ATOM     30  H   UNL A   1      31.781  27.603  21.181  1.00  0.00     0.293 HD
ENDBRANCH  12  29
ENDBRANCH   4   7
ENDBRANCH   2   3
ENDBRANCH   1   2
BRANCH   1  31
ATOM     31  C   UNL A   1      34.074  29.926  27.629  1.00  0.00     0.118 C 
BRANCH  31  32
ATOM     32  N   UNL A   1      34.628  31.269  27.363  1.00  0.00    -0.352 N 
ATOM     33  C   UNL A   1      35.743  31.850  27.936  1.00  0.00     0.251 C 
ATOM     34  H   UNL A   1      34.147  31.814  26.698  1.00  0.00     0.163 HD
ATOM     35  O   UNL A   1      35.913  33.070  27.875  1.00  0.00    -0.269 OA
BRANCH  33  36
ATOM     36  C   UNL A   1      36.727  30.939  28.521  1.00  0.00     0.039 A 
ATOM     37  C   UNL A   1      36.618  30.279  29.744  1.00  0.00     0.014 A 
ATOM     38  C   UNL A   1      37.831  30.745  27.709  1.00  0.00     0.014 A 
ATOM     39  C   UNL A   1      37.676  29.460  30.135  1.00  0.00     0.010 A 
ATOM     40  C   UNL A   1      38.572  29.636  27.883  1.00  0.00     0.010 A 
ATOM     41  C   UNL A   1      38.666  29.197  29.194  1.00  0.00    -0.014 A 
BRANCH  41  42
ATOM     42  C   UNL A   1      39.976  28.629  29.412  1.00  0.00     0.031 A 
ATOM     43  C   UNL A   1      40.201  27.224  29.117  1.00  0.00     0.074 A 
ATOM     44  C   UNL A   1      40.963  29.561  29.413  1.00  0.00     0.049 A 
ATOM     45  N   UNL A   1      41.306  26.625  29.363  1.00  0.00    -0.248 NA
ATOM     46  C   UNL A   1      39.187  26.374  28.506  1.00  0.00     0.031 C 
ATOM     47  C   UNL A   1      42.312  29.475  28.877  1.00  0.00     0.029 A 
ATOM     48  N   UNL A   1      40.889  30.904  29.749  1.00  0.00    -0.354 N 
ATOM     49  C   UNL A   1      41.283  25.460  28.632  1.00  0.00     0.074 A 
ATOM     50  C   UNL A   1      39.893  25.259  28.298  1.00  0.00     0.031 C 
ATOM     51  C   UNL A   1      42.981  30.604  29.195  1.00  0.00     0.029 A 
ATOM     52  C   UNL A   1      42.142  31.374  30.102  1.00  0.00     0.049 A 
ATOM     53  H   UNL A   1      40.066  31.445  29.738  1.00  0.00     0.167 HD
ATOM     54  C   UNL A   1      42.476  24.939  28.233  1.00  0.00     0.034 A 
ATOM     55  C   UNL A   1      42.402  31.615  31.427  1.00  0.00     0.034 A 
ATOM     56  C   UNL A   1      43.592  25.790  28.717  1.00  0.00     0.049 A 
ATOM     57  C   UNL A   1      43.281  30.525  32.037  1.00  0.00     0.074 A 
ATOM     58  C   UNL A   1      44.421  26.737  28.135  1.00  0.00     0.029 A 
ATOM     59  N   UNL A   1      43.741  25.964  30.081  1.00  0.00    -0.354 N 
ATOM     60  N   UNL A   1      43.826  29.544  31.365  1.00  0.00    -0.248 NA
ATOM     61  C   UNL A   1      43.571  30.428  33.464  1.00  0.00     0.031 C 
ATOM     62  C   UNL A   1      45.019  27.510  29.187  1.00  0.00     0.029 A 
ATOM     63  C   UNL A   1      44.581  27.014  30.405  1.00  0.00     0.049 A 
ATOM     64  H   UNL A   1      43.296  25.397  30.752  1.00  0.00     0.167 HD
ATOM     65  C   UNL A   1      44.320  28.604  32.226  1.00  0.00     0.074 A 
ATOM     66  C   UNL A   1      44.191  29.236  33.532  1.00  0.00     0.031 C 
ATOM     67  C   UNL A   1      44.743  27.362  31.821  1.00  0.00     0.034 A 
BRANCH  54  68
ATOM     68  C   UNL A   1      42.684  23.824  27.221  1.00  0.00     0.023 A 
ATOM     69  C   UNL A   1      43.340  24.182  26.023  1.00  0.00     0.012 A 
ATOM     70  C   UNL A   1      42.295  22.464  27.324  1.00  0.00     0.148 A 
ATOM     71  C   UNL A   1      43.544  23.281  24.973  1.00  0.00     0.002 A 
ATOM     72  C   UNL A   1      42.477  21.566  26.267  1.00  0.00     0.091 A 
ATOM     73  F   UNL A   1      41.780  21.991  28.454  1.00  0.00    -0.205 F 
ATOM     74  C   UNL A   1      43.099  21.974  25.088  1.00  0.00     0.022 A 
BRANCH  72  75
ATOM     75  S   UNL A   1      41.913  19.852  26.333  1.00  0.00     0.127 S 
ATOM     76  O   UNL A   1      42.498  19.293  25.112  1.00  0.00    -0.237 OA
ATOM     77  O   UNL A   1      42.523  19.371  27.571  1.00  0.00    -0.237 OA
ATOM     78  O   UNL A   1      40.457  19.891  26.334  1.00  0.00    -0.744 OA
ENDBRANCH  72  75
ENDBRANCH  54  68
BRANCH  55  79
ATOM     79  C   UNL A   1      41.217  32.276  32.092  1.00  0.00     0.023 A 
ATOM     80  C   UNL A   1      40.771  33.487  31.502  1.00  0.00     0.012 A 
ATOM     81  C   UNL A   1      40.301  31.531  32.863  1.00  0.00     0.148 A 
ATOM     82  C   UNL A   1      39.414  33.824  31.496  1.00  0.00     0.002 A 
ATOM     83  C   UNL A   1      38.949  31.886  32.866  1.00  0.00     0.091 A 
ATOM     84  F   UNL A   1      40.737  30.446  33.515  1.00  0.00    -0.205 F 
ATOM     85  C   UNL A   1      38.497  32.995  32.131  1.00  0.00     0.022 A 
BRANCH  83  86
ATOM     86  S   UNL A   1      37.722  30.881  33.718  1.00  0.00     0.127 S 
ATOM     87  O   UNL A   1      37.851  31.365  35.090  1.00  0.00    -0.237 OA
ATOM     88  O   UNL A   1      36.471  31.257  33.059  1.00  0.00    -0.237 OA
ATOM     89  O   UNL A   1      38.131  29.505  33.480  1.00  0.00    -0.744 OA
ENDBRANCH  83  86
ENDBRANCH  55  79
BRANCH  67  90
ATOM     90  C   UNL A   1      45.359  26.350  32.775  1.00  0.00     0.023 A 
ATOM     91  C   UNL A   1      46.707  25.970  32.625  1.00  0.00     0.012 A 
ATOM     92  C   UNL A   1      44.606  25.638  33.746  1.00  0.00     0.148 A 
ATOM     93  C   UNL A   1      47.298  25.006  33.449  1.00  0.00     0.002 A 
ATOM     94  C   UNL A   1      45.165  24.596  34.477  1.00  0.00     0.091 A 
ATOM     95  F   UNL A   1      43.349  25.990  34.020  1.00  0.00    -0.205 F 
ATOM     96  C   UNL A   1      46.523  24.306  34.363  1.00  0.00     0.022 A 
BRANCH  94  97
ATOM     97  S   UNL A   1      44.169  23.504  35.503  1.00  0.00     0.127 S 
ATOM     98  O   UNL A   1      45.130  22.446  35.823  1.00  0.00    -0.237 OA
ATOM     99  O   UNL A   1      43.828  24.375  36.625  1.00  0.00    -0.237 OA
ATOM    100  O   UNL A   1      43.052  23.071  34.676  1.00  0.00    -0.744 OA
ENDBRANCH  94  97
ENDBRANCH  67  90
ENDBRANCH  41  42
ENDBRANCH  33  36
ENDBRANCH  31  32
ENDBRANCH   1  31
TORSDOF 17
ENDMDL
MODEL 2
REMARK VINA RESULT:     -13.5      3.731      9.238
REMARK SMILES Cc1cccc(-n2c(C)cc(/C=N\c3ccc(O)c(C(=O)NCCCNC(=O)c4ccc(-c5c6nc(c(-c7cccc(S(=O)(=O)[O-])c7F)c7ccc([nH]7)c(-c7cccc(S(=O)(=O)[O-])c7F)c7nc(c(-c8cccc(S(=O)(=O)[O-])c8F)c8ccc5[nH]8)C=C7)C=C6)cc4)c3)c2C)c1
REMARK SMILES IDX 24 1 23 2 22 3 20 4 21 5 19 7 14 8 15 9 92 10 16 11 17 12
REMARK SMILES IDX 13 13 12 14 11 15 7 16 8 17 93 18 9 19 10 20 94 21 6 22 1 23
REMARK SMILES IDX 2 24 3 25 95 26 4 27 5 28 18 29 25 31 26 32 27 33 28 35
REMARK SMILES IDX 29 36 30 37 91 38 31 39 90 40 32 41 33 42 34 43 84 44 35 45
REMARK SMILES IDX 89 46 83 47 85 48 36 49 88 50 82 51 81 52 37 54 69 55 49 56
REMARK SMILES IDX 68 57 50 58 53 59 67 60 86 61 51 62 52 63 66 65 87 66 54 67
REMARK SMILES IDX 38 68 39 69 47 70 40 71 42 72 48 73 41 74 43 75 44 76 45 77
REMARK SMILES IDX 46 78 70 79 71 80 79 81 72 82 74 83 80 84 73 85 75 86 76 87
REMARK SMILES IDX 77 88 78 89 55 90 56 91 64 92 57 93 59 94 65 95 58 96 60 97
REMARK SMILES IDX 61 98 62 99 63 100
REMARK H PARENT 22 6 18 30 26 34 85 53 53 64
REMARK Flexibility Score: inf
ROOT
ATOM      1  C   UNL A   1      36.442  22.732  25.237  1.00  0.00     0.042 C 
ENDROOT
BRANCH   1   2
ATOM      2  C   UNL A   1      35.656  22.101  26.368  1.00  0.00     0.118 C 
BRANCH   2   3
ATOM      3  N   UNL A   1      34.972  20.828  26.161  1.00  0.00    -0.352 N 
ATOM      4  C   UNL A   1      33.942  20.462  25.307  1.00  0.00     0.255 C 
ATOM      5  O   UNL A   1      33.696  19.265  25.164  1.00  0.00    -0.269 OA
ATOM      6  H   UNL A   1      35.301  20.097  26.732  1.00  0.00     0.163 HD
BRANCH   4   7
ATOM      7  C   UNL A   1      33.100  21.460  24.579  1.00  0.00     0.083 A 
ATOM      8  C   UNL A   1      32.588  22.776  22.604  1.00  0.00     0.064 A 
ATOM      9  C   UNL A   1      31.340  23.101  23.136  1.00  0.00     0.032 A 
ATOM     10  C   UNL A   1      33.377  21.802  23.247  1.00  0.00     0.046 A 
ATOM     11  C   UNL A   1      31.083  22.815  24.464  1.00  0.00     0.049 A 
ATOM     12  C   UNL A   1      32.096  22.206  25.188  1.00  0.00     0.128 A 
BRANCH   8  13
ATOM     13  N   UNL A   1      33.059  23.449  21.475  1.00  0.00    -0.256 NA
ATOM     14  C   UNL A   1      33.100  24.752  21.360  1.00  0.00     0.121 C 
BRANCH  14  15
ATOM     15  C   UNL A   1      32.773  25.885  22.253  1.00  0.00     0.014 A 
ATOM     16  N   UNL A   1      32.541  27.385  23.967  1.00  0.00    -0.318 N 
ATOM     17  C   UNL A   1      31.752  27.840  22.930  1.00  0.00     0.021 A 
ATOM     18  C   UNL A   1      33.255  26.278  23.501  1.00  0.00     0.029 A 
ATOM     19  C   UNL A   1      31.011  29.128  22.983  1.00  0.00     0.065 C 
ATOM     20  C   UNL A   1      31.874  26.939  21.884  1.00  0.00     0.033 A 
ATOM     21  C   UNL A   1      34.225  25.619  24.385  1.00  0.00     0.065 C 
BRANCH  16  22
ATOM     22  C   UNL A   1      32.559  27.871  25.317  1.00  0.00     0.046 A 
ATOM     23  C   UNL A   1      34.128  30.739  27.291  1.00  0.00     0.044 C 
ATOM     24  C   UNL A   1      33.246  29.592  26.890  1.00  0.00    -0.049 A 
ATOM     25  C   UNL A   1      32.205  29.211  27.749  1.00  0.00     0.003 A 
ATOM     26  C   UNL A   1      33.421  28.919  25.667  1.00  0.00     0.030 A 
ATOM     27  C   UNL A   1      31.389  28.131  27.428  1.00  0.00     0.002 A 
ATOM     28  C   UNL A   1      31.590  27.441  26.234  1.00  0.00     0.026 A 
ENDBRANCH  16  22
ENDBRANCH  14  15
ENDBRANCH   8  13
BRANCH  12  29
ATOM     29  O   UNL A   1      32.299  22.788  26.435  1.00  0.00    -0.507 OA
ATOM     30  H   UNL A   1      32.387  23.718  26.509  1.00  0.00     0.293 HD
ENDBRANCH  12  29
ENDBRANCH   4   7
ENDBRANCH   2   3
ENDBRANCH   1   2
BRANCH   1  31
ATOM     31  C   UNL A   1      37.618  23.503  25.748  1.00  0.00     0.118 C 
BRANCH  31  32
ATOM     32  N   UNL A   1      38.536  22.660  26.540  1.00  0.00    -0.352 N 
ATOM     33  C   UNL A   1      39.763  23.015  27.067  1.00  0.00     0.251 C 
ATOM     34  H   UNL A   1      38.238  21.737  26.713  1.00  0.00     0.163 HD
ATOM     35  O   UNL A   1      40.565  22.147  27.423  1.00  0.00    -0.269 OA
BRANCH  33  36
ATOM     36  C   UNL A   1      40.004  24.445  27.258  1.00  0.00     0.039 A 
ATOM     37  C   UNL A   1      40.576  25.317  26.334  1.00  0.00     0.014 A 
ATOM     38  C   UNL A   1      39.570  24.905  28.489  1.00  0.00     0.014 A 
ATOM     39  C   UNL A   1      40.735  26.650  26.712  1.00  0.00     0.010 A 
ATOM     40  C   UNL A   1      39.309  26.217  28.631  1.00  0.00     0.010 A 
ATOM     41  C   UNL A   1      40.130  27.058  27.895  1.00  0.00    -0.014 A 
BRANCH  41  42
ATOM     42  C   UNL A   1      40.361  28.271  28.645  1.00  0.00     0.031 A 
ATOM     43  C   UNL A   1      39.410  29.365  28.538  1.00  0.00     0.074 A 
ATOM     44  C   UNL A   1      41.170  28.084  29.719  1.00  0.00     0.049 A 
ATOM     45  N   UNL A   1      39.586  30.502  29.100  1.00  0.00    -0.248 NA
ATOM     46  C   UNL A   1      38.167  29.259  27.786  1.00  0.00     0.031 C 
ATOM     47  C   UNL A   1      41.096  28.681  31.042  1.00  0.00     0.029 A 
ATOM     48  N   UNL A   1      42.160  27.131  29.904  1.00  0.00    -0.354 N 
ATOM     49  C   UNL A   1      38.360  31.126  29.098  1.00  0.00     0.074 A 
ATOM     50  C   UNL A   1      37.586  30.420  28.107  1.00  0.00     0.031 C 
ATOM     51  C   UNL A   1      42.169  28.284  31.760  1.00  0.00     0.029 A 
ATOM     52  C   UNL A   1      43.060  27.566  30.862  1.00  0.00     0.049 A 
ATOM     53  H   UNL A   1      42.216  26.273  29.425  1.00  0.00     0.167 HD
ATOM     54  C   UNL A   1      38.105  32.022  30.091  1.00  0.00     0.034 A 
ATOM     55  C   UNL A   1      44.300  27.989  30.451  1.00  0.00     0.034 A 
ATOM     56  C   UNL A   1      39.280  32.136  30.990  1.00  0.00     0.049 A 
ATOM     57  C   UNL A   1      44.417  29.511  30.491  1.00  0.00     0.074 A 
ATOM     58  C   UNL A   1      39.600  31.648  32.248  1.00  0.00     0.029 A 
ATOM     59  N   UNL A   1      40.480  32.566  30.451  1.00  0.00    -0.354 N 
ATOM     60  N   UNL A   1      43.505  30.317  30.968  1.00  0.00    -0.248 NA
ATOM     61  C   UNL A   1      45.556  30.245  29.946  1.00  0.00     0.031 C 
ATOM     62  C   UNL A   1      41.022  31.746  32.415  1.00  0.00     0.029 A 
ATOM     63  C   UNL A   1      41.563  32.323  31.277  1.00  0.00     0.049 A 
ATOM     64  H   UNL A   1      40.555  33.000  29.571  1.00  0.00     0.167 HD
ATOM     65  C   UNL A   1      43.791  31.608  30.617  1.00  0.00     0.074 A 
ATOM     66  C   UNL A   1      45.121  31.515  30.031  1.00  0.00     0.031 C 
ATOM     67  C   UNL A   1      42.904  32.643  30.776  1.00  0.00     0.034 A 
BRANCH  54  68
ATOM     68  C   UNL A   1      36.756  32.632  30.436  1.00  0.00     0.023 A 
ATOM     69  C   UNL A   1      36.262  32.365  31.732  1.00  0.00     0.012 A 
ATOM     70  C   UNL A   1      35.921  33.431  29.615  1.00  0.00     0.148 A 
ATOM     71  C   UNL A   1      35.009  32.802  32.170  1.00  0.00     0.002 A 
ATOM     72  C   UNL A   1      34.656  33.851  30.041  1.00  0.00     0.091 A 
ATOM     73  F   UNL A   1      36.338  33.844  28.422  1.00  0.00    -0.205 F 
ATOM     74  C   UNL A   1      34.196  33.534  31.319  1.00  0.00     0.022 A 
BRANCH  72  75
ATOM     75  S   UNL A   1      33.533  34.796  28.989  1.00  0.00     0.127 S 
ATOM     76  O   UNL A   1      33.089  33.781  28.031  1.00  0.00    -0.237 OA
ATOM     77  O   UNL A   1      32.506  35.224  29.936  1.00  0.00    -0.237 OA
ATOM     78  O   UNL A   1      34.319  35.872  28.399  1.00  0.00    -0.744 OA
ENDBRANCH  72  75
ENDBRANCH  54  68
BRANCH  55  79
ATOM     79  C   UNL A   1      44.842  27.083  29.370  1.00  0.00     0.023 A 
ATOM     80  C   UNL A   1      44.944  25.708  29.707  1.00  0.00     0.012 A 
ATOM     81  C   UNL A   1      44.747  27.432  28.007  1.00  0.00     0.148 A 
ATOM     82  C   UNL A   1      44.736  24.717  28.743  1.00  0.00     0.002 A 
ATOM     83  C   UNL A   1      44.557  26.433  27.049  1.00  0.00     0.091 A 
ATOM     84  F   UNL A   1      44.762  28.728  27.670  1.00  0.00    -0.205 F 
ATOM     85  C   UNL A   1      44.489  25.081  27.424  1.00  0.00     0.022 A 
BRANCH  83  86
ATOM     86  S   UNL A   1      44.288  26.842  25.316  1.00  0.00     0.127 S 
ATOM     87  O   UNL A   1      43.631  25.633  24.829  1.00  0.00    -0.237 OA
ATOM     88  O   UNL A   1      43.420  28.017  25.384  1.00  0.00    -0.237 OA
ATOM     89  O   UNL A   1      45.615  27.113  24.783  1.00  0.00    -0.744 OA
ENDBRANCH  83  86
ENDBRANCH  55  79
BRANCH  67  90
ATOM     90  C   UNL A   1      43.257  34.087  30.451  1.00  0.00     0.023 A 
ATOM     91  C   UNL A   1      43.428  35.022  31.490  1.00  0.00     0.012 A 
ATOM     92  C   UNL A   1      43.288  34.601  29.128  1.00  0.00     0.148 A 
ATOM     93  C   UNL A   1      43.703  36.369  31.234  1.00  0.00     0.002 A 
ATOM     94  C   UNL A   1      43.438  35.960  28.880  1.00  0.00     0.091 A 
ATOM     95  F   UNL A   1      43.226  33.778  28.079  1.00  0.00    -0.205 F 
ATOM     96  C   UNL A   1      43.690  36.843  29.929  1.00  0.00     0.022 A 
BRANCH  94  97
ATOM     97  S   UNL A   1      43.204  36.668  27.242  1.00  0.00     0.127 S 
ATOM     98  O   UNL A   1      43.219  35.470  26.400  1.00  0.00    -0.237 OA
ATOM     99  O   UNL A   1      41.894  37.303  27.375  1.00  0.00    -0.237 OA
ATOM    100  O   UNL A   1      44.325  37.570  27.023  1.00  0.00    -0.744 OA
ENDBRANCH  94  97
ENDBRANCH  67  90
ENDBRANCH  41  42
ENDBRANCH  33  36
ENDBRANCH  31  32
ENDBRANCH   1  31
TORSDOF 17
ENDMDL
MODEL 3
REMARK VINA RESULT:     -13.5      3.564      9.233
REMARK SMILES Cc1cccc(-n2c(C)cc(/C=N\c3ccc(O)c(C(=O)NCCCNC(=O)c4ccc(-c5c6nc(c(-c7cccc(S(=O)(=O)[O-])c7F)c7ccc([nH]7)c(-c7cccc(S(=O)(=O)[O-])c7F)c7nc(c(-c8cccc(S(=O)(=O)[O-])c8F)c8ccc5[nH]8)C=C7)C=C6)cc4)c3)c2C)c1
REMARK SMILES IDX 24 1 23 2 22 3 20 4 21 5 19 7 14 8 15 9 92 10 16 11 17 12
REMARK SMILES IDX 13 13 12 14 11 15 7 16 8 17 93 18 9 19 10 20 94 21 6 22 1 23
REMARK SMILES IDX 2 24 3 25 95 26 4 27 5 28 18 29 25 31 26 32 27 33 28 35
REMARK SMILES IDX 29 36 30 37 91 38 31 39 90 40 32 41 33 42 34 43 84 44 35 45
REMARK SMILES IDX 89 46 83 47 85 48 36 49 88 50 82 51 81 52 37 54 69 55 49 56
REMARK SMILES IDX 68 57 50 58 53 59 67 60 86 61 51 62 52 63 66 65 87 66 54 67
REMARK SMILES IDX 38 68 39 69 47 70 40 71 42 72 48 73 41 74 43 75 44 76 45 77
REMARK SMILES IDX 46 78 70 79 71 80 79 81 72 82 74 83 80 84 73 85 75 86 76 87
REMARK SMILES IDX 77 88 78 89 55 90 56 91 64 92 57 93 59 94 65 95 58 96 60 97
REMARK SMILES IDX 61 98 62 99 63 100
REMARK H PARENT 22 6 18 30 26 34 85 53 53 64
REMARK Flexibility Score: inf
ROOT
ATOM      1  C   UNL A   1      36.426  22.616  25.778  1.00  0.00     0.042 C 
ENDROOT
BRANCH   1   2
ATOM      2  C   UNL A   1      35.435  23.656  26.258  1.00  0.00     0.118 C 
BRANCH   2   3
ATOM      3  N   UNL A   1      34.372  23.281  27.186  1.00  0.00    -0.352 N 
ATOM      4  C   UNL A   1      33.182  22.593  26.996  1.00  0.00     0.255 C 
ATOM      5  O   UNL A   1      32.564  22.206  27.987  1.00  0.00    -0.269 OA
ATOM      6  H   UNL A   1      34.528  23.568  28.114  1.00  0.00     0.163 HD
BRANCH   4   7
ATOM      7  C   UNL A   1      32.605  22.332  25.642  1.00  0.00     0.083 A 
ATOM      8  C   UNL A   1      31.321  23.033  23.704  1.00  0.00     0.064 A 
ATOM      9  C   UNL A   1      31.789  21.930  22.987  1.00  0.00     0.032 A 
ATOM     10  C   UNL A   1      31.886  23.325  24.961  1.00  0.00     0.046 A 
ATOM     11  C   UNL A   1      32.450  20.923  23.665  1.00  0.00     0.049 A 
ATOM     12  C   UNL A   1      32.615  21.081  25.032  1.00  0.00     0.128 A 
BRANCH   8  13
ATOM     13  N   UNL A   1      30.272  23.800  23.193  1.00  0.00    -0.256 NA
ATOM     14  C   UNL A   1      30.284  25.108  23.125  1.00  0.00     0.121 C 
BRANCH  14  15
ATOM     15  C   UNL A   1      31.276  26.157  23.449  1.00  0.00     0.014 A 
ATOM     16  N   UNL A   1      32.571  27.794  24.388  1.00  0.00    -0.318 N 
ATOM     17  C   UNL A   1      32.993  27.653  23.082  1.00  0.00     0.021 A 
ATOM     18  C   UNL A   1      31.625  26.796  24.637  1.00  0.00     0.029 A 
ATOM     19  C   UNL A   1      34.149  28.401  22.521  1.00  0.00     0.065 C 
ATOM     20  C   UNL A   1      32.214  26.669  22.494  1.00  0.00     0.033 A 
ATOM     21  C   UNL A   1      31.042  26.672  25.979  1.00  0.00     0.065 C 
BRANCH  16  22
ATOM     22  C   UNL A   1      32.935  28.834  25.307  1.00  0.00     0.046 A 
ATOM     23  C   UNL A   1      31.420  32.039  26.727  1.00  0.00     0.044 C 
ATOM     24  C   UNL A   1      32.296  30.837  26.528  1.00  0.00    -0.049 A 
ATOM     25  C   UNL A   1      33.299  30.571  27.471  1.00  0.00     0.003 A 
ATOM     26  C   UNL A   1      32.112  29.961  25.442  1.00  0.00     0.030 A 
ATOM     27  C   UNL A   1      34.154  29.487  27.302  1.00  0.00     0.002 A 
ATOM     28  C   UNL A   1      33.994  28.644  26.204  1.00  0.00     0.026 A 
ENDBRANCH  16  22
ENDBRANCH  14  15
ENDBRANCH   8  13
BRANCH  12  29
ATOM     29  O   UNL A   1      32.302  19.935  25.754  1.00  0.00    -0.507 OA
ATOM     30  H   UNL A   1      31.817  20.003  26.553  1.00  0.00     0.293 HD
ENDBRANCH  12  29
ENDBRANCH   4   7
ENDBRANCH   2   3
ENDBRANCH   1   2
BRANCH   1  31
ATOM     31  C   UNL A   1      37.819  23.159  25.739  1.00  0.00     0.118 C 
BRANCH  31  32
ATOM     32  N   UNL A   1      38.740  22.390  26.602  1.00  0.00    -0.352 N 
ATOM     33  C   UNL A   1      39.930  22.819  27.157  1.00  0.00     0.251 C 
ATOM     34  H   UNL A   1      38.474  21.464  26.804  1.00  0.00     0.163 HD
ATOM     35  O   UNL A   1      40.752  22.003  27.580  1.00  0.00    -0.269 OA
BRANCH  33  36
ATOM     36  C   UNL A   1      40.104  24.265  27.293  1.00  0.00     0.039 A 
ATOM     37  C   UNL A   1      40.591  25.134  26.318  1.00  0.00     0.014 A 
ATOM     38  C   UNL A   1      39.699  24.743  28.527  1.00  0.00     0.014 A 
ATOM     39  C   UNL A   1      40.697  26.485  26.648  1.00  0.00     0.010 A 
ATOM     40  C   UNL A   1      39.376  26.045  28.639  1.00  0.00     0.010 A 
ATOM     41  C   UNL A   1      40.121  26.901  27.843  1.00  0.00    -0.014 A 
BRANCH  41  42
ATOM     42  C   UNL A   1      40.320  28.148  28.544  1.00  0.00     0.031 A 
ATOM     43  C   UNL A   1      39.399  29.248  28.313  1.00  0.00     0.074 A 
ATOM     44  C   UNL A   1      41.047  28.006  29.681  1.00  0.00     0.049 A 
ATOM     45  N   UNL A   1      39.555  30.411  28.828  1.00  0.00    -0.248 NA
ATOM     46  C   UNL A   1      38.210  29.121  27.481  1.00  0.00     0.031 C 
ATOM     47  C   UNL A   1      40.891  28.673  30.964  1.00  0.00     0.029 A 
ATOM     48  N   UNL A   1      42.006  27.051  29.986  1.00  0.00    -0.354 N 
ATOM     49  C   UNL A   1      38.343  31.051  28.706  1.00  0.00     0.074 A 
ATOM     50  C   UNL A   1      37.628  30.304  27.700  1.00  0.00     0.031 C 
ATOM     51  C   UNL A   1      41.903  28.299  31.776  1.00  0.00     0.029 A 
ATOM     52  C   UNL A   1      42.843  27.523  30.982  1.00  0.00     0.049 A 
ATOM     53  H   UNL A   1      42.080  26.168  29.556  1.00  0.00     0.167 HD
ATOM     54  C   UNL A   1      38.034  32.001  29.632  1.00  0.00     0.034 A 
ATOM     55  C   UNL A   1      44.116  27.906  30.640  1.00  0.00     0.034 A 
ATOM     56  C   UNL A   1      39.145  32.146  30.605  1.00  0.00     0.049 A 
ATOM     57  C   UNL A   1      44.257  29.426  30.609  1.00  0.00     0.074 A 
ATOM     58  C   UNL A   1      39.366  31.719  31.906  1.00  0.00     0.029 A 
ATOM     59  N   UNL A   1      40.387  32.530  30.132  1.00  0.00    -0.354 N 
ATOM     60  N   UNL A   1      43.328  30.269  30.978  1.00  0.00    -0.248 NA
ATOM     61  C   UNL A   1      45.444  30.115  30.111  1.00  0.00     0.031 C 
ATOM     62  C   UNL A   1      40.775  31.806  32.169  1.00  0.00     0.029 A 
ATOM     63  C   UNL A   1      41.405  32.315  31.045  1.00  0.00     0.049 A 
ATOM     64  H   UNL A   1      40.532  32.916  29.239  1.00  0.00     0.167 HD
ATOM     65  C   UNL A   1      43.660  31.535  30.583  1.00  0.00     0.074 A 
ATOM     66  C   UNL A   1      45.027  31.393  30.099  1.00  0.00     0.031 C 
ATOM     67  C   UNL A   1      42.783  32.590  30.625  1.00  0.00     0.034 A 
BRANCH  54  68
ATOM     68  C   UNL A   1      36.675  32.647  29.847  1.00  0.00     0.023 A 
ATOM     69  C   UNL A   1      35.914  32.903  28.686  1.00  0.00     0.012 A 
ATOM     70  C   UNL A   1      36.074  33.034  31.072  1.00  0.00     0.148 A 
ATOM     71  C   UNL A   1      34.675  33.551  28.720  1.00  0.00     0.002 A 
ATOM     72  C   UNL A   1      34.845  33.702  31.108  1.00  0.00     0.091 A 
ATOM     73  F   UNL A   1      36.646  32.731  32.233  1.00  0.00    -0.205 F 
ATOM     74  C   UNL A   1      34.145  33.965  29.931  1.00  0.00     0.022 A 
BRANCH  72  75
ATOM     75  S   UNL A   1      34.095  34.286  32.643  1.00  0.00     0.127 S 
ATOM     76  O   UNL A   1      35.173  35.091  33.222  1.00  0.00    -0.237 OA
ATOM     77  O   UNL A   1      32.955  35.061  32.157  1.00  0.00    -0.237 OA
ATOM     78  O   UNL A   1      33.751  33.100  33.418  1.00  0.00    -0.744 OA
ENDBRANCH  72  75
ENDBRANCH  54  68
BRANCH  55  79
ATOM     79  C   UNL A   1      44.717  26.937  29.648  1.00  0.00     0.023 A 
ATOM     80  C   UNL A   1      44.789  25.584  30.069  1.00  0.00     0.012 A 
ATOM     81  C   UNL A   1      44.709  27.207  28.264  1.00  0.00     0.148 A 
ATOM     82  C   UNL A   1      44.633  24.539  29.153  1.00  0.00     0.002 A 
ATOM     83  C   UNL A   1      44.571  26.156  27.354  1.00  0.00     0.091 A 
ATOM     84  F   UNL A   1      44.753  28.481  27.855  1.00  0.00    -0.205 F 
ATOM     85  C   UNL A   1      44.470  24.828  27.802  1.00  0.00     0.022 A 
BRANCH  83  86
ATOM     86  S   UNL A   1      44.412  26.464  25.588  1.00  0.00     0.127 S 
ATOM     87  O   UNL A   1      45.768  26.877  25.240  1.00  0.00    -0.237 OA
ATOM     88  O   UNL A   1      44.021  25.158  25.057  1.00  0.00    -0.237 OA
ATOM     89  O   UNL A   1      43.380  27.485  25.476  1.00  0.00    -0.744 OA
ENDBRANCH  83  86
ENDBRANCH  55  79
BRANCH  67  90
ATOM     90  C   UNL A   1      43.183  34.010  30.253  1.00  0.00     0.023 A 
ATOM     91  C   UNL A   1      43.205  35.017  31.236  1.00  0.00     0.012 A 
ATOM     92  C   UNL A   1      43.407  34.429  28.914  1.00  0.00     0.148 A 
ATOM     93  C   UNL A   1      43.518  36.345  30.927  1.00  0.00     0.002 A 
ATOM     94  C   UNL A   1      43.595  35.768  28.595  1.00  0.00     0.091 A 
ATOM     95  F   UNL A   1      43.495  33.533  27.929  1.00  0.00    -0.205 F 
ATOM     96  C   UNL A   1      43.696  36.725  29.604  1.00  0.00     0.022 A 
BRANCH  94  97
ATOM     97  S   UNL A   1      43.603  36.357  26.894  1.00  0.00     0.127 S 
ATOM     98  O   UNL A   1      44.920  35.911  26.435  1.00  0.00    -0.237 OA
ATOM     99  O   UNL A   1      42.477  35.624  26.319  1.00  0.00    -0.237 OA
ATOM    100  O   UNL A   1      43.448  37.803  26.962  1.00  0.00    -0.744 OA
ENDBRANCH  94  97
ENDBRANCH  67  90
ENDBRANCH  41  42
ENDBRANCH  33  36
ENDBRANCH  31  32
ENDBRANCH   1  31
TORSDOF 17
ENDMDL
