MODEL 1
REMARK VINA RESULT:     -11.4      0.000      0.000
REMARK SMILES CN(C)c1cccc(C(C)(C)C(=O)NCCCNC(=O)c2ccc(-c3c4nc(c(-c5cccc(S(=O)(=O)[O-])c5F)c5ccc([nH]5)c(-c5cccc(S(=O)(=O)[O-])c5F)c5nc(c(-c6cccc(S(=O)(=O)[O-])c6F)c6ccc3[nH]6)C=C5)C=C4)cc2)c1
REMARK SMILES IDX 16 1 15 2 14 3 12 4 13 5 9 7 10 8 11 9 8 10 4 11 5 12 84 13
REMARK SMILES IDX 6 14 7 15 2 16 1 17 3 18 17 19 18 20 19 21 20 23 21 24 22 25
REMARK SMILES IDX 83 26 23 27 82 28 24 29 25 30 26 31 76 32 27 33 81 34 75 35
REMARK SMILES IDX 77 36 28 37 80 38 74 39 73 40 29 42 61 43 41 44 60 45 42 46
REMARK SMILES IDX 45 47 59 48 78 49 43 50 44 51 58 53 79 54 46 55 30 56 31 57
REMARK SMILES IDX 39 58 32 59 34 60 40 61 33 62 35 63 36 64 37 65 38 66 62 67
REMARK SMILES IDX 63 68 71 69 64 70 66 71 72 72 65 73 67 74 68 75 69 76 70 77
REMARK SMILES IDX 47 78 48 79 56 80 49 81 51 82 57 83 50 84 52 85 53 86 54 87
REMARK SMILES IDX 55 88
REMARK H PARENT 14 6 18 22 77 41 45 52
REMARK Flexibility Score: inf
ROOT
ATOM      1  C   UNL A   1      31.773  29.070  26.692  1.00  0.00     0.042 C 
ENDROOT
BRANCH   1   2
ATOM      2  C   UNL A   1      32.395  27.694  26.894  1.00  0.00     0.117 C 
BRANCH   2   3
ATOM      3  N   UNL A   1      31.386  26.648  26.941  1.00  0.00    -0.355 N 
ATOM      4  C   UNL A   1      30.775  25.870  26.004  1.00  0.00     0.230 C 
ATOM      5  O   UNL A   1      29.923  25.122  26.493  1.00  0.00    -0.274 OA
ATOM      6  H   UNL A   1      31.075  26.460  27.857  1.00  0.00     0.163 HD
BRANCH   4   7
ATOM      7  C   UNL A   1      31.165  25.903  24.492  1.00  0.00     0.068 C 
ATOM      8  C   UNL A   1      30.283  24.836  23.791  1.00  0.00     0.026 C 
ATOM      9  C   UNL A   1      32.676  25.607  24.361  1.00  0.00     0.026 C 
BRANCH   7  10
ATOM     10  C   UNL A   1      30.919  27.236  23.709  1.00  0.00    -0.031 A 
ATOM     11  C   UNL A   1      29.462  29.021  22.790  1.00  0.00     0.036 A 
ATOM     12  C   UNL A   1      30.576  29.571  22.147  1.00  0.00     0.026 A 
ATOM     13  C   UNL A   1      29.671  27.872  23.582  1.00  0.00     0.030 A 
ATOM     14  C   UNL A   1      31.840  29.008  22.290  1.00  0.00     0.002 A 
ATOM     15  C   UNL A   1      32.006  27.858  23.057  1.00  0.00     0.005 A 
BRANCH  11  16
ATOM     16  N   UNL A   1      28.198  29.592  22.624  1.00  0.00    -0.378 N 
ATOM     17  C   UNL A   1      27.021  28.895  23.126  1.00  0.00     0.143 C 
ATOM     18  C   UNL A   1      28.029  30.456  21.464  1.00  0.00     0.143 C 
ENDBRANCH  11  16
ENDBRANCH   7  10
ENDBRANCH   4   7
ENDBRANCH   2   3
ENDBRANCH   1   2
BRANCH   1  19
ATOM     19  C   UNL A   1      32.647  30.032  25.900  1.00  0.00     0.118 C 
BRANCH  19  20
ATOM     20  N   UNL A   1      32.484  31.419  26.322  1.00  0.00    -0.352 N 
ATOM     21  C   UNL A   1      33.180  32.138  27.262  1.00  0.00     0.251 C 
ATOM     22  H   UNL A   1      31.765  31.913  25.866  1.00  0.00     0.163 HD
ATOM     23  O   UNL A   1      32.759  33.236  27.624  1.00  0.00    -0.269 OA
BRANCH  21  24
ATOM     24  C   UNL A   1      34.419  31.588  27.848  1.00  0.00     0.039 A 
ATOM     25  C   UNL A   1      35.530  32.419  27.997  1.00  0.00     0.014 A 
ATOM     26  C   UNL A   1      34.482  30.253  28.255  1.00  0.00     0.014 A 
ATOM     27  C   UNL A   1      36.681  31.931  28.622  1.00  0.00     0.010 A 
ATOM     28  C   UNL A   1      35.590  29.797  28.960  1.00  0.00     0.010 A 
ATOM     29  C   UNL A   1      36.704  30.628  29.145  1.00  0.00    -0.014 A 
BRANCH  29  30
ATOM     30  C   UNL A   1      37.877  30.115  29.898  1.00  0.00     0.031 A 
ATOM     31  C   UNL A   1      38.152  30.601  31.296  1.00  0.00     0.074 A 
ATOM     32  C   UNL A   1      38.746  29.282  29.290  1.00  0.00     0.049 A 
ATOM     33  N   UNL A   1      39.160  30.327  32.081  1.00  0.00    -0.248 NA
ATOM     34  C   UNL A   1      37.180  31.544  31.879  1.00  0.00     0.031 C 
ATOM     35  C   UNL A   1      38.632  28.798  27.912  1.00  0.00     0.029 A 
ATOM     36  N   UNL A   1      39.912  28.718  29.742  1.00  0.00    -0.354 N 
ATOM     37  C   UNL A   1      38.967  31.085  33.230  1.00  0.00     0.074 A 
ATOM     38  C   UNL A   1      37.764  31.861  33.025  1.00  0.00     0.031 C 
ATOM     39  C   UNL A   1      39.678  28.005  27.636  1.00  0.00     0.029 A 
ATOM     40  C   UNL A   1      40.558  27.954  28.798  1.00  0.00     0.049 A 
ATOM     41  H   UNL A   1      40.254  28.847  30.657  1.00  0.00     0.167 HD
ATOM     42  C   UNL A   1      39.704  31.112  34.364  1.00  0.00     0.034 A 
ATOM     43  C   UNL A   1      41.734  27.297  28.856  1.00  0.00     0.034 A 
ATOM     44  C   UNL A   1      40.880  30.312  34.577  1.00  0.00     0.049 A 
ATOM     45  C   UNL A   1      42.524  27.328  30.136  1.00  0.00     0.074 A 
ATOM     46  C   UNL A   1      41.649  30.203  35.721  1.00  0.00     0.029 A 
ATOM     47  N   UNL A   1      41.463  29.493  33.623  1.00  0.00    -0.354 N 
ATOM     48  N   UNL A   1      42.243  27.930  31.266  1.00  0.00    -0.248 NA
ATOM     49  C   UNL A   1      43.777  26.559  30.161  1.00  0.00     0.031 C 
ATOM     50  C   UNL A   1      42.719  29.345  35.448  1.00  0.00     0.029 A 
ATOM     51  C   UNL A   1      42.592  28.886  34.146  1.00  0.00     0.049 A 
ATOM     52  H   UNL A   1      41.124  29.361  32.708  1.00  0.00     0.167 HD
ATOM     53  C   UNL A   1      43.261  27.585  32.146  1.00  0.00     0.074 A 
ATOM     54  C   UNL A   1      44.155  26.703  31.425  1.00  0.00     0.031 C 
ATOM     55  C   UNL A   1      43.445  27.972  33.433  1.00  0.00     0.034 A 
BRANCH  42  56
ATOM     56  C   UNL A   1      39.236  32.006  35.484  1.00  0.00     0.023 A 
ATOM     57  C   UNL A   1      38.314  31.514  36.431  1.00  0.00     0.012 A 
ATOM     58  C   UNL A   1      39.749  33.309  35.634  1.00  0.00     0.148 A 
ATOM     59  C   UNL A   1      37.880  32.317  37.485  1.00  0.00     0.002 A 
ATOM     60  C   UNL A   1      39.350  34.086  36.715  1.00  0.00     0.091 A 
ATOM     61  F   UNL A   1      40.611  33.767  34.714  1.00  0.00    -0.205 F 
ATOM     62  C   UNL A   1      38.405  33.596  37.633  1.00  0.00     0.022 A 
BRANCH  60  63
ATOM     63  S   UNL A   1      40.029  35.716  37.043  1.00  0.00     0.127 S 
ATOM     64  O   UNL A   1      41.456  35.424  37.158  1.00  0.00    -0.237 OA
ATOM     65  O   UNL A   1      39.653  36.453  35.836  1.00  0.00    -0.237 OA
ATOM     66  O   UNL A   1      39.387  36.182  38.265  1.00  0.00    -0.744 OA
ENDBRANCH  60  63
ENDBRANCH  42  56
BRANCH  43  67
ATOM     67  C   UNL A   1      42.208  26.509  27.683  1.00  0.00     0.023 A 
ATOM     68  C   UNL A   1      43.004  27.137  26.704  1.00  0.00     0.012 A 
ATOM     69  C   UNL A   1      41.894  25.144  27.541  1.00  0.00     0.148 A 
ATOM     70  C   UNL A   1      43.449  26.428  25.587  1.00  0.00     0.002 A 
ATOM     71  C   UNL A   1      42.389  24.430  26.456  1.00  0.00     0.091 A 
ATOM     72  F   UNL A   1      41.130  24.568  28.478  1.00  0.00    -0.205 F 
ATOM     73  C   UNL A   1      43.151  25.074  25.468  1.00  0.00     0.022 A 
BRANCH  71  74
ATOM     74  S   UNL A   1      42.166  22.655  26.287  1.00  0.00     0.127 S 
ATOM     75  O   UNL A   1      42.806  22.394  25.000  1.00  0.00    -0.237 OA
ATOM     76  O   UNL A   1      42.894  22.150  27.451  1.00  0.00    -0.237 OA
ATOM     77  O   UNL A   1      40.728  22.432  26.335  1.00  0.00    -0.744 OA
ENDBRANCH  71  74
ENDBRANCH  43  67
BRANCH  55  78
ATOM     78  C   UNL A   1      44.635  27.411  34.169  1.00  0.00     0.023 A 
ATOM     79  C   UNL A   1      45.864  28.099  34.150  1.00  0.00     0.012 A 
ATOM     80  C   UNL A   1      44.508  26.242  34.945  1.00  0.00     0.148 A 
ATOM     81  C   UNL A   1      46.958  27.613  34.865  1.00  0.00     0.002 A 
ATOM     82  C   UNL A   1      45.585  25.794  35.699  1.00  0.00     0.091 A 
ATOM     83  F   UNL A   1      43.334  25.594  34.938  1.00  0.00    -0.205 F 
ATOM     84  C   UNL A   1      46.816  26.470  35.648  1.00  0.00     0.022 A 
BRANCH  82  85
ATOM     85  S   UNL A   1      45.467  24.390  36.813  1.00  0.00     0.127 S 
ATOM     86  O   UNL A   1      45.092  23.314  35.898  1.00  0.00    -0.237 OA
ATOM     87  O   UNL A   1      46.830  24.298  37.338  1.00  0.00    -0.237 OA
ATOM     88  O   UNL A   1      44.460  24.746  37.804  1.00  0.00    -0.744 OA
ENDBRANCH  82  85
ENDBRANCH  55  78
ENDBRANCH  29  30
ENDBRANCH  21  24
ENDBRANCH  19  20
ENDBRANCH   1  19
TORSDOF 15
ENDMDL
MODEL 2
REMARK VINA RESULT:     -11.3      6.605     12.375
REMARK SMILES CN(C)c1cccc(C(C)(C)C(=O)NCCCNC(=O)c2ccc(-c3c4nc(c(-c5cccc(S(=O)(=O)[O-])c5F)c5ccc([nH]5)c(-c5cccc(S(=O)(=O)[O-])c5F)c5nc(c(-c6cccc(S(=O)(=O)[O-])c6F)c6ccc3[nH]6)C=C5)C=C4)cc2)c1
REMARK SMILES IDX 16 1 15 2 14 3 12 4 13 5 9 7 10 8 11 9 8 10 4 11 5 12 84 13
REMARK SMILES IDX 6 14 7 15 2 16 1 17 3 18 17 19 18 20 19 21 20 23 21 24 22 25
REMARK SMILES IDX 83 26 23 27 82 28 24 29 25 30 26 31 76 32 27 33 81 34 75 35
REMARK SMILES IDX 77 36 28 37 80 38 74 39 73 40 29 42 61 43 41 44 60 45 42 46
REMARK SMILES IDX 45 47 59 48 78 49 43 50 44 51 58 53 79 54 46 55 30 56 31 57
REMARK SMILES IDX 39 58 32 59 34 60 40 61 33 62 35 63 36 64 37 65 38 66 62 67
REMARK SMILES IDX 63 68 71 69 64 70 66 71 72 72 65 73 67 74 68 75 69 76 70 77
REMARK SMILES IDX 47 78 48 79 56 80 49 81 51 82 57 83 50 84 52 85 53 86 54 87
REMARK SMILES IDX 55 88
REMARK H PARENT 14 6 18 22 77 41 45 52
REMARK Flexibility Score: inf
ROOT
ATOM      1  C   UNL A   1      42.361  19.626  27.084  1.00  0.00     0.042 C 
ENDROOT
BRANCH   1   2
ATOM      2  C   UNL A   1      42.860  20.106  25.728  1.00  0.00     0.117 C 
BRANCH   2   3
ATOM      3  N   UNL A   1      44.299  19.945  25.595  1.00  0.00    -0.355 N 
ATOM      4  C   UNL A   1      45.341  20.801  25.400  1.00  0.00     0.230 C 
ATOM      5  O   UNL A   1      46.422  20.214  25.299  1.00  0.00    -0.274 OA
ATOM      6  H   UNL A   1      44.584  19.004  25.660  1.00  0.00     0.163 HD
BRANCH   4   7
ATOM      7  C   UNL A   1      45.166  22.353  25.365  1.00  0.00     0.068 C 
ATOM      8  C   UNL A   1      43.639  22.616  25.274  1.00  0.00     0.026 C 
ATOM      9  C   UNL A   1      45.941  22.915  24.152  1.00  0.00     0.026 C 
BRANCH   7  10
ATOM     10  C   UNL A   1      45.662  23.167  26.607  1.00  0.00    -0.031 A 
ATOM     11  C   UNL A   1      45.396  24.085  28.896  1.00  0.00     0.036 A 
ATOM     12  C   UNL A   1      46.595  24.785  28.732  1.00  0.00     0.026 A 
ATOM     13  C   UNL A   1      44.970  23.266  27.828  1.00  0.00     0.030 A 
ATOM     14  C   UNL A   1      47.340  24.672  27.563  1.00  0.00     0.002 A 
ATOM     15  C   UNL A   1      46.878  23.877  26.518  1.00  0.00     0.005 A 
BRANCH  11  16
ATOM     16  N   UNL A   1      44.653  24.221  30.071  1.00  0.00    -0.378 N 
ATOM     17  C   UNL A   1      43.819  23.118  30.529  1.00  0.00     0.143 C 
ATOM     18  C   UNL A   1      44.234  25.573  30.416  1.00  0.00     0.143 C 
ENDBRANCH  11  16
ENDBRANCH   7  10
ENDBRANCH   4   7
ENDBRANCH   2   3
ENDBRANCH   1   2
BRANCH   1  19
ATOM     19  C   UNL A   1      41.166  20.406  27.614  1.00  0.00     0.118 C 
BRANCH  19  20
ATOM     20  N   UNL A   1      40.099  20.540  26.629  1.00  0.00    -0.352 N 
ATOM     21  C   UNL A   1      39.371  21.647  26.268  1.00  0.00     0.251 C 
ATOM     22  H   UNL A   1      39.866  19.712  26.150  1.00  0.00     0.163 HD
ATOM     23  O   UNL A   1      38.372  21.515  25.562  1.00  0.00    -0.269 OA
BRANCH  21  24
ATOM     24  C   UNL A   1      39.776  22.985  26.741  1.00  0.00     0.039 A 
ATOM     25  C   UNL A   1      40.772  23.092  27.715  1.00  0.00     0.014 A 
ATOM     26  C   UNL A   1      39.177  24.136  26.222  1.00  0.00     0.014 A 
ATOM     27  C   UNL A   1      41.217  24.355  28.113  1.00  0.00     0.010 A 
ATOM     28  C   UNL A   1      39.686  25.388  26.548  1.00  0.00     0.010 A 
ATOM     29  C   UNL A   1      40.707  25.512  27.502  1.00  0.00    -0.014 A 
BRANCH  29  30
ATOM     30  C   UNL A   1      41.230  26.861  27.836  1.00  0.00     0.031 A 
ATOM     31  C   UNL A   1      42.650  27.228  27.499  1.00  0.00     0.074 A 
ATOM     32  C   UNL A   1      40.455  27.723  28.526  1.00  0.00     0.049 A 
ATOM     33  N   UNL A   1      43.306  28.324  27.775  1.00  0.00    -0.248 NA
ATOM     34  C   UNL A   1      43.449  26.217  26.783  1.00  0.00     0.031 C 
ATOM     35  C   UNL A   1      39.088  27.458  28.977  1.00  0.00     0.029 A 
ATOM     36  N   UNL A   1      40.717  28.987  28.991  1.00  0.00    -0.354 N 
ATOM     37  C   UNL A   1      44.598  28.125  27.302  1.00  0.00     0.074 A 
ATOM     38  C   UNL A   1      44.645  26.787  26.756  1.00  0.00     0.031 C 
ATOM     39  C   UNL A   1      38.629  28.527  29.646  1.00  0.00     0.029 A 
ATOM     40  C   UNL A   1      39.678  29.537  29.707  1.00  0.00     0.049 A 
ATOM     41  H   UNL A   1      41.568  29.456  28.829  1.00  0.00     0.167 HD
ATOM     42  C   UNL A   1      45.642  28.986  27.295  1.00  0.00     0.034 A 
ATOM     43  C   UNL A   1      39.587  30.718  30.352  1.00  0.00     0.034 A 
ATOM     44  C   UNL A   1      45.581  30.328  27.808  1.00  0.00     0.049 A 
ATOM     45  C   UNL A   1      40.756  31.663  30.312  1.00  0.00     0.074 A 
ATOM     46  C   UNL A   1      46.557  31.307  27.772  1.00  0.00     0.029 A 
ATOM     47  N   UNL A   1      44.488  30.876  28.460  1.00  0.00    -0.354 N 
ATOM     48  N   UNL A   1      41.919  31.515  29.725  1.00  0.00    -0.248 NA
ATOM     49  C   UNL A   1      40.589  32.956  30.993  1.00  0.00     0.031 C 
ATOM     50  C   UNL A   1      46.067  32.437  28.434  1.00  0.00     0.029 A 
ATOM     51  C   UNL A   1      44.769  32.175  28.846  1.00  0.00     0.049 A 
ATOM     52  H   UNL A   1      43.636  30.410  28.625  1.00  0.00     0.167 HD
ATOM     53  C   UNL A   1      42.606  32.705  29.933  1.00  0.00     0.074 A 
ATOM     54  C   UNL A   1      41.721  33.572  30.683  1.00  0.00     0.031 C 
ATOM     55  C   UNL A   1      43.861  33.045  29.548  1.00  0.00     0.034 A 
BRANCH  42  56
ATOM     56  C   UNL A   1      46.933  28.517  26.673  1.00  0.00     0.023 A 
ATOM     57  C   UNL A   1      48.036  28.213  27.498  1.00  0.00     0.012 A 
ATOM     58  C   UNL A   1      47.039  28.323  25.282  1.00  0.00     0.148 A 
ATOM     59  C   UNL A   1      49.234  27.761  26.946  1.00  0.00     0.002 A 
ATOM     60  C   UNL A   1      48.220  27.825  24.744  1.00  0.00     0.091 A 
ATOM     61  F   UNL A   1      45.987  28.635  24.511  1.00  0.00    -0.205 F 
ATOM     62  C   UNL A   1      49.322  27.557  25.573  1.00  0.00     0.022 A 
BRANCH  60  63
ATOM     63  S   UNL A   1      48.409  27.449  22.998  1.00  0.00     0.127 S 
ATOM     64  O   UNL A   1      47.313  28.217  22.410  1.00  0.00    -0.237 OA
ATOM     65  O   UNL A   1      49.744  27.976  22.714  1.00  0.00    -0.237 OA
ATOM     66  O   UNL A   1      48.288  26.002  22.882  1.00  0.00    -0.744 OA
ENDBRANCH  60  63
ENDBRANCH  42  56
BRANCH  43  67
ATOM     67  C   UNL A   1      38.322  31.094  31.045  1.00  0.00     0.023 A 
ATOM     68  C   UNL A   1      38.173  30.810  32.416  1.00  0.00     0.012 A 
ATOM     69  C   UNL A   1      37.278  31.746  30.361  1.00  0.00     0.148 A 
ATOM     70  C   UNL A   1      36.993  31.136  33.087  1.00  0.00     0.002 A 
ATOM     71  C   UNL A   1      36.129  32.121  31.049  1.00  0.00     0.091 A 
ATOM     72  F   UNL A   1      37.436  32.001  29.055  1.00  0.00    -0.205 F 
ATOM     73  C   UNL A   1      35.976  31.800  32.407  1.00  0.00     0.022 A 
BRANCH  71  74
ATOM     74  S   UNL A   1      34.824  33.093  30.288  1.00  0.00     0.127 S 
ATOM     75  O   UNL A   1      34.282  32.153  29.310  1.00  0.00    -0.237 OA
ATOM     76  O   UNL A   1      33.951  33.367  31.429  1.00  0.00    -0.237 OA
ATOM     77  O   UNL A   1      35.479  34.271  29.738  1.00  0.00    -0.744 OA
ENDBRANCH  71  74
ENDBRANCH  43  67
BRANCH  55  78
ATOM     78  C   UNL A   1      44.346  34.431  29.887  1.00  0.00     0.023 A 
ATOM     79  C   UNL A   1      45.140  34.640  31.031  1.00  0.00     0.012 A 
ATOM     80  C   UNL A   1      44.080  35.511  29.022  1.00  0.00     0.148 A 
ATOM     81  C   UNL A   1      45.632  35.911  31.329  1.00  0.00     0.002 A 
ATOM     82  C   UNL A   1      44.618  36.762  29.295  1.00  0.00     0.091 A 
ATOM     83  F   UNL A   1      43.309  35.294  27.947  1.00  0.00    -0.205 F 
ATOM     84  C   UNL A   1      45.383  36.967  30.456  1.00  0.00     0.022 A 
BRANCH  82  85
ATOM     85  S   UNL A   1      44.434  38.158  28.179  1.00  0.00     0.127 S 
ATOM     86  O   UNL A   1      44.821  37.569  26.899  1.00  0.00    -0.237 OA
ATOM     87  O   UNL A   1      43.009  38.465  28.304  1.00  0.00    -0.237 OA
ATOM     88  O   UNL A   1      45.323  39.196  28.683  1.00  0.00    -0.744 OA
ENDBRANCH  82  85
ENDBRANCH  55  78
ENDBRANCH  29  30
ENDBRANCH  21  24
ENDBRANCH  19  20
ENDBRANCH   1  19
TORSDOF 15
ENDMDL
MODEL 3
REMARK VINA RESULT:     -11.2      2.629      8.480
REMARK SMILES CN(C)c1cccc(C(C)(C)C(=O)NCCCNC(=O)c2ccc(-c3c4nc(c(-c5cccc(S(=O)(=O)[O-])c5F)c5ccc([nH]5)c(-c5cccc(S(=O)(=O)[O-])c5F)c5nc(c(-c6cccc(S(=O)(=O)[O-])c6F)c6ccc3[nH]6)C=C5)C=C4)cc2)c1
REMARK SMILES IDX 16 1 15 2 14 3 12 4 13 5 9 7 10 8 11 9 8 10 4 11 5 12 84 13
REMARK SMILES IDX 6 14 7 15 2 16 1 17 3 18 17 19 18 20 19 21 20 23 21 24 22 25
REMARK SMILES IDX 83 26 23 27 82 28 24 29 25 30 26 31 76 32 27 33 81 34 75 35
REMARK SMILES IDX 77 36 28 37 80 38 74 39 73 40 29 42 61 43 41 44 60 45 42 46
REMARK SMILES IDX 45 47 59 48 78 49 43 50 44 51 58 53 79 54 46 55 30 56 31 57
REMARK SMILES IDX 39 58 32 59 34 60 40 61 33 62 35 63 36 64 37 65 38 66 62 67
REMARK SMILES IDX 63 68 71 69 64 70 66 71 72 72 65 73 67 74 68 75 69 76 70 77
REMARK SMILES IDX 47 78 48 79 56 80 49 81 51 82 57 83 50 84 52 85 53 86 54 87
REMARK SMILES IDX 55 88
REMARK H PARENT 14 6 18 22 77 41 45 52
REMARK Flexibility Score: inf
ROOT
ATOM      1  C   UNL A   1      31.511  32.020  26.876  1.00  0.00     0.042 C 
ENDROOT
BRANCH   1   2
ATOM      2  C   UNL A   1      31.804  30.722  26.134  1.00  0.00     0.117 C 
BRANCH   2   3
ATOM      3  N   UNL A   1      31.720  29.568  27.013  1.00  0.00    -0.355 N 
ATOM      4  C   UNL A   1      31.820  28.221  26.832  1.00  0.00     0.230 C 
ATOM      5  O   UNL A   1      31.635  27.588  27.875  1.00  0.00    -0.274 OA
ATOM      6  H   UNL A   1      31.554  29.816  27.952  1.00  0.00     0.163 HD
BRANCH   4   7
ATOM      7  C   UNL A   1      32.183  27.578  25.455  1.00  0.00     0.068 C 
ATOM      8  C   UNL A   1      33.313  28.452  24.850  1.00  0.00     0.026 C 
ATOM      9  C   UNL A   1      30.916  27.546  24.571  1.00  0.00     0.026 C 
BRANCH   7  10
ATOM     10  C   UNL A   1      32.739  26.115  25.462  1.00  0.00    -0.031 A 
ATOM     11  C   UNL A   1      32.469  23.650  25.536  1.00  0.00     0.036 A 
ATOM     12  C   UNL A   1      33.860  23.521  25.620  1.00  0.00     0.026 A 
ATOM     13  C   UNL A   1      31.943  24.955  25.431  1.00  0.00     0.030 A 
ATOM     14  C   UNL A   1      34.688  24.638  25.596  1.00  0.00     0.002 A 
ATOM     15  C   UNL A   1      34.134  25.913  25.520  1.00  0.00     0.005 A 
BRANCH  11  16
ATOM     16  N   UNL A   1      31.652  22.518  25.575  1.00  0.00    -0.378 N 
ATOM     17  C   UNL A   1      30.394  22.563  26.308  1.00  0.00     0.143 C 
ATOM     18  C   UNL A   1      32.327  21.231  25.470  1.00  0.00     0.143 C 
ENDBRANCH  11  16
ENDBRANCH   7  10
ENDBRANCH   4   7
ENDBRANCH   2   3
ENDBRANCH   1   2
BRANCH   1  19
ATOM     19  C   UNL A   1      32.756  32.744  27.369  1.00  0.00     0.118 C 
BRANCH  19  20
ATOM     20  N   UNL A   1      32.505  34.145  27.686  1.00  0.00    -0.352 N 
ATOM     21  C   UNL A   1      33.053  34.936  28.665  1.00  0.00     0.251 C 
ATOM     22  H   UNL A   1      31.841  34.591  27.111  1.00  0.00     0.163 HD
ATOM     23  O   UNL A   1      32.560  36.038  28.905  1.00  0.00    -0.269 OA
BRANCH  21  24
ATOM     24  C   UNL A   1      34.216  34.457  29.439  1.00  0.00     0.039 A 
ATOM     25  C   UNL A   1      34.009  33.882  30.694  1.00  0.00     0.014 A 
ATOM     26  C   UNL A   1      35.510  34.571  28.924  1.00  0.00     0.014 A 
ATOM     27  C   UNL A   1      35.092  33.355  31.401  1.00  0.00     0.010 A 
ATOM     28  C   UNL A   1      36.571  33.961  29.583  1.00  0.00     0.010 A 
ATOM     29  C   UNL A   1      36.376  33.353  30.832  1.00  0.00    -0.014 A 
BRANCH  29  30
ATOM     30  C   UNL A   1      37.528  32.714  31.517  1.00  0.00     0.031 A 
ATOM     31  C   UNL A   1      38.242  31.553  30.877  1.00  0.00     0.074 A 
ATOM     32  C   UNL A   1      37.873  33.118  32.757  1.00  0.00     0.049 A 
ATOM     33  N   UNL A   1      39.216  30.822  31.351  1.00  0.00    -0.248 NA
ATOM     34  C   UNL A   1      37.780  31.140  29.540  1.00  0.00     0.031 C 
ATOM     35  C   UNL A   1      37.211  34.182  33.515  1.00  0.00     0.029 A 
ATOM     36  N   UNL A   1      38.849  32.664  33.608  1.00  0.00    -0.354 N 
ATOM     37  C   UNL A   1      39.460  29.845  30.394  1.00  0.00     0.074 A 
ATOM     38  C   UNL A   1      38.506  30.052  29.327  1.00  0.00     0.031 C 
ATOM     39  C   UNL A   1      37.803  34.304  34.713  1.00  0.00     0.029 A 
ATOM     40  C   UNL A   1      38.859  33.305  34.826  1.00  0.00     0.049 A 
ATOM     41  H   UNL A   1      39.482  31.949  33.370  1.00  0.00     0.167 HD
ATOM     42  C   UNL A   1      40.410  28.881  30.386  1.00  0.00     0.034 A 
ATOM     43  C   UNL A   1      39.624  33.099  35.917  1.00  0.00     0.034 A 
ATOM     44  C   UNL A   1      41.380  28.700  31.432  1.00  0.00     0.049 A 
ATOM     45  C   UNL A   1      40.685  32.035  35.875  1.00  0.00     0.074 A 
ATOM     46  C   UNL A   1      42.436  27.808  31.481  1.00  0.00     0.029 A 
ATOM     47  N   UNL A   1      41.406  29.416  32.619  1.00  0.00    -0.354 N 
ATOM     48  N   UNL A   1      41.001  31.221  34.896  1.00  0.00    -0.248 NA
ATOM     49  C   UNL A   1      41.522  31.882  37.074  1.00  0.00     0.031 C 
ATOM     50  C   UNL A   1      43.080  27.961  32.712  1.00  0.00     0.029 A 
ATOM     51  C   UNL A   1      42.450  28.977  33.414  1.00  0.00     0.049 A 
ATOM     52  H   UNL A   1      40.774  30.133  32.861  1.00  0.00     0.167 HD
ATOM     53  C   UNL A   1      42.092  30.487  35.345  1.00  0.00     0.074 A 
ATOM     54  C   UNL A   1      42.397  30.968  36.678  1.00  0.00     0.031 C 
ATOM     55  C   UNL A   1      42.773  29.498  34.717  1.00  0.00     0.034 A 
BRANCH  42  56
ATOM     56  C   UNL A   1      40.477  27.971  29.186  1.00  0.00     0.023 A 
ATOM     57  C   UNL A   1      39.571  26.897  29.073  1.00  0.00     0.012 A 
ATOM     58  C   UNL A   1      41.395  28.212  28.144  1.00  0.00     0.148 A 
ATOM     59  C   UNL A   1      39.603  26.053  27.963  1.00  0.00     0.002 A 
ATOM     60  C   UNL A   1      41.387  27.397  27.018  1.00  0.00     0.091 A 
ATOM     61  F   UNL A   1      42.261  29.227  28.277  1.00  0.00    -0.205 F 
ATOM     62  C   UNL A   1      40.501  26.309  26.933  1.00  0.00     0.022 A 
BRANCH  60  63
ATOM     63  S   UNL A   1      42.448  27.691  25.599  1.00  0.00     0.127 S 
ATOM     64  O   UNL A   1      43.772  27.698  26.217  1.00  0.00    -0.237 OA
ATOM     65  O   UNL A   1      42.171  26.522  24.763  1.00  0.00    -0.237 OA
ATOM     66  O   UNL A   1      42.018  28.961  25.031  1.00  0.00    -0.744 OA
ENDBRANCH  60  63
ENDBRANCH  42  56
BRANCH  43  67
ATOM     67  C   UNL A   1      39.450  33.959  37.123  1.00  0.00     0.023 A 
ATOM     68  C   UNL A   1      39.881  35.299  37.086  1.00  0.00     0.012 A 
ATOM     69  C   UNL A   1      38.843  33.464  38.294  1.00  0.00     0.148 A 
ATOM     70  C   UNL A   1      39.745  36.122  38.205  1.00  0.00     0.002 A 
ATOM     71  C   UNL A   1      38.658  34.305  39.385  1.00  0.00     0.091 A 
ATOM     72  F   UNL A   1      38.447  32.184  38.311  1.00  0.00    -0.205 F 
ATOM     73  C   UNL A   1      39.125  35.629  39.350  1.00  0.00     0.022 A 
BRANCH  71  74
ATOM     74  S   UNL A   1      37.755  33.797  40.852  1.00  0.00     0.127 S 
ATOM     75  O   UNL A   1      37.564  35.070  41.543  1.00  0.00    -0.237 OA
ATOM     76  O   UNL A   1      36.541  33.222  40.272  1.00  0.00    -0.237 OA
ATOM     77  O   UNL A   1      38.610  32.833  41.528  1.00  0.00    -0.744 OA
ENDBRANCH  71  74
ENDBRANCH  43  67
BRANCH  55  78
ATOM     78  C   UNL A   1      43.950  28.891  35.438  1.00  0.00     0.023 A 
ATOM     79  C   UNL A   1      45.234  29.451  35.288  1.00  0.00     0.012 A 
ATOM     80  C   UNL A   1      43.764  27.812  36.325  1.00  0.00     0.148 A 
ATOM     81  C   UNL A   1      46.321  28.925  35.985  1.00  0.00     0.002 A 
ATOM     82  C   UNL A   1      44.841  27.329  37.058  1.00  0.00     0.091 A 
ATOM     83  F   UNL A   1      42.537  27.284  36.442  1.00  0.00    -0.205 F 
ATOM     84  C   UNL A   1      46.123  27.875  36.878  1.00  0.00     0.022 A 
BRANCH  82  85
ATOM     85  S   UNL A   1      44.664  26.047  38.303  1.00  0.00     0.127 S 
ATOM     86  O   UNL A   1      44.045  24.969  37.535  1.00  0.00    -0.237 OA
ATOM     87  O   UNL A   1      46.053  25.801  38.691  1.00  0.00    -0.237 OA
ATOM     88  O   UNL A   1      43.834  26.618  39.355  1.00  0.00    -0.744 OA
ENDBRANCH  82  85
ENDBRANCH  55  78
ENDBRANCH  29  30
ENDBRANCH  21  24
ENDBRANCH  19  20
ENDBRANCH   1  19
TORSDOF 15
ENDMDL
