MODEL 1
REMARK VINA RESULT:     -11.2      0.000      0.000
REMARK SMILES N#C[C@@H](c1ccccc1)[C@H](CC(=O)NCCCNC(=O)c1ccc(-c2c3nc(c(-c4cccc(S(=O)(=O)[O-])c4F)c4ccc([nH]4)c(-c4cccc(S(=O)(=O)[O-])c4F)c4nc(c(-c5cccc(S(=O)(=O)[O-])c5F)c5ccc2[nH]5)C=C4)C=C3)cc1)c1ccccc1
REMARK SMILES IDX 16 1 15 2 14 3 12 4 13 5 11 7 10 8 3 9 2 10 1 11 4 12 5 13
REMARK SMILES IDX 9 14 6 15 8 16 7 17 84 18 85 19 89 20 86 21 88 22 87 23
REMARK SMILES IDX 17 24 18 25 19 26 20 28 21 29 22 30 83 31 23 32 82 33 24 34
REMARK SMILES IDX 25 35 26 36 76 37 27 38 81 39 75 40 77 41 28 42 80 43 74 44
REMARK SMILES IDX 73 45 29 47 61 48 41 49 60 50 42 51 45 52 59 53 78 54 43 55
REMARK SMILES IDX 44 56 58 58 79 59 46 60 30 61 31 62 39 63 32 64 34 65 40 66
REMARK SMILES IDX 33 67 35 68 36 69 37 70 38 71 62 72 63 73 71 74 64 75 66 76
REMARK SMILES IDX 72 77 65 78 67 79 68 80 69 81 70 82 47 83 48 84 56 85 49 86
REMARK SMILES IDX 51 87 57 88 50 89 52 90 53 91 54 92 55 93
REMARK H PARENT 14 6 18 27 77 46 45 57
REMARK Flexibility Score: inf
ROOT
ATOM      1  C   UNL A   1      30.761  32.010  25.450  1.00  0.00     0.042 C 
ENDROOT
BRANCH   1   2
ATOM      2  C   UNL A   1      30.275  30.627  25.029  1.00  0.00     0.117 C 
BRANCH   2   3
ATOM      3  N   UNL A   1      29.931  30.507  23.621  1.00  0.00    -0.356 N 
ATOM      4  C   UNL A   1      30.402  29.700  22.632  1.00  0.00     0.220 C 
ATOM      5  O   UNL A   1      29.772  29.681  21.573  1.00  0.00    -0.275 OA
ATOM      6  H   UNL A   1      29.225  31.127  23.327  1.00  0.00     0.163 HD
BRANCH   4   7
ATOM      7  C   UNL A   1      31.615  28.804  22.811  1.00  0.00     0.110 C 
BRANCH   7   8
ATOM      8  C   UNL A   1      31.556  27.711  23.912  1.00  0.00     0.050 C 
BRANCH   8   9
ATOM      9  C   UNL A   1      31.761  26.217  23.443  1.00  0.00     0.130 C 
BRANCH   9  10
ATOM     10  C   UNL A   1      32.825  26.017  22.439  1.00  0.00     0.071 C 
ATOM     11  N   UNL A   1      33.653  25.924  21.627  1.00  0.00    -0.198 NA
ENDBRANCH   9  10
BRANCH   9  12
ATOM     12  C   UNL A   1      31.897  25.172  24.568  1.00  0.00    -0.030 A 
ATOM     13  C   UNL A   1      30.777  24.635  25.230  1.00  0.00     0.005 A 
ATOM     14  C   UNL A   1      33.160  24.782  25.040  1.00  0.00     0.005 A 
ATOM     15  C   UNL A   1      30.895  23.702  26.260  1.00  0.00     0.000 A 
ATOM     16  C   UNL A   1      33.282  23.878  26.107  1.00  0.00     0.000 A 
ATOM     17  C   UNL A   1      32.151  23.328  26.706  1.00  0.00     0.000 A 
ENDBRANCH   9  12
ENDBRANCH   8   9
BRANCH   8  18
ATOM     18  C   UNL A   1      32.268  28.141  25.182  1.00  0.00    -0.043 A 
ATOM     19  C   UNL A   1      31.624  27.974  26.423  1.00  0.00     0.004 A 
ATOM     20  C   UNL A   1      33.570  28.664  25.169  1.00  0.00     0.004 A 
ATOM     21  C   UNL A   1      32.293  28.250  27.617  1.00  0.00     0.000 A 
ATOM     22  C   UNL A   1      34.257  28.883  26.367  1.00  0.00     0.000 A 
ATOM     23  C   UNL A   1      33.619  28.678  27.589  1.00  0.00     0.000 A 
ENDBRANCH   8  18
ENDBRANCH   7   8
ENDBRANCH   4   7
ENDBRANCH   2   3
ENDBRANCH   1   2
BRANCH   1  24
ATOM     24  C   UNL A   1      31.826  32.072  26.545  1.00  0.00     0.118 C 
BRANCH  24  25
ATOM     25  N   UNL A   1      32.106  33.453  26.889  1.00  0.00    -0.352 N 
ATOM     26  C   UNL A   1      32.910  33.963  27.878  1.00  0.00     0.251 C 
ATOM     27  H   UNL A   1      31.653  34.124  26.330  1.00  0.00     0.163 HD
ATOM     28  O   UNL A   1      32.583  35.053  28.356  1.00  0.00    -0.269 OA
BRANCH  26  29
ATOM     29  C   UNL A   1      34.160  33.304  28.361  1.00  0.00     0.039 A 
ATOM     30  C   UNL A   1      34.022  32.053  28.980  1.00  0.00     0.014 A 
ATOM     31  C   UNL A   1      35.414  33.923  28.389  1.00  0.00     0.014 A 
ATOM     32  C   UNL A   1      35.100  31.456  29.644  1.00  0.00     0.010 A 
ATOM     33  C   UNL A   1      36.516  33.286  28.991  1.00  0.00     0.010 A 
ATOM     34  C   UNL A   1      36.366  32.061  29.660  1.00  0.00    -0.014 A 
BRANCH  34  35
ATOM     35  C   UNL A   1      37.495  31.404  30.390  1.00  0.00     0.031 A 
ATOM     36  C   UNL A   1      38.366  30.360  29.731  1.00  0.00     0.074 A 
ATOM     37  C   UNL A   1      37.756  31.755  31.667  1.00  0.00     0.049 A 
ATOM     38  N   UNL A   1      39.425  29.749  30.205  1.00  0.00    -0.248 NA
ATOM     39  C   UNL A   1      37.997  29.938  28.371  1.00  0.00     0.031 C 
ATOM     40  C   UNL A   1      36.968  32.704  32.454  1.00  0.00     0.029 A 
ATOM     41  N   UNL A   1      38.748  31.354  32.529  1.00  0.00    -0.354 N 
ATOM     42  C   UNL A   1      39.827  28.849  29.222  1.00  0.00     0.074 A 
ATOM     43  C   UNL A   1      38.883  28.980  28.133  1.00  0.00     0.031 C 
ATOM     44  C   UNL A   1      37.513  32.825  33.674  1.00  0.00     0.029 A 
ATOM     45  C   UNL A   1      38.663  31.932  33.775  1.00  0.00     0.049 A 
ATOM     46  H   UNL A   1      39.453  30.713  32.279  1.00  0.00     0.167 HD
ATOM     47  C   UNL A   1      40.888  28.004  29.215  1.00  0.00     0.034 A 
ATOM     48  C   UNL A   1      39.410  31.758  34.883  1.00  0.00     0.034 A 
ATOM     49  C   UNL A   1      41.842  27.881  30.289  1.00  0.00     0.049 A 
ATOM     50  C   UNL A   1      40.591  30.830  34.845  1.00  0.00     0.074 A 
ATOM     51  C   UNL A   1      42.995  27.114  30.332  1.00  0.00     0.029 A 
ATOM     52  N   UNL A   1      41.741  28.511  31.520  1.00  0.00    -0.354 N 
ATOM     53  N   UNL A   1      41.039  30.104  33.849  1.00  0.00    -0.248 NA
ATOM     54  C   UNL A   1      41.394  30.725  36.072  1.00  0.00     0.031 C 
ATOM     55  C   UNL A   1      43.557  27.234  31.608  1.00  0.00     0.029 A 
ATOM     56  C   UNL A   1      42.793  28.129  32.339  1.00  0.00     0.049 A 
ATOM     57  H   UNL A   1      41.027  29.139  31.774  1.00  0.00     0.167 HD
ATOM     58  C   UNL A   1      42.190  29.481  34.319  1.00  0.00     0.074 A 
ATOM     59  C   UNL A   1      42.387  29.940  35.678  1.00  0.00     0.031 C 
ATOM     60  C   UNL A   1      43.003  28.601  33.684  1.00  0.00     0.034 A 
BRANCH  47  61
ATOM     61  C   UNL A   1      41.091  27.134  27.994  1.00  0.00     0.023 A 
ATOM     62  C   UNL A   1      41.705  27.664  26.840  1.00  0.00     0.012 A 
ATOM     63  C   UNL A   1      40.727  25.772  28.015  1.00  0.00     0.148 A 
ATOM     64  C   UNL A   1      41.912  26.866  25.714  1.00  0.00     0.002 A 
ATOM     65  C   UNL A   1      40.984  24.971  26.907  1.00  0.00     0.091 A 
ATOM     66  F   UNL A   1      40.134  25.285  29.113  1.00  0.00    -0.205 F 
ATOM     67  C   UNL A   1      41.561  25.520  25.751  1.00  0.00     0.022 A 
BRANCH  65  68
ATOM     68  S   UNL A   1      40.651  23.205  26.887  1.00  0.00     0.127 S 
ATOM     69  O   UNL A   1      41.145  22.799  28.202  1.00  0.00    -0.237 OA
ATOM     70  O   UNL A   1      39.196  23.170  26.746  1.00  0.00    -0.237 OA
ATOM     71  O   UNL A   1      41.387  22.668  25.751  1.00  0.00    -0.744 OA
ENDBRANCH  65  68
ENDBRANCH  47  61
BRANCH  48  72
ATOM     72  C   UNL A   1      39.065  32.499  36.130  1.00  0.00     0.023 A 
ATOM     73  C   UNL A   1      39.551  33.805  36.336  1.00  0.00     0.012 A 
ATOM     74  C   UNL A   1      38.234  31.913  37.105  1.00  0.00     0.148 A 
ATOM     75  C   UNL A   1      39.241  34.501  37.506  1.00  0.00     0.002 A 
ATOM     76  C   UNL A   1      37.878  32.635  38.236  1.00  0.00     0.091 A 
ATOM     77  F   UNL A   1      37.792  30.665  36.893  1.00  0.00    -0.205 F 
ATOM     78  C   UNL A   1      38.397  33.921  38.449  1.00  0.00     0.022 A 
BRANCH  76  79
ATOM     79  S   UNL A   1      36.687  32.023  39.431  1.00  0.00     0.127 S 
ATOM     80  O   UNL A   1      37.027  30.603  39.492  1.00  0.00    -0.237 OA
ATOM     81  O   UNL A   1      37.038  32.794  40.624  1.00  0.00    -0.237 OA
ATOM     82  O   UNL A   1      35.375  32.332  38.880  1.00  0.00    -0.744 OA
ENDBRANCH  76  79
ENDBRANCH  48  72
BRANCH  60  83
ATOM     83  C   UNL A   1      44.211  28.099  34.440  1.00  0.00     0.023 A 
ATOM     84  C   UNL A   1      45.436  28.794  34.365  1.00  0.00     0.012 A 
ATOM     85  C   UNL A   1      44.123  26.947  35.245  1.00  0.00     0.148 A 
ATOM     86  C   UNL A   1      46.566  28.316  35.030  1.00  0.00     0.002 A 
ATOM     87  C   UNL A   1      45.238  26.509  35.952  1.00  0.00     0.091 A 
ATOM     88  F   UNL A   1      42.957  26.288  35.294  1.00  0.00    -0.205 F 
ATOM     89  C   UNL A   1      46.465  27.180  35.830  1.00  0.00     0.022 A 
BRANCH  87  90
ATOM     90  S   UNL A   1      45.176  25.114  37.081  1.00  0.00     0.127 S 
ATOM     91  O   UNL A   1      46.552  25.069  37.574  1.00  0.00    -0.237 OA
ATOM     92  O   UNL A   1      44.189  25.559  38.067  1.00  0.00    -0.237 OA
ATOM     93  O   UNL A   1      44.760  23.968  36.285  1.00  0.00    -0.744 OA
ENDBRANCH  87  90
ENDBRANCH  60  83
ENDBRANCH  34  35
ENDBRANCH  26  29
ENDBRANCH  24  25
ENDBRANCH   1  24
TORSDOF 18
ENDMDL
MODEL 2
REMARK VINA RESULT:     -11.2      3.874      8.982
REMARK SMILES N#C[C@@H](c1ccccc1)[C@H](CC(=O)NCCCNC(=O)c1ccc(-c2c3nc(c(-c4cccc(S(=O)(=O)[O-])c4F)c4ccc([nH]4)c(-c4cccc(S(=O)(=O)[O-])c4F)c4nc(c(-c5cccc(S(=O)(=O)[O-])c5F)c5ccc2[nH]5)C=C4)C=C3)cc1)c1ccccc1
REMARK SMILES IDX 16 1 15 2 14 3 12 4 13 5 11 7 10 8 3 9 2 10 1 11 4 12 5 13
REMARK SMILES IDX 9 14 6 15 8 16 7 17 84 18 85 19 89 20 86 21 88 22 87 23
REMARK SMILES IDX 17 24 18 25 19 26 20 28 21 29 22 30 83 31 23 32 82 33 24 34
REMARK SMILES IDX 25 35 26 36 76 37 27 38 81 39 75 40 77 41 28 42 80 43 74 44
REMARK SMILES IDX 73 45 29 47 61 48 41 49 60 50 42 51 45 52 59 53 78 54 43 55
REMARK SMILES IDX 44 56 58 58 79 59 46 60 30 61 31 62 39 63 32 64 34 65 40 66
REMARK SMILES IDX 33 67 35 68 36 69 37 70 38 71 62 72 63 73 71 74 64 75 66 76
REMARK SMILES IDX 72 77 65 78 67 79 68 80 69 81 70 82 47 83 48 84 56 85 49 86
REMARK SMILES IDX 51 87 57 88 50 89 52 90 53 91 54 92 55 93
REMARK H PARENT 14 6 18 27 77 46 45 57
REMARK Flexibility Score: inf
ROOT
ATOM      1  C   UNL A   1      32.776  27.417  26.136  1.00  0.00     0.042 C 
ENDROOT
BRANCH   1   2
ATOM      2  C   UNL A   1      32.754  25.984  25.613  1.00  0.00     0.117 C 
BRANCH   2   3
ATOM      3  N   UNL A   1      32.519  24.970  26.629  1.00  0.00    -0.356 N 
ATOM      4  C   UNL A   1      32.306  23.630  26.548  1.00  0.00     0.220 C 
ATOM      5  O   UNL A   1      32.342  22.989  27.600  1.00  0.00    -0.275 OA
ATOM      6  H   UNL A   1      32.513  25.320  27.549  1.00  0.00     0.163 HD
BRANCH   4   7
ATOM      7  C   UNL A   1      32.087  22.911  25.228  1.00  0.00     0.110 C 
BRANCH   7   8
ATOM      8  C   UNL A   1      32.845  21.577  24.992  1.00  0.00     0.050 C 
BRANCH   8   9
ATOM      9  C   UNL A   1      32.111  20.489  24.113  1.00  0.00     0.130 C 
BRANCH   9  10
ATOM     10  C   UNL A   1      31.994  20.817  22.678  1.00  0.00     0.071 C 
ATOM     11  N   UNL A   1      31.968  21.056  21.540  1.00  0.00    -0.198 NA
ENDBRANCH   9  10
BRANCH   9  12
ATOM     12  C   UNL A   1      32.611  19.041  24.281  1.00  0.00    -0.030 A 
ATOM     13  C   UNL A   1      32.608  18.388  25.528  1.00  0.00     0.005 A 
ATOM     14  C   UNL A   1      33.178  18.343  23.203  1.00  0.00     0.005 A 
ATOM     15  C   UNL A   1      33.075  17.084  25.690  1.00  0.00     0.000 A 
ATOM     16  C   UNL A   1      33.690  17.048  23.372  1.00  0.00     0.000 A 
ATOM     17  C   UNL A   1      33.625  16.413  24.611  1.00  0.00     0.000 A 
ENDBRANCH   9  12
ENDBRANCH   8   9
BRANCH   8  18
ATOM     18  C   UNL A   1      34.323  21.799  24.726  1.00  0.00    -0.043 A 
ATOM     19  C   UNL A   1      35.270  21.005  25.400  1.00  0.00     0.004 A 
ATOM     20  C   UNL A   1      34.782  22.743  23.795  1.00  0.00     0.004 A 
ATOM     21  C   UNL A   1      36.629  21.103  25.094  1.00  0.00     0.000 A 
ATOM     22  C   UNL A   1      36.135  22.797  23.449  1.00  0.00     0.000 A 
ATOM     23  C   UNL A   1      37.058  21.979  24.099  1.00  0.00     0.000 A 
ENDBRANCH   8  18
ENDBRANCH   7   8
ENDBRANCH   4   7
ENDBRANCH   2   3
ENDBRANCH   1   2
BRANCH   1  24
ATOM     24  C   UNL A   1      34.133  28.119  26.190  1.00  0.00     0.118 C 
BRANCH  24  25
ATOM     25  N   UNL A   1      33.954  29.524  26.502  1.00  0.00    -0.352 N 
ATOM     26  C   UNL A   1      34.457  30.261  27.546  1.00  0.00     0.251 C 
ATOM     27  H   UNL A   1      33.388  30.025  25.872  1.00  0.00     0.163 HD
ATOM     28  O   UNL A   1      33.774  31.208  27.941  1.00  0.00    -0.269 OA
BRANCH  26  29
ATOM     29  C   UNL A   1      35.785  30.008  28.182  1.00  0.00     0.039 A 
ATOM     30  C   UNL A   1      36.919  30.168  27.372  1.00  0.00     0.014 A 
ATOM     31  C   UNL A   1      35.954  29.465  29.459  1.00  0.00     0.014 A 
ATOM     32  C   UNL A   1      38.182  29.757  27.813  1.00  0.00     0.010 A 
ATOM     33  C   UNL A   1      37.236  29.123  29.930  1.00  0.00     0.010 A 
ATOM     34  C   UNL A   1      38.363  29.229  29.101  1.00  0.00    -0.014 A 
BRANCH  34  35
ATOM     35  C   UNL A   1      39.724  28.786  29.538  1.00  0.00     0.031 A 
ATOM     36  C   UNL A   1      40.463  29.482  30.658  1.00  0.00     0.074 A 
ATOM     37  C   UNL A   1      40.308  27.733  28.931  1.00  0.00     0.049 A 
ATOM     38  N   UNL A   1      41.617  29.177  31.200  1.00  0.00    -0.248 NA
ATOM     39  C   UNL A   1      39.836  30.680  31.235  1.00  0.00     0.031 C 
ATOM     40  C   UNL A   1      39.744  26.997  27.799  1.00  0.00     0.029 A 
ATOM     41  N   UNL A   1      41.504  27.100  29.173  1.00  0.00    -0.354 N 
ATOM     42  C   UNL A   1      41.871  30.158  32.154  1.00  0.00     0.074 A 
ATOM     43  C   UNL A   1      40.758  31.083  32.099  1.00  0.00     0.031 C 
ATOM     44  C   UNL A   1      40.581  26.007  27.454  1.00  0.00     0.029 A 
ATOM     45  C   UNL A   1      41.763  26.060  28.310  1.00  0.00     0.049 A 
ATOM     46  H   UNL A   1      42.119  27.366  29.895  1.00  0.00     0.167 HD
ATOM     47  C   UNL A   1      42.919  30.276  33.006  1.00  0.00     0.034 A 
ATOM     48  C   UNL A   1      42.832  25.246  28.200  1.00  0.00     0.034 A 
ATOM     49  C   UNL A   1      44.022  29.351  33.077  1.00  0.00     0.049 A 
ATOM     50  C   UNL A   1      43.973  25.385  29.168  1.00  0.00     0.074 A 
ATOM     51  C   UNL A   1      45.084  29.344  33.968  1.00  0.00     0.029 A 
ATOM     52  N   UNL A   1      44.228  28.289  32.210  1.00  0.00    -0.354 N 
ATOM     53  N   UNL A   1      44.116  26.229  30.160  1.00  0.00    -0.248 NA
ATOM     54  C   UNL A   1      45.084  24.433  29.025  1.00  0.00     0.031 C 
ATOM     55  C   UNL A   1      45.960  28.316  33.601  1.00  0.00     0.029 A 
ATOM     56  C   UNL A   1      45.412  27.639  32.525  1.00  0.00     0.049 A 
ATOM     57  H   UNL A   1      43.621  28.034  31.478  1.00  0.00     0.167 HD
ATOM     58  C   UNL A   1      45.316  25.893  30.777  1.00  0.00     0.074 A 
ATOM     59  C   UNL A   1      45.843  24.747  30.065  1.00  0.00     0.031 C 
ATOM     60  C   UNL A   1      45.928  26.486  31.831  1.00  0.00     0.034 A 
BRANCH  47  61
ATOM     61  C   UNL A   1      42.932  31.456  33.953  1.00  0.00     0.023 A 
ATOM     62  C   UNL A   1      43.489  32.687  33.545  1.00  0.00     0.012 A 
ATOM     63  C   UNL A   1      42.335  31.361  35.226  1.00  0.00     0.148 A 
ATOM     64  C   UNL A   1      43.490  33.786  34.404  1.00  0.00     0.002 A 
ATOM     65  C   UNL A   1      42.295  32.476  36.056  1.00  0.00     0.091 A 
ATOM     66  F   UNL A   1      41.820  30.183  35.605  1.00  0.00    -0.205 F 
ATOM     67  C   UNL A   1      42.886  33.685  35.654  1.00  0.00     0.022 A 
BRANCH  65  68
ATOM     68  S   UNL A   1      41.462  32.473  37.648  1.00  0.00     0.127 S 
ATOM     69  O   UNL A   1      42.241  31.479  38.385  1.00  0.00    -0.237 OA
ATOM     70  O   UNL A   1      41.653  33.851  38.097  1.00  0.00    -0.237 OA
ATOM     71  O   UNL A   1      40.078  32.105  37.380  1.00  0.00    -0.744 OA
ENDBRANCH  65  68
ENDBRANCH  47  61
BRANCH  48  72
ATOM     72  C   UNL A   1      42.863  24.209  27.129  1.00  0.00     0.023 A 
ATOM     73  C   UNL A   1      43.585  24.439  25.942  1.00  0.00     0.012 A 
ATOM     74  C   UNL A   1      42.193  22.982  27.299  1.00  0.00     0.148 A 
ATOM     75  C   UNL A   1      43.610  23.478  24.930  1.00  0.00     0.002 A 
ATOM     76  C   UNL A   1      42.275  22.006  26.317  1.00  0.00     0.091 A 
ATOM     77  F   UNL A   1      41.504  22.790  28.433  1.00  0.00    -0.205 F 
ATOM     78  C   UNL A   1      42.965  22.259  25.122  1.00  0.00     0.022 A 
BRANCH  76  79
ATOM     79  S   UNL A   1      41.596  20.359  26.539  1.00  0.00     0.127 S 
ATOM     80  O   UNL A   1      40.159  20.619  26.487  1.00  0.00    -0.237 OA
ATOM     81  O   UNL A   1      42.139  19.654  25.378  1.00  0.00    -0.237 OA
ATOM     82  O   UNL A   1      42.104  19.888  27.820  1.00  0.00    -0.744 OA
ENDBRANCH  76  79
ENDBRANCH  48  72
BRANCH  60  83
ATOM     83  C   UNL A   1      47.228  25.883  32.311  1.00  0.00     0.023 A 
ATOM     84  C   UNL A   1      47.237  24.978  33.392  1.00  0.00     0.012 A 
ATOM     85  C   UNL A   1      48.442  26.200  31.670  1.00  0.00     0.148 A 
ATOM     86  C   UNL A   1      48.438  24.446  33.864  1.00  0.00     0.002 A 
ATOM     87  C   UNL A   1      49.628  25.620  32.108  1.00  0.00     0.091 A 
ATOM     88  F   UNL A   1      48.421  27.073  30.654  1.00  0.00    -0.205 F 
ATOM     89  C   UNL A   1      49.630  24.760  33.217  1.00  0.00     0.022 A 
BRANCH  87  90
ATOM     90  S   UNL A   1      51.196  25.889  31.277  1.00  0.00     0.127 S 
ATOM     91  O   UNL A   1      52.019  24.820  31.839  1.00  0.00    -0.237 OA
ATOM     92  O   UNL A   1      50.835  25.705  29.870  1.00  0.00    -0.237 OA
ATOM     93  O   UNL A   1      51.610  27.243  31.622  1.00  0.00    -0.744 OA
ENDBRANCH  87  90
ENDBRANCH  60  83
ENDBRANCH  34  35
ENDBRANCH  26  29
ENDBRANCH  24  25
ENDBRANCH   1  24
TORSDOF 18
ENDMDL
MODEL 3
REMARK VINA RESULT:     -11.2      2.035      7.874
REMARK SMILES N#C[C@@H](c1ccccc1)[C@H](CC(=O)NCCCNC(=O)c1ccc(-c2c3nc(c(-c4cccc(S(=O)(=O)[O-])c4F)c4ccc([nH]4)c(-c4cccc(S(=O)(=O)[O-])c4F)c4nc(c(-c5cccc(S(=O)(=O)[O-])c5F)c5ccc2[nH]5)C=C4)C=C3)cc1)c1ccccc1
REMARK SMILES IDX 16 1 15 2 14 3 12 4 13 5 11 7 10 8 3 9 2 10 1 11 4 12 5 13
REMARK SMILES IDX 9 14 6 15 8 16 7 17 84 18 85 19 89 20 86 21 88 22 87 23
REMARK SMILES IDX 17 24 18 25 19 26 20 28 21 29 22 30 83 31 23 32 82 33 24 34
REMARK SMILES IDX 25 35 26 36 76 37 27 38 81 39 75 40 77 41 28 42 80 43 74 44
REMARK SMILES IDX 73 45 29 47 61 48 41 49 60 50 42 51 45 52 59 53 78 54 43 55
REMARK SMILES IDX 44 56 58 58 79 59 46 60 30 61 31 62 39 63 32 64 34 65 40 66
REMARK SMILES IDX 33 67 35 68 36 69 37 70 38 71 62 72 63 73 71 74 64 75 66 76
REMARK SMILES IDX 72 77 65 78 67 79 68 80 69 81 70 82 47 83 48 84 56 85 49 86
REMARK SMILES IDX 51 87 57 88 50 89 52 90 53 91 54 92 55 93
REMARK H PARENT 14 6 18 27 77 46 45 57
REMARK Flexibility Score: inf
ROOT
ATOM      1  C   UNL A   1      32.670  30.157  25.761  1.00  0.00     0.042 C 
ENDROOT
BRANCH   1   2
ATOM      2  C   UNL A   1      32.907  28.666  25.979  1.00  0.00     0.117 C 
BRANCH   2   3
ATOM      3  N   UNL A   1      31.731  27.921  26.400  1.00  0.00    -0.356 N 
ATOM      4  C   UNL A   1      31.308  26.656  26.132  1.00  0.00     0.220 C 
ATOM      5  O   UNL A   1      30.367  26.224  26.801  1.00  0.00    -0.275 OA
ATOM      6  H   UNL A   1      31.127  28.427  26.991  1.00  0.00     0.163 HD
BRANCH   4   7
ATOM      7  C   UNL A   1      31.980  25.766  25.101  1.00  0.00     0.110 C 
BRANCH   7   8
ATOM      8  C   UNL A   1      31.836  26.152  23.604  1.00  0.00     0.050 C 
BRANCH   8   9
ATOM      9  C   UNL A   1      31.983  24.983  22.552  1.00  0.00     0.130 C 
BRANCH   9  10
ATOM     10  C   UNL A   1      32.555  25.380  21.251  1.00  0.00     0.071 C 
ATOM     11  N   UNL A   1      33.005  25.627  20.206  1.00  0.00    -0.198 NA
ENDBRANCH   9  10
BRANCH   9  12
ATOM     12  C   UNL A   1      32.677  23.705  23.062  1.00  0.00    -0.030 A 
ATOM     13  C   UNL A   1      31.949  22.573  23.477  1.00  0.00     0.005 A 
ATOM     14  C   UNL A   1      34.071  23.654  23.220  1.00  0.00     0.005 A 
ATOM     15  C   UNL A   1      32.570  21.419  23.955  1.00  0.00     0.000 A 
ATOM     16  C   UNL A   1      34.696  22.512  23.745  1.00  0.00     0.000 A 
ATOM     17  C   UNL A   1      33.947  21.390  24.098  1.00  0.00     0.000 A 
ENDBRANCH   9  12
ENDBRANCH   8   9
BRANCH   8  18
ATOM     18  C   UNL A   1      30.715  27.151  23.376  1.00  0.00    -0.043 A 
ATOM     19  C   UNL A   1      31.018  28.413  22.833  1.00  0.00     0.004 A 
ATOM     20  C   UNL A   1      29.374  26.844  23.650  1.00  0.00     0.004 A 
ATOM     21  C   UNL A   1      30.001  29.311  22.503  1.00  0.00     0.000 A 
ATOM     22  C   UNL A   1      28.354  27.720  23.264  1.00  0.00     0.000 A 
ATOM     23  C   UNL A   1      28.668  28.952  22.694  1.00  0.00     0.000 A 
ENDBRANCH   8  18
ENDBRANCH   7   8
ENDBRANCH   4   7
ENDBRANCH   2   3
ENDBRANCH   1   2
BRANCH   1  24
ATOM     24  C   UNL A   1      31.779  30.877  26.773  1.00  0.00     0.118 C 
BRANCH  24  25
ATOM     25  N   UNL A   1      32.045  32.303  26.745  1.00  0.00    -0.352 N 
ATOM     26  C   UNL A   1      32.937  33.043  27.482  1.00  0.00     0.251 C 
ATOM     27  H   UNL A   1      31.506  32.817  26.102  1.00  0.00     0.163 HD
ATOM     28  O   UNL A   1      32.627  34.211  27.724  1.00  0.00    -0.269 OA
BRANCH  26  29
ATOM     29  C   UNL A   1      34.258  32.529  27.953  1.00  0.00     0.039 A 
ATOM     30  C   UNL A   1      34.271  31.261  28.553  1.00  0.00     0.014 A 
ATOM     31  C   UNL A   1      35.429  33.291  27.989  1.00  0.00     0.014 A 
ATOM     32  C   UNL A   1      35.413  30.786  29.207  1.00  0.00     0.010 A 
ATOM     33  C   UNL A   1      36.601  32.780  28.581  1.00  0.00     0.010 A 
ATOM     34  C   UNL A   1      36.599  31.537  29.231  1.00  0.00    -0.014 A 
BRANCH  34  35
ATOM     35  C   UNL A   1      37.799  31.007  29.951  1.00  0.00     0.031 A 
ATOM     36  C   UNL A   1      38.113  31.406  31.374  1.00  0.00     0.074 A 
ATOM     37  C   UNL A   1      38.621  30.140  29.324  1.00  0.00     0.049 A 
ATOM     38  N   UNL A   1      39.074  30.982  32.158  1.00  0.00    -0.248 NA
ATOM     39  C   UNL A   1      37.247  32.421  31.994  1.00  0.00     0.031 C 
ATOM     40  C   UNL A   1      38.481  29.705  27.933  1.00  0.00     0.029 A 
ATOM     41  N   UNL A   1      39.738  29.473  29.767  1.00  0.00    -0.354 N 
ATOM     42  C   UNL A   1      38.952  31.697  33.346  1.00  0.00     0.074 A 
ATOM     43  C   UNL A   1      37.834  32.601  33.169  1.00  0.00     0.031 C 
ATOM     44  C   UNL A   1      39.460  28.836  27.642  1.00  0.00     0.029 A 
ATOM     45  C   UNL A   1      40.326  28.681  28.807  1.00  0.00     0.049 A 
ATOM     46  H   UNL A   1      40.087  29.555  30.685  1.00  0.00     0.167 HD
ATOM     47  C   UNL A   1      39.686  31.606  34.482  1.00  0.00     0.034 A 
ATOM     48  C   UNL A   1      41.441  27.925  28.844  1.00  0.00     0.034 A 
ATOM     49  C   UNL A   1      40.789  30.697  34.671  1.00  0.00     0.049 A 
ATOM     50  C   UNL A   1      42.228  27.826  30.121  1.00  0.00     0.074 A 
ATOM     51  C   UNL A   1      41.535  30.475  35.817  1.00  0.00     0.029 A 
ATOM     52  N   UNL A   1      41.330  29.884  33.686  1.00  0.00    -0.354 N 
ATOM     53  N   UNL A   1      42.000  28.398  31.278  1.00  0.00    -0.248 NA
ATOM     54  C   UNL A   1      43.404  26.945  30.108  1.00  0.00     0.031 C 
ATOM     55  C   UNL A   1      42.561  29.575  35.508  1.00  0.00     0.029 A 
ATOM     56  C   UNL A   1      42.415  29.183  34.188  1.00  0.00     0.049 A 
ATOM     57  H   UNL A   1      40.991  29.816  32.764  1.00  0.00     0.167 HD
ATOM     58  C   UNL A   1      42.985  27.925  32.137  1.00  0.00     0.074 A 
ATOM     59  C   UNL A   1      43.791  26.994  31.375  1.00  0.00     0.031 C 
ATOM     60  C   UNL A   1      43.206  28.241  33.438  1.00  0.00     0.034 A 
BRANCH  47  61
ATOM     61  C   UNL A   1      39.321  32.514  35.636  1.00  0.00     0.023 A 
ATOM     62  C   UNL A   1      38.488  32.042  36.673  1.00  0.00     0.012 A 
ATOM     63  C   UNL A   1      39.854  33.816  35.721  1.00  0.00     0.148 A 
ATOM     64  C   UNL A   1      38.158  32.865  37.750  1.00  0.00     0.002 A 
ATOM     65  C   UNL A   1      39.561  34.612  36.824  1.00  0.00     0.091 A 
ATOM     66  F   UNL A   1      40.633  34.255  34.723  1.00  0.00    -0.205 F 
ATOM     67  C   UNL A   1      38.701  34.144  37.830  1.00  0.00     0.022 A 
BRANCH  65  68
ATOM     68  S   UNL A   1      40.281  36.240  37.064  1.00  0.00     0.127 S 
ATOM     69  O   UNL A   1      39.928  36.905  35.811  1.00  0.00    -0.237 OA
ATOM     70  O   UNL A   1      39.555  36.726  38.237  1.00  0.00    -0.237 OA
ATOM     71  O   UNL A   1      41.706  36.025  37.276  1.00  0.00    -0.744 OA
ENDBRANCH  65  68
ENDBRANCH  47  61
BRANCH  48  72
ATOM     72  C   UNL A   1      41.874  27.187  27.623  1.00  0.00     0.023 A 
ATOM     73  C   UNL A   1      42.496  27.874  26.564  1.00  0.00     0.012 A 
ATOM     74  C   UNL A   1      41.686  25.794  27.524  1.00  0.00     0.148 A 
ATOM     75  C   UNL A   1      42.894  27.192  25.413  1.00  0.00     0.002 A 
ATOM     76  C   UNL A   1      42.142  25.113  26.405  1.00  0.00     0.091 A 
ATOM     77  F   UNL A   1      41.082  25.163  28.541  1.00  0.00    -0.205 F 
ATOM     78  C   UNL A   1      42.728  25.811  25.338  1.00  0.00     0.022 A 
BRANCH  76  79
ATOM     79  S   UNL A   1      42.096  23.322  26.285  1.00  0.00     0.127 S 
ATOM     80  O   UNL A   1      42.719  23.093  24.984  1.00  0.00    -0.237 OA
ATOM     81  O   UNL A   1      42.908  22.925  27.437  1.00  0.00    -0.237 OA
ATOM     82  O   UNL A   1      40.691  22.952  26.385  1.00  0.00    -0.744 OA
ENDBRANCH  76  79
ENDBRANCH  48  72
BRANCH  60  83
ATOM     83  C   UNL A   1      44.349  27.545  34.139  1.00  0.00     0.023 A 
ATOM     84  C   UNL A   1      45.621  28.149  34.200  1.00  0.00     0.012 A 
ATOM     85  C   UNL A   1      44.151  26.295  34.760  1.00  0.00     0.148 A 
ATOM     86  C   UNL A   1      46.690  27.494  34.813  1.00  0.00     0.002 A 
ATOM     87  C   UNL A   1      45.206  25.676  35.421  1.00  0.00     0.091 A 
ATOM     88  F   UNL A   1      42.940  25.726  34.682  1.00  0.00    -0.205 F 
ATOM     89  C   UNL A   1      46.481  26.264  35.431  1.00  0.00     0.022 A 
BRANCH  87  90
ATOM     90  S   UNL A   1      45.006  24.139  36.327  1.00  0.00     0.127 S 
ATOM     91  O   UNL A   1      46.377  23.632  36.361  1.00  0.00    -0.237 OA
ATOM     92  O   UNL A   1      44.495  24.605  37.617  1.00  0.00    -0.237 OA
ATOM     93  O   UNL A   1      44.063  23.337  35.559  1.00  0.00    -0.744 OA
ENDBRANCH  87  90
ENDBRANCH  60  83
ENDBRANCH  34  35
ENDBRANCH  26  29
ENDBRANCH  24  25
ENDBRANCH   1  24
TORSDOF 18
ENDMDL
