MODEL 1
REMARK VINA RESULT:     -13.4      0.000      0.000
REMARK SMILES O=C(NCCCNC(=O)c1ccc(-c2c3nc(c(-c4cccc(S(=O)(=O)[O-])c4F)c4ccc([nH]4)c(-c4cccc(S(=O)(=O)[O-])c4F)c4nc(c(-c5cccc(S(=O)(=O)[O-])c5F)c5ccc2[nH]5)C=C4)C=C3)cc1)C1=Cc2c(cc(Cl)c(Cl)c2Cl)O[C@H]1C(F)(F)F
REMARK SMILES IDX 6 1 5 2 4 3 3 4 1 5 2 6 73 8 74 9 85 10 75 11 84 12 76 13
REMARK SMILES IDX 82 14 77 15 80 16 83 17 78 18 81 19 79 20 86 21 87 22 88 23
REMARK SMILES IDX 89 24 7 25 8 26 9 28 10 29 11 30 72 31 12 32 71 33 13 34
REMARK SMILES IDX 14 35 15 36 65 37 16 38 70 39 64 40 66 41 17 42 69 43 63 44
REMARK SMILES IDX 62 45 18 47 50 48 30 49 49 50 31 51 34 52 48 53 67 54 32 55
REMARK SMILES IDX 33 56 47 58 68 59 35 60 19 61 20 62 28 63 21 64 23 65 29 66
REMARK SMILES IDX 22 67 24 68 25 69 26 70 27 71 51 72 52 73 60 74 53 75 55 76
REMARK SMILES IDX 61 77 54 78 56 79 57 80 58 81 59 82 36 83 37 84 45 85 38 86
REMARK SMILES IDX 40 87 46 88 39 89 41 90 42 91 43 92 44 93
REMARK H PARENT 3 7 7 27 66 46 34 57
REMARK Flexibility Score: inf
ROOT
ATOM      1  C   UNL A   1      35.828  22.254  25.579  1.00  0.00     0.118 C 
ENDROOT
BRANCH   1   2
ATOM      2  C   UNL A   1      35.034  22.207  26.877  1.00  0.00     0.042 C 
BRANCH   2   3
ATOM      3  C   UNL A   1      33.762  21.375  26.797  1.00  0.00     0.118 C 
BRANCH   3   4
ATOM      4  N   UNL A   1      32.573  21.961  27.424  1.00  0.00    -0.352 N 
ATOM      5  O   UNL A   1      30.750  23.328  27.500  1.00  0.00    -0.270 OA
ATOM      6  C   UNL A   1      31.731  22.937  26.911  1.00  0.00     0.251 C 
ATOM      7  H   UNL A   1      32.345  21.620  28.319  1.00  0.00     0.163 HD
BRANCH   6   8
ATOM      8  C   UNL A   1      32.115  23.475  25.581  1.00  0.00     0.067 C 
ATOM      9  C   UNL A   1      32.778  24.637  25.628  1.00  0.00     0.027 C 
ATOM     10  C   UNL A   1      31.324  22.986  24.410  1.00  0.00     0.314 C 
ATOM     11  C   UNL A   1      32.166  25.701  24.816  1.00  0.00     0.037 A 
ATOM     12  O   UNL A   1      30.914  24.045  23.507  1.00  0.00    -0.475 OA
ATOM     13  C   UNL A   1      31.187  25.339  23.873  1.00  0.00     0.131 A 
ATOM     14  C   UNL A   1      32.288  27.063  25.185  1.00  0.00     0.072 A 
ATOM     15  C   UNL A   1      30.331  26.297  23.334  1.00  0.00     0.069 A 
ATOM     16  C   UNL A   1      31.396  28.023  24.671  1.00  0.00     0.079 A 
ATOM     17  Cl  UNL A   1      33.473  27.535  26.379  1.00  0.00    -0.082 Cl
ATOM     18  C   UNL A   1      30.413  27.626  23.754  1.00  0.00     0.064 A 
ATOM     19  Cl  UNL A   1      31.461  29.671  25.219  1.00  0.00    -0.081 Cl
ATOM     20  Cl  UNL A   1      29.225  28.720  23.136  1.00  0.00    -0.083 Cl
BRANCH  10  21
ATOM     21  C   UNL A   1      32.083  21.888  23.636  1.00  0.00     0.429 C 
ATOM     22  F   UNL A   1      33.405  22.148  23.508  1.00  0.00    -0.167 F 
ATOM     23  F   UNL A   1      31.979  20.692  24.266  1.00  0.00    -0.167 F 
ATOM     24  F   UNL A   1      31.597  21.723  22.382  1.00  0.00    -0.167 F 
ENDBRANCH  10  21
ENDBRANCH   6   8
ENDBRANCH   3   4
ENDBRANCH   2   3
ENDBRANCH   1   2
BRANCH   1  25
ATOM     25  N   UNL A   1      36.874  21.239  25.496  1.00  0.00    -0.352 N 
ATOM     26  C   UNL A   1      38.231  21.251  25.721  1.00  0.00     0.251 C 
ATOM     27  H   UNL A   1      36.535  20.356  25.222  1.00  0.00     0.163 HD
ATOM     28  O   UNL A   1      38.863  20.233  25.432  1.00  0.00    -0.269 OA
BRANCH  26  29
ATOM     29  C   UNL A   1      38.965  22.424  26.262  1.00  0.00     0.039 A 
ATOM     30  C   UNL A   1      40.073  22.198  27.094  1.00  0.00     0.014 A 
ATOM     31  C   UNL A   1      38.558  23.738  26.042  1.00  0.00     0.014 A 
ATOM     32  C   UNL A   1      40.800  23.272  27.628  1.00  0.00     0.010 A 
ATOM     33  C   UNL A   1      39.339  24.805  26.487  1.00  0.00     0.010 A 
ATOM     34  C   UNL A   1      40.470  24.592  27.289  1.00  0.00    -0.014 A 
BRANCH  34  35
ATOM     35  C   UNL A   1      41.263  25.768  27.746  1.00  0.00     0.031 A 
ATOM     36  C   UNL A   1      40.612  26.841  28.584  1.00  0.00     0.074 A 
ATOM     37  C   UNL A   1      42.523  25.952  27.297  1.00  0.00     0.049 A 
ATOM     38  N   UNL A   1      41.040  28.045  28.869  1.00  0.00    -0.248 NA
ATOM     39  C   UNL A   1      39.280  26.537  29.133  1.00  0.00     0.031 C 
ATOM     40  C   UNL A   1      43.259  25.032  26.430  1.00  0.00     0.029 A 
ATOM     41  N   UNL A   1      43.394  27.000  27.480  1.00  0.00    -0.354 N 
ATOM     42  C   UNL A   1      40.001  28.666  29.553  1.00  0.00     0.074 A 
ATOM     43  C   UNL A   1      38.919  27.709  29.637  1.00  0.00     0.031 C 
ATOM     44  C   UNL A   1      44.468  25.549  26.161  1.00  0.00     0.029 A 
ATOM     45  C   UNL A   1      44.582  26.855  26.799  1.00  0.00     0.049 A 
ATOM     46  H   UNL A   1      43.188  27.780  28.045  1.00  0.00     0.167 HD
ATOM     47  C   UNL A   1      39.956  29.911  30.086  1.00  0.00     0.034 A 
ATOM     48  C   UNL A   1      45.638  27.685  26.688  1.00  0.00     0.034 A 
ATOM     49  C   UNL A   1      41.071  30.820  30.109  1.00  0.00     0.049 A 
ATOM     50  C   UNL A   1      45.610  29.012  27.395  1.00  0.00     0.074 A 
ATOM     51  C   UNL A   1      41.155  32.065  30.708  1.00  0.00     0.029 A 
ATOM     52  N   UNL A   1      42.306  30.567  29.537  1.00  0.00    -0.354 N 
ATOM     53  N   UNL A   1      44.654  29.538  28.121  1.00  0.00    -0.248 NA
ATOM     54  C   UNL A   1      46.816  29.848  27.292  1.00  0.00     0.031 C 
ATOM     55  C   UNL A   1      42.451  32.557  30.514  1.00  0.00     0.029 A 
ATOM     56  C   UNL A   1      43.168  31.621  29.786  1.00  0.00     0.049 A 
ATOM     57  H   UNL A   1      42.538  29.757  29.027  1.00  0.00     0.167 HD
ATOM     58  C   UNL A   1      45.151  30.751  28.582  1.00  0.00     0.074 A 
ATOM     59  C   UNL A   1      46.501  30.873  28.073  1.00  0.00     0.031 C 
ATOM     60  C   UNL A   1      44.534  31.692  29.339  1.00  0.00     0.034 A 
BRANCH  47  61
ATOM     61  C   UNL A   1      38.681  30.336  30.764  1.00  0.00     0.023 A 
ATOM     62  C   UNL A   1      38.491  30.036  32.128  1.00  0.00     0.012 A 
ATOM     63  C   UNL A   1      37.694  31.068  30.074  1.00  0.00     0.148 A 
ATOM     64  C   UNL A   1      37.327  30.428  32.786  1.00  0.00     0.002 A 
ATOM     65  C   UNL A   1      36.552  31.487  30.748  1.00  0.00     0.091 A 
ATOM     66  F   UNL A   1      37.876  31.324  28.770  1.00  0.00    -0.205 F 
ATOM     67  C   UNL A   1      36.362  31.161  32.100  1.00  0.00     0.022 A 
BRANCH  65  68
ATOM     68  S   UNL A   1      35.292  32.495  29.955  1.00  0.00     0.127 S 
ATOM     69  O   UNL A   1      34.822  31.603  28.897  1.00  0.00    -0.237 OA
ATOM     70  O   UNL A   1      34.331  32.713  31.037  1.00  0.00    -0.237 OA
ATOM     71  O   UNL A   1      35.979  33.699  29.510  1.00  0.00    -0.744 OA
ENDBRANCH  65  68
ENDBRANCH  47  61
BRANCH  48  72
ATOM     72  C   UNL A   1      46.852  27.238  25.947  1.00  0.00     0.023 A 
ATOM     73  C   UNL A   1      47.728  26.327  26.569  1.00  0.00     0.012 A 
ATOM     74  C   UNL A   1      47.120  27.658  24.632  1.00  0.00     0.148 A 
ATOM     75  C   UNL A   1      48.858  25.858  25.902  1.00  0.00     0.002 A 
ATOM     76  C   UNL A   1      48.223  27.147  23.953  1.00  0.00     0.091 A 
ATOM     77  F   UNL A   1      46.289  28.541  24.059  1.00  0.00    -0.205 F 
ATOM     78  C   UNL A   1      49.101  26.257  24.591  1.00  0.00     0.022 A 
BRANCH  76  79
ATOM     79  S   UNL A   1      48.511  27.517  22.218  1.00  0.00     0.127 S 
ATOM     80  O   UNL A   1      49.695  28.368  22.282  1.00  0.00    -0.237 OA
ATOM     81  O   UNL A   1      48.739  26.188  21.646  1.00  0.00    -0.237 OA
ATOM     82  O   UNL A   1      47.282  28.153  21.761  1.00  0.00    -0.744 OA
ENDBRANCH  76  79
ENDBRANCH  48  72
BRANCH  60  83
ATOM     83  C   UNL A   1      45.315  32.927  29.691  1.00  0.00     0.023 A 
ATOM     84  C   UNL A   1      46.107  32.932  30.855  1.00  0.00     0.012 A 
ATOM     85  C   UNL A   1      45.334  34.042  28.832  1.00  0.00     0.148 A 
ATOM     86  C   UNL A   1      46.897  34.038  31.168  1.00  0.00     0.002 A 
ATOM     87  C   UNL A   1      46.149  35.128  29.134  1.00  0.00     0.091 A 
ATOM     88  F   UNL A   1      44.552  34.028  27.743  1.00  0.00    -0.205 F 
ATOM     89  C   UNL A   1      46.927  35.129  30.303  1.00  0.00     0.022 A 
BRANCH  87  90
ATOM     90  S   UNL A   1      46.300  36.533  28.024  1.00  0.00     0.127 S 
ATOM     91  O   UNL A   1      44.932  37.048  28.004  1.00  0.00    -0.237 OA
ATOM     92  O   UNL A   1      47.262  37.389  28.721  1.00  0.00    -0.237 OA
ATOM     93  O   UNL A   1      46.792  35.986  26.767  1.00  0.00    -0.744 OA
ENDBRANCH  87  90
ENDBRANCH  60  83
ENDBRANCH  34  35
ENDBRANCH  26  29
ENDBRANCH   1  25
TORSDOF 14
ENDMDL
MODEL 2
REMARK VINA RESULT:     -13.4      5.428     10.068
REMARK SMILES O=C(NCCCNC(=O)c1ccc(-c2c3nc(c(-c4cccc(S(=O)(=O)[O-])c4F)c4ccc([nH]4)c(-c4cccc(S(=O)(=O)[O-])c4F)c4nc(c(-c5cccc(S(=O)(=O)[O-])c5F)c5ccc2[nH]5)C=C4)C=C3)cc1)C1=Cc2c(cc(Cl)c(Cl)c2Cl)O[C@H]1C(F)(F)F
REMARK SMILES IDX 6 1 5 2 4 3 3 4 1 5 2 6 73 8 74 9 85 10 75 11 84 12 76 13
REMARK SMILES IDX 82 14 77 15 80 16 83 17 78 18 81 19 79 20 86 21 87 22 88 23
REMARK SMILES IDX 89 24 7 25 8 26 9 28 10 29 11 30 72 31 12 32 71 33 13 34
REMARK SMILES IDX 14 35 15 36 65 37 16 38 70 39 64 40 66 41 17 42 69 43 63 44
REMARK SMILES IDX 62 45 18 47 50 48 30 49 49 50 31 51 34 52 48 53 67 54 32 55
REMARK SMILES IDX 33 56 47 58 68 59 35 60 19 61 20 62 28 63 21 64 23 65 29 66
REMARK SMILES IDX 22 67 24 68 25 69 26 70 27 71 51 72 52 73 60 74 53 75 55 76
REMARK SMILES IDX 61 77 54 78 56 79 57 80 58 81 59 82 36 83 37 84 45 85 38 86
REMARK SMILES IDX 40 87 46 88 39 89 41 90 42 91 43 92 44 93
REMARK H PARENT 3 7 7 27 66 46 34 57
REMARK Flexibility Score: inf
ROOT
ATOM      1  C   UNL A   1      32.675  29.297  25.513  1.00  0.00     0.118 C 
ENDROOT
BRANCH   1   2
ATOM      2  C   UNL A   1      33.360  29.326  24.153  1.00  0.00     0.042 C 
BRANCH   2   3
ATOM      3  C   UNL A   1      32.448  28.961  22.991  1.00  0.00     0.118 C 
BRANCH   3   4
ATOM      4  N   UNL A   1      33.009  28.035  22.003  1.00  0.00    -0.352 N 
ATOM      5  O   UNL A   1      33.454  25.973  21.136  1.00  0.00    -0.270 OA
ATOM      6  C   UNL A   1      32.990  26.648  22.026  1.00  0.00     0.251 C 
ATOM      7  H   UNL A   1      33.453  28.448  21.227  1.00  0.00     0.163 HD
BRANCH   6   8
ATOM      8  C   UNL A   1      32.358  26.039  23.225  1.00  0.00     0.067 C 
ATOM      9  C   UNL A   1      33.228  25.613  24.149  1.00  0.00     0.027 C 
ATOM     10  C   UNL A   1      30.966  25.521  23.053  1.00  0.00     0.314 C 
ATOM     11  C   UNL A   1      33.051  24.200  24.522  1.00  0.00     0.037 A 
ATOM     12  O   UNL A   1      30.766  24.202  23.625  1.00  0.00    -0.475 OA
ATOM     13  C   UNL A   1      31.862  23.554  24.137  1.00  0.00     0.131 A 
ATOM     14  C   UNL A   1      34.150  23.414  24.943  1.00  0.00     0.072 A 
ATOM     15  C   UNL A   1      31.776  22.164  24.140  1.00  0.00     0.069 A 
ATOM     16  C   UNL A   1      34.076  22.009  24.907  1.00  0.00     0.079 A 
ATOM     17  Cl  UNL A   1      35.649  24.189  25.395  1.00  0.00    -0.082 Cl
ATOM     18  C   UNL A   1      32.887  21.394  24.492  1.00  0.00     0.064 A 
ATOM     19  Cl  UNL A   1      35.465  21.041  25.300  1.00  0.00    -0.081 Cl
ATOM     20  Cl  UNL A   1      32.735  19.678  24.337  1.00  0.00    -0.083 Cl
BRANCH  10  21
ATOM     21  C   UNL A   1      29.923  26.510  23.614  1.00  0.00     0.429 C 
ATOM     22  F   UNL A   1      29.639  27.522  22.761  1.00  0.00    -0.167 F 
ATOM     23  F   UNL A   1      28.752  25.880  23.878  1.00  0.00    -0.167 F 
ATOM     24  F   UNL A   1      30.337  27.084  24.770  1.00  0.00    -0.167 F 
ENDBRANCH  10  21
ENDBRANCH   6   8
ENDBRANCH   3   4
ENDBRANCH   2   3
ENDBRANCH   1   2
BRANCH   1  25
ATOM     25  N   UNL A   1      32.338  30.622  26.025  1.00  0.00    -0.352 N 
ATOM     26  C   UNL A   1      32.915  31.458  26.953  1.00  0.00     0.251 C 
ATOM     27  H   UNL A   1      31.524  30.998  25.619  1.00  0.00     0.163 HD
ATOM     28  O   UNL A   1      32.297  32.480  27.258  1.00  0.00    -0.269 OA
BRANCH  26  29
ATOM     29  C   UNL A   1      34.215  31.179  27.617  1.00  0.00     0.039 A 
ATOM     30  C   UNL A   1      35.114  32.241  27.805  1.00  0.00     0.014 A 
ATOM     31  C   UNL A   1      34.613  29.898  27.991  1.00  0.00     0.014 A 
ATOM     32  C   UNL A   1      36.353  32.029  28.428  1.00  0.00     0.010 A 
ATOM     33  C   UNL A   1      35.798  29.704  28.702  1.00  0.00     0.010 A 
ATOM     34  C   UNL A   1      36.689  30.764  28.929  1.00  0.00    -0.014 A 
BRANCH  34  35
ATOM     35  C   UNL A   1      37.947  30.500  29.685  1.00  0.00     0.031 A 
ATOM     36  C   UNL A   1      39.012  29.609  29.094  1.00  0.00     0.074 A 
ATOM     37  C   UNL A   1      38.079  30.937  30.955  1.00  0.00     0.049 A 
ATOM     38  N   UNL A   1      40.047  29.057  29.675  1.00  0.00    -0.248 NA
ATOM     39  C   UNL A   1      38.866  29.254  27.673  1.00  0.00     0.031 C 
ATOM     40  C   UNL A   1      37.103  31.753  31.679  1.00  0.00     0.029 A 
ATOM     41  N   UNL A   1      39.075  30.721  31.877  1.00  0.00    -0.354 N 
ATOM     42  C   UNL A   1      40.622  28.226  28.719  1.00  0.00     0.074 A 
ATOM     43  C   UNL A   1      39.818  28.343  27.520  1.00  0.00     0.031 C 
ATOM     44  C   UNL A   1      37.549  31.974  32.925  1.00  0.00     0.029 A 
ATOM     45  C   UNL A   1      38.821  31.283  33.107  1.00  0.00     0.049 A 
ATOM     46  H   UNL A   1      39.894  30.213  31.676  1.00  0.00     0.167 HD
ATOM     47  C   UNL A   1      41.731  27.454  28.817  1.00  0.00     0.034 A 
ATOM     48  C   UNL A   1      39.522  31.237  34.258  1.00  0.00     0.034 A 
ATOM     49  C   UNL A   1      42.597  27.428  29.965  1.00  0.00     0.049 A 
ATOM     50  C   UNL A   1      40.816  30.473  34.301  1.00  0.00     0.074 A 
ATOM     51  C   UNL A   1      43.794  26.752  30.125  1.00  0.00     0.029 A 
ATOM     52  N   UNL A   1      42.377  28.134  31.135  1.00  0.00    -0.354 N 
ATOM     53  N   UNL A   1      41.392  29.774  33.352  1.00  0.00    -0.248 NA
ATOM     54  C   UNL A   1      41.571  30.510  35.563  1.00  0.00     0.031 C 
ATOM     55  C   UNL A   1      44.308  27.067  31.388  1.00  0.00     0.029 A 
ATOM     56  C   UNL A   1      43.426  27.931  32.015  1.00  0.00     0.049 A 
ATOM     57  H   UNL A   1      41.590  28.699  31.315  1.00  0.00     0.167 HD
ATOM     58  C   UNL A   1      42.588  29.314  33.892  1.00  0.00     0.074 A 
ATOM     59  C   UNL A   1      42.664  29.829  35.243  1.00  0.00     0.031 C 
ATOM     60  C   UNL A   1      43.525  28.514  33.327  1.00  0.00     0.034 A 
BRANCH  47  61
ATOM     61  C   UNL A   1      42.118  26.632  27.617  1.00  0.00     0.023 A 
ATOM     62  C   UNL A   1      42.818  27.244  26.558  1.00  0.00     0.012 A 
ATOM     63  C   UNL A   1      41.837  25.252  27.553  1.00  0.00     0.148 A 
ATOM     64  C   UNL A   1      43.203  26.506  25.440  1.00  0.00     0.002 A 
ATOM     65  C   UNL A   1      42.256  24.515  26.450  1.00  0.00     0.091 A 
ATOM     66  F   UNL A   1      41.148  24.688  28.556  1.00  0.00    -0.205 F 
ATOM     67  C   UNL A   1      42.930  25.141  25.389  1.00  0.00     0.022 A 
BRANCH  65  68
ATOM     68  S   UNL A   1      42.006  22.739  26.339  1.00  0.00     0.127 S 
ATOM     69  O   UNL A   1      40.548  22.645  26.329  1.00  0.00    -0.237 OA
ATOM     70  O   UNL A   1      42.645  22.407  25.064  1.00  0.00    -0.237 OA
ATOM     71  O   UNL A   1      42.670  22.178  27.507  1.00  0.00    -0.744 OA
ENDBRANCH  65  68
ENDBRANCH  47  61
BRANCH  48  72
ATOM     72  C   UNL A   1      39.055  32.019  35.437  1.00  0.00     0.023 A 
ATOM     73  C   UNL A   1      39.227  33.417  35.434  1.00  0.00     0.012 A 
ATOM     74  C   UNL A   1      38.405  31.410  36.526  1.00  0.00     0.148 A 
ATOM     75  C   UNL A   1      38.777  34.191  36.503  1.00  0.00     0.002 A 
ATOM     76  C   UNL A   1      37.915  32.194  37.566  1.00  0.00     0.091 A 
ATOM     77  F   UNL A   1      38.267  30.076  36.525  1.00  0.00    -0.205 F 
ATOM     78  C   UNL A   1      38.111  33.583  37.563  1.00  0.00     0.022 A 
BRANCH  76  79
ATOM     79  S   UNL A   1      36.928  31.486  38.891  1.00  0.00     0.127 S 
ATOM     80  O   UNL A   1      37.813  31.637  40.042  1.00  0.00    -0.237 OA
ATOM     81  O   UNL A   1      35.748  32.353  38.904  1.00  0.00    -0.237 OA
ATOM     82  O   UNL A   1      36.652  30.120  38.464  1.00  0.00    -0.744 OA
ENDBRANCH  76  79
ENDBRANCH  48  72
BRANCH  60  83
ATOM     83  C   UNL A   1      44.733  28.164  34.151  1.00  0.00     0.023 A 
ATOM     84  C   UNL A   1      45.842  29.031  34.149  1.00  0.00     0.012 A 
ATOM     85  C   UNL A   1      44.736  27.032  34.987  1.00  0.00     0.148 A 
ATOM     86  C   UNL A   1      46.946  28.767  34.959  1.00  0.00     0.002 A 
ATOM     87  C   UNL A   1      45.827  26.793  35.816  1.00  0.00     0.091 A 
ATOM     88  F   UNL A   1      43.681  26.204  34.954  1.00  0.00    -0.205 F 
ATOM     89  C   UNL A   1      46.934  27.657  35.800  1.00  0.00     0.022 A 
BRANCH  87  90
ATOM     90  S   UNL A   1      45.846  25.427  36.984  1.00  0.00     0.127 S 
ATOM     91  O   UNL A   1      45.693  24.274  36.099  1.00  0.00    -0.237 OA
ATOM     92  O   UNL A   1      47.168  25.551  37.600  1.00  0.00    -0.237 OA
ATOM     93  O   UNL A   1      44.738  25.679  37.896  1.00  0.00    -0.744 OA
ENDBRANCH  87  90
ENDBRANCH  60  83
ENDBRANCH  34  35
ENDBRANCH  26  29
ENDBRANCH   1  25
TORSDOF 14
ENDMDL
MODEL 3
REMARK VINA RESULT:     -13.4      5.415      9.786
REMARK SMILES O=C(NCCCNC(=O)c1ccc(-c2c3nc(c(-c4cccc(S(=O)(=O)[O-])c4F)c4ccc([nH]4)c(-c4cccc(S(=O)(=O)[O-])c4F)c4nc(c(-c5cccc(S(=O)(=O)[O-])c5F)c5ccc2[nH]5)C=C4)C=C3)cc1)C1=Cc2c(cc(Cl)c(Cl)c2Cl)O[C@H]1C(F)(F)F
REMARK SMILES IDX 6 1 5 2 4 3 3 4 1 5 2 6 73 8 74 9 85 10 75 11 84 12 76 13
REMARK SMILES IDX 82 14 77 15 80 16 83 17 78 18 81 19 79 20 86 21 87 22 88 23
REMARK SMILES IDX 89 24 7 25 8 26 9 28 10 29 11 30 72 31 12 32 71 33 13 34
REMARK SMILES IDX 14 35 15 36 65 37 16 38 70 39 64 40 66 41 17 42 69 43 63 44
REMARK SMILES IDX 62 45 18 47 50 48 30 49 49 50 31 51 34 52 48 53 67 54 32 55
REMARK SMILES IDX 33 56 47 58 68 59 35 60 19 61 20 62 28 63 21 64 23 65 29 66
REMARK SMILES IDX 22 67 24 68 25 69 26 70 27 71 51 72 52 73 60 74 53 75 55 76
REMARK SMILES IDX 61 77 54 78 56 79 57 80 58 81 59 82 36 83 37 84 45 85 38 86
REMARK SMILES IDX 40 87 46 88 39 89 41 90 42 91 43 92 44 93
REMARK H PARENT 3 7 7 27 66 46 34 57
REMARK Flexibility Score: inf
ROOT
ATOM      1  C   UNL A   1      32.817  29.083  25.516  1.00  0.00     0.118 C 
ENDROOT
BRANCH   1   2
ATOM      2  C   UNL A   1      33.516  29.113  24.164  1.00  0.00     0.042 C 
BRANCH   2   3
ATOM      3  C   UNL A   1      32.583  28.910  22.978  1.00  0.00     0.118 C 
BRANCH   3   4
ATOM      4  N   UNL A   1      33.072  28.014  21.926  1.00  0.00    -0.352 N 
ATOM      5  O   UNL A   1      33.420  25.982  20.952  1.00  0.00    -0.270 OA
ATOM      6  C   UNL A   1      33.017  26.628  21.891  1.00  0.00     0.251 C 
ATOM      7  H   UNL A   1      33.489  28.449  21.147  1.00  0.00     0.163 HD
BRANCH   6   8
ATOM      8  C   UNL A   1      32.428  25.984  23.093  1.00  0.00     0.067 C 
ATOM      9  C   UNL A   1      33.329  25.526  23.970  1.00  0.00     0.027 C 
ATOM     10  C   UNL A   1      31.028  25.475  22.957  1.00  0.00     0.314 C 
ATOM     11  C   UNL A   1      33.160  24.102  24.304  1.00  0.00     0.037 A 
ATOM     12  O   UNL A   1      30.844  24.140  23.494  1.00  0.00    -0.475 OA
ATOM     13  C   UNL A   1      31.955  23.473  23.943  1.00  0.00     0.131 A 
ATOM     14  C   UNL A   1      34.271  23.300  24.659  1.00  0.00     0.072 A 
ATOM     15  C   UNL A   1      31.864  22.083  23.906  1.00  0.00     0.069 A 
ATOM     16  C   UNL A   1      34.190  21.897  24.581  1.00  0.00     0.079 A 
ATOM     17  Cl  UNL A   1      35.789  24.056  25.079  1.00  0.00    -0.082 Cl
ATOM     18  C   UNL A   1      32.983  21.299  24.191  1.00  0.00     0.064 A 
ATOM     19  Cl  UNL A   1      35.588  20.912  24.892  1.00  0.00    -0.081 Cl
ATOM     20  Cl  UNL A   1      32.818  19.589  23.988  1.00  0.00    -0.083 Cl
BRANCH  10  21
ATOM     21  C   UNL A   1      30.011  26.449  23.588  1.00  0.00     0.429 C 
ATOM     22  F   UNL A   1      30.443  26.986  24.753  1.00  0.00    -0.167 F 
ATOM     23  F   UNL A   1      29.751  27.485  22.753  1.00  0.00    -0.167 F 
ATOM     24  F   UNL A   1      28.828  25.845  23.855  1.00  0.00    -0.167 F 
ENDBRANCH  10  21
ENDBRANCH   6   8
ENDBRANCH   3   4
ENDBRANCH   2   3
ENDBRANCH   1   2
BRANCH   1  25
ATOM     25  N   UNL A   1      32.463  30.406  26.020  1.00  0.00    -0.352 N 
ATOM     26  C   UNL A   1      33.035  31.260  26.935  1.00  0.00     0.251 C 
ATOM     27  H   UNL A   1      31.639  30.766  25.619  1.00  0.00     0.163 HD
ATOM     28  O   UNL A   1      32.403  32.274  27.238  1.00  0.00    -0.269 OA
BRANCH  26  29
ATOM     29  C   UNL A   1      34.346  31.007  27.589  1.00  0.00     0.039 A 
ATOM     30  C   UNL A   1      35.232  32.084  27.753  1.00  0.00     0.014 A 
ATOM     31  C   UNL A   1      34.765  29.737  27.976  1.00  0.00     0.014 A 
ATOM     32  C   UNL A   1      36.481  31.897  28.364  1.00  0.00     0.010 A 
ATOM     33  C   UNL A   1      35.961  29.569  28.676  1.00  0.00     0.010 A 
ATOM     34  C   UNL A   1      36.840  30.644  28.879  1.00  0.00    -0.014 A 
BRANCH  34  35
ATOM     35  C   UNL A   1      38.109  30.407  29.625  1.00  0.00     0.031 A 
ATOM     36  C   UNL A   1      39.165  29.494  29.051  1.00  0.00     0.074 A 
ATOM     37  C   UNL A   1      38.261  30.891  30.875  1.00  0.00     0.049 A 
ATOM     38  N   UNL A   1      40.208  28.963  29.636  1.00  0.00    -0.248 NA
ATOM     39  C   UNL A   1      38.997  29.086  27.646  1.00  0.00     0.031 C 
ATOM     40  C   UNL A   1      37.297  31.734  31.584  1.00  0.00     0.029 A 
ATOM     41  N   UNL A   1      39.271  30.709  31.789  1.00  0.00    -0.354 N 
ATOM     42  C   UNL A   1      40.768  28.097  28.702  1.00  0.00     0.074 A 
ATOM     43  C   UNL A   1      39.946  28.171  27.513  1.00  0.00     0.031 C 
ATOM     44  C   UNL A   1      37.762  32.001  32.814  1.00  0.00     0.029 A 
ATOM     45  C   UNL A   1      39.036  31.316  33.002  1.00  0.00     0.049 A 
ATOM     46  H   UNL A   1      40.087  30.193  31.595  1.00  0.00     0.167 HD
ATOM     47  C   UNL A   1      41.878  27.329  28.811  1.00  0.00     0.034 A 
ATOM     48  C   UNL A   1      39.755  31.312  34.142  1.00  0.00     0.034 A 
ATOM     49  C   UNL A   1      42.763  27.345  29.946  1.00  0.00     0.049 A 
ATOM     50  C   UNL A   1      41.050  30.549  34.193  1.00  0.00     0.074 A 
ATOM     51  C   UNL A   1      43.962  26.674  30.112  1.00  0.00     0.029 A 
ATOM     52  N   UNL A   1      42.561  28.094  31.093  1.00  0.00    -0.354 N 
ATOM     53  N   UNL A   1      41.611  29.816  33.263  1.00  0.00    -0.248 NA
ATOM     54  C   UNL A   1      41.825  30.633  35.441  1.00  0.00     0.031 C 
ATOM     55  C   UNL A   1      44.496  27.036  31.355  1.00  0.00     0.029 A 
ATOM     56  C   UNL A   1      43.623  27.923  31.963  1.00  0.00     0.049 A 
ATOM     57  H   UNL A   1      41.777  28.666  31.264  1.00  0.00     0.167 HD
ATOM     58  C   UNL A   1      42.815  29.375  33.800  1.00  0.00     0.074 A 
ATOM     59  C   UNL A   1      42.912  29.940  35.130  1.00  0.00     0.031 C 
ATOM     60  C   UNL A   1      43.743  28.554  33.251  1.00  0.00     0.034 A 
BRANCH  47  61
ATOM     61  C   UNL A   1      42.247  26.462  27.637  1.00  0.00     0.023 A 
ATOM     62  C   UNL A   1      43.028  27.006  26.597  1.00  0.00     0.012 A 
ATOM     63  C   UNL A   1      41.867  25.106  27.580  1.00  0.00     0.148 A 
ATOM     64  C   UNL A   1      43.397  26.224  25.503  1.00  0.00     0.002 A 
ATOM     65  C   UNL A   1      42.270  24.324  26.502  1.00  0.00     0.091 A 
ATOM     66  F   UNL A   1      41.103  24.609  28.564  1.00  0.00    -0.205 F 
ATOM     67  C   UNL A   1      43.027  24.883  25.460  1.00  0.00     0.022 A 
BRANCH  65  68
ATOM     68  S   UNL A   1      41.894  22.569  26.404  1.00  0.00     0.127 S 
ATOM     69  O   UNL A   1      42.482  22.070  27.646  1.00  0.00    -0.237 OA
ATOM     70  O   UNL A   1      40.430  22.559  26.379  1.00  0.00    -0.237 OA
ATOM     71  O   UNL A   1      42.519  22.104  25.175  1.00  0.00    -0.744 OA
ENDBRANCH  65  68
ENDBRANCH  47  61
BRANCH  48  72
ATOM     72  C   UNL A   1      39.307  32.138  35.299  1.00  0.00     0.023 A 
ATOM     73  C   UNL A   1      38.462  31.552  36.262  1.00  0.00     0.012 A 
ATOM     74  C   UNL A   1      39.741  33.463  35.483  1.00  0.00     0.148 A 
ATOM     75  C   UNL A   1      38.043  32.277  37.377  1.00  0.00     0.002 A 
ATOM     76  C   UNL A   1      39.359  34.165  36.623  1.00  0.00     0.091 A 
ATOM     77  F   UNL A   1      40.528  34.015  34.548  1.00  0.00    -0.205 F 
ATOM     78  C   UNL A   1      38.499  33.578  37.564  1.00  0.00     0.022 A 
BRANCH  76  79
ATOM     79  S   UNL A   1      40.024  35.794  36.989  1.00  0.00     0.127 S 
ATOM     80  O   UNL A   1      39.353  36.119  38.244  1.00  0.00    -0.237 OA
ATOM     81  O   UNL A   1      41.459  35.529  37.109  1.00  0.00    -0.237 OA
ATOM     82  O   UNL A   1      39.669  36.612  35.836  1.00  0.00    -0.744 OA
ENDBRANCH  76  79
ENDBRANCH  48  72
BRANCH  60  83
ATOM     83  C   UNL A   1      44.963  28.234  34.068  1.00  0.00     0.023 A 
ATOM     84  C   UNL A   1      46.083  29.085  33.996  1.00  0.00     0.012 A 
ATOM     85  C   UNL A   1      44.970  27.150  34.966  1.00  0.00     0.148 A 
ATOM     86  C   UNL A   1      47.201  28.851  34.797  1.00  0.00     0.002 A 
ATOM     87  C   UNL A   1      46.075  26.943  35.784  1.00  0.00     0.091 A 
ATOM     88  F   UNL A   1      43.905  26.336  35.001  1.00  0.00    -0.205 F 
ATOM     89  C   UNL A   1      47.192  27.790  35.698  1.00  0.00     0.022 A 
BRANCH  87  90
ATOM     90  S   UNL A   1      46.102  25.644  37.026  1.00  0.00     0.127 S 
ATOM     91  O   UNL A   1      46.047  24.439  36.201  1.00  0.00    -0.237 OA
ATOM     92  O   UNL A   1      47.385  25.867  37.695  1.00  0.00    -0.237 OA
ATOM     93  O   UNL A   1      44.940  25.889  37.871  1.00  0.00    -0.744 OA
ENDBRANCH  87  90
ENDBRANCH  60  83
ENDBRANCH  34  35
ENDBRANCH  26  29
ENDBRANCH   1  25
TORSDOF 14
ENDMDL
