MODEL 1
REMARK VINA RESULT:     -11.0      0.000      0.000
REMARK SMILES C[C@@H]1CCC[C@@]1(C[NH3+])C(=O)NCCCNC(=O)c1ccc(-c2c3nc(c(-c4cccc(S(=O)(=O)[O-])c4F)c4ccc([nH]4)c(-c4cccc(S(=O)(=O)[O-])c4F)c4nc(c(-c5cccc(S(=O)(=O)[O-])c5F)c5ccc2[nH]5)C=C4)C=C3)cc1
REMARK SMILES IDX 13 1 12 2 11 3 9 4 10 5 6 7 1 8 2 9 3 10 4 11 5 12 7 13 8 14
REMARK SMILES IDX 14 18 15 19 16 20 17 22 18 23 19 24 80 25 20 26 79 27 21 28
REMARK SMILES IDX 22 29 23 30 73 31 24 32 78 33 72 34 74 35 25 36 77 37 71 38
REMARK SMILES IDX 70 39 26 41 58 42 38 43 57 44 39 45 42 46 56 47 75 48 40 49
REMARK SMILES IDX 41 50 55 52 76 53 43 54 27 55 28 56 36 57 29 58 31 59 37 60
REMARK SMILES IDX 30 61 32 62 33 63 34 64 35 65 59 66 60 67 68 68 61 69 63 70
REMARK SMILES IDX 69 71 62 72 64 73 65 74 66 75 67 76 44 77 45 78 53 79 46 80
REMARK SMILES IDX 48 81 54 82 47 83 49 84 50 85 51 86 52 87
REMARK H PARENT 11 6 8 15 8 16 8 17 15 21 74 40 42 51
REMARK Flexibility Score: inf
ROOT
ATOM      1  C   UNL A   1      31.399  31.958  26.532  1.00  0.00     0.042 C 
ENDROOT
BRANCH   1   2
ATOM      2  C   UNL A   1      31.618  30.616  25.833  1.00  0.00     0.117 C 
BRANCH   2   3
ATOM      3  N   UNL A   1      30.681  30.422  24.741  1.00  0.00    -0.355 N 
ATOM      4  C   UNL A   1      30.641  29.544  23.701  1.00  0.00     0.232 C 
ATOM      5  O   UNL A   1      29.696  29.703  22.922  1.00  0.00    -0.274 OA
ATOM      6  H   UNL A   1      29.924  31.050  24.756  1.00  0.00     0.163 HD
BRANCH   4   7
ATOM      7  C   UNL A   1      31.645  28.361  23.549  1.00  0.00     0.100 C 
ATOM      8  C   UNL A   1      32.878  26.700  25.166  1.00  0.00     0.009 C 
ATOM      9  C   UNL A   1      31.671  27.597  24.905  1.00  0.00     0.007 C 
ATOM     10  C   UNL A   1      30.381  26.764  24.858  1.00  0.00     0.005 C 
ATOM     11  C   UNL A   1      30.237  26.320  23.412  1.00  0.00     0.002 C 
ATOM     12  C   UNL A   1      31.030  27.318  22.568  1.00  0.00     0.023 C 
BRANCH   7  13
ATOM     13  C   UNL A   1      32.989  28.900  22.990  1.00  0.00     0.276 C 
BRANCH  13  14
ATOM     14  N   UNL A   1      33.606  28.158  21.886  1.00  0.00    -0.357 N 
ATOM     15  H   UNL A   1      32.953  27.456  21.541  1.00  0.00     0.344 HD
ATOM     16  H   UNL A   1      34.455  27.699  22.219  1.00  0.00     0.344 HD
ATOM     17  H   UNL A   1      33.841  28.804  21.132  1.00  0.00     0.344 HD
ENDBRANCH  13  14
ENDBRANCH   7  13
ENDBRANCH   4   7
ENDBRANCH   2   3
ENDBRANCH   1   2
BRANCH   1  18
ATOM     18  C   UNL A   1      32.639  32.488  27.252  1.00  0.00     0.118 C 
BRANCH  18  19
ATOM     19  N   UNL A   1      32.499  33.890  27.621  1.00  0.00    -0.352 N 
ATOM     20  C   UNL A   1      33.120  34.610  28.612  1.00  0.00     0.251 C 
ATOM     21  H   UNL A   1      31.858  34.402  27.075  1.00  0.00     0.163 HD
ATOM     22  O   UNL A   1      32.688  35.724  28.900  1.00  0.00    -0.269 OA
BRANCH  20  23
ATOM     23  C   UNL A   1      34.292  34.064  29.333  1.00  0.00     0.039 A 
ATOM     24  C   UNL A   1      34.075  33.250  30.449  1.00  0.00     0.014 A 
ATOM     25  C   UNL A   1      35.597  34.394  28.958  1.00  0.00     0.014 A 
ATOM     26  C   UNL A   1      35.163  32.730  31.157  1.00  0.00     0.010 A 
ATOM     27  C   UNL A   1      36.680  33.826  29.627  1.00  0.00     0.010 A 
ATOM     28  C   UNL A   1      36.477  32.994  30.738  1.00  0.00    -0.014 A 
BRANCH  28  29
ATOM     29  C   UNL A   1      37.645  32.396  31.437  1.00  0.00     0.031 A 
ATOM     30  C   UNL A   1      38.411  31.261  30.809  1.00  0.00     0.074 A 
ATOM     31  C   UNL A   1      37.954  32.807  32.683  1.00  0.00     0.049 A 
ATOM     32  N   UNL A   1      39.412  30.574  31.297  1.00  0.00    -0.248 NA
ATOM     33  C   UNL A   1      37.983  30.822  29.470  1.00  0.00     0.031 C 
ATOM     34  C   UNL A   1      37.234  33.838  33.435  1.00  0.00     0.029 A 
ATOM     35  N   UNL A   1      38.927  32.384  33.553  1.00  0.00    -0.354 N 
ATOM     36  C   UNL A   1      39.701  29.595  30.353  1.00  0.00     0.074 A 
ATOM     37  C   UNL A   1      38.762  29.768  29.267  1.00  0.00     0.031 C 
ATOM     38  C   UNL A   1      37.783  33.959  34.654  1.00  0.00     0.029 A 
ATOM     39  C   UNL A   1      38.875  32.999  34.782  1.00  0.00     0.049 A 
ATOM     40  H   UNL A   1      39.601  31.705  33.318  1.00  0.00     0.167 HD
ATOM     41  C   UNL A   1      40.672  28.652  30.380  1.00  0.00     0.034 A 
ATOM     42  C   UNL A   1      39.614  32.806  35.893  1.00  0.00     0.034 A 
ATOM     43  C   UNL A   1      41.646  28.527  31.431  1.00  0.00     0.049 A 
ATOM     44  C   UNL A   1      40.731  31.796  35.863  1.00  0.00     0.074 A 
ATOM     45  C   UNL A   1      42.749  27.691  31.484  1.00  0.00     0.029 A 
ATOM     46  N   UNL A   1      41.632  29.245  32.615  1.00  0.00    -0.354 N 
ATOM     47  N   UNL A   1      41.112  31.018  34.880  1.00  0.00    -0.248 NA
ATOM     48  C   UNL A   1      41.544  31.666  37.081  1.00  0.00     0.031 C 
ATOM     49  C   UNL A   1      43.387  27.887  32.712  1.00  0.00     0.029 A 
ATOM     50  C   UNL A   1      42.695  28.861  33.413  1.00  0.00     0.049 A 
ATOM     51  H   UNL A   1      40.964  29.928  32.852  1.00  0.00     0.167 HD
ATOM     52  C   UNL A   1      42.229  30.333  35.348  1.00  0.00     0.074 A 
ATOM     53  C   UNL A   1      42.477  30.808  36.694  1.00  0.00     0.031 C 
ATOM     54  C   UNL A   1      42.970  29.385  34.726  1.00  0.00     0.034 A 
BRANCH  41  55
ATOM     55  C   UNL A   1      40.778  27.706  29.213  1.00  0.00     0.023 A 
ATOM     56  C   UNL A   1      39.955  26.565  29.164  1.00  0.00     0.012 A 
ATOM     57  C   UNL A   1      41.620  28.001  28.120  1.00  0.00     0.148 A 
ATOM     58  C   UNL A   1      39.981  25.716  28.057  1.00  0.00     0.002 A 
ATOM     59  C   UNL A   1      41.609  27.174  27.003  1.00  0.00     0.091 A 
ATOM     60  F   UNL A   1      42.407  29.082  28.193  1.00  0.00    -0.205 F 
ATOM     61  C   UNL A   1      40.798  26.027  26.974  1.00  0.00     0.022 A 
BRANCH  59  62
ATOM     62  S   UNL A   1      42.563  27.529  25.523  1.00  0.00     0.127 S 
ATOM     63  O   UNL A   1      43.923  27.601  26.058  1.00  0.00    -0.237 OA
ATOM     64  O   UNL A   1      42.296  26.353  24.695  1.00  0.00    -0.237 OA
ATOM     65  O   UNL A   1      42.036  28.779  24.993  1.00  0.00    -0.744 OA
ENDBRANCH  59  62
ENDBRANCH  41  55
BRANCH  42  66
ATOM     66  C   UNL A   1      39.363  33.626  37.113  1.00  0.00     0.023 A 
ATOM     67  C   UNL A   1      39.834  34.952  37.164  1.00  0.00     0.012 A 
ATOM     68  C   UNL A   1      38.653  33.108  38.213  1.00  0.00     0.148 A 
ATOM     69  C   UNL A   1      39.639  35.734  38.302  1.00  0.00     0.002 A 
ATOM     70  C   UNL A   1      38.412  33.913  39.322  1.00  0.00     0.091 A 
ATOM     71  F   UNL A   1      38.225  31.840  38.156  1.00  0.00    -0.205 F 
ATOM     72  C   UNL A   1      38.920  35.219  39.377  1.00  0.00     0.022 A 
BRANCH  70  73
ATOM     73  S   UNL A   1      37.373  33.367  40.682  1.00  0.00     0.127 S 
ATOM     74  O   UNL A   1      38.189  32.308  41.276  1.00  0.00    -0.237 OA
ATOM     75  O   UNL A   1      37.260  34.582  41.491  1.00  0.00    -0.237 OA
ATOM     76  O   UNL A   1      36.124  32.944  40.068  1.00  0.00    -0.744 OA
ENDBRANCH  70  73
ENDBRANCH  42  66
BRANCH  54  77
ATOM     77  C   UNL A   1      44.147  28.814  35.472  1.00  0.00     0.023 A 
ATOM     78  C   UNL A   1      45.416  29.409  35.336  1.00  0.00     0.012 A 
ATOM     79  C   UNL A   1      43.978  27.739  36.368  1.00  0.00     0.148 A 
ATOM     80  C   UNL A   1      46.507  28.924  36.056  1.00  0.00     0.002 A 
ATOM     81  C   UNL A   1      45.059  27.293  37.118  1.00  0.00     0.091 A 
ATOM     82  F   UNL A   1      42.766  27.174  36.469  1.00  0.00    -0.205 F 
ATOM     83  C   UNL A   1      46.327  27.876  36.955  1.00  0.00     0.022 A 
BRANCH  81  84
ATOM     84  S   UNL A   1      44.895  26.014  38.370  1.00  0.00     0.127 S 
ATOM     85  O   UNL A   1      46.294  25.717  38.678  1.00  0.00    -0.237 OA
ATOM     86  O   UNL A   1      44.172  26.711  39.435  1.00  0.00    -0.237 OA
ATOM     87  O   UNL A   1      44.147  24.934  37.742  1.00  0.00    -0.744 OA
ENDBRANCH  81  84
ENDBRANCH  54  77
ENDBRANCH  28  29
ENDBRANCH  20  23
ENDBRANCH  18  19
ENDBRANCH   1  18
TORSDOF 15
ENDMDL
MODEL 2
REMARK VINA RESULT:     -11.0      3.836     10.111
REMARK SMILES C[C@@H]1CCC[C@@]1(C[NH3+])C(=O)NCCCNC(=O)c1ccc(-c2c3nc(c(-c4cccc(S(=O)(=O)[O-])c4F)c4ccc([nH]4)c(-c4cccc(S(=O)(=O)[O-])c4F)c4nc(c(-c5cccc(S(=O)(=O)[O-])c5F)c5ccc2[nH]5)C=C4)C=C3)cc1
REMARK SMILES IDX 13 1 12 2 11 3 9 4 10 5 6 7 1 8 2 9 3 10 4 11 5 12 7 13 8 14
REMARK SMILES IDX 14 18 15 19 16 20 17 22 18 23 19 24 80 25 20 26 79 27 21 28
REMARK SMILES IDX 22 29 23 30 73 31 24 32 78 33 72 34 74 35 25 36 77 37 71 38
REMARK SMILES IDX 70 39 26 41 58 42 38 43 57 44 39 45 42 46 56 47 75 48 40 49
REMARK SMILES IDX 41 50 55 52 76 53 43 54 27 55 28 56 36 57 29 58 31 59 37 60
REMARK SMILES IDX 30 61 32 62 33 63 34 64 35 65 59 66 60 67 68 68 61 69 63 70
REMARK SMILES IDX 69 71 62 72 64 73 65 74 66 75 67 76 44 77 45 78 53 79 46 80
REMARK SMILES IDX 48 81 54 82 47 83 49 84 50 85 51 86 52 87
REMARK H PARENT 11 6 8 15 8 16 8 17 15 21 74 40 42 51
REMARK Flexibility Score: inf
ROOT
ATOM      1  C   UNL A   1      34.786  33.661  29.559  1.00  0.00     0.042 C 
ENDROOT
BRANCH   1   2
ATOM      2  C   UNL A   1      36.085  33.979  30.301  1.00  0.00     0.117 C 
BRANCH   2   3
ATOM      3  N   UNL A   1      35.883  34.989  31.323  1.00  0.00    -0.355 N 
ATOM      4  C   UNL A   1      35.592  34.917  32.651  1.00  0.00     0.232 C 
ATOM      5  O   UNL A   1      35.446  36.007  33.212  1.00  0.00    -0.274 OA
ATOM      6  H   UNL A   1      35.976  35.910  30.989  1.00  0.00     0.163 HD
BRANCH   4   7
ATOM      7  C   UNL A   1      35.545  33.572  33.438  1.00  0.00     0.100 C 
ATOM      8  C   UNL A   1      36.759  31.248  33.296  1.00  0.00     0.009 C 
ATOM      9  C   UNL A   1      36.801  32.749  33.028  1.00  0.00     0.007 C 
ATOM     10  C   UNL A   1      37.927  33.409  33.839  1.00  0.00     0.005 C 
ATOM     11  C   UNL A   1      37.306  33.769  35.178  1.00  0.00     0.002 C 
ATOM     12  C   UNL A   1      35.799  33.876  34.945  1.00  0.00     0.023 C 
BRANCH   7  13
ATOM     13  C   UNL A   1      34.151  32.917  33.247  1.00  0.00     0.276 C 
BRANCH  13  14
ATOM     14  N   UNL A   1      32.987  33.808  33.205  1.00  0.00    -0.357 N 
ATOM     15  H   UNL A   1      32.641  33.961  34.151  1.00  0.00     0.344 HD
ATOM     16  H   UNL A   1      32.254  33.381  32.639  1.00  0.00     0.344 HD
ATOM     17  H   UNL A   1      33.259  34.701  32.793  1.00  0.00     0.344 HD
ENDBRANCH  13  14
ENDBRANCH   7  13
ENDBRANCH   4   7
ENDBRANCH   2   3
ENDBRANCH   1   2
BRANCH   1  18
ATOM     18  C   UNL A   1      34.991  33.280  28.092  1.00  0.00     0.118 C 
BRANCH  18  19
ATOM     19  N   UNL A   1      34.134  32.173  27.690  1.00  0.00    -0.352 N 
ATOM     20  C   UNL A   1      34.419  30.836  27.557  1.00  0.00     0.251 C 
ATOM     21  H   UNL A   1      33.203  32.422  27.481  1.00  0.00     0.163 HD
ATOM     22  O   UNL A   1      33.611  30.108  26.985  1.00  0.00    -0.269 OA
BRANCH  20  23
ATOM     23  C   UNL A   1      35.679  30.268  28.087  1.00  0.00     0.039 A 
ATOM     24  C   UNL A   1      36.798  30.216  27.250  1.00  0.00     0.014 A 
ATOM     25  C   UNL A   1      35.751  29.731  29.375  1.00  0.00     0.014 A 
ATOM     26  C   UNL A   1      37.998  29.674  27.719  1.00  0.00     0.010 A 
ATOM     27  C   UNL A   1      36.964  29.247  29.863  1.00  0.00     0.010 A 
ATOM     28  C   UNL A   1      38.100  29.205  29.039  1.00  0.00    -0.014 A 
BRANCH  28  29
ATOM     29  C   UNL A   1      39.384  28.686  29.578  1.00  0.00     0.031 A 
ATOM     30  C   UNL A   1      40.089  29.408  30.696  1.00  0.00     0.074 A 
ATOM     31  C   UNL A   1      39.968  27.622  28.991  1.00  0.00     0.049 A 
ATOM     32  N   UNL A   1      41.245  29.141  31.248  1.00  0.00    -0.248 NA
ATOM     33  C   UNL A   1      39.424  30.598  31.252  1.00  0.00     0.031 C 
ATOM     34  C   UNL A   1      39.428  26.889  27.843  1.00  0.00     0.029 A 
ATOM     35  N   UNL A   1      41.160  26.994  29.252  1.00  0.00    -0.354 N 
ATOM     36  C   UNL A   1      41.469  30.152  32.176  1.00  0.00     0.074 A 
ATOM     37  C   UNL A   1      40.334  31.045  32.106  1.00  0.00     0.031 C 
ATOM     38  C   UNL A   1      40.290  25.921  27.493  1.00  0.00     0.029 A 
ATOM     39  C   UNL A   1      41.454  25.978  28.372  1.00  0.00     0.049 A 
ATOM     40  H   UNL A   1      41.749  27.247  29.999  1.00  0.00     0.167 HD
ATOM     41  C   UNL A   1      42.514  30.309  33.022  1.00  0.00     0.034 A 
ATOM     42  C   UNL A   1      42.542  25.189  28.275  1.00  0.00     0.034 A 
ATOM     43  C   UNL A   1      43.608  29.382  33.136  1.00  0.00     0.049 A 
ATOM     44  C   UNL A   1      43.654  25.347  29.276  1.00  0.00     0.074 A 
ATOM     45  C   UNL A   1      44.644  29.384  34.054  1.00  0.00     0.029 A 
ATOM     46  N   UNL A   1      43.816  28.296  32.301  1.00  0.00    -0.354 N 
ATOM     47  N   UNL A   1      43.749  26.189  30.277  1.00  0.00    -0.248 NA
ATOM     48  C   UNL A   1      44.792  24.422  29.162  1.00  0.00     0.031 C 
ATOM     49  C   UNL A   1      45.492  28.313  33.759  1.00  0.00     0.029 A 
ATOM     50  C   UNL A   1      44.972  27.631  32.671  1.00  0.00     0.049 A 
ATOM     51  H   UNL A   1      43.228  28.037  31.555  1.00  0.00     0.167 HD
ATOM     52  C   UNL A   1      44.935  25.872  30.930  1.00  0.00     0.074 A 
ATOM     53  C   UNL A   1      45.512  24.745  30.227  1.00  0.00     0.031 C 
ATOM     54  C   UNL A   1      45.504  26.472  32.003  1.00  0.00     0.034 A 
BRANCH  41  55
ATOM     55  C   UNL A   1      42.511  31.500  33.945  1.00  0.00     0.023 A 
ATOM     56  C   UNL A   1      43.123  32.700  33.535  1.00  0.00     0.012 A 
ATOM     57  C   UNL A   1      41.815  31.460  35.171  1.00  0.00     0.148 A 
ATOM     58  C   UNL A   1      43.064  33.839  34.339  1.00  0.00     0.002 A 
ATOM     59  C   UNL A   1      41.725  32.610  35.947  1.00  0.00     0.091 A 
ATOM     60  F   UNL A   1      41.254  30.304  35.550  1.00  0.00    -0.205 F 
ATOM     61  C   UNL A   1      42.357  33.796  35.538  1.00  0.00     0.022 A 
BRANCH  59  62
ATOM     62  S   UNL A   1      40.771  32.683  37.467  1.00  0.00     0.127 S 
ATOM     63  O   UNL A   1      40.554  34.122  37.610  1.00  0.00    -0.237 OA
ATOM     64  O   UNL A   1      39.574  31.918  37.116  1.00  0.00    -0.237 OA
ATOM     65  O   UNL A   1      41.603  32.073  38.495  1.00  0.00    -0.744 OA
ENDBRANCH  59  62
ENDBRANCH  41  55
BRANCH  42  66
ATOM     66  C   UNL A   1      42.611  24.134  27.222  1.00  0.00     0.023 A 
ATOM     67  C   UNL A   1      43.316  24.392  26.030  1.00  0.00     0.012 A 
ATOM     68  C   UNL A   1      41.996  22.880  27.398  1.00  0.00     0.148 A 
ATOM     69  C   UNL A   1      43.373  23.436  25.016  1.00  0.00     0.002 A 
ATOM     70  C   UNL A   1      42.106  21.910  26.407  1.00  0.00     0.091 A 
ATOM     71  F   UNL A   1      41.316  22.656  28.530  1.00  0.00    -0.205 F 
ATOM     72  C   UNL A   1      42.777  22.192  25.207  1.00  0.00     0.022 A 
BRANCH  70  73
ATOM     73  S   UNL A   1      41.488  20.240  26.640  1.00  0.00     0.127 S 
ATOM     74  O   UNL A   1      41.924  19.584  25.409  1.00  0.00    -0.237 OA
ATOM     75  O   UNL A   1      42.198  19.814  27.848  1.00  0.00    -0.237 OA
ATOM     76  O   UNL A   1      40.050  20.382  26.815  1.00  0.00    -0.744 OA
ENDBRANCH  70  73
ENDBRANCH  42  66
BRANCH  54  77
ATOM     77  C   UNL A   1      46.802  25.907  32.516  1.00  0.00     0.023 A 
ATOM     78  C   UNL A   1      48.024  26.447  32.069  1.00  0.00     0.012 A 
ATOM     79  C   UNL A   1      46.809  24.896  33.498  1.00  0.00     0.148 A 
ATOM     80  C   UNL A   1      49.235  25.968  32.570  1.00  0.00     0.002 A 
ATOM     81  C   UNL A   1      48.017  24.458  34.026  1.00  0.00     0.091 A 
ATOM     82  F   UNL A   1      45.636  24.381  33.895  1.00  0.00    -0.205 F 
ATOM     83  C   UNL A   1      49.231  24.984  33.555  1.00  0.00     0.022 A 
BRANCH  81  84
ATOM     84  S   UNL A   1      48.101  23.265  35.367  1.00  0.00     0.127 S 
ATOM     85  O   UNL A   1      47.407  22.116  34.788  1.00  0.00    -0.237 OA
ATOM     86  O   UNL A   1      49.543  23.085  35.535  1.00  0.00    -0.237 OA
ATOM     87  O   UNL A   1      47.436  23.892  36.502  1.00  0.00    -0.744 OA
ENDBRANCH  81  84
ENDBRANCH  54  77
ENDBRANCH  28  29
ENDBRANCH  20  23
ENDBRANCH  18  19
ENDBRANCH   1  18
TORSDOF 15
ENDMDL
MODEL 3
REMARK VINA RESULT:     -10.9      4.202      9.479
REMARK SMILES C[C@@H]1CCC[C@@]1(C[NH3+])C(=O)NCCCNC(=O)c1ccc(-c2c3nc(c(-c4cccc(S(=O)(=O)[O-])c4F)c4ccc([nH]4)c(-c4cccc(S(=O)(=O)[O-])c4F)c4nc(c(-c5cccc(S(=O)(=O)[O-])c5F)c5ccc2[nH]5)C=C4)C=C3)cc1
REMARK SMILES IDX 13 1 12 2 11 3 9 4 10 5 6 7 1 8 2 9 3 10 4 11 5 12 7 13 8 14
REMARK SMILES IDX 14 18 15 19 16 20 17 22 18 23 19 24 80 25 20 26 79 27 21 28
REMARK SMILES IDX 22 29 23 30 73 31 24 32 78 33 72 34 74 35 25 36 77 37 71 38
REMARK SMILES IDX 70 39 26 41 58 42 38 43 57 44 39 45 42 46 56 47 75 48 40 49
REMARK SMILES IDX 41 50 55 52 76 53 43 54 27 55 28 56 36 57 29 58 31 59 37 60
REMARK SMILES IDX 30 61 32 62 33 63 34 64 35 65 59 66 60 67 68 68 61 69 63 70
REMARK SMILES IDX 69 71 62 72 64 73 65 74 66 75 67 76 44 77 45 78 53 79 46 80
REMARK SMILES IDX 48 81 54 82 47 83 49 84 50 85 51 86 52 87
REMARK H PARENT 11 6 8 15 8 16 8 17 15 21 74 40 42 51
REMARK Flexibility Score: inf
ROOT
ATOM      1  C   UNL A   1      32.837  27.877  26.907  1.00  0.00     0.042 C 
ENDROOT
BRANCH   1   2
ATOM      2  C   UNL A   1      32.106  26.935  25.950  1.00  0.00     0.117 C 
BRANCH   2   3
ATOM      3  N   UNL A   1      31.492  25.825  26.656  1.00  0.00    -0.355 N 
ATOM      4  C   UNL A   1      31.514  24.478  26.461  1.00  0.00     0.232 C 
ATOM      5  O   UNL A   1      30.823  23.826  27.251  1.00  0.00    -0.274 OA
ATOM      6  H   UNL A   1      30.952  26.102  27.432  1.00  0.00     0.163 HD
BRANCH   4   7
ATOM      7  C   UNL A   1      32.417  23.789  25.393  1.00  0.00     0.100 C 
ATOM      8  C   UNL A   1      34.881  24.068  24.529  1.00  0.00     0.009 C 
ATOM      9  C   UNL A   1      33.885  24.227  25.673  1.00  0.00     0.007 C 
ATOM     10  C   UNL A   1      34.287  23.345  26.865  1.00  0.00     0.005 C 
ATOM     11  C   UNL A   1      33.629  21.999  26.615  1.00  0.00     0.002 C 
ATOM     12  C   UNL A   1      32.444  22.259  25.685  1.00  0.00     0.023 C 
BRANCH   7  13
ATOM     13  C   UNL A   1      31.834  24.059  23.980  1.00  0.00     0.276 C 
BRANCH  13  14
ATOM     14  N   UNL A   1      30.374  24.061  23.843  1.00  0.00    -0.357 N 
ATOM     15  H   UNL A   1      29.985  24.847  24.363  1.00  0.00     0.344 HD
ATOM     16  H   UNL A   1      29.997  23.188  24.213  1.00  0.00     0.344 HD
ATOM     17  H   UNL A   1      30.125  24.149  22.857  1.00  0.00     0.344 HD
ENDBRANCH  13  14
ENDBRANCH   7  13
ENDBRANCH   4   7
ENDBRANCH   2   3
ENDBRANCH   1   2
BRANCH   1  18
ATOM     18  C   UNL A   1      33.886  28.756  26.225  1.00  0.00     0.118 C 
BRANCH  18  19
ATOM     19  N   UNL A   1      33.808  30.142  26.668  1.00  0.00    -0.352 N 
ATOM     20  C   UNL A   1      34.571  30.822  27.584  1.00  0.00     0.251 C 
ATOM     21  H   UNL A   1      33.096  30.674  26.243  1.00  0.00     0.163 HD
ATOM     22  O   UNL A   1      34.190  31.922  27.978  1.00  0.00    -0.269 OA
BRANCH  20  23
ATOM     23  C   UNL A   1      35.834  30.248  28.102  1.00  0.00     0.039 A 
ATOM     24  C   UNL A   1      36.978  30.306  27.300  1.00  0.00     0.014 A 
ATOM     25  C   UNL A   1      35.886  29.602  29.340  1.00  0.00     0.014 A 
ATOM     26  C   UNL A   1      38.181  29.762  27.758  1.00  0.00     0.010 A 
ATOM     27  C   UNL A   1      37.101  29.115  29.821  1.00  0.00     0.010 A 
ATOM     28  C   UNL A   1      38.260  29.181  29.034  1.00  0.00    -0.014 A 
BRANCH  28  29
ATOM     29  C   UNL A   1      39.546  28.658  29.566  1.00  0.00     0.031 A 
ATOM     30  C   UNL A   1      40.257  29.373  30.685  1.00  0.00     0.074 A 
ATOM     31  C   UNL A   1      40.124  27.595  28.972  1.00  0.00     0.049 A 
ATOM     32  N   UNL A   1      41.414  29.101  31.231  1.00  0.00    -0.248 NA
ATOM     33  C   UNL A   1      39.596  30.562  31.247  1.00  0.00     0.031 C 
ATOM     34  C   UNL A   1      39.579  26.867  27.824  1.00  0.00     0.029 A 
ATOM     35  N   UNL A   1      41.317  26.963  29.226  1.00  0.00    -0.354 N 
ATOM     36  C   UNL A   1      41.644  30.107  32.162  1.00  0.00     0.074 A 
ATOM     37  C   UNL A   1      40.511  31.004  32.100  1.00  0.00     0.031 C 
ATOM     38  C   UNL A   1      40.437  25.898  27.467  1.00  0.00     0.029 A 
ATOM     39  C   UNL A   1      41.604  25.950  28.341  1.00  0.00     0.049 A 
ATOM     40  H   UNL A   1      41.909  27.211  29.973  1.00  0.00     0.167 HD
ATOM     41  C   UNL A   1      42.692  30.259  33.005  1.00  0.00     0.034 A 
ATOM     42  C   UNL A   1      42.690  25.158  28.236  1.00  0.00     0.034 A 
ATOM     43  C   UNL A   1      43.784  29.329  33.111  1.00  0.00     0.049 A 
ATOM     44  C   UNL A   1      43.806  25.310  29.235  1.00  0.00     0.074 A 
ATOM     45  C   UNL A   1      44.824  29.325  34.025  1.00  0.00     0.029 A 
ATOM     46  N   UNL A   1      43.987  28.246  32.271  1.00  0.00    -0.354 N 
ATOM     47  N   UNL A   1      43.907  26.147  30.238  1.00  0.00    -0.248 NA
ATOM     48  C   UNL A   1      44.941  24.382  29.112  1.00  0.00     0.031 C 
ATOM     49  C   UNL A   1      45.668  28.253  33.722  1.00  0.00     0.029 A 
ATOM     50  C   UNL A   1      45.142  27.577  32.634  1.00  0.00     0.049 A 
ATOM     51  H   UNL A   1      43.396  27.991  31.526  1.00  0.00     0.167 HD
ATOM     52  C   UNL A   1      45.095  25.825  30.885  1.00  0.00     0.074 A 
ATOM     53  C   UNL A   1      45.667  24.699  30.176  1.00  0.00     0.031 C 
ATOM     54  C   UNL A   1      45.669  26.419  31.959  1.00  0.00     0.034 A 
BRANCH  41  55
ATOM     55  C   UNL A   1      42.695  31.446  33.932  1.00  0.00     0.023 A 
ATOM     56  C   UNL A   1      43.205  32.680  33.483  1.00  0.00     0.012 A 
ATOM     57  C   UNL A   1      42.102  31.365  35.209  1.00  0.00     0.148 A 
ATOM     58  C   UNL A   1      43.146  33.811  34.297  1.00  0.00     0.002 A 
ATOM     59  C   UNL A   1      42.010  32.506  35.997  1.00  0.00     0.091 A 
ATOM     60  F   UNL A   1      41.638  30.179  35.624  1.00  0.00    -0.205 F 
ATOM     61  C   UNL A   1      42.539  33.727  35.547  1.00  0.00     0.022 A 
BRANCH  59  62
ATOM     62  S   UNL A   1      41.176  32.523  37.588  1.00  0.00     0.127 S 
ATOM     63  O   UNL A   1      42.019  31.621  38.372  1.00  0.00    -0.237 OA
ATOM     64  O   UNL A   1      41.272  33.932  37.971  1.00  0.00    -0.237 OA
ATOM     65  O   UNL A   1      39.821  32.051  37.339  1.00  0.00    -0.744 OA
ENDBRANCH  59  62
ENDBRANCH  41  55
BRANCH  42  66
ATOM     66  C   UNL A   1      42.752  24.108  27.180  1.00  0.00     0.023 A 
ATOM     67  C   UNL A   1      43.473  24.359  25.996  1.00  0.00     0.012 A 
ATOM     68  C   UNL A   1      42.117  22.862  27.343  1.00  0.00     0.148 A 
ATOM     69  C   UNL A   1      43.525  23.408  24.977  1.00  0.00     0.002 A 
ATOM     70  C   UNL A   1      42.221  21.896  26.348  1.00  0.00     0.091 A 
ATOM     71  F   UNL A   1      41.421  22.643  28.468  1.00  0.00    -0.205 F 
ATOM     72  C   UNL A   1      42.907  22.173  25.157  1.00  0.00     0.022 A 
BRANCH  70  73
ATOM     73  S   UNL A   1      41.574  20.234  26.567  1.00  0.00     0.127 S 
ATOM     74  O   UNL A   1      40.132  20.474  26.590  1.00  0.00    -0.237 OA
ATOM     75  O   UNL A   1      42.064  19.551  25.368  1.00  0.00    -0.237 OA
ATOM     76  O   UNL A   1      42.163  19.752  27.808  1.00  0.00    -0.744 OA
ENDBRANCH  70  73
ENDBRANCH  42  66
BRANCH  54  77
ATOM     77  C   UNL A   1      46.968  25.848  32.465  1.00  0.00     0.023 A 
ATOM     78  C   UNL A   1      46.961  24.953  33.553  1.00  0.00     0.012 A 
ATOM     79  C   UNL A   1      48.183  26.136  31.812  1.00  0.00     0.148 A 
ATOM     80  C   UNL A   1      48.149  24.377  34.003  1.00  0.00     0.002 A 
ATOM     81  C   UNL A   1      49.355  25.521  32.236  1.00  0.00     0.091 A 
ATOM     82  F   UNL A   1      48.171  27.006  30.791  1.00  0.00    -0.205 F 
ATOM     83  C   UNL A   1      49.342  24.651  33.339  1.00  0.00     0.022 A 
BRANCH  81  84
ATOM     84  S   UNL A   1      50.918  25.740  31.377  1.00  0.00     0.127 S 
ATOM     85  O   UNL A   1      51.184  27.161  31.601  1.00  0.00    -0.237 OA
ATOM     86  O   UNL A   1      51.805  24.833  32.107  1.00  0.00    -0.237 OA
ATOM     87  O   UNL A   1      50.671  25.358  29.994  1.00  0.00    -0.744 OA
ENDBRANCH  81  84
ENDBRANCH  54  77
ENDBRANCH  28  29
ENDBRANCH  20  23
ENDBRANCH  18  19
ENDBRANCH   1  18
TORSDOF 15
ENDMDL
