MODEL 1
REMARK VINA RESULT:     -13.8      0.000      0.000
REMARK SMILES CC(C)C(=O)Nc1ccc2c([C@@H](C(=O)NCCCNC(=O)c3ccc(-c4c5nc(c(-c6cccc(S(=O)(=O)[O-])c6F)c6ccc([nH]6)c(-c6cccc(S(=O)(=O)[O-])c6F)c6nc(c(-c7cccc(S(=O)(=O)[O-])c7F)c7ccc4[nH]7)C=C6)C=C5)cc3)[NH+]3CC[NH+](Cc4ccccc4)CC3)c[nH]c2c1
REMARK SMILES IDX 17 1 16 2 15 3 13 4 14 5 12 7 11 8 7 9 8 10 101 11 9 12
REMARK SMILES IDX 100 13 10 14 99 15 98 16 6 18 4 19 5 20 2 22 1 23 3 24 85 25
REMARK SMILES IDX 86 26 97 27 87 29 96 30 88 31 89 33 90 34 91 35 95 36 92 37
REMARK SMILES IDX 94 38 93 39 18 40 19 41 20 42 21 44 22 45 23 46 84 47 24 48
REMARK SMILES IDX 83 49 25 50 26 51 27 52 77 53 28 54 82 55 76 56 78 57 29 58
REMARK SMILES IDX 81 59 75 60 74 61 30 63 62 64 42 65 61 66 43 67 46 68 60 69
REMARK SMILES IDX 79 70 44 71 45 72 59 74 80 75 47 76 31 77 32 78 40 79 33 80
REMARK SMILES IDX 35 81 41 82 34 83 36 84 37 85 38 86 39 87 63 88 64 89 72 90
REMARK SMILES IDX 65 91 67 92 73 93 66 94 68 95 69 96 70 97 71 98 48 99 49 100
REMARK SMILES IDX 57 101 50 102 52 103 58 104 51 105 53 106 54 107 55 108
REMARK SMILES IDX 56 109
REMARK H PARENT 15 6 99 17 6 21 85 28 88 32 19 43 78 62 46 73
REMARK Flexibility Score: inf
ROOT
ATOM      1  C   UNL A   1      31.654  29.016  26.828  1.00  0.00     0.042 C 
ENDROOT
BRANCH   1   2
ATOM      2  C   UNL A   1      32.107  27.615  27.214  1.00  0.00     0.118 C 
BRANCH   2   3
ATOM      3  N   UNL A   1      31.021  26.657  27.174  1.00  0.00    -0.351 N 
ATOM      4  C   UNL A   1      30.907  25.507  26.433  1.00  0.00     0.283 C 
ATOM      5  O   UNL A   1      29.854  24.879  26.580  1.00  0.00    -0.268 OA
ATOM      6  H   UNL A   1      30.257  26.859  27.762  1.00  0.00     0.163 HD
BRANCH   4   7
ATOM      7  C   UNL A   1      32.110  25.038  25.562  1.00  0.00     0.308 C 
BRANCH   7   8
ATOM      8  C   UNL A   1      32.656  26.080  24.617  1.00  0.00     0.044 A 
ATOM      9  C   UNL A   1      30.787  29.014  22.256  1.00  0.00     0.043 A 
ATOM     10  C   UNL A   1      29.962  28.011  22.742  1.00  0.00     0.027 A 
ATOM     11  C   UNL A   1      32.179  28.903  22.374  1.00  0.00     0.052 A 
ATOM     12  C   UNL A   1      30.459  27.008  23.563  1.00  0.00     0.013 A 
ATOM     13  C   UNL A   1      32.675  27.856  23.169  1.00  0.00     0.048 A 
ATOM     14  C   UNL A   1      31.841  26.939  23.805  1.00  0.00     0.009 A 
ATOM     15  N   UNL A   1      33.965  27.521  23.510  1.00  0.00    -0.361 N 
ATOM     16  C   UNL A   1      33.965  26.451  24.372  1.00  0.00     0.094 A 
ATOM     17  H   UNL A   1      34.772  27.981  23.182  1.00  0.00     0.166 HD
BRANCH   9  18
ATOM     18  N   UNL A   1      30.235  30.132  21.625  1.00  0.00    -0.326 N 
ATOM     19  C   UNL A   1      29.195  30.929  22.026  1.00  0.00     0.226 C 
ATOM     20  O   UNL A   1      28.655  31.655  21.183  1.00  0.00    -0.274 OA
ATOM     21  H   UNL A   1      30.655  30.384  20.771  1.00  0.00     0.169 HD
BRANCH  19  22
ATOM     22  C   UNL A   1      28.744  31.041  23.498  1.00  0.00     0.072 C 
ATOM     23  C   UNL A   1      29.670  31.812  24.433  1.00  0.00     0.018 C 
ATOM     24  C   UNL A   1      27.279  31.433  23.675  1.00  0.00     0.018 C 
ENDBRANCH  19  22
ENDBRANCH   9  18
ENDBRANCH   7   8
BRANCH   7  25
ATOM     25  N   UNL A   1      31.883  23.761  24.863  1.00  0.00    -0.312 N 
ATOM     26  C   UNL A   1      32.641  23.510  23.639  1.00  0.00     0.325 C 
ATOM     27  C   UNL A   1      31.697  22.610  25.748  1.00  0.00     0.325 C 
ATOM     28  H   UNL A   1      30.960  23.918  24.457  1.00  0.00     0.349 HD
ATOM     29  C   UNL A   1      33.602  22.297  23.594  1.00  0.00     0.324 C 
ATOM     30  C   UNL A   1      32.805  21.536  25.727  1.00  0.00     0.324 C 
ATOM     31  N   UNL A   1      33.269  21.123  24.402  1.00  0.00    -0.322 N 
ATOM     32  H   UNL A   1      34.136  20.604  24.542  1.00  0.00     0.348 HD
BRANCH  31  33
ATOM     33  C   UNL A   1      32.481  20.084  23.733  1.00  0.00     0.299 C 
BRANCH  33  34
ATOM     34  C   UNL A   1      32.777  18.643  24.081  1.00  0.00     0.006 A 
ATOM     35  C   UNL A   1      33.360  17.787  23.135  1.00  0.00     0.009 A 
ATOM     36  C   UNL A   1      32.539  18.156  25.373  1.00  0.00     0.009 A 
ATOM     37  C   UNL A   1      33.790  16.510  23.505  1.00  0.00     0.001 A 
ATOM     38  C   UNL A   1      32.980  16.887  25.746  1.00  0.00     0.001 A 
ATOM     39  C   UNL A   1      33.621  16.071  24.817  1.00  0.00     0.000 A 
ENDBRANCH  33  34
ENDBRANCH  31  33
ENDBRANCH   7  25
ENDBRANCH   4   7
ENDBRANCH   2   3
ENDBRANCH   1   2
BRANCH   1  40
ATOM     40  C   UNL A   1      32.730  29.812  26.108  1.00  0.00     0.118 C 
BRANCH  40  41
ATOM     41  N   UNL A   1      32.607  31.242  26.355  1.00  0.00    -0.352 N 
ATOM     42  C   UNL A   1      33.275  32.032  27.250  1.00  0.00     0.251 C 
ATOM     43  H   UNL A   1      31.944  31.709  25.795  1.00  0.00     0.163 HD
ATOM     44  O   UNL A   1      32.856  33.165  27.492  1.00  0.00    -0.269 OA
BRANCH  42  45
ATOM     45  C   UNL A   1      34.489  31.527  27.920  1.00  0.00     0.039 A 
ATOM     46  C   UNL A   1      35.571  32.389  28.108  1.00  0.00     0.014 A 
ATOM     47  C   UNL A   1      34.567  30.197  28.342  1.00  0.00     0.014 A 
ATOM     48  C   UNL A   1      36.713  31.929  28.763  1.00  0.00     0.010 A 
ATOM     49  C   UNL A   1      35.666  29.767  29.074  1.00  0.00     0.010 A 
ATOM     50  C   UNL A   1      36.759  30.621  29.275  1.00  0.00    -0.014 A 
BRANCH  50  51
ATOM     51  C   UNL A   1      37.942  30.125  30.019  1.00  0.00     0.031 A 
ATOM     52  C   UNL A   1      38.206  30.600  31.422  1.00  0.00     0.074 A 
ATOM     53  C   UNL A   1      38.824  29.319  29.398  1.00  0.00     0.049 A 
ATOM     54  N   UNL A   1      39.210  30.321  32.211  1.00  0.00    -0.248 NA
ATOM     55  C   UNL A   1      37.230  31.536  32.007  1.00  0.00     0.031 C 
ATOM     56  C   UNL A   1      38.717  28.855  28.012  1.00  0.00     0.029 A 
ATOM     57  N   UNL A   1      39.997  28.764  29.843  1.00  0.00    -0.354 N 
ATOM     58  C   UNL A   1      39.011  31.074  33.361  1.00  0.00     0.074 A 
ATOM     59  C   UNL A   1      37.809  31.850  33.156  1.00  0.00     0.031 C 
ATOM     60  C   UNL A   1      39.773  28.078  27.725  1.00  0.00     0.029 A 
ATOM     61  C   UNL A   1      40.649  28.016  28.891  1.00  0.00     0.049 A 
ATOM     62  H   UNL A   1      40.339  28.890  30.758  1.00  0.00     0.167 HD
ATOM     63  C   UNL A   1      39.748  31.098  34.497  1.00  0.00     0.034 A 
ATOM     64  C   UNL A   1      41.824  27.359  28.949  1.00  0.00     0.034 A 
ATOM     65  C   UNL A   1      40.918  30.291  34.711  1.00  0.00     0.049 A 
ATOM     66  C   UNL A   1      42.601  27.370  30.237  1.00  0.00     0.074 A 
ATOM     67  C   UNL A   1      41.676  30.162  35.860  1.00  0.00     0.029 A 
ATOM     68  N   UNL A   1      41.506  29.482  33.750  1.00  0.00    -0.354 N 
ATOM     69  N   UNL A   1      42.309  27.958  31.371  1.00  0.00    -0.248 NA
ATOM     70  C   UNL A   1      43.852  26.599  30.263  1.00  0.00     0.031 C 
ATOM     71  C   UNL A   1      42.745  29.304  35.584  1.00  0.00     0.029 A 
ATOM     72  C   UNL A   1      42.629  28.866  34.274  1.00  0.00     0.049 A 
ATOM     73  H   UNL A   1      41.174  29.364  32.831  1.00  0.00     0.167 HD
ATOM     74  C   UNL A   1      43.318  27.597  32.258  1.00  0.00     0.074 A 
ATOM     75  C   UNL A   1      44.218  26.725  31.532  1.00  0.00     0.031 C 
ATOM     76  C   UNL A   1      43.490  27.963  33.552  1.00  0.00     0.034 A 
BRANCH  63  77
ATOM     77  C   UNL A   1      39.288  32.000  35.613  1.00  0.00     0.023 A 
ATOM     78  C   UNL A   1      38.394  31.510  36.588  1.00  0.00     0.012 A 
ATOM     79  C   UNL A   1      39.780  33.315  35.729  1.00  0.00     0.148 A 
ATOM     80  C   UNL A   1      37.965  32.326  37.635  1.00  0.00     0.002 A 
ATOM     81  C   UNL A   1      39.387  34.106  36.802  1.00  0.00     0.091 A 
ATOM     82  F   UNL A   1      40.611  33.771  34.782  1.00  0.00    -0.205 F 
ATOM     83  C   UNL A   1      38.470  33.617  37.748  1.00  0.00     0.022 A 
BRANCH  81  84
ATOM     84  S   UNL A   1      40.044  35.753  37.082  1.00  0.00     0.127 S 
ATOM     85  O   UNL A   1      41.476  35.484  37.199  1.00  0.00    -0.237 OA
ATOM     86  O   UNL A   1      39.653  36.452  35.858  1.00  0.00    -0.237 OA
ATOM     87  O   UNL A   1      39.400  36.243  38.293  1.00  0.00    -0.744 OA
ENDBRANCH  81  84
ENDBRANCH  63  77
BRANCH  64  88
ATOM     88  C   UNL A   1      42.300  26.582  27.771  1.00  0.00     0.023 A 
ATOM     89  C   UNL A   1      43.155  27.200  26.836  1.00  0.00     0.012 A 
ATOM     90  C   UNL A   1      41.940  25.234  27.587  1.00  0.00     0.148 A 
ATOM     91  C   UNL A   1      43.616  26.499  25.722  1.00  0.00     0.002 A 
ATOM     92  C   UNL A   1      42.449  24.523  26.505  1.00  0.00     0.091 A 
ATOM     93  F   UNL A   1      41.121  24.667  28.483  1.00  0.00    -0.205 F 
ATOM     94  C   UNL A   1      43.271  25.159  25.562  1.00  0.00     0.022 A 
BRANCH  92  95
ATOM     95  S   UNL A   1      42.166  22.762  26.292  1.00  0.00     0.127 S 
ATOM     96  O   UNL A   1      42.803  22.510  25.002  1.00  0.00    -0.237 OA
ATOM     97  O   UNL A   1      42.867  22.203  27.448  1.00  0.00    -0.237 OA
ATOM     98  O   UNL A   1      40.720  22.585  26.328  1.00  0.00    -0.744 OA
ENDBRANCH  92  95
ENDBRANCH  64  88
BRANCH  76  99
ATOM     99  C   UNL A   1      44.673  27.392  34.288  1.00  0.00     0.023 A 
ATOM    100  C   UNL A   1      45.892  28.097  34.318  1.00  0.00     0.012 A 
ATOM    101  C   UNL A   1      44.551  26.190  35.015  1.00  0.00     0.148 A 
ATOM    102  C   UNL A   1      46.982  27.598  35.030  1.00  0.00     0.002 A 
ATOM    103  C   UNL A   1      45.624  25.727  35.766  1.00  0.00     0.091 A 
ATOM    104  F   UNL A   1      43.389  25.525  34.960  1.00  0.00    -0.205 F 
ATOM    105  C   UNL A   1      46.845  26.421  35.763  1.00  0.00     0.022 A 
BRANCH 103 106
ATOM    106  S   UNL A   1      45.507  24.277  36.820  1.00  0.00     0.127 S 
ATOM    107  O   UNL A   1      44.492  24.693  37.786  1.00  0.00    -0.237 OA
ATOM    108  O   UNL A   1      45.069  23.246  35.878  1.00  0.00    -0.237 OA
ATOM    109  O   UNL A   1      46.841  24.069  37.366  1.00  0.00    -0.744 OA
ENDBRANCH 103 106
ENDBRANCH  76  99
ENDBRANCH  50  51
ENDBRANCH  42  45
ENDBRANCH  40  41
ENDBRANCH   1  40
TORSDOF 19
ENDMDL
MODEL 2
REMARK VINA RESULT:     -13.5      3.896      8.396
REMARK SMILES CC(C)C(=O)Nc1ccc2c([C@@H](C(=O)NCCCNC(=O)c3ccc(-c4c5nc(c(-c6cccc(S(=O)(=O)[O-])c6F)c6ccc([nH]6)c(-c6cccc(S(=O)(=O)[O-])c6F)c6nc(c(-c7cccc(S(=O)(=O)[O-])c7F)c7ccc4[nH]7)C=C6)C=C5)cc3)[NH+]3CC[NH+](Cc4ccccc4)CC3)c[nH]c2c1
REMARK SMILES IDX 17 1 16 2 15 3 13 4 14 5 12 7 11 8 7 9 8 10 101 11 9 12
REMARK SMILES IDX 100 13 10 14 99 15 98 16 6 18 4 19 5 20 2 22 1 23 3 24 85 25
REMARK SMILES IDX 86 26 97 27 87 29 96 30 88 31 89 33 90 34 91 35 95 36 92 37
REMARK SMILES IDX 94 38 93 39 18 40 19 41 20 42 21 44 22 45 23 46 84 47 24 48
REMARK SMILES IDX 83 49 25 50 26 51 27 52 77 53 28 54 82 55 76 56 78 57 29 58
REMARK SMILES IDX 81 59 75 60 74 61 30 63 62 64 42 65 61 66 43 67 46 68 60 69
REMARK SMILES IDX 79 70 44 71 45 72 59 74 80 75 47 76 31 77 32 78 40 79 33 80
REMARK SMILES IDX 35 81 41 82 34 83 36 84 37 85 38 86 39 87 63 88 64 89 72 90
REMARK SMILES IDX 65 91 67 92 73 93 66 94 68 95 69 96 70 97 71 98 48 99 49 100
REMARK SMILES IDX 57 101 50 102 52 103 58 104 51 105 53 106 54 107 55 108
REMARK SMILES IDX 56 109
REMARK H PARENT 15 6 99 17 6 21 85 28 88 32 19 43 78 62 46 73
REMARK Flexibility Score: inf
ROOT
ATOM      1  C   UNL A   1      35.748  23.640  24.912  1.00  0.00     0.042 C 
ENDROOT
BRANCH   1   2
ATOM      2  C   UNL A   1      34.878  24.878  24.742  1.00  0.00     0.118 C 
BRANCH   2   3
ATOM      3  N   UNL A   1      33.914  25.021  25.814  1.00  0.00    -0.351 N 
ATOM      4  C   UNL A   1      32.546  25.109  25.742  1.00  0.00     0.283 C 
ATOM      5  O   UNL A   1      31.962  25.247  26.821  1.00  0.00    -0.268 OA
ATOM      6  H   UNL A   1      34.293  25.062  26.721  1.00  0.00     0.163 HD
BRANCH   4   7
ATOM      7  C   UNL A   1      31.841  24.937  24.364  1.00  0.00     0.308 C 
BRANCH   7   8
ATOM      8  C   UNL A   1      30.588  25.758  24.183  1.00  0.00     0.044 A 
ATOM      9  C   UNL A   1      29.839  29.368  22.163  1.00  0.00     0.043 A 
ATOM     10  C   UNL A   1      31.173  29.076  22.408  1.00  0.00     0.027 A 
ATOM     11  C   UNL A   1      28.827  28.605  22.760  1.00  0.00     0.052 A 
ATOM     12  C   UNL A   1      31.545  27.895  23.035  1.00  0.00     0.013 A 
ATOM     13  C   UNL A   1      29.218  27.435  23.434  1.00  0.00     0.048 A 
ATOM     14  C   UNL A   1      30.549  27.040  23.538  1.00  0.00     0.009 A 
ATOM     15  N   UNL A   1      28.468  26.471  24.066  1.00  0.00    -0.361 N 
ATOM     16  C   UNL A   1      29.281  25.464  24.527  1.00  0.00     0.094 A 
ATOM     17  H   UNL A   1      27.489  26.498  24.174  1.00  0.00     0.166 HD
BRANCH   9  18
ATOM     18  N   UNL A   1      29.497  30.442  21.336  1.00  0.00    -0.326 N 
ATOM     19  C   UNL A   1      28.814  31.589  21.643  1.00  0.00     0.226 C 
ATOM     20  O   UNL A   1      28.334  32.252  20.715  1.00  0.00    -0.274 OA
ATOM     21  H   UNL A   1      29.789  30.362  20.400  1.00  0.00     0.169 HD
BRANCH  19  22
ATOM     22  C   UNL A   1      28.716  32.147  23.080  1.00  0.00     0.072 C 
ATOM     23  C   UNL A   1      29.001  33.636  23.249  1.00  0.00     0.018 C 
ATOM     24  C   UNL A   1      27.468  31.702  23.839  1.00  0.00     0.018 C 
ENDBRANCH  19  22
ENDBRANCH   9  18
ENDBRANCH   7   8
BRANCH   7  25
ATOM     25  N   UNL A   1      31.611  23.534  23.978  1.00  0.00    -0.312 N 
ATOM     26  C   UNL A   1      32.381  23.001  22.855  1.00  0.00     0.325 C 
ATOM     27  C   UNL A   1      31.405  22.621  25.103  1.00  0.00     0.325 C 
ATOM     28  H   UNL A   1      30.695  23.597  23.534  1.00  0.00     0.349 HD
ATOM     29  C   UNL A   1      33.333  21.806  23.107  1.00  0.00     0.324 C 
ATOM     30  C   UNL A   1      32.504  21.565  25.347  1.00  0.00     0.324 C 
ATOM     31  N   UNL A   1      32.980  20.853  24.160  1.00  0.00    -0.322 N 
ATOM     32  H   UNL A   1      33.841  20.376  24.429  1.00  0.00     0.348 HD
BRANCH  31  33
ATOM     33  C   UNL A   1      32.191  19.692  23.740  1.00  0.00     0.299 C 
BRANCH  33  34
ATOM     34  C   UNL A   1      32.712  18.320  24.101  1.00  0.00     0.006 A 
ATOM     35  C   UNL A   1      33.411  17.552  23.158  1.00  0.00     0.009 A 
ATOM     36  C   UNL A   1      32.568  17.819  25.402  1.00  0.00     0.009 A 
ATOM     37  C   UNL A   1      34.039  16.363  23.537  1.00  0.00     0.001 A 
ATOM     38  C   UNL A   1      33.205  16.639  25.783  1.00  0.00     0.001 A 
ATOM     39  C   UNL A   1      33.955  15.921  24.855  1.00  0.00     0.000 A 
ENDBRANCH  33  34
ENDBRANCH  31  33
ENDBRANCH   7  25
ENDBRANCH   4   7
ENDBRANCH   2   3
ENDBRANCH   1   2
BRANCH   1  40
ATOM     40  C   UNL A   1      36.457  23.591  26.256  1.00  0.00     0.118 C 
BRANCH  40  41
ATOM     41  N   UNL A   1      37.540  22.618  26.265  1.00  0.00    -0.352 N 
ATOM     42  C   UNL A   1      38.887  22.816  26.398  1.00  0.00     0.251 C 
ATOM     43  H   UNL A   1      37.262  21.678  26.161  1.00  0.00     0.163 HD
ATOM     44  O   UNL A   1      39.666  21.900  26.125  1.00  0.00    -0.269 OA
BRANCH  42  45
ATOM     45  C   UNL A   1      39.401  24.118  26.862  1.00  0.00     0.039 A 
ATOM     46  C   UNL A   1      39.981  24.990  25.939  1.00  0.00     0.014 A 
ATOM     47  C   UNL A   1      39.331  24.469  28.214  1.00  0.00     0.014 A 
ATOM     48  C   UNL A   1      40.448  26.234  26.364  1.00  0.00     0.010 A 
ATOM     49  C   UNL A   1      39.711  25.742  28.619  1.00  0.00     0.010 A 
ATOM     50  C   UNL A   1      40.291  26.630  27.703  1.00  0.00    -0.014 A 
BRANCH  50  51
ATOM     51  C   UNL A   1      40.733  27.968  28.168  1.00  0.00     0.031 A 
ATOM     52  C   UNL A   1      42.199  28.310  28.201  1.00  0.00     0.074 A 
ATOM     53  C   UNL A   1      39.822  28.838  28.641  1.00  0.00     0.049 A 
ATOM     54  N   UNL A   1      42.779  29.403  28.622  1.00  0.00    -0.248 NA
ATOM     55  C   UNL A   1      43.137  27.277  27.730  1.00  0.00     0.031 C 
ATOM     56  C   UNL A   1      38.381  28.589  28.734  1.00  0.00     0.029 A 
ATOM     57  N   UNL A   1      39.973  30.101  29.158  1.00  0.00    -0.354 N 
ATOM     58  C   UNL A   1      44.145  29.176  28.506  1.00  0.00     0.074 A 
ATOM     59  C   UNL A   1      44.309  27.828  28.009  1.00  0.00     0.031 C 
ATOM     60  C   UNL A   1      37.781  29.667  29.262  1.00  0.00     0.029 A 
ATOM     61  C   UNL A   1      38.794  30.669  29.578  1.00  0.00     0.049 A 
ATOM     62  H   UNL A   1      40.844  30.556  29.220  1.00  0.00     0.167 HD
ATOM     63  C   UNL A   1      45.170  30.022  28.764  1.00  0.00     0.034 A 
ATOM     64  C   UNL A   1      38.556  31.861  30.159  1.00  0.00     0.034 A 
ATOM     65  C   UNL A   1      44.997  31.375  29.217  1.00  0.00     0.049 A 
ATOM     66  C   UNL A   1      39.709  32.797  30.398  1.00  0.00     0.074 A 
ATOM     67  C   UNL A   1      45.962  32.347  29.410  1.00  0.00     0.029 A 
ATOM     68  N   UNL A   1      43.780  31.946  29.558  1.00  0.00    -0.354 N 
ATOM     69  N   UNL A   1      40.980  32.626  30.127  1.00  0.00    -0.248 NA
ATOM     70  C   UNL A   1      39.391  34.103  30.990  1.00  0.00     0.031 C 
ATOM     71  C   UNL A   1      45.332  33.495  29.903  1.00  0.00     0.029 A 
ATOM     72  C   UNL A   1      43.970  33.250  29.979  1.00  0.00     0.049 A 
ATOM     73  H   UNL A   1      42.909  31.489  29.508  1.00  0.00     0.167 HD
ATOM     74  C   UNL A   1      41.608  33.815  30.479  1.00  0.00     0.074 A 
ATOM     75  C   UNL A   1      40.573  34.704  30.965  1.00  0.00     0.031 C 
ATOM     76  C   UNL A   1      42.923  34.139  30.416  1.00  0.00     0.034 A 
BRANCH  63  77
ATOM     77  C   UNL A   1      46.571  29.520  28.528  1.00  0.00     0.023 A 
ATOM     78  C   UNL A   1      47.193  29.737  27.281  1.00  0.00     0.012 A 
ATOM     79  C   UNL A   1      47.293  28.881  29.555  1.00  0.00     0.148 A 
ATOM     80  C   UNL A   1      48.493  29.291  27.046  1.00  0.00     0.002 A 
ATOM     81  C   UNL A   1      48.605  28.483  29.330  1.00  0.00     0.091 A 
ATOM     82  F   UNL A   1      46.679  28.663  30.727  1.00  0.00    -0.205 F 
ATOM     83  C   UNL A   1      49.202  28.675  28.073  1.00  0.00     0.022 A 
BRANCH  81  84
ATOM     84  S   UNL A   1      49.630  27.756  30.614  1.00  0.00     0.127 S 
ATOM     85  O   UNL A   1      48.936  26.494  30.866  1.00  0.00    -0.237 OA
ATOM     86  O   UNL A   1      50.919  27.617  29.936  1.00  0.00    -0.237 OA
ATOM     87  O   UNL A   1      49.623  28.703  31.719  1.00  0.00    -0.744 OA
ENDBRANCH  81  84
ENDBRANCH  63  77
BRANCH  64  88
ATOM     88  C   UNL A   1      37.160  32.260  30.492  1.00  0.00     0.023 A 
ATOM     89  C   UNL A   1      36.683  32.072  31.805  1.00  0.00     0.012 A 
ATOM     90  C   UNL A   1      36.317  32.852  29.532  1.00  0.00     0.148 A 
ATOM     91  C   UNL A   1      35.380  32.435  32.146  1.00  0.00     0.002 A 
ATOM     92  C   UNL A   1      35.040  33.264  29.894  1.00  0.00     0.091 A 
ATOM     93  F   UNL A   1      36.789  33.016  28.289  1.00  0.00    -0.205 F 
ATOM     94  C   UNL A   1      34.563  33.039  31.194  1.00  0.00     0.022 A 
BRANCH  92  95
ATOM     95  S   UNL A   1      33.967  34.169  28.772  1.00  0.00     0.127 S 
ATOM     96  O   UNL A   1      33.620  33.141  27.795  1.00  0.00    -0.237 OA
ATOM     97  O   UNL A   1      32.877  34.573  29.660  1.00  0.00    -0.237 OA
ATOM     98  O   UNL A   1      34.767  35.277  28.266  1.00  0.00    -0.744 OA
ENDBRANCH  92  95
ENDBRANCH  64  88
BRANCH  76  99
ATOM     99  C   UNL A   1      43.323  35.527  30.844  1.00  0.00     0.023 A 
ATOM    100  C   UNL A   1      43.518  36.533  29.878  1.00  0.00     0.012 A 
ATOM    101  C   UNL A   1      43.429  35.850  32.211  1.00  0.00     0.148 A 
ATOM    102  C   UNL A   1      43.848  37.832  30.265  1.00  0.00     0.002 A 
ATOM    103  C   UNL A   1      43.706  37.157  32.592  1.00  0.00     0.091 A 
ATOM    104  F   UNL A   1      43.258  34.874  33.114  1.00  0.00    -0.205 F 
ATOM    105  C   UNL A   1      43.931  38.146  31.620  1.00  0.00     0.022 A 
BRANCH 103 106
ATOM    106  S   UNL A   1      43.731  37.675  34.311  1.00  0.00     0.127 S 
ATOM    107  O   UNL A   1      42.653  36.867  34.880  1.00  0.00    -0.237 OA
ATOM    108  O   UNL A   1      45.076  37.284  34.732  1.00  0.00    -0.237 OA
ATOM    109  O   UNL A   1      43.494  39.112  34.301  1.00  0.00    -0.744 OA
ENDBRANCH 103 106
ENDBRANCH  76  99
ENDBRANCH  50  51
ENDBRANCH  42  45
ENDBRANCH  40  41
ENDBRANCH   1  40
TORSDOF 19
ENDMDL
MODEL 3
REMARK VINA RESULT:     -13.4      4.518      8.778
REMARK SMILES CC(C)C(=O)Nc1ccc2c([C@@H](C(=O)NCCCNC(=O)c3ccc(-c4c5nc(c(-c6cccc(S(=O)(=O)[O-])c6F)c6ccc([nH]6)c(-c6cccc(S(=O)(=O)[O-])c6F)c6nc(c(-c7cccc(S(=O)(=O)[O-])c7F)c7ccc4[nH]7)C=C6)C=C5)cc3)[NH+]3CC[NH+](Cc4ccccc4)CC3)c[nH]c2c1
REMARK SMILES IDX 17 1 16 2 15 3 13 4 14 5 12 7 11 8 7 9 8 10 101 11 9 12
REMARK SMILES IDX 100 13 10 14 99 15 98 16 6 18 4 19 5 20 2 22 1 23 3 24 85 25
REMARK SMILES IDX 86 26 97 27 87 29 96 30 88 31 89 33 90 34 91 35 95 36 92 37
REMARK SMILES IDX 94 38 93 39 18 40 19 41 20 42 21 44 22 45 23 46 84 47 24 48
REMARK SMILES IDX 83 49 25 50 26 51 27 52 77 53 28 54 82 55 76 56 78 57 29 58
REMARK SMILES IDX 81 59 75 60 74 61 30 63 62 64 42 65 61 66 43 67 46 68 60 69
REMARK SMILES IDX 79 70 44 71 45 72 59 74 80 75 47 76 31 77 32 78 40 79 33 80
REMARK SMILES IDX 35 81 41 82 34 83 36 84 37 85 38 86 39 87 63 88 64 89 72 90
REMARK SMILES IDX 65 91 67 92 73 93 66 94 68 95 69 96 70 97 71 98 48 99 49 100
REMARK SMILES IDX 57 101 50 102 52 103 58 104 51 105 53 106 54 107 55 108
REMARK SMILES IDX 56 109
REMARK H PARENT 15 6 99 17 6 21 85 28 88 32 19 43 78 62 46 73
REMARK Flexibility Score: inf
ROOT
ATOM      1  C   UNL A   1      36.443  23.579  24.227  1.00  0.00     0.042 C 
ENDROOT
BRANCH   1   2
ATOM      2  C   UNL A   1      35.205  24.381  23.848  1.00  0.00     0.118 C 
BRANCH   2   3
ATOM      3  N   UNL A   1      34.629  25.068  24.985  1.00  0.00    -0.351 N 
ATOM      4  C   UNL A   1      33.312  25.356  25.247  1.00  0.00     0.283 C 
ATOM      5  O   UNL A   1      33.099  25.975  26.293  1.00  0.00    -0.268 OA
ATOM      6  H   UNL A   1      35.271  25.371  25.666  1.00  0.00     0.163 HD
BRANCH   4   7
ATOM      7  C   UNL A   1      32.208  24.816  24.290  1.00  0.00     0.308 C 
BRANCH   7   8
ATOM      8  C   UNL A   1      30.959  25.658  24.220  1.00  0.00     0.044 A 
ATOM      9  C   UNL A   1      30.059  29.219  22.175  1.00  0.00     0.043 A 
ATOM     10  C   UNL A   1      31.406  28.905  22.281  1.00  0.00     0.027 A 
ATOM     11  C   UNL A   1      29.105  28.498  22.904  1.00  0.00     0.052 A 
ATOM     12  C   UNL A   1      31.822  27.736  22.903  1.00  0.00     0.013 A 
ATOM     13  C   UNL A   1      29.545  27.341  23.570  1.00  0.00     0.048 A 
ATOM     14  C   UNL A   1      30.873  26.920  23.541  1.00  0.00     0.009 A 
ATOM     15  N   UNL A   1      28.852  26.414  24.313  1.00  0.00    -0.361 N 
ATOM     16  C   UNL A   1      29.692  25.404  24.715  1.00  0.00     0.094 A 
ATOM     17  H   UNL A   1      27.892  26.467  24.527  1.00  0.00     0.166 HD
BRANCH   9  18
ATOM     18  N   UNL A   1      29.648  30.273  21.355  1.00  0.00    -0.326 N 
ATOM     19  C   UNL A   1      28.893  31.373  21.669  1.00  0.00     0.226 C 
ATOM     20  O   UNL A   1      28.371  32.009  20.746  1.00  0.00    -0.274 OA
ATOM     21  H   UNL A   1      29.944  30.219  20.417  1.00  0.00     0.169 HD
BRANCH  19  22
ATOM     22  C   UNL A   1      28.760  31.914  23.109  1.00  0.00     0.072 C 
ATOM     23  C   UNL A   1      29.082  33.392  23.310  1.00  0.00     0.018 C 
ATOM     24  C   UNL A   1      27.474  31.495  23.818  1.00  0.00     0.018 C 
ENDBRANCH  19  22
ENDBRANCH   9  18
ENDBRANCH   7   8
BRANCH   7  25
ATOM     25  N   UNL A   1      31.875  23.396  24.499  1.00  0.00    -0.312 N 
ATOM     26  C   UNL A   1      31.938  22.504  23.343  1.00  0.00     0.325 C 
ATOM     27  C   UNL A   1      32.357  22.839  25.764  1.00  0.00     0.325 C 
ATOM     28  H   UNL A   1      30.862  23.444  24.615  1.00  0.00     0.349 HD
ATOM     29  C   UNL A   1      32.931  21.316  23.373  1.00  0.00     0.324 C 
ATOM     30  C   UNL A   1      33.463  21.767  25.671  1.00  0.00     0.324 C 
ATOM     31  N   UNL A   1      33.253  20.719  24.670  1.00  0.00    -0.322 N 
ATOM     32  H   UNL A   1      34.143  20.234  24.561  1.00  0.00     0.348 HD
BRANCH  31  33
ATOM     33  C   UNL A   1      32.420  19.586  25.082  1.00  0.00     0.299 C 
BRANCH  33  34
ATOM     34  C   UNL A   1      33.021  18.202  24.991  1.00  0.00     0.006 A 
ATOM     35  C   UNL A   1      34.334  18.024  24.531  1.00  0.00     0.009 A 
ATOM     36  C   UNL A   1      32.304  17.080  25.429  1.00  0.00     0.009 A 
ATOM     37  C   UNL A   1      34.948  16.772  24.607  1.00  0.00     0.001 A 
ATOM     38  C   UNL A   1      32.921  15.833  25.517  1.00  0.00     0.001 A 
ATOM     39  C   UNL A   1      34.248  15.683  25.123  1.00  0.00     0.000 A 
ENDBRANCH  33  34
ENDBRANCH  31  33
ENDBRANCH   7  25
ENDBRANCH   4   7
ENDBRANCH   2   3
ENDBRANCH   1   2
BRANCH   1  40
ATOM     40  C   UNL A   1      36.614  23.422  25.729  1.00  0.00     0.118 C 
BRANCH  40  41
ATOM     41  N   UNL A   1      37.671  22.478  26.061  1.00  0.00    -0.352 N 
ATOM     42  C   UNL A   1      38.950  22.716  26.486  1.00  0.00     0.251 C 
ATOM     43  H   UNL A   1      37.431  21.527  25.966  1.00  0.00     0.163 HD
ATOM     44  O   UNL A   1      39.776  21.802  26.470  1.00  0.00    -0.269 OA
BRANCH  42  45
ATOM     45  C   UNL A   1      39.334  24.060  26.958  1.00  0.00     0.039 A 
ATOM     46  C   UNL A   1      39.118  24.400  28.295  1.00  0.00     0.014 A 
ATOM     47  C   UNL A   1      39.887  24.993  26.076  1.00  0.00     0.014 A 
ATOM     48  C   UNL A   1      39.500  25.659  28.757  1.00  0.00     0.010 A 
ATOM     49  C   UNL A   1      40.351  26.210  26.557  1.00  0.00     0.010 A 
ATOM     50  C   UNL A   1      40.145  26.564  27.898  1.00  0.00    -0.014 A 
BRANCH  50  51
ATOM     51  C   UNL A   1      40.607  27.889  28.379  1.00  0.00     0.031 A 
ATOM     52  C   UNL A   1      42.078  28.189  28.472  1.00  0.00     0.074 A 
ATOM     53  C   UNL A   1      39.702  28.786  28.816  1.00  0.00     0.049 A 
ATOM     54  N   UNL A   1      42.673  29.265  28.915  1.00  0.00    -0.248 NA
ATOM     55  C   UNL A   1      43.005  27.129  28.039  1.00  0.00     0.031 C 
ATOM     56  C   UNL A   1      38.252  28.579  28.850  1.00  0.00     0.029 A 
ATOM     57  N   UNL A   1      39.869  30.044  29.337  1.00  0.00    -0.354 N 
ATOM     58  C   UNL A   1      44.035  28.999  28.854  1.00  0.00     0.074 A 
ATOM     59  C   UNL A   1      44.180  27.646  28.365  1.00  0.00     0.031 C 
ATOM     60  C   UNL A   1      37.662  29.675  29.353  1.00  0.00     0.029 A 
ATOM     61  C   UNL A   1      38.691  30.647  29.709  1.00  0.00     0.049 A 
ATOM     62  H   UNL A   1      40.749  30.475  29.434  1.00  0.00     0.167 HD
ATOM     63  C   UNL A   1      45.073  29.815  29.153  1.00  0.00     0.034 A 
ATOM     64  C   UNL A   1      38.464  31.847  30.280  1.00  0.00     0.034 A 
ATOM     65  C   UNL A   1      44.922  31.174  29.598  1.00  0.00     0.049 A 
ATOM     66  C   UNL A   1      39.633  32.750  30.564  1.00  0.00     0.074 A 
ATOM     67  C   UNL A   1      45.905  32.118  29.829  1.00  0.00     0.029 A 
ATOM     68  N   UNL A   1      43.709  31.780  29.889  1.00  0.00    -0.354 N 
ATOM     69  N   UNL A   1      40.909  32.541  30.345  1.00  0.00    -0.248 NA
ATOM     70  C   UNL A   1      39.330  34.066  31.142  1.00  0.00     0.031 C 
ATOM     71  C   UNL A   1      45.290  33.284  30.295  1.00  0.00     0.029 A 
ATOM     72  C   UNL A   1      43.919  33.079  30.316  1.00  0.00     0.049 A 
ATOM     73  H   UNL A   1      42.827  31.348  29.805  1.00  0.00     0.167 HD
ATOM     74  C   UNL A   1      41.557  33.713  30.721  1.00  0.00     0.074 A 
ATOM     75  C   UNL A   1      40.529  34.632  31.165  1.00  0.00     0.031 C 
ATOM     76  C   UNL A   1      42.882  33.998  30.710  1.00  0.00     0.034 A 
BRANCH  63  77
ATOM     77  C   UNL A   1      46.467  29.272  28.974  1.00  0.00     0.023 A 
ATOM     78  C   UNL A   1      47.210  28.860  30.101  1.00  0.00     0.012 A 
ATOM     79  C   UNL A   1      47.024  29.119  27.689  1.00  0.00     0.148 A 
ATOM     80  C   UNL A   1      48.497  28.344  29.955  1.00  0.00     0.002 A 
ATOM     81  C   UNL A   1      48.288  28.558  27.548  1.00  0.00     0.091 A 
ATOM     82  F   UNL A   1      46.314  29.536  26.632  1.00  0.00    -0.205 F 
ATOM     83  C   UNL A   1      49.030  28.183  28.680  1.00  0.00     0.022 A 
BRANCH  81  84
ATOM     84  S   UNL A   1      49.029  28.232  25.945  1.00  0.00     0.127 S 
ATOM     85  O   UNL A   1      47.886  28.409  25.051  1.00  0.00    -0.237 OA
ATOM     86  O   UNL A   1      50.042  29.284  25.855  1.00  0.00    -0.237 OA
ATOM     87  O   UNL A   1      49.562  26.879  26.016  1.00  0.00    -0.744 OA
ENDBRANCH  81  84
ENDBRANCH  63  77
BRANCH  64  88
ATOM     88  C   UNL A   1      37.069  32.287  30.556  1.00  0.00     0.023 A 
ATOM     89  C   UNL A   1      36.546  32.150  31.858  1.00  0.00     0.012 A 
ATOM     90  C   UNL A   1      36.269  32.866  29.552  1.00  0.00     0.148 A 
ATOM     91  C   UNL A   1      35.243  32.552  32.147  1.00  0.00     0.002 A 
ATOM     92  C   UNL A   1      34.991  33.317  29.860  1.00  0.00     0.091 A 
ATOM     93  F   UNL A   1      36.783  32.981  28.320  1.00  0.00    -0.205 F 
ATOM     94  C   UNL A   1      34.469  33.144  31.151  1.00  0.00     0.022 A 
BRANCH  92  95
ATOM     95  S   UNL A   1      33.975  34.210  28.678  1.00  0.00     0.127 S 
ATOM     96  O   UNL A   1      34.867  35.293  28.273  1.00  0.00    -0.237 OA
ATOM     97  O   UNL A   1      33.737  33.190  27.656  1.00  0.00    -0.237 OA
ATOM     98  O   UNL A   1      32.780  34.614  29.407  1.00  0.00    -0.744 OA
ENDBRANCH  92  95
ENDBRANCH  64  88
BRANCH  76  99
ATOM     99  C   UNL A   1      43.304  35.375  31.153  1.00  0.00     0.023 A 
ATOM    100  C   UNL A   1      43.597  35.620  32.509  1.00  0.00     0.012 A 
ATOM    101  C   UNL A   1      43.483  36.406  30.209  1.00  0.00     0.148 A 
ATOM    102  C   UNL A   1      44.028  36.879  32.924  1.00  0.00     0.002 A 
ATOM    103  C   UNL A   1      43.963  37.642  30.622  1.00  0.00     0.091 A 
ATOM    104  F   UNL A   1      43.182  36.158  28.926  1.00  0.00    -0.205 F 
ATOM    105  C   UNL A   1      44.222  37.885  31.981  1.00  0.00     0.022 A 
BRANCH 103 106
ATOM    106  S   UNL A   1      44.341  38.963  29.465  1.00  0.00     0.127 S 
ATOM    107  O   UNL A   1      44.659  40.068  30.369  1.00  0.00    -0.237 OA
ATOM    108  O   UNL A   1      45.488  38.418  28.738  1.00  0.00    -0.237 OA
ATOM    109  O   UNL A   1      43.144  39.144  28.657  1.00  0.00    -0.744 OA
ENDBRANCH 103 106
ENDBRANCH  76  99
ENDBRANCH  50  51
ENDBRANCH  42  45
ENDBRANCH  40  41
ENDBRANCH   1  40
TORSDOF 19
ENDMDL
