MODEL 1
REMARK VINA RESULT:     -11.5      0.000      0.000
REMARK SMILES CCc1n[nH]c(C(=O)N(C)[C@H]2COC[C@H]2C(=O)NCCCNC(=O)c2ccc(-c3c4nc(c(-c5cccc(S(=O)(=O)[O-])c5F)c5ccc([nH]5)c(-c5cccc(S(=O)(=O)[O-])c5F)c5nc(c(-c6cccc(S(=O)(=O)[O-])c6F)c6ccc3[nH]6)C=C5)C=C4)cc2)n1
REMARK SMILES IDX 19 1 18 2 16 3 17 4 15 6 11 7 12 8 13 9 14 10 9 11 10 12
REMARK SMILES IDX 7 13 8 14 6 15 3 16 4 17 88 18 5 19 2 21 1 22 20 23 21 24
REMARK SMILES IDX 22 25 23 26 24 28 25 29 26 30 87 31 27 32 86 33 28 34 29 35
REMARK SMILES IDX 30 36 80 37 31 38 85 39 79 40 81 41 32 42 84 43 78 44 77 45
REMARK SMILES IDX 33 47 65 48 45 49 64 50 46 51 49 52 63 53 82 54 47 55 48 56
REMARK SMILES IDX 62 58 83 59 50 60 34 61 35 62 43 63 36 64 38 65 44 66 37 67
REMARK SMILES IDX 39 68 40 69 41 70 42 71 66 72 67 73 75 74 68 75 70 76 76 77
REMARK SMILES IDX 69 78 71 79 72 80 73 81 74 82 51 83 52 84 60 85 53 86 55 87
REMARK SMILES IDX 61 88 54 89 56 90 57 91 58 92 59 93
REMARK H PARENT 18 5 5 20 22 27 81 46 49 57
REMARK Flexibility Score: inf
ROOT
ATOM      1  C   UNL A   1      33.369  26.309  25.845  1.00  0.00     0.117 C 
ENDROOT
BRANCH   1   2
ATOM      2  N   UNL A   1      33.483  25.887  24.459  1.00  0.00    -0.356 N 
ATOM      3  C   UNL A   1      34.196  24.921  23.833  1.00  0.00     0.227 C 
ATOM      4  O   UNL A   1      34.178  24.965  22.594  1.00  0.00    -0.275 OA
ATOM      5  H   UNL A   1      32.924  26.415  23.845  1.00  0.00     0.163 HD
BRANCH   3   6
ATOM      6  C   UNL A   1      34.970  23.806  24.504  1.00  0.00     0.129 C 
ATOM      7  C   UNL A   1      34.290  22.787  25.414  1.00  0.00     0.125 C 
ATOM      8  C   UNL A   1      35.409  21.744  25.537  1.00  0.00     0.186 C 
ATOM      9  O   UNL A   1      36.139  21.746  24.298  1.00  0.00    -0.378 OA
ATOM     10  C   UNL A   1      35.972  23.028  23.679  1.00  0.00     0.176 C 
BRANCH   7  11
ATOM     11  N   UNL A   1      32.933  22.316  25.054  1.00  0.00    -0.333 N 
ATOM     12  C   UNL A   1      31.848  22.980  25.787  1.00  0.00     0.147 C 
BRANCH  11  13
ATOM     13  C   UNL A   1      32.712  21.294  24.100  1.00  0.00     0.291 C 
ATOM     14  O   UNL A   1      32.511  21.556  22.917  1.00  0.00    -0.265 OA
BRANCH  13  15
ATOM     15  C   UNL A   1      32.646  19.900  24.504  1.00  0.00     0.214 A 
ATOM     16  C   UNL A   1      32.974  17.825  24.738  1.00  0.00     0.151 A 
ATOM     17  N   UNL A   1      32.683  18.214  25.983  1.00  0.00    -0.158 NA
ATOM     18  N   UNL A   1      32.973  18.830  23.810  1.00  0.00    -0.207 NA
ATOM     19  N   UNL A   1      32.387  19.510  25.790  1.00  0.00    -0.255 N 
ATOM     20  H   UNL A   1      32.028  20.106  26.488  1.00  0.00     0.192 HD
BRANCH  16  21
ATOM     21  C   UNL A   1      33.410  16.461  24.379  1.00  0.00     0.076 C 
ATOM     22  C   UNL A   1      32.689  15.393  25.175  1.00  0.00     0.012 C 
ENDBRANCH  16  21
ENDBRANCH  13  15
ENDBRANCH  11  13
ENDBRANCH   7  11
ENDBRANCH   3   6
ENDBRANCH   1   2
BRANCH   1  23
ATOM     23  C   UNL A   1      33.755  27.772  26.027  1.00  0.00     0.042 C 
BRANCH  23  24
ATOM     24  C   UNL A   1      33.226  28.504  27.253  1.00  0.00     0.118 C 
BRANCH  24  25
ATOM     25  N   UNL A   1      33.431  29.940  27.195  1.00  0.00    -0.352 N 
ATOM     26  C   UNL A   1      34.470  30.733  27.625  1.00  0.00     0.251 C 
ATOM     27  H   UNL A   1      32.693  30.435  26.772  1.00  0.00     0.163 HD
ATOM     28  O   UNL A   1      34.308  31.953  27.598  1.00  0.00    -0.269 OA
BRANCH  26  29
ATOM     29  C   UNL A   1      35.764  30.189  28.126  1.00  0.00     0.039 A 
ATOM     30  C   UNL A   1      35.822  29.733  29.452  1.00  0.00     0.014 A 
ATOM     31  C   UNL A   1      36.941  30.200  27.377  1.00  0.00     0.014 A 
ATOM     32  C   UNL A   1      37.023  29.252  30.002  1.00  0.00     0.010 A 
ATOM     33  C   UNL A   1      38.119  29.645  27.900  1.00  0.00     0.010 A 
ATOM     34  C   UNL A   1      38.186  29.172  29.224  1.00  0.00    -0.014 A 
BRANCH  34  35
ATOM     35  C   UNL A   1      39.474  28.618  29.753  1.00  0.00     0.031 A 
ATOM     36  C   UNL A   1      40.287  29.405  30.757  1.00  0.00     0.074 A 
ATOM     37  C   UNL A   1      39.996  27.473  29.259  1.00  0.00     0.049 A 
ATOM     38  N   UNL A   1      41.477  29.150  31.241  1.00  0.00    -0.248 NA
ATOM     39  C   UNL A   1      39.687  30.643  31.281  1.00  0.00     0.031 C 
ATOM     40  C   UNL A   1      39.363  26.595  28.274  1.00  0.00     0.029 A 
ATOM     41  N   UNL A   1      41.232  26.897  29.458  1.00  0.00    -0.354 N 
ATOM     42  C   UNL A   1      41.763  30.185  32.124  1.00  0.00     0.074 A 
ATOM     43  C   UNL A   1      40.659  31.117  32.047  1.00  0.00     0.031 C 
ATOM     44  C   UNL A   1      40.250  25.670  27.868  1.00  0.00     0.029 A 
ATOM     45  C   UNL A   1      41.505  25.868  28.581  1.00  0.00     0.049 A 
ATOM     46  H   UNL A   1      41.858  27.191  30.158  1.00  0.00     0.167 HD
ATOM     47  C   UNL A   1      42.811  30.324  32.973  1.00  0.00     0.034 A 
ATOM     48  C   UNL A   1      42.637  25.169  28.358  1.00  0.00     0.034 A 
ATOM     49  C   UNL A   1      43.894  29.386  33.087  1.00  0.00     0.049 A 
ATOM     50  C   UNL A   1      43.824  25.375  29.258  1.00  0.00     0.074 A 
ATOM     51  C   UNL A   1      44.930  29.373  34.006  1.00  0.00     0.029 A 
ATOM     52  N   UNL A   1      44.097  28.305  32.245  1.00  0.00    -0.354 N 
ATOM     53  N   UNL A   1      43.976  26.230  30.238  1.00  0.00    -0.248 NA
ATOM     54  C   UNL A   1      44.962  24.458  29.081  1.00  0.00     0.031 C 
ATOM     55  C   UNL A   1      45.774  28.299  33.701  1.00  0.00     0.029 A 
ATOM     56  C   UNL A   1      45.249  27.628  32.609  1.00  0.00     0.049 A 
ATOM     57  H   UNL A   1      43.508  28.054  31.498  1.00  0.00     0.167 HD
ATOM     58  C   UNL A   1      45.182  25.899  30.848  1.00  0.00     0.074 A 
ATOM     59  C   UNL A   1      45.730  24.778  30.114  1.00  0.00     0.031 C 
ATOM     60  C   UNL A   1      45.767  26.469  31.930  1.00  0.00     0.034 A 
BRANCH  47  61
ATOM     61  C   UNL A   1      42.786  31.496  33.922  1.00  0.00     0.023 A 
ATOM     62  C   UNL A   1      43.324  32.730  33.500  1.00  0.00     0.012 A 
ATOM     63  C   UNL A   1      42.186  31.403  35.191  1.00  0.00     0.148 A 
ATOM     64  C   UNL A   1      43.307  33.841  34.342  1.00  0.00     0.002 A 
ATOM     65  C   UNL A   1      42.133  32.527  36.010  1.00  0.00     0.091 A 
ATOM     66  F   UNL A   1      41.689  30.221  35.581  1.00  0.00    -0.205 F 
ATOM     67  C   UNL A   1      42.704  33.742  35.592  1.00  0.00     0.022 A 
BRANCH  65  68
ATOM     68  S   UNL A   1      41.313  32.529  37.608  1.00  0.00     0.127 S 
ATOM     69  O   UNL A   1      39.979  32.045  37.255  1.00  0.00    -0.237 OA
ATOM     70  O   UNL A   1      42.124  31.580  38.371  1.00  0.00    -0.237 OA
ATOM     71  O   UNL A   1      41.372  33.902  38.089  1.00  0.00    -0.744 OA
ENDBRANCH  65  68
ENDBRANCH  47  61
BRANCH  48  72
ATOM     72  C   UNL A   1      42.677  24.132  27.288  1.00  0.00     0.023 A 
ATOM     73  C   UNL A   1      43.238  24.455  26.038  1.00  0.00     0.012 A 
ATOM     74  C   UNL A   1      42.155  22.840  27.498  1.00  0.00     0.148 A 
ATOM     75  C   UNL A   1      43.241  23.524  24.999  1.00  0.00     0.002 A 
ATOM     76  C   UNL A   1      42.194  21.905  26.468  1.00  0.00     0.091 A 
ATOM     77  F   UNL A   1      41.626  22.555  28.697  1.00  0.00    -0.205 F 
ATOM     78  C   UNL A   1      42.723  22.250  25.214  1.00  0.00     0.022 A 
BRANCH  76  79
ATOM     79  S   UNL A   1      41.614  20.214  26.659  1.00  0.00     0.127 S 
ATOM     80  O   UNL A   1      40.178  20.410  26.849  1.00  0.00    -0.237 OA
ATOM     81  O   UNL A   1      41.989  19.622  25.374  1.00  0.00    -0.237 OA
ATOM     82  O   UNL A   1      42.329  19.675  27.808  1.00  0.00    -0.744 OA
ENDBRANCH  76  79
ENDBRANCH  48  72
BRANCH  60  83
ATOM     83  C   UNL A   1      47.038  25.853  32.457  1.00  0.00     0.023 A 
ATOM     84  C   UNL A   1      48.290  26.296  31.990  1.00  0.00     0.012 A 
ATOM     85  C   UNL A   1      46.987  24.882  33.479  1.00  0.00     0.148 A 
ATOM     86  C   UNL A   1      49.470  25.762  32.509  1.00  0.00     0.002 A 
ATOM     87  C   UNL A   1      48.166  24.392  34.027  1.00  0.00     0.091 A 
ATOM     88  F   UNL A   1      45.786  24.455  33.897  1.00  0.00    -0.205 F 
ATOM     89  C   UNL A   1      49.408  24.821  33.535  1.00  0.00     0.022 A 
BRANCH  87  90
ATOM     90  S   UNL A   1      48.184  23.256  35.419  1.00  0.00     0.127 S 
ATOM     91  O   UNL A   1      47.637  22.039  34.820  1.00  0.00    -0.237 OA
ATOM     92  O   UNL A   1      49.610  23.186  35.744  1.00  0.00    -0.237 OA
ATOM     93  O   UNL A   1      47.359  23.870  36.451  1.00  0.00    -0.744 OA
ENDBRANCH  87  90
ENDBRANCH  60  83
ENDBRANCH  34  35
ENDBRANCH  26  29
ENDBRANCH  24  25
ENDBRANCH  23  24
ENDBRANCH   1  23
TORSDOF 17
ENDMDL
MODEL 2
REMARK VINA RESULT:     -11.2      1.278      2.584
REMARK SMILES CCc1n[nH]c(C(=O)N(C)[C@H]2COC[C@H]2C(=O)NCCCNC(=O)c2ccc(-c3c4nc(c(-c5cccc(S(=O)(=O)[O-])c5F)c5ccc([nH]5)c(-c5cccc(S(=O)(=O)[O-])c5F)c5nc(c(-c6cccc(S(=O)(=O)[O-])c6F)c6ccc3[nH]6)C=C5)C=C4)cc2)n1
REMARK SMILES IDX 19 1 18 2 16 3 17 4 15 6 11 7 12 8 13 9 14 10 9 11 10 12
REMARK SMILES IDX 7 13 8 14 6 15 3 16 4 17 88 18 5 19 2 21 1 22 20 23 21 24
REMARK SMILES IDX 22 25 23 26 24 28 25 29 26 30 87 31 27 32 86 33 28 34 29 35
REMARK SMILES IDX 30 36 80 37 31 38 85 39 79 40 81 41 32 42 84 43 78 44 77 45
REMARK SMILES IDX 33 47 65 48 45 49 64 50 46 51 49 52 63 53 82 54 47 55 48 56
REMARK SMILES IDX 62 58 83 59 50 60 34 61 35 62 43 63 36 64 38 65 44 66 37 67
REMARK SMILES IDX 39 68 40 69 41 70 42 71 66 72 67 73 75 74 68 75 70 76 76 77
REMARK SMILES IDX 69 78 71 79 72 80 73 81 74 82 51 83 52 84 60 85 53 86 55 87
REMARK SMILES IDX 61 88 54 89 56 90 57 91 58 92 59 93
REMARK H PARENT 18 5 5 20 22 27 81 46 49 57
REMARK Flexibility Score: inf
ROOT
ATOM      1  C   UNL A   1      33.690  26.430  26.119  1.00  0.00     0.117 C 
ENDROOT
BRANCH   1   2
ATOM      2  N   UNL A   1      33.778  25.899  24.768  1.00  0.00    -0.356 N 
ATOM      3  C   UNL A   1      34.353  24.797  24.234  1.00  0.00     0.227 C 
ATOM      4  O   UNL A   1      34.378  24.757  22.995  1.00  0.00    -0.275 OA
ATOM      5  H   UNL A   1      33.324  26.462  24.100  1.00  0.00     0.163 HD
BRANCH   3   6
ATOM      6  C   UNL A   1      34.929  23.627  25.005  1.00  0.00     0.129 C 
ATOM      7  C   UNL A   1      34.036  22.601  25.697  1.00  0.00     0.125 C 
ATOM      8  C   UNL A   1      35.070  21.511  26.012  1.00  0.00     0.186 C 
ATOM      9  O   UNL A   1      36.053  21.532  24.963  1.00  0.00    -0.378 OA
ATOM     10  C   UNL A   1      36.063  22.844  24.382  1.00  0.00     0.176 C 
BRANCH   7  11
ATOM     11  N   UNL A   1      32.777  22.198  25.030  1.00  0.00    -0.333 N 
ATOM     12  C   UNL A   1      32.967  21.406  23.808  1.00  0.00     0.147 C 
BRANCH  11  13
ATOM     13  C   UNL A   1      31.503  22.568  25.524  1.00  0.00     0.291 C 
ATOM     14  O   UNL A   1      30.698  21.726  25.911  1.00  0.00    -0.265 OA
BRANCH  13  15
ATOM     15  C   UNL A   1      31.080  23.958  25.522  1.00  0.00     0.214 A 
ATOM     16  C   UNL A   1      30.213  25.827  25.050  1.00  0.00     0.151 A 
ATOM     17  N   UNL A   1      30.077  25.772  26.378  1.00  0.00    -0.158 NA
ATOM     18  N   UNL A   1      30.810  24.730  24.491  1.00  0.00    -0.207 NA
ATOM     19  N   UNL A   1      30.717  24.626  26.661  1.00  0.00    -0.255 N 
ATOM     20  H   UNL A   1      30.904  24.306  27.573  1.00  0.00     0.192 HD
BRANCH  16  21
ATOM     21  C   UNL A   1      29.646  26.897  24.205  1.00  0.00     0.076 C 
ATOM     22  C   UNL A   1      28.198  26.643  23.840  1.00  0.00     0.012 C 
ENDBRANCH  16  21
ENDBRANCH  13  15
ENDBRANCH  11  13
ENDBRANCH   7  11
ENDBRANCH   3   6
ENDBRANCH   1   2
BRANCH   1  23
ATOM     23  C   UNL A   1      33.108  27.838  26.139  1.00  0.00     0.042 C 
BRANCH  23  24
ATOM     24  C   UNL A   1      33.987  28.982  25.649  1.00  0.00     0.118 C 
BRANCH  24  25
ATOM     25  N   UNL A   1      33.782  30.216  26.384  1.00  0.00    -0.352 N 
ATOM     26  C   UNL A   1      34.458  30.768  27.448  1.00  0.00     0.251 C 
ATOM     27  H   UNL A   1      33.024  30.755  26.062  1.00  0.00     0.163 HD
ATOM     28  O   UNL A   1      33.964  31.759  27.988  1.00  0.00    -0.269 OA
BRANCH  26  29
ATOM     29  C   UNL A   1      35.739  30.223  27.979  1.00  0.00     0.039 A 
ATOM     30  C   UNL A   1      35.736  29.649  29.260  1.00  0.00     0.014 A 
ATOM     31  C   UNL A   1      36.957  30.340  27.308  1.00  0.00     0.014 A 
ATOM     32  C   UNL A   1      36.919  29.159  29.838  1.00  0.00     0.010 A 
ATOM     33  C   UNL A   1      38.123  29.778  27.852  1.00  0.00     0.010 A 
ATOM     34  C   UNL A   1      38.128  29.188  29.130  1.00  0.00    -0.014 A 
BRANCH  34  35
ATOM     35  C   UNL A   1      39.403  28.629  29.687  1.00  0.00     0.031 A 
ATOM     36  C   UNL A   1      40.180  29.400  30.732  1.00  0.00     0.074 A 
ATOM     37  C   UNL A   1      39.946  27.499  29.186  1.00  0.00     0.049 A 
ATOM     38  N   UNL A   1      41.356  29.140  31.248  1.00  0.00    -0.248 NA
ATOM     39  C   UNL A   1      39.556  30.623  31.264  1.00  0.00     0.031 C 
ATOM     40  C   UNL A   1      39.349  26.638  28.164  1.00  0.00     0.029 A 
ATOM     41  N   UNL A   1      41.179  26.924  29.410  1.00  0.00    -0.354 N 
ATOM     42  C   UNL A   1      41.608  30.159  32.161  1.00  0.00     0.074 A 
ATOM     43  C   UNL A   1      40.502  31.085  32.069  1.00  0.00     0.031 C 
ATOM     44  C   UNL A   1      40.253  25.726  27.766  1.00  0.00     0.029 A 
ATOM     45  C   UNL A   1      41.485  25.916  28.521  1.00  0.00     0.049 A 
ATOM     46  H   UNL A   1      41.781  27.207  30.135  1.00  0.00     0.167 HD
ATOM     47  C   UNL A   1      42.629  30.285  33.045  1.00  0.00     0.034 A 
ATOM     48  C   UNL A   1      42.627  25.228  28.319  1.00  0.00     0.034 A 
ATOM     49  C   UNL A   1      43.714  29.350  33.172  1.00  0.00     0.049 A 
ATOM     50  C   UNL A   1      43.785  25.420  29.259  1.00  0.00     0.074 A 
ATOM     51  C   UNL A   1      44.720  29.323  34.122  1.00  0.00     0.029 A 
ATOM     52  N   UNL A   1      43.948  28.288  32.314  1.00  0.00    -0.354 N 
ATOM     53  N   UNL A   1      43.902  26.256  30.262  1.00  0.00    -0.248 NA
ATOM     54  C   UNL A   1      44.933  24.514  29.098  1.00  0.00     0.031 C 
ATOM     55  C   UNL A   1      45.580  28.260  33.821  1.00  0.00     0.029 A 
ATOM     56  C   UNL A   1      45.093  27.610  32.699  1.00  0.00     0.049 A 
ATOM     57  H   UNL A   1      43.384  28.050  31.544  1.00  0.00     0.167 HD
ATOM     58  C   UNL A   1      45.090  25.918  30.901  1.00  0.00     0.074 A 
ATOM     59  C   UNL A   1      45.667  24.816  30.161  1.00  0.00     0.031 C 
ATOM     60  C   UNL A   1      45.639  26.468  32.012  1.00  0.00     0.034 A 
BRANCH  47  61
ATOM     61  C   UNL A   1      42.567  31.436  34.016  1.00  0.00     0.023 A 
ATOM     62  C   UNL A   1      43.331  32.594  33.755  1.00  0.00     0.012 A 
ATOM     63  C   UNL A   1      41.723  31.406  35.142  1.00  0.00     0.148 A 
ATOM     64  C   UNL A   1      43.291  33.685  34.622  1.00  0.00     0.002 A 
ATOM     65  C   UNL A   1      41.654  32.515  35.979  1.00  0.00     0.091 A 
ATOM     66  F   UNL A   1      41.013  30.295  35.381  1.00  0.00    -0.205 F 
ATOM     67  C   UNL A   1      42.446  33.649  35.727  1.00  0.00     0.022 A 
BRANCH  65  68
ATOM     68  S   UNL A   1      40.544  32.603  37.388  1.00  0.00     0.127 S 
ATOM     69  O   UNL A   1      40.089  33.992  37.318  1.00  0.00    -0.237 OA
ATOM     70  O   UNL A   1      39.526  31.610  37.040  1.00  0.00    -0.237 OA
ATOM     71  O   UNL A   1      41.347  32.266  38.554  1.00  0.00    -0.744 OA
ENDBRANCH  65  68
ENDBRANCH  47  61
BRANCH  48  72
ATOM     72  C   UNL A   1      42.706  24.214  27.229  1.00  0.00     0.023 A 
ATOM     73  C   UNL A   1      43.339  24.553  26.018  1.00  0.00     0.012 A 
ATOM     74  C   UNL A   1      42.151  22.927  27.381  1.00  0.00     0.148 A 
ATOM     75  C   UNL A   1      43.382  23.646  24.960  1.00  0.00     0.002 A 
ATOM     76  C   UNL A   1      42.228  22.014  26.334  1.00  0.00     0.091 A 
ATOM     77  F   UNL A   1      41.554  22.626  28.543  1.00  0.00    -0.205 F 
ATOM     78  C   UNL A   1      42.831  22.377  25.118  1.00  0.00     0.022 A 
BRANCH  76  79
ATOM     79  S   UNL A   1      41.609  20.331  26.454  1.00  0.00     0.127 S 
ATOM     80  O   UNL A   1      42.246  19.696  25.303  1.00  0.00    -0.237 OA
ATOM     81  O   UNL A   1      42.130  19.912  27.755  1.00  0.00    -0.237 OA
ATOM     82  O   UNL A   1      40.157  20.435  26.387  1.00  0.00    -0.744 OA
ENDBRANCH  76  79
ENDBRANCH  48  72
BRANCH  60  83
ATOM     83  C   UNL A   1      46.895  25.848  32.566  1.00  0.00     0.023 A 
ATOM     84  C   UNL A   1      48.159  26.345  32.191  1.00  0.00     0.012 A 
ATOM     85  C   UNL A   1      46.817  24.814  33.522  1.00  0.00     0.148 A 
ATOM     86  C   UNL A   1      49.324  25.805  32.736  1.00  0.00     0.002 A 
ATOM     87  C   UNL A   1      47.979  24.316  34.100  1.00  0.00     0.091 A 
ATOM     88  F   UNL A   1      45.608  24.337  33.852  1.00  0.00    -0.205 F 
ATOM     89  C   UNL A   1      49.234  24.802  33.699  1.00  0.00     0.022 A 
BRANCH  87  90
ATOM     90  S   UNL A   1      47.956  23.097  35.419  1.00  0.00     0.127 S 
ATOM     91  O   UNL A   1      49.358  23.078  35.834  1.00  0.00    -0.237 OA
ATOM     92  O   UNL A   1      47.043  23.706  36.388  1.00  0.00    -0.237 OA
ATOM     93  O   UNL A   1      47.465  21.863  34.820  1.00  0.00    -0.744 OA
ENDBRANCH  87  90
ENDBRANCH  60  83
ENDBRANCH  34  35
ENDBRANCH  26  29
ENDBRANCH  24  25
ENDBRANCH  23  24
ENDBRANCH   1  23
TORSDOF 17
ENDMDL
MODEL 3
REMARK VINA RESULT:     -11.1      1.705      2.027
REMARK SMILES CCc1n[nH]c(C(=O)N(C)[C@H]2COC[C@H]2C(=O)NCCCNC(=O)c2ccc(-c3c4nc(c(-c5cccc(S(=O)(=O)[O-])c5F)c5ccc([nH]5)c(-c5cccc(S(=O)(=O)[O-])c5F)c5nc(c(-c6cccc(S(=O)(=O)[O-])c6F)c6ccc3[nH]6)C=C5)C=C4)cc2)n1
REMARK SMILES IDX 19 1 18 2 16 3 17 4 15 6 11 7 12 8 13 9 14 10 9 11 10 12
REMARK SMILES IDX 7 13 8 14 6 15 3 16 4 17 88 18 5 19 2 21 1 22 20 23 21 24
REMARK SMILES IDX 22 25 23 26 24 28 25 29 26 30 87 31 27 32 86 33 28 34 29 35
REMARK SMILES IDX 30 36 80 37 31 38 85 39 79 40 81 41 32 42 84 43 78 44 77 45
REMARK SMILES IDX 33 47 65 48 45 49 64 50 46 51 49 52 63 53 82 54 47 55 48 56
REMARK SMILES IDX 62 58 83 59 50 60 34 61 35 62 43 63 36 64 38 65 44 66 37 67
REMARK SMILES IDX 39 68 40 69 41 70 42 71 66 72 67 73 75 74 68 75 70 76 76 77
REMARK SMILES IDX 69 78 71 79 72 80 73 81 74 82 51 83 52 84 60 85 53 86 55 87
REMARK SMILES IDX 61 88 54 89 56 90 57 91 58 92 59 93
REMARK H PARENT 18 5 5 20 22 27 81 46 49 57
REMARK Flexibility Score: inf
ROOT
ATOM      1  C   UNL A   1      32.026  26.843  26.356  1.00  0.00     0.117 C 
ENDROOT
BRANCH   1   2
ATOM      2  N   UNL A   1      32.643  26.436  25.104  1.00  0.00    -0.356 N 
ATOM      3  C   UNL A   1      33.627  25.561  24.789  1.00  0.00     0.227 C 
ATOM      4  O   UNL A   1      34.019  25.602  23.613  1.00  0.00    -0.275 OA
ATOM      5  H   UNL A   1      32.266  26.893  24.319  1.00  0.00     0.163 HD
BRANCH   3   6
ATOM      6  C   UNL A   1      34.253  24.547  25.723  1.00  0.00     0.129 C 
ATOM      7  C   UNL A   1      33.462  23.365  26.275  1.00  0.00     0.125 C 
ATOM      8  C   UNL A   1      34.606  22.519  26.852  1.00  0.00     0.186 C 
ATOM      9  O   UNL A   1      35.762  22.734  26.024  1.00  0.00    -0.378 OA
ATOM     10  C   UNL A   1      35.628  24.012  25.387  1.00  0.00     0.176 C 
BRANCH   7  11
ATOM     11  N   UNL A   1      32.479  22.699  25.389  1.00  0.00    -0.333 N 
ATOM     12  C   UNL A   1      31.084  23.081  25.639  1.00  0.00     0.147 C 
BRANCH  11  13
ATOM     13  C   UNL A   1      32.861  21.757  24.404  1.00  0.00     0.291 C 
ATOM     14  O   UNL A   1      33.300  22.115  23.315  1.00  0.00    -0.265 OA
BRANCH  13  15
ATOM     15  C   UNL A   1      32.678  20.333  24.625  1.00  0.00     0.214 A 
ATOM     16  C   UNL A   1      32.807  18.225  24.559  1.00  0.00     0.151 A 
ATOM     17  N   UNL A   1      32.635  18.463  25.862  1.00  0.00    -0.158 NA
ATOM     18  N   UNL A   1      32.851  19.344  23.774  1.00  0.00    -0.207 NA
ATOM     19  N   UNL A   1      32.462  19.795  25.865  1.00  0.00    -0.255 N 
ATOM     20  H   UNL A   1      32.209  20.319  26.660  1.00  0.00     0.192 HD
BRANCH  16  21
ATOM     21  C   UNL A   1      33.078  16.888  23.992  1.00  0.00     0.076 C 
ATOM     22  C   UNL A   1      34.318  16.868  23.123  1.00  0.00     0.012 C 
ENDBRANCH  16  21
ENDBRANCH  13  15
ENDBRANCH  11  13
ENDBRANCH   7  11
ENDBRANCH   3   6
ENDBRANCH   1   2
BRANCH   1  23
ATOM     23  C   UNL A   1      32.776  27.998  27.010  1.00  0.00     0.042 C 
BRANCH  23  24
ATOM     24  C   UNL A   1      33.670  28.860  26.129  1.00  0.00     0.118 C 
BRANCH  24  25
ATOM     25  N   UNL A   1      33.711  30.250  26.542  1.00  0.00    -0.352 N 
ATOM     26  C   UNL A   1      34.564  30.929  27.383  1.00  0.00     0.251 C 
ATOM     27  H   UNL A   1      33.002  30.808  26.149  1.00  0.00     0.163 HD
ATOM     28  O   UNL A   1      34.266  32.084  27.689  1.00  0.00    -0.269 OA
BRANCH  26  29
ATOM     29  C   UNL A   1      35.810  30.334  27.943  1.00  0.00     0.039 A 
ATOM     30  C   UNL A   1      35.769  29.814  29.245  1.00  0.00     0.014 A 
ATOM     31  C   UNL A   1      37.035  30.355  27.275  1.00  0.00     0.014 A 
ATOM     32  C   UNL A   1      36.921  29.281  29.850  1.00  0.00     0.010 A 
ATOM     33  C   UNL A   1      38.165  29.751  27.849  1.00  0.00     0.010 A 
ATOM     34  C   UNL A   1      38.132  29.214  29.149  1.00  0.00    -0.014 A 
BRANCH  34  35
ATOM     35  C   UNL A   1      39.371  28.607  29.735  1.00  0.00     0.031 A 
ATOM     36  C   UNL A   1      40.138  29.336  30.817  1.00  0.00     0.074 A 
ATOM     37  C   UNL A   1      39.896  27.468  29.232  1.00  0.00     0.049 A 
ATOM     38  N   UNL A   1      41.289  29.033  31.364  1.00  0.00    -0.248 NA
ATOM     39  C   UNL A   1      39.536  30.570  31.349  1.00  0.00     0.031 C 
ATOM     40  C   UNL A   1      39.305  26.643  28.178  1.00  0.00     0.029 A 
ATOM     41  N   UNL A   1      41.103  26.853  29.485  1.00  0.00    -0.354 N 
ATOM     42  C   UNL A   1      41.543  30.028  32.302  1.00  0.00     0.074 A 
ATOM     43  C   UNL A   1      40.469  30.990  32.191  1.00  0.00     0.031 C 
ATOM     44  C   UNL A   1      40.193  25.710  27.793  1.00  0.00     0.029 A 
ATOM     45  C   UNL A   1      41.406  25.850  28.589  1.00  0.00     0.049 A 
ATOM     46  H   UNL A   1      41.690  27.105  30.233  1.00  0.00     0.167 HD
ATOM     47  C   UNL A   1      42.539  30.108  33.219  1.00  0.00     0.034 A 
ATOM     48  C   UNL A   1      42.532  25.130  28.411  1.00  0.00     0.034 A 
ATOM     49  C   UNL A   1      43.590  29.139  33.364  1.00  0.00     0.049 A 
ATOM     50  C   UNL A   1      43.665  25.271  29.390  1.00  0.00     0.074 A 
ATOM     51  C   UNL A   1      44.565  29.065  34.344  1.00  0.00     0.029 A 
ATOM     52  N   UNL A   1      43.819  28.084  32.496  1.00  0.00    -0.354 N 
ATOM     53  N   UNL A   1      43.776  26.087  30.409  1.00  0.00    -0.248 NA
ATOM     54  C   UNL A   1      44.790  24.333  29.249  1.00  0.00     0.031 C 
ATOM     55  C   UNL A   1      45.401  27.982  34.052  1.00  0.00     0.029 A 
ATOM     56  C   UNL A   1      44.930  27.365  32.905  1.00  0.00     0.049 A 
ATOM     57  H   UNL A   1      43.273  27.876  31.705  1.00  0.00     0.167 HD
ATOM     58  C   UNL A   1      44.932  25.702  31.079  1.00  0.00     0.074 A 
ATOM     59  C   UNL A   1      45.499  24.595  30.339  1.00  0.00     0.031 C 
ATOM     60  C   UNL A   1      45.462  26.217  32.216  1.00  0.00     0.034 A 
BRANCH  47  61
ATOM     61  C   UNL A   1      42.482  31.245  34.207  1.00  0.00     0.023 A 
ATOM     62  C   UNL A   1      41.782  31.065  35.419  1.00  0.00     0.012 A 
ATOM     63  C   UNL A   1      43.158  32.458  33.976  1.00  0.00     0.148 A 
ATOM     64  C   UNL A   1      41.717  32.086  36.365  1.00  0.00     0.002 A 
ATOM     65  C   UNL A   1      43.127  33.457  34.943  1.00  0.00     0.091 A 
ATOM     66  F   UNL A   1      43.810  32.618  32.816  1.00  0.00    -0.205 F 
ATOM     67  C   UNL A   1      42.396  33.278  36.131  1.00  0.00     0.022 A 
BRANCH  65  68
ATOM     68  S   UNL A   1      44.028  35.002  34.776  1.00  0.00     0.127 S 
ATOM     69  O   UNL A   1      43.697  35.673  36.033  1.00  0.00    -0.237 OA
ATOM     70  O   UNL A   1      45.414  34.540  34.678  1.00  0.00    -0.237 OA
ATOM     71  O   UNL A   1      43.514  35.639  33.572  1.00  0.00    -0.744 OA
ENDBRANCH  65  68
ENDBRANCH  47  61
BRANCH  48  72
ATOM     72  C   UNL A   1      42.614  24.131  27.307  1.00  0.00     0.023 A 
ATOM     73  C   UNL A   1      43.208  24.503  26.086  1.00  0.00     0.012 A 
ATOM     74  C   UNL A   1      42.101  22.827  27.456  1.00  0.00     0.148 A 
ATOM     75  C   UNL A   1      43.252  23.610  25.016  1.00  0.00     0.002 A 
ATOM     76  C   UNL A   1      42.179  21.929  26.396  1.00  0.00     0.091 A 
ATOM     77  F   UNL A   1      41.540  22.495  28.628  1.00  0.00    -0.205 F 
ATOM     78  C   UNL A   1      42.742  22.324  25.171  1.00  0.00     0.022 A 
BRANCH  76  79
ATOM     79  S   UNL A   1      41.612  20.227  26.510  1.00  0.00     0.127 S 
ATOM     80  O   UNL A   1      40.166  20.385  26.372  1.00  0.00    -0.237 OA
ATOM     81  O   UNL A   1      42.277  19.612  25.361  1.00  0.00    -0.237 OA
ATOM     82  O   UNL A   1      42.067  19.742  27.806  1.00  0.00    -0.744 OA
ENDBRANCH  76  79
ENDBRANCH  48  72
BRANCH  60  83
ATOM     83  C   UNL A   1      46.682  25.550  32.798  1.00  0.00     0.023 A 
ATOM     84  C   UNL A   1      46.560  24.689  33.906  1.00  0.00     0.012 A 
ATOM     85  C   UNL A   1      47.944  25.721  32.191  1.00  0.00     0.148 A 
ATOM     86  C   UNL A   1      47.679  24.033  34.420  1.00  0.00     0.002 A 
ATOM     87  C   UNL A   1      49.044  25.024  32.676  1.00  0.00     0.091 A 
ATOM     88  F   UNL A   1      48.046  26.561  31.151  1.00  0.00    -0.205 F 
ATOM     89  C   UNL A   1      48.916  24.189  33.798  1.00  0.00     0.022 A 
BRANCH  87  90
ATOM     90  S   UNL A   1      50.653  25.084  31.878  1.00  0.00     0.127 S 
ATOM     91  O   UNL A   1      51.329  26.128  32.648  1.00  0.00    -0.237 OA
ATOM     92  O   UNL A   1      51.164  23.731  32.107  1.00  0.00    -0.237 OA
ATOM     93  O   UNL A   1      50.397  25.404  30.480  1.00  0.00    -0.744 OA
ENDBRANCH  87  90
ENDBRANCH  60  83
ENDBRANCH  34  35
ENDBRANCH  26  29
ENDBRANCH  24  25
ENDBRANCH  23  24
ENDBRANCH   1  23
TORSDOF 17
ENDMDL
