MODEL 1
REMARK VINA RESULT:     -12.6      0.000      0.000
REMARK SMILES COc1ccc(C(F)(F)F)cc1-c1cccnc1C(=O)NCCCNC(=O)c1ccc(-c2c3nc(c(-c4cccc(S(=O)(=O)[O-])c4F)c4ccc([nH]4)c(-c4cccc(S(=O)(=O)[O-])c4F)c4nc(c(-c5cccc(S(=O)(=O)[O-])c5F)c5ccc2[nH]5)C=C4)C=C3)cc1
REMARK SMILES IDX 23 1 22 2 21 3 19 4 20 5 18 7 13 8 14 9 15 10 17 11 16 12
REMARK SMILES IDX 12 13 3 14 4 15 5 16 11 17 6 18 2 19 1 20 7 21 8 22 9 23
REMARK SMILES IDX 10 24 24 25 25 26 26 27 27 29 28 30 29 31 90 32 30 33 89 34
REMARK SMILES IDX 31 35 32 36 33 37 83 38 34 39 88 40 82 41 84 42 35 43 87 44
REMARK SMILES IDX 81 45 80 46 36 48 68 49 48 50 67 51 49 52 52 53 66 54 85 55
REMARK SMILES IDX 50 56 51 57 65 59 86 60 53 61 37 62 38 63 46 64 39 65 41 66
REMARK SMILES IDX 47 67 40 68 42 69 43 70 44 71 45 72 69 73 70 74 78 75 71 76
REMARK SMILES IDX 73 77 79 78 72 79 74 80 75 81 76 82 77 83 54 84 55 85 63 86
REMARK SMILES IDX 56 87 58 88 64 89 57 90 59 91 60 92 61 93 62 94
REMARK H PARENT 21 6 25 28 84 47 52 58
REMARK Flexibility Score: inf
ROOT
ATOM      1  C   UNL A   1      31.487  28.275  26.852  1.00  0.00     0.042 C 
ENDROOT
BRANCH   1   2
ATOM      2  C   UNL A   1      32.050  26.870  26.866  1.00  0.00     0.118 C 
BRANCH   2   3
ATOM      3  N   UNL A   1      31.142  25.758  26.881  1.00  0.00    -0.351 N 
ATOM      4  C   UNL A   1      31.426  24.402  26.848  1.00  0.00     0.270 C 
ATOM      5  O   UNL A   1      30.475  23.653  27.103  1.00  0.00    -0.267 OA
ATOM      6  H   UNL A   1      30.186  25.990  26.920  1.00  0.00     0.163 HD
BRANCH   4   7
ATOM      7  C   UNL A   1      32.761  23.772  26.457  1.00  0.00     0.136 A 
ATOM      8  C   UNL A   1      33.525  23.975  25.289  1.00  0.00     0.017 A 
ATOM      9  C   UNL A   1      34.783  23.334  25.234  1.00  0.00     0.013 A 
ATOM     10  C   UNL A   1      35.239  22.532  26.271  1.00  0.00     0.021 A 
ATOM     11  N   UNL A   1      33.220  22.981  27.483  1.00  0.00    -0.250 NA
ATOM     12  C   UNL A   1      34.422  22.386  27.368  1.00  0.00     0.112 A 
BRANCH   8  13
ATOM     13  C   UNL A   1      33.132  24.760  24.110  1.00  0.00     0.027 A 
ATOM     14  C   UNL A   1      32.122  24.311  23.223  1.00  0.00     0.126 A 
ATOM     15  C   UNL A   1      31.662  25.125  22.185  1.00  0.00     0.048 A 
ATOM     16  C   UNL A   1      32.192  26.405  22.014  1.00  0.00     0.017 A 
ATOM     17  C   UNL A   1      33.714  26.019  23.865  1.00  0.00     0.025 A 
ATOM     18  C   UNL A   1      33.234  26.858  22.838  1.00  0.00     0.056 A 
BRANCH  14  19
ATOM     19  O   UNL A   1      31.602  23.041  23.288  1.00  0.00    -0.496 OA
ATOM     20  C   UNL A   1      32.414  22.056  22.642  1.00  0.00     0.278 C 
ENDBRANCH  14  19
BRANCH  18  21
ATOM     21  C   UNL A   1      33.742  28.276  22.731  1.00  0.00     0.416 C 
ATOM     22  F   UNL A   1      32.759  29.215  22.747  1.00  0.00    -0.166 F 
ATOM     23  F   UNL A   1      34.601  28.581  23.743  1.00  0.00    -0.166 F 
ATOM     24  F   UNL A   1      34.442  28.494  21.579  1.00  0.00    -0.166 F 
ENDBRANCH  18  21
ENDBRANCH   8  13
ENDBRANCH   4   7
ENDBRANCH   2   3
ENDBRANCH   1   2
BRANCH   1  25
ATOM     25  C   UNL A   1      32.246  29.260  25.969  1.00  0.00     0.118 C 
BRANCH  25  26
ATOM     26  N   UNL A   1      32.075  30.669  26.324  1.00  0.00    -0.352 N 
ATOM     27  C   UNL A   1      32.819  31.588  27.039  1.00  0.00     0.251 C 
ATOM     28  H   UNL A   1      31.239  31.050  25.974  1.00  0.00     0.163 HD
ATOM     29  O   UNL A   1      32.326  32.684  27.256  1.00  0.00    -0.269 OA
BRANCH  27  30
ATOM     30  C   UNL A   1      34.165  31.282  27.594  1.00  0.00     0.039 A 
ATOM     31  C   UNL A   1      35.067  32.338  27.796  1.00  0.00     0.014 A 
ATOM     32  C   UNL A   1      34.580  29.990  27.893  1.00  0.00     0.014 A 
ATOM     33  C   UNL A   1      36.315  32.105  28.390  1.00  0.00     0.010 A 
ATOM     34  C   UNL A   1      35.750  29.778  28.612  1.00  0.00     0.010 A 
ATOM     35  C   UNL A   1      36.640  30.828  28.868  1.00  0.00    -0.014 A 
BRANCH  35  36
ATOM     36  C   UNL A   1      37.888  30.542  29.631  1.00  0.00     0.031 A 
ATOM     37  C   UNL A   1      38.930  29.616  29.051  1.00  0.00     0.074 A 
ATOM     38  C   UNL A   1      38.015  30.987  30.898  1.00  0.00     0.049 A 
ATOM     39  N   UNL A   1      39.971  29.075  29.629  1.00  0.00    -0.248 NA
ATOM     40  C   UNL A   1      38.745  29.196  27.650  1.00  0.00     0.031 C 
ATOM     41  C   UNL A   1      37.038  31.815  31.612  1.00  0.00     0.029 A 
ATOM     42  N   UNL A   1      39.003  30.773  31.828  1.00  0.00    -0.354 N 
ATOM     43  C   UNL A   1      40.514  28.199  28.695  1.00  0.00     0.074 A 
ATOM     44  C   UNL A   1      39.669  28.255  27.523  1.00  0.00     0.031 C 
ATOM     45  C   UNL A   1      37.478  32.045  32.859  1.00  0.00     0.029 A 
ATOM     46  C   UNL A   1      38.744  31.349  33.052  1.00  0.00     0.049 A 
ATOM     47  H   UNL A   1      39.818  30.256  31.638  1.00  0.00     0.167 HD
ATOM     48  C   UNL A   1      41.633  27.443  28.787  1.00  0.00     0.034 A 
ATOM     49  C   UNL A   1      39.441  31.311  34.205  1.00  0.00     0.034 A 
ATOM     50  C   UNL A   1      42.525  27.473  29.913  1.00  0.00     0.049 A 
ATOM     51  C   UNL A   1      40.737  30.547  34.245  1.00  0.00     0.074 A 
ATOM     52  C   UNL A   1      43.749  26.843  30.060  1.00  0.00     0.029 A 
ATOM     53  N   UNL A   1      42.298  28.183  31.082  1.00  0.00    -0.354 N 
ATOM     54  N   UNL A   1      41.307  29.841  33.298  1.00  0.00    -0.248 NA
ATOM     55  C   UNL A   1      41.504  30.601  35.497  1.00  0.00     0.031 C 
ATOM     56  C   UNL A   1      44.257  27.169  31.321  1.00  0.00     0.029 A 
ATOM     57  C   UNL A   1      43.358  28.014  31.952  1.00  0.00     0.049 A 
ATOM     58  H   UNL A   1      41.498  28.729  31.264  1.00  0.00     0.167 HD
ATOM     59  C   UNL A   1      42.515  29.401  33.826  1.00  0.00     0.074 A 
ATOM     60  C   UNL A   1      42.604  29.937  35.168  1.00  0.00     0.031 C 
ATOM     61  C   UNL A   1      43.458  28.610  33.258  1.00  0.00     0.034 A 
BRANCH  48  62
ATOM     62  C   UNL A   1      42.000  26.576  27.608  1.00  0.00     0.023 A 
ATOM     63  C   UNL A   1      42.735  27.129  26.538  1.00  0.00     0.012 A 
ATOM     64  C   UNL A   1      41.675  25.205  27.584  1.00  0.00     0.148 A 
ATOM     65  C   UNL A   1      43.103  26.344  25.447  1.00  0.00     0.002 A 
ATOM     66  C   UNL A   1      42.087  24.418  26.515  1.00  0.00     0.091 A 
ATOM     67  F   UNL A   1      40.962  24.699  28.601  1.00  0.00    -0.205 F 
ATOM     68  C   UNL A   1      42.788  24.988  25.440  1.00  0.00     0.022 A 
BRANCH  66  69
ATOM     69  S   UNL A   1      41.806  22.644  26.447  1.00  0.00     0.127 S 
ATOM     70  O   UNL A   1      40.347  22.574  26.521  1.00  0.00    -0.237 OA
ATOM     71  O   UNL A   1      42.368  22.294  25.141  1.00  0.00    -0.237 OA
ATOM     72  O   UNL A   1      42.517  22.081  27.585  1.00  0.00    -0.744 OA
ENDBRANCH  66  69
ENDBRANCH  48  62
BRANCH  49  73
ATOM     73  C   UNL A   1      38.971  32.084  35.390  1.00  0.00     0.023 A 
ATOM     74  C   UNL A   1      39.094  33.487  35.386  1.00  0.00     0.012 A 
ATOM     75  C   UNL A   1      38.379  31.453  36.502  1.00  0.00     0.148 A 
ATOM     76  C   UNL A   1      38.671  34.245  36.478  1.00  0.00     0.002 A 
ATOM     77  C   UNL A   1      37.909  32.219  37.564  1.00  0.00     0.091 A 
ATOM     78  F   UNL A   1      38.278  30.116  36.496  1.00  0.00    -0.205 F 
ATOM     79  C   UNL A   1      38.069  33.614  37.562  1.00  0.00     0.022 A 
BRANCH  77  80
ATOM     80  S   UNL A   1      36.998  31.499  38.936  1.00  0.00     0.127 S 
ATOM     81  O   UNL A   1      35.861  32.408  39.051  1.00  0.00    -0.237 OA
ATOM     82  O   UNL A   1      36.672  30.168  38.423  1.00  0.00    -0.237 OA
ATOM     83  O   UNL A   1      37.927  31.494  40.058  1.00  0.00    -0.744 OA
ENDBRANCH  77  80
ENDBRANCH  49  73
BRANCH  61  84
ATOM     84  C   UNL A   1      44.693  28.308  34.063  1.00  0.00     0.023 A 
ATOM     85  C   UNL A   1      45.812  29.158  33.975  1.00  0.00     0.012 A 
ATOM     86  C   UNL A   1      44.709  27.229  34.969  1.00  0.00     0.148 A 
ATOM     87  C   UNL A   1      46.942  28.922  34.756  1.00  0.00     0.002 A 
ATOM     88  C   UNL A   1      45.819  27.029  35.780  1.00  0.00     0.091 A 
ATOM     89  F   UNL A   1      43.640  26.420  35.022  1.00  0.00    -0.205 F 
ATOM     90  C   UNL A   1      46.941  27.868  35.667  1.00  0.00     0.022 A 
BRANCH  88  91
ATOM     91  S   UNL A   1      45.865  25.758  37.047  1.00  0.00     0.127 S 
ATOM     92  O   UNL A   1      47.273  25.778  37.439  1.00  0.00    -0.237 OA
ATOM     93  O   UNL A   1      44.944  26.288  38.053  1.00  0.00    -0.237 OA
ATOM     94  O   UNL A   1      45.410  24.533  36.403  1.00  0.00    -0.744 OA
ENDBRANCH  88  91
ENDBRANCH  61  84
ENDBRANCH  35  36
ENDBRANCH  27  30
ENDBRANCH  25  26
ENDBRANCH   1  25
TORSDOF 16
ENDMDL
MODEL 2
REMARK VINA RESULT:     -12.5      1.724      2.366
REMARK SMILES COc1ccc(C(F)(F)F)cc1-c1cccnc1C(=O)NCCCNC(=O)c1ccc(-c2c3nc(c(-c4cccc(S(=O)(=O)[O-])c4F)c4ccc([nH]4)c(-c4cccc(S(=O)(=O)[O-])c4F)c4nc(c(-c5cccc(S(=O)(=O)[O-])c5F)c5ccc2[nH]5)C=C4)C=C3)cc1
REMARK SMILES IDX 23 1 22 2 21 3 19 4 20 5 18 7 13 8 14 9 15 10 17 11 16 12
REMARK SMILES IDX 12 13 3 14 4 15 5 16 11 17 6 18 2 19 1 20 7 21 8 22 9 23
REMARK SMILES IDX 10 24 24 25 25 26 26 27 27 29 28 30 29 31 90 32 30 33 89 34
REMARK SMILES IDX 31 35 32 36 33 37 83 38 34 39 88 40 82 41 84 42 35 43 87 44
REMARK SMILES IDX 81 45 80 46 36 48 68 49 48 50 67 51 49 52 52 53 66 54 85 55
REMARK SMILES IDX 50 56 51 57 65 59 86 60 53 61 37 62 38 63 46 64 39 65 41 66
REMARK SMILES IDX 47 67 40 68 42 69 43 70 44 71 45 72 69 73 70 74 78 75 71 76
REMARK SMILES IDX 73 77 79 78 72 79 74 80 75 81 76 82 77 83 54 84 55 85 63 86
REMARK SMILES IDX 56 87 58 88 64 89 57 90 59 91 60 92 61 93 62 94
REMARK H PARENT 21 6 25 28 84 47 52 58
REMARK Flexibility Score: inf
ROOT
ATOM      1  C   UNL A   1      31.828  28.892  27.022  1.00  0.00     0.042 C 
ENDROOT
BRANCH   1   2
ATOM      2  C   UNL A   1      31.801  27.470  26.505  1.00  0.00     0.118 C 
BRANCH   2   3
ATOM      3  N   UNL A   1      30.659  26.648  26.789  1.00  0.00    -0.351 N 
ATOM      4  C   UNL A   1      30.285  25.447  26.209  1.00  0.00     0.270 C 
ATOM      5  O   UNL A   1      29.385  24.832  26.793  1.00  0.00    -0.267 OA
ATOM      6  H   UNL A   1      30.057  26.984  27.493  1.00  0.00     0.163 HD
BRANCH   4   7
ATOM      7  C   UNL A   1      30.825  24.873  24.901  1.00  0.00     0.136 A 
ATOM      8  C   UNL A   1      31.100  25.543  23.690  1.00  0.00     0.017 A 
ATOM      9  C   UNL A   1      31.696  24.777  22.663  1.00  0.00     0.013 A 
ATOM     10  C   UNL A   1      31.982  23.429  22.830  1.00  0.00     0.021 A 
ATOM     11  N   UNL A   1      31.116  23.540  25.063  1.00  0.00    -0.250 NA
ATOM     12  C   UNL A   1      31.673  22.859  24.043  1.00  0.00     0.112 A 
BRANCH   8  13
ATOM     13  C   UNL A   1      30.801  26.948  23.377  1.00  0.00     0.027 A 
ATOM     14  C   UNL A   1      31.798  27.824  22.879  1.00  0.00     0.126 A 
ATOM     15  C   UNL A   1      31.474  29.116  22.457  1.00  0.00     0.048 A 
ATOM     16  C   UNL A   1      30.151  29.558  22.515  1.00  0.00     0.017 A 
ATOM     17  C   UNL A   1      29.491  27.445  23.508  1.00  0.00     0.025 A 
ATOM     18  C   UNL A   1      29.151  28.736  23.056  1.00  0.00     0.056 A 
BRANCH  14  19
ATOM     19  O   UNL A   1      33.128  27.483  22.857  1.00  0.00    -0.496 OA
ATOM     20  C   UNL A   1      34.009  28.602  22.982  1.00  0.00     0.278 C 
ENDBRANCH  14  19
BRANCH  18  21
ATOM     21  C   UNL A   1      27.701  29.162  23.026  1.00  0.00     0.416 C 
ATOM     22  F   UNL A   1      26.838  28.207  23.461  1.00  0.00    -0.166 F 
ATOM     23  F   UNL A   1      27.487  30.271  23.788  1.00  0.00    -0.166 F 
ATOM     24  F   UNL A   1      27.282  29.495  21.770  1.00  0.00    -0.166 F 
ENDBRANCH  18  21
ENDBRANCH   8  13
ENDBRANCH   4   7
ENDBRANCH   2   3
ENDBRANCH   1   2
BRANCH   1  25
ATOM     25  C   UNL A   1      32.387  29.919  26.043  1.00  0.00     0.118 C 
BRANCH  25  26
ATOM     26  N   UNL A   1      32.293  31.311  26.485  1.00  0.00    -0.352 N 
ATOM     27  C   UNL A   1      33.083  32.140  27.257  1.00  0.00     0.251 C 
ATOM     28  H   UNL A   1      31.481  31.759  26.157  1.00  0.00     0.163 HD
ATOM     29  O   UNL A   1      32.650  33.248  27.541  1.00  0.00    -0.269 OA
BRANCH  27  30
ATOM     30  C   UNL A   1      34.406  31.726  27.797  1.00  0.00     0.039 A 
ATOM     31  C   UNL A   1      35.390  32.707  27.998  1.00  0.00     0.014 A 
ATOM     32  C   UNL A   1      34.722  30.403  28.080  1.00  0.00     0.014 A 
ATOM     33  C   UNL A   1      36.621  32.372  28.577  1.00  0.00     0.010 A 
ATOM     34  C   UNL A   1      35.879  30.094  28.785  1.00  0.00     0.010 A 
ATOM     35  C   UNL A   1      36.851  31.069  29.041  1.00  0.00    -0.014 A 
BRANCH  35  36
ATOM     36  C   UNL A   1      38.079  30.680  29.789  1.00  0.00     0.031 A 
ATOM     37  C   UNL A   1      39.059  29.708  29.175  1.00  0.00     0.074 A 
ATOM     38  C   UNL A   1      38.238  31.075  31.069  1.00  0.00     0.049 A 
ATOM     39  N   UNL A   1      40.065  29.084  29.730  1.00  0.00    -0.248 NA
ATOM     40  C   UNL A   1      38.844  29.347  27.762  1.00  0.00     0.031 C 
ATOM     41  C   UNL A   1      37.317  31.939  31.814  1.00  0.00     0.029 A 
ATOM     42  N   UNL A   1      39.212  30.769  31.988  1.00  0.00    -0.354 N 
ATOM     43  C   UNL A   1      40.549  28.207  28.766  1.00  0.00     0.074 A 
ATOM     44  C   UNL A   1      39.706  28.354  27.601  1.00  0.00     0.031 C 
ATOM     45  C   UNL A   1      37.774  32.100  33.065  1.00  0.00     0.029 A 
ATOM     46  C   UNL A   1      38.993  31.319  33.231  1.00  0.00     0.049 A 
ATOM     47  H   UNL A   1      39.993  30.207  31.777  1.00  0.00     0.167 HD
ATOM     48  C   UNL A   1      41.618  27.379  28.828  1.00  0.00     0.034 A 
ATOM     49  C   UNL A   1      39.690  31.200  34.379  1.00  0.00     0.034 A 
ATOM     50  C   UNL A   1      42.513  27.316  29.951  1.00  0.00     0.049 A 
ATOM     51  C   UNL A   1      40.934  30.354  34.388  1.00  0.00     0.074 A 
ATOM     52  C   UNL A   1      43.694  26.604  30.072  1.00  0.00     0.029 A 
ATOM     53  N   UNL A   1      42.334  28.000  31.143  1.00  0.00    -0.354 N 
ATOM     54  N   UNL A   1      41.456  29.645  33.416  1.00  0.00    -0.248 NA
ATOM     55  C   UNL A   1      41.706  30.319  35.638  1.00  0.00     0.031 C 
ATOM     56  C   UNL A   1      44.225  26.856  31.341  1.00  0.00     0.029 A 
ATOM     57  C   UNL A   1      43.383  27.736  32.003  1.00  0.00     0.049 A 
ATOM     58  H   UNL A   1      41.570  28.589  31.346  1.00  0.00     0.167 HD
ATOM     59  C   UNL A   1      42.635  29.112  33.925  1.00  0.00     0.074 A 
ATOM     60  C   UNL A   1      42.761  29.598  35.283  1.00  0.00     0.031 C 
ATOM     61  C   UNL A   1      43.524  28.282  33.327  1.00  0.00     0.034 A 
BRANCH  48  62
ATOM     62  C   UNL A   1      41.926  26.529  27.621  1.00  0.00     0.023 A 
ATOM     63  C   UNL A   1      42.566  27.109  26.505  1.00  0.00     0.012 A 
ATOM     64  C   UNL A   1      41.642  25.148  27.611  1.00  0.00     0.148 A 
ATOM     65  C   UNL A   1      42.878  26.341  25.385  1.00  0.00     0.002 A 
ATOM     66  C   UNL A   1      42.001  24.380  26.510  1.00  0.00     0.091 A 
ATOM     67  F   UNL A   1      41.020  24.616  28.673  1.00  0.00    -0.205 F 
ATOM     68  C   UNL A   1      42.606  24.976  25.392  1.00  0.00     0.022 A 
BRANCH  66  69
ATOM     69  S   UNL A   1      41.770  22.598  26.450  1.00  0.00     0.127 S 
ATOM     70  O   UNL A   1      42.440  22.173  27.679  1.00  0.00    -0.237 OA
ATOM     71  O   UNL A   1      40.312  22.477  26.477  1.00  0.00    -0.237 OA
ATOM     72  O   UNL A   1      42.395  22.153  25.213  1.00  0.00    -0.744 OA
ENDBRANCH  66  69
ENDBRANCH  48  62
BRANCH  49  73
ATOM     73  C   UNL A   1      39.272  31.962  35.590  1.00  0.00     0.023 A 
ATOM     74  C   UNL A   1      39.636  33.319  35.705  1.00  0.00     0.012 A 
ATOM     75  C   UNL A   1      38.498  31.373  36.609  1.00  0.00     0.148 A 
ATOM     76  C   UNL A   1      39.269  34.064  36.826  1.00  0.00     0.002 A 
ATOM     77  C   UNL A   1      38.089  32.137  37.697  1.00  0.00     0.091 A 
ATOM     78  F   UNL A   1      38.168  30.079  36.490  1.00  0.00    -0.205 F 
ATOM     79  C   UNL A   1      38.488  33.478  37.817  1.00  0.00     0.022 A 
BRANCH  77  80
ATOM     80  S   UNL A   1      36.967  31.500  38.949  1.00  0.00     0.127 S 
ATOM     81  O   UNL A   1      37.783  31.589  40.156  1.00  0.00    -0.237 OA
ATOM     82  O   UNL A   1      35.860  32.454  38.881  1.00  0.00    -0.237 OA
ATOM     83  O   UNL A   1      36.621  30.155  38.510  1.00  0.00    -0.744 OA
ENDBRANCH  77  80
ENDBRANCH  49  73
BRANCH  61  84
ATOM     84  C   UNL A   1      44.739  27.876  34.117  1.00  0.00     0.023 A 
ATOM     85  C   UNL A   1      45.894  28.681  34.088  1.00  0.00     0.012 A 
ATOM     86  C   UNL A   1      44.703  26.742  34.951  1.00  0.00     0.148 A 
ATOM     87  C   UNL A   1      47.007  28.347  34.857  1.00  0.00     0.002 A 
ATOM     88  C   UNL A   1      45.798  26.443  35.752  1.00  0.00     0.091 A 
ATOM     89  F   UNL A   1      43.600  25.977  34.947  1.00  0.00    -0.205 F 
ATOM     90  C   UNL A   1      46.955  27.238  35.698  1.00  0.00     0.022 A 
BRANCH  88  91
ATOM     91  S   UNL A   1      45.780  25.092  36.935  1.00  0.00     0.127 S 
ATOM     92  O   UNL A   1      44.634  25.444  37.772  1.00  0.00    -0.237 OA
ATOM     93  O   UNL A   1      45.573  23.927  36.075  1.00  0.00    -0.237 OA
ATOM     94  O   UNL A   1      47.075  25.126  37.601  1.00  0.00    -0.744 OA
ENDBRANCH  88  91
ENDBRANCH  61  84
ENDBRANCH  35  36
ENDBRANCH  27  30
ENDBRANCH  25  26
ENDBRANCH   1  25
TORSDOF 16
ENDMDL
MODEL 3
REMARK VINA RESULT:     -12.5      1.352      1.704
REMARK SMILES COc1ccc(C(F)(F)F)cc1-c1cccnc1C(=O)NCCCNC(=O)c1ccc(-c2c3nc(c(-c4cccc(S(=O)(=O)[O-])c4F)c4ccc([nH]4)c(-c4cccc(S(=O)(=O)[O-])c4F)c4nc(c(-c5cccc(S(=O)(=O)[O-])c5F)c5ccc2[nH]5)C=C4)C=C3)cc1
REMARK SMILES IDX 23 1 22 2 21 3 19 4 20 5 18 7 13 8 14 9 15 10 17 11 16 12
REMARK SMILES IDX 12 13 3 14 4 15 5 16 11 17 6 18 2 19 1 20 7 21 8 22 9 23
REMARK SMILES IDX 10 24 24 25 25 26 26 27 27 29 28 30 29 31 90 32 30 33 89 34
REMARK SMILES IDX 31 35 32 36 33 37 83 38 34 39 88 40 82 41 84 42 35 43 87 44
REMARK SMILES IDX 81 45 80 46 36 48 68 49 48 50 67 51 49 52 52 53 66 54 85 55
REMARK SMILES IDX 50 56 51 57 65 59 86 60 53 61 37 62 38 63 46 64 39 65 41 66
REMARK SMILES IDX 47 67 40 68 42 69 43 70 44 71 45 72 69 73 70 74 78 75 71 76
REMARK SMILES IDX 73 77 79 78 72 79 74 80 75 81 76 82 77 83 54 84 55 85 63 86
REMARK SMILES IDX 56 87 58 88 64 89 57 90 59 91 60 92 61 93 62 94
REMARK H PARENT 21 6 25 28 84 47 52 58
REMARK Flexibility Score: inf
ROOT
ATOM      1  C   UNL A   1      31.441  28.244  26.011  1.00  0.00     0.042 C 
ENDROOT
BRANCH   1   2
ATOM      2  C   UNL A   1      31.878  26.985  26.728  1.00  0.00     0.118 C 
BRANCH   2   3
ATOM      3  N   UNL A   1      30.997  25.851  26.743  1.00  0.00    -0.351 N 
ATOM      4  C   UNL A   1      31.314  24.503  26.761  1.00  0.00     0.270 C 
ATOM      5  O   UNL A   1      30.372  23.738  27.001  1.00  0.00    -0.267 OA
ATOM      6  H   UNL A   1      30.035  26.060  26.739  1.00  0.00     0.163 HD
BRANCH   4   7
ATOM      7  C   UNL A   1      32.678  23.894  26.439  1.00  0.00     0.136 A 
ATOM      8  C   UNL A   1      33.481  24.083  25.294  1.00  0.00     0.017 A 
ATOM      9  C   UNL A   1      34.755  23.472  25.306  1.00  0.00     0.013 A 
ATOM     10  C   UNL A   1      35.190  22.712  26.382  1.00  0.00     0.021 A 
ATOM     11  N   UNL A   1      33.116  23.145  27.504  1.00  0.00    -0.250 NA
ATOM     12  C   UNL A   1      34.336  22.577  27.452  1.00  0.00     0.112 A 
BRANCH   8  13
ATOM     13  C   UNL A   1      33.115  24.824  24.079  1.00  0.00     0.027 A 
ATOM     14  C   UNL A   1      32.107  24.354  23.199  1.00  0.00     0.126 A 
ATOM     15  C   UNL A   1      31.673  25.131  22.122  1.00  0.00     0.048 A 
ATOM     16  C   UNL A   1      32.228  26.394  21.904  1.00  0.00     0.017 A 
ATOM     17  C   UNL A   1      33.721  26.061  23.788  1.00  0.00     0.025 A 
ATOM     18  C   UNL A   1      33.267  26.864  22.721  1.00  0.00     0.056 A 
BRANCH  14  19
ATOM     19  O   UNL A   1      31.566  23.097  23.312  1.00  0.00    -0.496 OA
ATOM     20  C   UNL A   1      32.340  22.080  22.670  1.00  0.00     0.278 C 
ENDBRANCH  14  19
BRANCH  18  21
ATOM     21  C   UNL A   1      33.800  28.268  22.560  1.00  0.00     0.416 C 
ATOM     22  F   UNL A   1      34.630  28.659  23.563  1.00  0.00    -0.166 F 
ATOM     23  F   UNL A   1      34.488  28.415  21.393  1.00  0.00    -0.166 F 
ATOM     24  F   UNL A   1      32.806  29.202  22.518  1.00  0.00    -0.166 F 
ENDBRANCH  18  21
ENDBRANCH   8  13
ENDBRANCH   4   7
ENDBRANCH   2   3
ENDBRANCH   1   2
BRANCH   1  25
ATOM     25  C   UNL A   1      32.556  29.249  25.746  1.00  0.00     0.118 C 
BRANCH  25  26
ATOM     26  N   UNL A   1      32.312  30.596  26.263  1.00  0.00    -0.352 N 
ATOM     27  C   UNL A   1      33.004  31.460  27.089  1.00  0.00     0.251 C 
ATOM     28  H   UNL A   1      31.458  30.973  25.951  1.00  0.00     0.163 HD
ATOM     29  O   UNL A   1      32.453  32.497  27.429  1.00  0.00    -0.269 OA
BRANCH  27  30
ATOM     30  C   UNL A   1      34.361  31.159  27.619  1.00  0.00     0.039 A 
ATOM     31  C   UNL A   1      35.274  32.214  27.772  1.00  0.00     0.014 A 
ATOM     32  C   UNL A   1      34.775  29.873  27.940  1.00  0.00     0.014 A 
ATOM     33  C   UNL A   1      36.534  31.987  28.342  1.00  0.00     0.010 A 
ATOM     34  C   UNL A   1      35.961  29.670  28.636  1.00  0.00     0.010 A 
ATOM     35  C   UNL A   1      36.864  30.721  28.844  1.00  0.00    -0.014 A 
BRANCH  35  36
ATOM     36  C   UNL A   1      38.128  30.445  29.583  1.00  0.00     0.031 A 
ATOM     37  C   UNL A   1      39.160  29.516  28.991  1.00  0.00     0.074 A 
ATOM     38  C   UNL A   1      38.280  30.904  30.843  1.00  0.00     0.049 A 
ATOM     39  N   UNL A   1      40.214  28.983  29.552  1.00  0.00    -0.248 NA
ATOM     40  C   UNL A   1      38.947  29.081  27.598  1.00  0.00     0.031 C 
ATOM     41  C   UNL A   1      37.316  31.736  31.569  1.00  0.00     0.029 A 
ATOM     42  N   UNL A   1      39.288  30.701  31.754  1.00  0.00    -0.354 N 
ATOM     43  C   UNL A   1      40.740  28.100  28.616  1.00  0.00     0.074 A 
ATOM     44  C   UNL A   1      39.870  28.141  27.461  1.00  0.00     0.031 C 
ATOM     45  C   UNL A   1      37.782  31.979  32.803  1.00  0.00     0.029 A 
ATOM     46  C   UNL A   1      39.053  31.289  32.978  1.00  0.00     0.049 A 
ATOM     47  H   UNL A   1      40.101  30.184  31.553  1.00  0.00     0.167 HD
ATOM     48  C   UNL A   1      41.863  27.347  28.692  1.00  0.00     0.034 A 
ATOM     49  C   UNL A   1      39.774  31.264  34.116  1.00  0.00     0.034 A 
ATOM     50  C   UNL A   1      42.778  27.391  29.799  1.00  0.00     0.049 A 
ATOM     51  C   UNL A   1      41.072  30.504  34.136  1.00  0.00     0.074 A 
ATOM     52  C   UNL A   1      44.006  26.765  29.926  1.00  0.00     0.029 A 
ATOM     53  N   UNL A   1      42.573  28.112  30.965  1.00  0.00    -0.354 N 
ATOM     54  N   UNL A   1      41.624  29.790  33.185  1.00  0.00    -0.248 NA
ATOM     55  C   UNL A   1      41.866  30.573  35.372  1.00  0.00     0.031 C 
ATOM     56  C   UNL A   1      44.540  27.105  31.173  1.00  0.00     0.029 A 
ATOM     57  C   UNL A   1      43.652  27.954  31.814  1.00  0.00     0.049 A 
ATOM     58  H   UNL A   1      41.776  28.658  31.158  1.00  0.00     0.167 HD
ATOM     59  C   UNL A   1      42.845  29.358  33.692  1.00  0.00     0.074 A 
ATOM     60  C   UNL A   1      42.960  29.908  35.027  1.00  0.00     0.031 C 
ATOM     61  C   UNL A   1      43.777  28.564  33.112  1.00  0.00     0.034 A 
BRANCH  48  62
ATOM     62  C   UNL A   1      42.208  26.469  27.515  1.00  0.00     0.023 A 
ATOM     63  C   UNL A   1      42.965  26.998  26.449  1.00  0.00     0.012 A 
ATOM     64  C   UNL A   1      41.838  25.109  27.488  1.00  0.00     0.148 A 
ATOM     65  C   UNL A   1      43.312  26.203  25.359  1.00  0.00     0.002 A 
ATOM     66  C   UNL A   1      42.230  24.310  26.421  1.00  0.00     0.091 A 
ATOM     67  F   UNL A   1      41.104  24.626  28.501  1.00  0.00    -0.205 F 
ATOM     68  C   UNL A   1      42.954  24.858  25.349  1.00  0.00     0.022 A 
BRANCH  66  69
ATOM     69  S   UNL A   1      41.891  22.547  26.350  1.00  0.00     0.127 S 
ATOM     70  O   UNL A   1      42.573  22.165  25.114  1.00  0.00    -0.237 OA
ATOM     71  O   UNL A   1      42.532  22.062  27.574  1.00  0.00    -0.237 OA
ATOM     72  O   UNL A   1      40.442  22.415  26.330  1.00  0.00    -0.744 OA
ENDBRANCH  66  69
ENDBRANCH  48  62
BRANCH  49  73
ATOM     73  C   UNL A   1      39.327  32.047  35.303  1.00  0.00     0.023 A 
ATOM     74  C   UNL A   1      38.499  31.427  36.260  1.00  0.00     0.012 A 
ATOM     75  C   UNL A   1      39.732  33.380  35.511  1.00  0.00     0.148 A 
ATOM     76  C   UNL A   1      38.054  32.128  37.381  1.00  0.00     0.002 A 
ATOM     77  C   UNL A   1      39.331  34.055  36.658  1.00  0.00     0.091 A 
ATOM     78  F   UNL A   1      40.512  33.960  34.587  1.00  0.00    -0.205 F 
ATOM     79  C   UNL A   1      38.477  33.437  37.587  1.00  0.00     0.022 A 
BRANCH  77  80
ATOM     80  S   UNL A   1      39.941  35.695  37.070  1.00  0.00     0.127 S 
ATOM     81  O   UNL A   1      39.164  36.013  38.264  1.00  0.00    -0.237 OA
ATOM     82  O   UNL A   1      41.362  35.442  37.308  1.00  0.00    -0.237 OA
ATOM     83  O   UNL A   1      39.671  36.515  35.896  1.00  0.00    -0.744 OA
ENDBRANCH  77  80
ENDBRANCH  49  73
BRANCH  61  84
ATOM     84  C   UNL A   1      45.029  28.272  33.894  1.00  0.00     0.023 A 
ATOM     85  C   UNL A   1      46.114  29.169  33.839  1.00  0.00     0.012 A 
ATOM     86  C   UNL A   1      45.095  27.154  34.748  1.00  0.00     0.148 A 
ATOM     87  C   UNL A   1      47.258  28.941  34.601  1.00  0.00     0.002 A 
ATOM     88  C   UNL A   1      46.219  26.960  35.542  1.00  0.00     0.091 A 
ATOM     89  F   UNL A   1      44.059  26.302  34.770  1.00  0.00    -0.205 F 
ATOM     90  C   UNL A   1      47.306  27.846  35.461  1.00  0.00     0.022 A 
BRANCH  88  91
ATOM     91  S   UNL A   1      46.324  25.634  36.748  1.00  0.00     0.127 S 
ATOM     92  O   UNL A   1      44.990  25.669  37.346  1.00  0.00    -0.237 OA
ATOM     93  O   UNL A   1      46.584  24.466  35.905  1.00  0.00    -0.237 OA
ATOM     94  O   UNL A   1      47.420  25.989  37.639  1.00  0.00    -0.744 OA
ENDBRANCH  88  91
ENDBRANCH  61  84
ENDBRANCH  35  36
ENDBRANCH  27  30
ENDBRANCH  25  26
ENDBRANCH   1  25
TORSDOF 16
ENDMDL
