MODEL 1
REMARK VINA RESULT:     -11.4      0.000      0.000
REMARK SMILES O=C(COc1ccc(Cl)cc1C(=O)NCCCNC(=O)c1ccc(-c2c3nc(c(-c4cccc(S(=O)(=O)[O-])c4F)c4ccc([nH]4)c(-c4cccc(S(=O)(=O)[O-])c4F)c4nc(c(-c5cccc(S(=O)(=O)[O-])c5F)c5ccc2[nH]5)C=C4)C=C3)cc1)NC1CC1
REMARK SMILES IDX 15 1 14 2 12 3 13 4 11 6 5 7 6 8 7 9 10 10 8 11 9 12 4 13
REMARK SMILES IDX 3 14 2 15 1 16 84 17 85 19 86 20 87 21 16 22 17 23 18 24
REMARK SMILES IDX 19 25 20 27 21 28 22 29 83 30 23 31 82 32 24 33 25 34 26 35
REMARK SMILES IDX 76 36 27 37 81 38 75 39 77 40 28 41 80 42 74 43 73 44 29 46
REMARK SMILES IDX 61 47 41 48 60 49 42 50 45 51 59 52 78 53 43 54 44 55 58 57
REMARK SMILES IDX 79 58 46 59 30 60 31 61 39 62 32 63 34 64 40 65 33 66 35 67
REMARK SMILES IDX 36 68 37 69 38 70 62 71 63 72 71 73 64 74 66 75 72 76 65 77
REMARK SMILES IDX 67 78 68 79 69 80 70 81 47 82 48 83 56 84 49 85 51 86 57 87
REMARK SMILES IDX 50 88 52 89 53 90 54 91 55 92
REMARK H PARENT 14 5 84 18 18 26 77 45 45 56
REMARK Flexibility Score: inf
ROOT
ATOM      1  C   UNL A   1      33.383  26.386  25.159  1.00  0.00     0.118 C 
ENDROOT
BRANCH   1   2
ATOM      2  N   UNL A   1      32.915  25.284  25.972  1.00  0.00    -0.352 N 
ATOM      3  C   UNL A   1      33.337  24.001  26.174  1.00  0.00     0.255 C 
ATOM      4  O   UNL A   1      32.613  23.334  26.923  1.00  0.00    -0.269 OA
ATOM      5  H   UNL A   1      32.114  25.510  26.497  1.00  0.00     0.163 HD
BRANCH   3   6
ATOM      6  C   UNL A   1      34.594  23.365  25.665  1.00  0.00     0.083 A 
ATOM      7  C   UNL A   1      34.767  22.202  24.894  1.00  0.00     0.132 A 
ATOM      8  C   UNL A   1      36.065  21.829  24.490  1.00  0.00     0.049 A 
ATOM      9  C   UNL A   1      37.196  22.509  24.933  1.00  0.00     0.024 A 
ATOM     10  C   UNL A   1      35.764  24.042  26.098  1.00  0.00     0.038 A 
ATOM     11  C   UNL A   1      37.041  23.610  25.752  1.00  0.00     0.042 A 
ATOM     12  Cl  UNL A   1      38.426  24.454  26.322  1.00  0.00    -0.084 Cl
BRANCH   7  13
ATOM     13  O   UNL A   1      33.712  21.444  24.459  1.00  0.00    -0.483 OA
BRANCH  13  14
ATOM     14  C   UNL A   1      33.371  20.340  25.310  1.00  0.00     0.329 C 
BRANCH  14  15
ATOM     15  C   UNL A   1      33.333  18.984  24.607  1.00  0.00     0.258 C 
ATOM     16  O   UNL A   1      32.341  18.597  23.997  1.00  0.00    -0.271 OA
ATOM     17  N   UNL A   1      34.465  18.212  24.819  1.00  0.00    -0.350 N 
ATOM     18  H   UNL A   1      35.266  18.644  25.194  1.00  0.00     0.163 HD
BRANCH  17  19
ATOM     19  C   UNL A   1      34.520  16.817  24.515  1.00  0.00     0.082 C 
ATOM     20  C   UNL A   1      35.257  15.829  25.376  1.00  0.00     0.027 C 
ATOM     21  C   UNL A   1      33.759  15.816  25.338  1.00  0.00     0.027 C 
ENDBRANCH  17  19
ENDBRANCH  14  15
ENDBRANCH  13  14
ENDBRANCH   7  13
ENDBRANCH   3   6
ENDBRANCH   1   2
BRANCH   1  22
ATOM     22  C   UNL A   1      32.642  27.670  25.532  1.00  0.00     0.042 C 
BRANCH  22  23
ATOM     23  C   UNL A   1      33.300  28.934  24.987  1.00  0.00     0.118 C 
BRANCH  23  24
ATOM     24  N   UNL A   1      32.650  30.135  25.494  1.00  0.00    -0.352 N 
ATOM     25  C   UNL A   1      32.901  30.852  26.638  1.00  0.00     0.251 C 
ATOM     26  H   UNL A   1      31.921  30.485  24.932  1.00  0.00     0.163 HD
ATOM     27  O   UNL A   1      32.065  31.665  27.027  1.00  0.00    -0.269 OA
BRANCH  25  28
ATOM     28  C   UNL A   1      34.154  30.657  27.403  1.00  0.00     0.039 A 
ATOM     29  C   UNL A   1      34.420  29.402  27.962  1.00  0.00     0.014 A 
ATOM     30  C   UNL A   1      35.039  31.716  27.625  1.00  0.00     0.014 A 
ATOM     31  C   UNL A   1      35.588  29.198  28.703  1.00  0.00     0.010 A 
ATOM     32  C   UNL A   1      36.238  31.493  28.302  1.00  0.00     0.010 A 
ATOM     33  C   UNL A   1      36.519  30.237  28.860  1.00  0.00    -0.014 A 
BRANCH  33  34
ATOM     34  C   UNL A   1      37.790  30.042  29.606  1.00  0.00     0.031 A 
ATOM     35  C   UNL A   1      38.851  29.121  29.063  1.00  0.00     0.074 A 
ATOM     36  C   UNL A   1      37.945  30.605  30.822  1.00  0.00     0.049 A 
ATOM     37  N   UNL A   1      39.971  28.733  29.617  1.00  0.00    -0.248 NA
ATOM     38  C   UNL A   1      38.610  28.536  27.733  1.00  0.00     0.031 C 
ATOM     39  C   UNL A   1      36.958  31.454  31.491  1.00  0.00     0.029 A 
ATOM     40  N   UNL A   1      38.972  30.513  31.728  1.00  0.00    -0.354 N 
ATOM     41  C   UNL A   1      40.538  27.822  28.733  1.00  0.00     0.074 A 
ATOM     42  C   UNL A   1      39.633  27.701  27.613  1.00  0.00     0.031 C 
ATOM     43  C   UNL A   1      37.420  31.794  32.705  1.00  0.00     0.029 A 
ATOM     44  C   UNL A   1      38.720  31.164  32.914  1.00  0.00     0.049 A 
ATOM     45  H   UNL A   1      39.809  30.029  31.547  1.00  0.00     0.167 HD
ATOM     46  C   UNL A   1      41.718  27.165  28.834  1.00  0.00     0.034 A 
ATOM     47  C   UNL A   1      39.444  31.231  34.049  1.00  0.00     0.034 A 
ATOM     48  C   UNL A   1      42.645  27.337  29.919  1.00  0.00     0.049 A 
ATOM     49  C   UNL A   1      40.779  30.539  34.109  1.00  0.00     0.074 A 
ATOM     50  C   UNL A   1      43.914  26.802  30.058  1.00  0.00     0.029 A 
ATOM     51  N   UNL A   1      42.404  28.096  31.053  1.00  0.00    -0.354 N 
ATOM     52  N   UNL A   1      41.374  29.816  33.190  1.00  0.00    -0.248 NA
ATOM     53  C   UNL A   1      41.560  30.700  35.343  1.00  0.00     0.031 C 
ATOM     54  C   UNL A   1      44.432  27.222  31.288  1.00  0.00     0.029 A 
ATOM     55  C   UNL A   1      43.496  28.038  31.901  1.00  0.00     0.049 A 
ATOM     56  H   UNL A   1      41.578  28.602  31.228  1.00  0.00     0.167 HD
ATOM     57  C   UNL A   1      42.610  29.467  33.721  1.00  0.00     0.074 A 
ATOM     58  C   UNL A   1      42.688  30.076  35.032  1.00  0.00     0.031 C 
ATOM     59  C   UNL A   1      43.585  28.699  33.177  1.00  0.00     0.034 A 
BRANCH  46  60
ATOM     60  C   UNL A   1      42.109  26.236  27.713  1.00  0.00     0.023 A 
ATOM     61  C   UNL A   1      42.906  26.719  26.655  1.00  0.00     0.012 A 
ATOM     62  C   UNL A   1      41.756  24.873  27.746  1.00  0.00     0.148 A 
ATOM     63  C   UNL A   1      43.321  25.868  25.633  1.00  0.00     0.002 A 
ATOM     64  C   UNL A   1      42.211  24.020  26.745  1.00  0.00     0.091 A 
ATOM     65  F   UNL A   1      40.983  24.437  28.749  1.00  0.00    -0.205 F 
ATOM     66  C   UNL A   1      42.983  24.518  25.683  1.00  0.00     0.022 A 
BRANCH  64  67
ATOM     67  S   UNL A   1      41.899  22.252  26.761  1.00  0.00     0.127 S 
ATOM     68  O   UNL A   1      42.478  21.838  25.483  1.00  0.00    -0.237 OA
ATOM     69  O   UNL A   1      42.651  21.817  27.939  1.00  0.00    -0.237 OA
ATOM     70  O   UNL A   1      40.455  22.098  26.871  1.00  0.00    -0.744 OA
ENDBRANCH  64  67
ENDBRANCH  46  60
BRANCH  47  71
ATOM     71  C   UNL A   1      38.945  32.028  35.206  1.00  0.00     0.023 A 
ATOM     72  C   UNL A   1      39.001  33.434  35.153  1.00  0.00     0.012 A 
ATOM     73  C   UNL A   1      38.393  31.405  36.342  1.00  0.00     0.148 A 
ATOM     74  C   UNL A   1      38.548  34.205  36.224  1.00  0.00     0.002 A 
ATOM     75  C   UNL A   1      37.892  32.181  37.382  1.00  0.00     0.091 A 
ATOM     76  F   UNL A   1      38.360  30.066  36.381  1.00  0.00    -0.205 F 
ATOM     77  C   UNL A   1      37.984  33.581  37.333  1.00  0.00     0.022 A 
BRANCH  75  78
ATOM     78  S   UNL A   1      37.024  31.459  38.779  1.00  0.00     0.127 S 
ATOM     79  O   UNL A   1      37.998  31.630  39.855  1.00  0.00    -0.237 OA
ATOM     80  O   UNL A   1      35.841  32.319  38.877  1.00  0.00    -0.237 OA
ATOM     81  O   UNL A   1      36.735  30.088  38.390  1.00  0.00    -0.744 OA
ENDBRANCH  75  78
ENDBRANCH  47  71
BRANCH  59  82
ATOM     82  C   UNL A   1      44.848  28.501  33.974  1.00  0.00     0.023 A 
ATOM     83  C   UNL A   1      45.897  29.435  33.866  1.00  0.00     0.012 A 
ATOM     84  C   UNL A   1      44.954  27.440  34.895  1.00  0.00     0.148 A 
ATOM     85  C   UNL A   1      47.046  29.299  34.645  1.00  0.00     0.002 A 
ATOM     86  C   UNL A   1      46.080  27.340  35.702  1.00  0.00     0.091 A 
ATOM     87  F   UNL A   1      43.951  26.552  34.967  1.00  0.00    -0.205 F 
ATOM     88  C   UNL A   1      47.132  28.262  35.571  1.00  0.00     0.022 A 
BRANCH  86  89
ATOM     89  S   UNL A   1      46.234  26.096  36.989  1.00  0.00     0.127 S 
ATOM     90  O   UNL A   1      47.543  26.415  37.556  1.00  0.00    -0.237 OA
ATOM     91  O   UNL A   1      45.100  26.406  37.859  1.00  0.00    -0.237 OA
ATOM     92  O   UNL A   1      46.143  24.807  36.314  1.00  0.00    -0.744 OA
ENDBRANCH  86  89
ENDBRANCH  59  82
ENDBRANCH  33  34
ENDBRANCH  25  28
ENDBRANCH  23  24
ENDBRANCH  22  23
ENDBRANCH   1  22
TORSDOF 17
ENDMDL
MODEL 2
REMARK VINA RESULT:     -11.3      3.124      8.481
REMARK SMILES O=C(COc1ccc(Cl)cc1C(=O)NCCCNC(=O)c1ccc(-c2c3nc(c(-c4cccc(S(=O)(=O)[O-])c4F)c4ccc([nH]4)c(-c4cccc(S(=O)(=O)[O-])c4F)c4nc(c(-c5cccc(S(=O)(=O)[O-])c5F)c5ccc2[nH]5)C=C4)C=C3)cc1)NC1CC1
REMARK SMILES IDX 15 1 14 2 12 3 13 4 11 6 5 7 6 8 7 9 10 10 8 11 9 12 4 13
REMARK SMILES IDX 3 14 2 15 1 16 84 17 85 19 86 20 87 21 16 22 17 23 18 24
REMARK SMILES IDX 19 25 20 27 21 28 22 29 83 30 23 31 82 32 24 33 25 34 26 35
REMARK SMILES IDX 76 36 27 37 81 38 75 39 77 40 28 41 80 42 74 43 73 44 29 46
REMARK SMILES IDX 61 47 41 48 60 49 42 50 45 51 59 52 78 53 43 54 44 55 58 57
REMARK SMILES IDX 79 58 46 59 30 60 31 61 39 62 32 63 34 64 40 65 33 66 35 67
REMARK SMILES IDX 36 68 37 69 38 70 62 71 63 72 71 73 64 74 66 75 72 76 65 77
REMARK SMILES IDX 67 78 68 79 69 80 70 81 47 82 48 83 56 84 49 85 51 86 57 87
REMARK SMILES IDX 50 88 52 89 53 90 54 91 55 92
REMARK H PARENT 14 5 84 18 18 26 77 45 45 56
REMARK Flexibility Score: inf
ROOT
ATOM      1  C   UNL A   1      31.938  28.253  27.236  1.00  0.00     0.118 C 
ENDROOT
BRANCH   1   2
ATOM      2  N   UNL A   1      31.068  27.099  27.187  1.00  0.00    -0.352 N 
ATOM      3  C   UNL A   1      30.547  26.339  26.178  1.00  0.00     0.255 C 
ATOM      4  O   UNL A   1      29.776  25.448  26.552  1.00  0.00    -0.269 OA
ATOM      5  H   UNL A   1      30.789  26.792  28.079  1.00  0.00     0.163 HD
BRANCH   3   6
ATOM      6  C   UNL A   1      30.872  26.418  24.718  1.00  0.00     0.083 A 
ATOM      7  C   UNL A   1      31.541  25.497  23.893  1.00  0.00     0.132 A 
ATOM      8  C   UNL A   1      31.682  25.778  22.519  1.00  0.00     0.049 A 
ATOM      9  C   UNL A   1      31.287  26.996  21.974  1.00  0.00     0.024 A 
ATOM     10  C   UNL A   1      30.474  27.650  24.135  1.00  0.00     0.038 A 
ATOM     11  C   UNL A   1      30.695  27.938  22.791  1.00  0.00     0.042 A 
ATOM     12  Cl  UNL A   1      30.213  29.455  22.140  1.00  0.00    -0.084 Cl
BRANCH   7  13
ATOM     13  O   UNL A   1      32.009  24.296  24.358  1.00  0.00    -0.483 OA
BRANCH  13  14
ATOM     14  C   UNL A   1      32.379  23.357  23.338  1.00  0.00     0.329 C 
BRANCH  14  15
ATOM     15  C   UNL A   1      33.883  23.117  23.212  1.00  0.00     0.258 C 
ATOM     16  O   UNL A   1      34.477  23.268  22.148  1.00  0.00    -0.271 OA
ATOM     17  N   UNL A   1      34.467  22.618  24.365  1.00  0.00    -0.350 N 
ATOM     18  H   UNL A   1      33.959  22.660  25.207  1.00  0.00     0.163 HD
BRANCH  17  19
ATOM     19  C   UNL A   1      35.776  22.044  24.385  1.00  0.00     0.082 C 
ATOM     20  C   UNL A   1      36.802  22.404  25.423  1.00  0.00     0.027 C 
ATOM     21  C   UNL A   1      36.168  21.046  25.438  1.00  0.00     0.027 C 
ENDBRANCH  17  19
ENDBRANCH  14  15
ENDBRANCH  13  14
ENDBRANCH   7  13
ENDBRANCH   3   6
ENDBRANCH   1   2
BRANCH   1  22
ATOM     22  C   UNL A   1      33.364  27.857  26.854  1.00  0.00     0.042 C 
BRANCH  22  23
ATOM     23  C   UNL A   1      34.087  28.909  26.018  1.00  0.00     0.118 C 
BRANCH  23  24
ATOM     24  N   UNL A   1      33.933  30.241  26.587  1.00  0.00    -0.352 N 
ATOM     25  C   UNL A   1      34.605  30.833  27.628  1.00  0.00     0.251 C 
ATOM     26  H   UNL A   1      33.243  30.800  26.162  1.00  0.00     0.163 HD
ATOM     27  O   UNL A   1      34.140  31.853  28.135  1.00  0.00    -0.269 OA
BRANCH  25  28
ATOM     28  C   UNL A   1      35.872  30.263  28.144  1.00  0.00     0.039 A 
ATOM     29  C   UNL A   1      37.027  30.360  27.362  1.00  0.00     0.014 A 
ATOM     30  C   UNL A   1      35.915  29.582  29.363  1.00  0.00     0.014 A 
ATOM     31  C   UNL A   1      38.231  29.815  27.820  1.00  0.00     0.010 A 
ATOM     32  C   UNL A   1      37.130  29.103  29.851  1.00  0.00     0.010 A 
ATOM     33  C   UNL A   1      38.298  29.200  29.080  1.00  0.00    -0.014 A 
BRANCH  33  34
ATOM     34  C   UNL A   1      39.570  28.648  29.614  1.00  0.00     0.031 A 
ATOM     35  C   UNL A   1      40.295  29.360  30.726  1.00  0.00     0.074 A 
ATOM     36  C   UNL A   1      40.129  27.569  29.028  1.00  0.00     0.049 A 
ATOM     37  N   UNL A   1      41.468  29.101  31.246  1.00  0.00    -0.248 NA
ATOM     38  C   UNL A   1      39.629  30.535  31.312  1.00  0.00     0.031 C 
ATOM     39  C   UNL A   1      39.564  26.837  27.894  1.00  0.00     0.029 A 
ATOM     40  N   UNL A   1      41.316  26.927  29.279  1.00  0.00    -0.354 N 
ATOM     41  C   UNL A   1      41.701  30.107  32.177  1.00  0.00     0.074 A 
ATOM     42  C   UNL A   1      40.558  30.991  32.141  1.00  0.00     0.031 C 
ATOM     43  C   UNL A   1      40.408  25.856  27.537  1.00  0.00     0.029 A 
ATOM     44  C   UNL A   1      41.588  25.907  28.395  1.00  0.00     0.049 A 
ATOM     45  H   UNL A   1      41.915  27.172  30.020  1.00  0.00     0.167 HD
ATOM     46  C   UNL A   1      42.761  30.266  33.006  1.00  0.00     0.034 A 
ATOM     47  C   UNL A   1      42.672  25.115  28.277  1.00  0.00     0.034 A 
ATOM     48  C   UNL A   1      43.866  29.350  33.084  1.00  0.00     0.049 A 
ATOM     49  C   UNL A   1      43.808  25.277  29.251  1.00  0.00     0.074 A 
ATOM     50  C   UNL A   1      44.932  29.363  33.967  1.00  0.00     0.029 A 
ATOM     51  N   UNL A   1      44.051  28.261  32.249  1.00  0.00    -0.354 N 
ATOM     52  N   UNL A   1      43.932  26.133  30.236  1.00  0.00    -0.248 NA
ATOM     53  C   UNL A   1      44.935  24.343  29.122  1.00  0.00     0.031 C 
ATOM     54  C   UNL A   1      45.773  28.291  33.650  1.00  0.00     0.029 A 
ATOM     55  C   UNL A   1      45.218  27.598  32.587  1.00  0.00     0.049 A 
ATOM     56  H   UNL A   1      43.442  27.997  31.521  1.00  0.00     0.167 HD
ATOM     57  C   UNL A   1      45.131  25.819  30.865  1.00  0.00     0.074 A 
ATOM     58  C   UNL A   1      45.685  24.680  30.163  1.00  0.00     0.031 C 
ATOM     59  C   UNL A   1      45.726  26.428  31.919  1.00  0.00     0.034 A 
BRANCH  46  60
ATOM     60  C   UNL A   1      42.757  31.448  33.941  1.00  0.00     0.023 A 
ATOM     61  C   UNL A   1      43.297  32.677  33.512  1.00  0.00     0.012 A 
ATOM     62  C   UNL A   1      42.150  31.365  35.210  1.00  0.00     0.148 A 
ATOM     63  C   UNL A   1      43.260  33.798  34.340  1.00  0.00     0.002 A 
ATOM     64  C   UNL A   1      42.078  32.498  36.014  1.00  0.00     0.091 A 
ATOM     65  F   UNL A   1      41.659  30.184  35.608  1.00  0.00    -0.205 F 
ATOM     66  C   UNL A   1      42.642  33.711  35.585  1.00  0.00     0.022 A 
BRANCH  64  67
ATOM     67  S   UNL A   1      41.233  32.512  37.598  1.00  0.00     0.127 S 
ATOM     68  O   UNL A   1      42.023  31.548  38.363  1.00  0.00    -0.237 OA
ATOM     69  O   UNL A   1      41.397  33.904  38.021  1.00  0.00    -0.237 OA
ATOM     70  O   UNL A   1      39.859  32.118  37.326  1.00  0.00    -0.744 OA
ENDBRANCH  64  67
ENDBRANCH  46  60
BRANCH  47  71
ATOM     71  C   UNL A   1      42.712  24.059  27.226  1.00  0.00     0.023 A 
ATOM     72  C   UNL A   1      43.372  24.318  26.009  1.00  0.00     0.012 A 
ATOM     73  C   UNL A   1      42.125  22.796  27.432  1.00  0.00     0.148 A 
ATOM     74  C   UNL A   1      43.419  23.351  25.004  1.00  0.00     0.002 A 
ATOM     75  C   UNL A   1      42.223  21.818  26.449  1.00  0.00     0.091 A 
ATOM     76  F   UNL A   1      41.488  22.572  28.590  1.00  0.00    -0.205 F 
ATOM     77  C   UNL A   1      42.854  22.098  25.227  1.00  0.00     0.022 A 
BRANCH  75  78
ATOM     78  S   UNL A   1      41.648  20.137  26.714  1.00  0.00     0.127 S 
ATOM     79  O   UNL A   1      41.948  19.513  25.426  1.00  0.00    -0.237 OA
ATOM     80  O   UNL A   1      42.497  19.697  27.824  1.00  0.00    -0.237 OA
ATOM     81  O   UNL A   1      40.239  20.257  27.052  1.00  0.00    -0.744 OA
ENDBRANCH  75  78
ENDBRANCH  47  71
BRANCH  59  82
ATOM     82  C   UNL A   1      47.029  25.857  32.416  1.00  0.00     0.023 A 
ATOM     83  C   UNL A   1      47.031  24.965  33.506  1.00  0.00     0.012 A 
ATOM     84  C   UNL A   1      48.235  26.135  31.743  1.00  0.00     0.148 A 
ATOM     85  C   UNL A   1      48.220  24.379  33.936  1.00  0.00     0.002 A 
ATOM     86  C   UNL A   1      49.407  25.510  32.147  1.00  0.00     0.091 A 
ATOM     87  F   UNL A   1      48.212  27.002  30.720  1.00  0.00    -0.205 F 
ATOM     88  C   UNL A   1      49.405  24.639  33.250  1.00  0.00     0.022 A 
BRANCH  86  89
ATOM     89  S   UNL A   1      50.958  25.709  31.263  1.00  0.00     0.127 S 
ATOM     90  O   UNL A   1      51.845  24.823  32.015  1.00  0.00    -0.237 OA
ATOM     91  O   UNL A   1      50.616  25.235  29.922  1.00  0.00    -0.237 OA
ATOM     92  O   UNL A   1      51.283  27.127  31.337  1.00  0.00    -0.744 OA
ENDBRANCH  86  89
ENDBRANCH  59  82
ENDBRANCH  33  34
ENDBRANCH  25  28
ENDBRANCH  23  24
ENDBRANCH  22  23
ENDBRANCH   1  22
TORSDOF 17
ENDMDL
MODEL 3
REMARK VINA RESULT:     -11.3      2.526      8.287
REMARK SMILES O=C(COc1ccc(Cl)cc1C(=O)NCCCNC(=O)c1ccc(-c2c3nc(c(-c4cccc(S(=O)(=O)[O-])c4F)c4ccc([nH]4)c(-c4cccc(S(=O)(=O)[O-])c4F)c4nc(c(-c5cccc(S(=O)(=O)[O-])c5F)c5ccc2[nH]5)C=C4)C=C3)cc1)NC1CC1
REMARK SMILES IDX 15 1 14 2 12 3 13 4 11 6 5 7 6 8 7 9 10 10 8 11 9 12 4 13
REMARK SMILES IDX 3 14 2 15 1 16 84 17 85 19 86 20 87 21 16 22 17 23 18 24
REMARK SMILES IDX 19 25 20 27 21 28 22 29 83 30 23 31 82 32 24 33 25 34 26 35
REMARK SMILES IDX 76 36 27 37 81 38 75 39 77 40 28 41 80 42 74 43 73 44 29 46
REMARK SMILES IDX 61 47 41 48 60 49 42 50 45 51 59 52 78 53 43 54 44 55 58 57
REMARK SMILES IDX 79 58 46 59 30 60 31 61 39 62 32 63 34 64 40 65 33 66 35 67
REMARK SMILES IDX 36 68 37 69 38 70 62 71 63 72 71 73 64 74 66 75 72 76 65 77
REMARK SMILES IDX 67 78 68 79 69 80 70 81 47 82 48 83 56 84 49 85 51 86 57 87
REMARK SMILES IDX 50 88 52 89 53 90 54 91 55 92
REMARK H PARENT 14 5 84 18 18 26 77 45 45 56
REMARK Flexibility Score: inf
ROOT
ATOM      1  C   UNL A   1      33.677  26.518  26.171  1.00  0.00     0.118 C 
ENDROOT
BRANCH   1   2
ATOM      2  N   UNL A   1      33.661  26.210  24.757  1.00  0.00    -0.352 N 
ATOM      3  C   UNL A   1      34.064  25.140  24.010  1.00  0.00     0.255 C 
ATOM      4  O   UNL A   1      33.932  25.287  22.789  1.00  0.00    -0.269 OA
ATOM      5  H   UNL A   1      33.273  26.932  24.213  1.00  0.00     0.163 HD
BRANCH   3   6
ATOM      6  C   UNL A   1      34.555  23.815  24.507  1.00  0.00     0.083 A 
ATOM      7  C   UNL A   1      33.866  22.599  24.661  1.00  0.00     0.132 A 
ATOM      8  C   UNL A   1      34.568  21.460  25.106  1.00  0.00     0.049 A 
ATOM      9  C   UNL A   1      35.897  21.530  25.515  1.00  0.00     0.024 A 
ATOM     10  C   UNL A   1      35.911  23.856  24.927  1.00  0.00     0.038 A 
ATOM     11  C   UNL A   1      36.562  22.737  25.437  1.00  0.00     0.042 A 
ATOM     12  Cl  UNL A   1      38.199  22.847  25.953  1.00  0.00    -0.084 Cl
BRANCH   7  13
ATOM     13  O   UNL A   1      32.544  22.455  24.331  1.00  0.00    -0.483 OA
BRANCH  13  14
ATOM     14  C   UNL A   1      31.645  22.418  25.450  1.00  0.00     0.329 C 
BRANCH  14  15
ATOM     15  C   UNL A   1      31.138  23.786  25.902  1.00  0.00     0.258 C 
ATOM     16  O   UNL A   1      31.129  24.117  27.084  1.00  0.00    -0.271 OA
ATOM     17  N   UNL A   1      30.602  24.551  24.877  1.00  0.00    -0.350 N 
ATOM     18  H   UNL A   1      30.775  24.279  23.947  1.00  0.00     0.163 HD
BRANCH  17  19
ATOM     19  C   UNL A   1      29.809  25.716  25.113  1.00  0.00     0.082 C 
ATOM     20  C   UNL A   1      30.163  27.064  24.547  1.00  0.00     0.027 C 
ATOM     21  C   UNL A   1      28.975  26.318  24.017  1.00  0.00     0.027 C 
ENDBRANCH  17  19
ENDBRANCH  14  15
ENDBRANCH  13  14
ENDBRANCH   7  13
ENDBRANCH   3   6
ENDBRANCH   1   2
BRANCH   1  22
ATOM     22  C   UNL A   1      33.182  27.946  26.406  1.00  0.00     0.042 C 
BRANCH  22  23
ATOM     23  C   UNL A   1      34.113  29.015  25.842  1.00  0.00     0.118 C 
BRANCH  23  24
ATOM     24  N   UNL A   1      33.904  30.301  26.492  1.00  0.00    -0.352 N 
ATOM     25  C   UNL A   1      34.533  30.844  27.586  1.00  0.00     0.251 C 
ATOM     26  H   UNL A   1      33.207  30.867  26.086  1.00  0.00     0.163 HD
ATOM     27  O   UNL A   1      34.024  31.813  28.146  1.00  0.00    -0.269 OA
BRANCH  25  28
ATOM     28  C   UNL A   1      35.804  30.278  28.096  1.00  0.00     0.039 A 
ATOM     29  C   UNL A   1      36.958  30.390  27.314  1.00  0.00     0.014 A 
ATOM     30  C   UNL A   1      35.854  29.587  29.310  1.00  0.00     0.014 A 
ATOM     31  C   UNL A   1      38.166  29.850  27.766  1.00  0.00     0.010 A 
ATOM     32  C   UNL A   1      37.072  29.113  29.793  1.00  0.00     0.010 A 
ATOM     33  C   UNL A   1      38.238  29.225  29.021  1.00  0.00    -0.014 A 
BRANCH  33  34
ATOM     34  C   UNL A   1      39.515  28.677  29.550  1.00  0.00     0.031 A 
ATOM     35  C   UNL A   1      40.235  29.384  30.669  1.00  0.00     0.074 A 
ATOM     36  C   UNL A   1      40.082  27.609  28.953  1.00  0.00     0.049 A 
ATOM     37  N   UNL A   1      41.410  29.130  31.186  1.00  0.00    -0.248 NA
ATOM     38  C   UNL A   1      39.560  30.549  31.266  1.00  0.00     0.031 C 
ATOM     39  C   UNL A   1      39.522  26.884  27.812  1.00  0.00     0.029 A 
ATOM     40  N   UNL A   1      41.274  26.973  29.197  1.00  0.00    -0.354 N 
ATOM     41  C   UNL A   1      41.636  30.128  32.126  1.00  0.00     0.074 A 
ATOM     42  C   UNL A   1      40.485  31.004  32.098  1.00  0.00     0.031 C 
ATOM     43  C   UNL A   1      40.374  25.912  27.445  1.00  0.00     0.029 A 
ATOM     44  C   UNL A   1      41.554  25.965  28.304  1.00  0.00     0.049 A 
ATOM     45  H   UNL A   1      41.872  27.216  29.941  1.00  0.00     0.167 HD
ATOM     46  C   UNL A   1      42.695  30.288  32.956  1.00  0.00     0.034 A 
ATOM     47  C   UNL A   1      42.644  25.182  28.177  1.00  0.00     0.034 A 
ATOM     48  C   UNL A   1      43.806  29.380  33.025  1.00  0.00     0.049 A 
ATOM     49  C   UNL A   1      43.779  25.344  29.153  1.00  0.00     0.074 A 
ATOM     50  C   UNL A   1      44.873  29.392  33.908  1.00  0.00     0.029 A 
ATOM     51  N   UNL A   1      44.000  28.300  32.179  1.00  0.00    -0.354 N 
ATOM     52  N   UNL A   1      43.897  26.191  30.146  1.00  0.00    -0.248 NA
ATOM     53  C   UNL A   1      44.913  24.419  29.015  1.00  0.00     0.031 C 
ATOM     54  C   UNL A   1      45.722  28.330  33.580  1.00  0.00     0.029 A 
ATOM     55  C   UNL A   1      45.172  27.643  32.511  1.00  0.00     0.049 A 
ATOM     56  H   UNL A   1      43.393  28.038  31.449  1.00  0.00     0.167 HD
ATOM     57  C   UNL A   1      45.098  25.880  30.772  1.00  0.00     0.074 A 
ATOM     58  C   UNL A   1      45.661  24.753  30.059  1.00  0.00     0.031 C 
ATOM     59  C   UNL A   1      45.689  26.484  31.832  1.00  0.00     0.034 A 
BRANCH  46  60
ATOM     60  C   UNL A   1      42.682  31.460  33.903  1.00  0.00     0.023 A 
ATOM     61  C   UNL A   1      43.213  32.698  33.485  1.00  0.00     0.012 A 
ATOM     62  C   UNL A   1      42.075  31.361  35.170  1.00  0.00     0.148 A 
ATOM     63  C   UNL A   1      43.168  33.810  34.325  1.00  0.00     0.002 A 
ATOM     64  C   UNL A   1      41.994  32.486  35.985  1.00  0.00     0.091 A 
ATOM     65  F   UNL A   1      41.592  30.172  35.556  1.00  0.00    -0.205 F 
ATOM     66  C   UNL A   1      42.550  33.707  35.568  1.00  0.00     0.022 A 
BRANCH  64  67
ATOM     67  S   UNL A   1      41.149  32.479  37.569  1.00  0.00     0.127 S 
ATOM     68  O   UNL A   1      39.844  31.927  37.205  1.00  0.00    -0.237 OA
ATOM     69  O   UNL A   1      41.989  31.581  38.362  1.00  0.00    -0.237 OA
ATOM     70  O   UNL A   1      41.136  33.861  38.025  1.00  0.00    -0.744 OA
ENDBRANCH  64  67
ENDBRANCH  46  60
BRANCH  47  71
ATOM     71  C   UNL A   1      42.691  24.137  27.116  1.00  0.00     0.023 A 
ATOM     72  C   UNL A   1      43.349  24.413  25.902  1.00  0.00     0.012 A 
ATOM     73  C   UNL A   1      42.115  22.867  27.311  1.00  0.00     0.148 A 
ATOM     74  C   UNL A   1      43.403  23.456  24.887  1.00  0.00     0.002 A 
ATOM     75  C   UNL A   1      42.220  21.899  26.318  1.00  0.00     0.091 A 
ATOM     76  F   UNL A   1      41.480  22.626  28.466  1.00  0.00    -0.205 F 
ATOM     77  C   UNL A   1      42.849  22.196  25.098  1.00  0.00     0.022 A 
BRANCH  75  78
ATOM     78  S   UNL A   1      41.659  20.211  26.567  1.00  0.00     0.127 S 
ATOM     79  O   UNL A   1      40.207  20.377  26.567  1.00  0.00    -0.237 OA
ATOM     80  O   UNL A   1      42.201  19.534  25.385  1.00  0.00    -0.237 OA
ATOM     81  O   UNL A   1      42.254  19.786  27.823  1.00  0.00    -0.744 OA
ENDBRANCH  75  78
ENDBRANCH  47  71
BRANCH  59  82
ATOM     82  C   UNL A   1      46.996  25.918  32.322  1.00  0.00     0.023 A 
ATOM     83  C   UNL A   1      48.210  26.427  31.821  1.00  0.00     0.012 A 
ATOM     84  C   UNL A   1      47.018  24.950  33.346  1.00  0.00     0.148 A 
ATOM     85  C   UNL A   1      49.428  25.959  32.312  1.00  0.00     0.002 A 
ATOM     86  C   UNL A   1      48.234  24.524  33.863  1.00  0.00     0.091 A 
ATOM     87  F   UNL A   1      45.850  24.466  33.794  1.00  0.00    -0.205 F 
ATOM     88  C   UNL A   1      49.441  25.019  33.341  1.00  0.00     0.022 A 
BRANCH  86  89
ATOM     89  S   UNL A   1      48.345  23.391  35.253  1.00  0.00     0.127 S 
ATOM     90  O   UNL A   1      46.936  23.181  35.578  1.00  0.00    -0.237 OA
ATOM     91  O   UNL A   1      49.014  22.234  34.659  1.00  0.00    -0.237 OA
ATOM     92  O   UNL A   1      49.125  24.082  36.272  1.00  0.00    -0.744 OA
ENDBRANCH  86  89
ENDBRANCH  59  82
ENDBRANCH  33  34
ENDBRANCH  25  28
ENDBRANCH  23  24
ENDBRANCH  22  23
ENDBRANCH   1  22
TORSDOF 17
ENDMDL
