MODEL 1
REMARK VINA RESULT:     -11.6      0.000      0.000
REMARK SMILES O=C(CC1(NS(=O)(=O)C[C@H]2CCCO2)CCC1)NCCCNC(=O)c1ccc(-c2c3nc(c(-c4cccc(S(=O)(=O)[O-])c4F)c4ccc([nH]4)c(-c4cccc(S(=O)(=O)[O-])c4F)c4nc(c(-c5cccc(S(=O)(=O)[O-])c5F)c5ccc2[nH]5)C=C4)C=C3)cc1
REMARK SMILES IDX 19 1 18 2 1 3 2 4 3 6 4 7 15 8 17 9 16 10 5 11 6 13 7 14
REMARK SMILES IDX 8 15 9 16 10 17 11 18 14 19 12 20 13 21 20 22 21 23 22 24
REMARK SMILES IDX 23 25 24 27 25 28 26 29 87 30 27 31 86 32 28 33 29 34 30 35
REMARK SMILES IDX 80 36 31 37 85 38 79 39 81 40 32 41 84 42 78 43 77 44 33 46
REMARK SMILES IDX 65 47 45 48 64 49 46 50 49 51 63 52 82 53 47 54 48 55 62 57
REMARK SMILES IDX 83 58 50 59 34 60 35 61 43 62 36 63 38 64 44 65 37 66 39 67
REMARK SMILES IDX 40 68 41 69 42 70 66 71 67 72 75 73 68 74 70 75 76 76 69 77
REMARK SMILES IDX 71 78 72 79 73 80 74 81 51 82 52 83 60 84 53 85 55 86 61 87
REMARK SMILES IDX 54 88 56 89 57 90 58 91 59 92
REMARK H PARENT 18 5 5 12 22 26 81 45 49 56
REMARK Flexibility Score: inf
ROOT
ATOM      1  C   UNL A   1      35.260  23.398  23.899  1.00  0.00     0.117 C 
ENDROOT
BRANCH   1   2
ATOM      2  N   UNL A   1      34.106  23.916  24.624  1.00  0.00    -0.356 N 
ATOM      3  O   UNL A   1      33.778  25.722  23.261  1.00  0.00    -0.275 OA
ATOM      4  C   UNL A   1      33.454  25.068  24.250  1.00  0.00     0.221 C 
ATOM      5  H   UNL A   1      33.781  23.422  25.412  1.00  0.00     0.163 HD
BRANCH   4   6
ATOM      6  C   UNL A   1      32.344  25.558  25.165  1.00  0.00     0.123 C 
BRANCH   6   7
ATOM      7  C   UNL A   1      32.217  27.067  25.411  1.00  0.00     0.042 C 
ATOM      8  C   UNL A   1      31.279  27.436  26.614  1.00  0.00     0.024 C 
ATOM      9  C   UNL A   1      33.378  27.652  26.293  1.00  0.00     0.024 C 
ATOM     10  C   UNL A   1      32.340  28.428  27.108  1.00  0.00     0.004 C 
BRANCH   7  11
ATOM     11  N   UNL A   1      31.989  27.800  24.086  1.00  0.00    -0.208 NA
ATOM     12  H   UNL A   1      32.751  27.485  23.486  1.00  0.00     0.141 HD
BRANCH  11  13
ATOM     13  S   UNL A   1      30.625  27.780  23.083  1.00  0.00     0.214 S 
ATOM     14  O   UNL A   1      30.998  27.078  21.877  1.00  0.00    -0.212 OA
ATOM     15  O   UNL A   1      29.558  27.245  23.903  1.00  0.00    -0.212 OA
BRANCH  13  16
ATOM     16  C   UNL A   1      30.267  29.461  22.634  1.00  0.00     0.185 C 
BRANCH  16  17
ATOM     17  C   UNL A   1      28.890  29.889  22.138  1.00  0.00     0.134 C 
ATOM     18  C   UNL A   1      27.660  29.933  23.023  1.00  0.00     0.035 C 
ATOM     19  O   UNL A   1      29.042  31.230  21.599  1.00  0.00    -0.377 OA
ATOM     20  C   UNL A   1      27.596  31.371  23.444  1.00  0.00     0.031 C 
ATOM     21  C   UNL A   1      28.089  32.100  22.220  1.00  0.00     0.160 C 
ENDBRANCH  16  17
ENDBRANCH  13  16
ENDBRANCH  11  13
ENDBRANCH   7  11
ENDBRANCH   6   7
ENDBRANCH   4   6
ENDBRANCH   1   2
BRANCH   1  22
ATOM     22  C   UNL A   1      35.605  21.950  24.249  1.00  0.00     0.042 C 
BRANCH  22  23
ATOM     23  C   UNL A   1      36.338  21.750  25.576  1.00  0.00     0.118 C 
BRANCH  23  24
ATOM     24  N   UNL A   1      37.350  20.708  25.532  1.00  0.00    -0.352 N 
ATOM     25  C   UNL A   1      38.691  20.773  25.828  1.00  0.00     0.251 C 
ATOM     26  H   UNL A   1      37.026  19.823  25.248  1.00  0.00     0.163 HD
ATOM     27  O   UNL A   1      39.393  19.780  25.647  1.00  0.00    -0.269 OA
BRANCH  25  28
ATOM     28  C   UNL A   1      39.309  22.026  26.326  1.00  0.00     0.039 A 
ATOM     29  C   UNL A   1      40.377  21.928  27.223  1.00  0.00     0.014 A 
ATOM     30  C   UNL A   1      38.836  23.286  25.948  1.00  0.00     0.014 A 
ATOM     31  C   UNL A   1      41.011  23.084  27.690  1.00  0.00     0.010 A 
ATOM     32  C   UNL A   1      39.506  24.438  26.372  1.00  0.00     0.010 A 
ATOM     33  C   UNL A   1      40.605  24.351  27.243  1.00  0.00    -0.014 A 
BRANCH  33  34
ATOM     34  C   UNL A   1      41.328  25.587  27.654  1.00  0.00     0.031 A 
ATOM     35  C   UNL A   1      40.622  26.664  28.435  1.00  0.00     0.074 A 
ATOM     36  C   UNL A   1      42.602  25.783  27.253  1.00  0.00     0.049 A 
ATOM     37  N   UNL A   1      41.058  27.845  28.791  1.00  0.00    -0.248 NA
ATOM     38  C   UNL A   1      39.241  26.384  28.856  1.00  0.00     0.031 C 
ATOM     39  C   UNL A   1      43.391  24.841  26.458  1.00  0.00     0.029 A 
ATOM     40  N   UNL A   1      43.445  26.855  27.430  1.00  0.00    -0.354 N 
ATOM     41  C   UNL A   1      39.997  28.465  29.443  1.00  0.00     0.074 A 
ATOM     42  C   UNL A   1      38.889  27.532  29.415  1.00  0.00     0.031 C 
ATOM     43  C   UNL A   1      44.595  25.378  26.207  1.00  0.00     0.029 A 
ATOM     44  C   UNL A   1      44.653  26.717  26.783  1.00  0.00     0.049 A 
ATOM     45  H   UNL A   1      43.208  27.644  27.968  1.00  0.00     0.167 HD
ATOM     46  C   UNL A   1      39.951  29.687  30.024  1.00  0.00     0.034 A 
ATOM     47  C   UNL A   1      45.681  27.579  26.644  1.00  0.00     0.034 A 
ATOM     48  C   UNL A   1      41.061  30.603  30.074  1.00  0.00     0.049 A 
ATOM     49  C   UNL A   1      45.604  28.934  27.296  1.00  0.00     0.074 A 
ATOM     50  C   UNL A   1      41.128  31.835  30.702  1.00  0.00     0.029 A 
ATOM     51  N   UNL A   1      42.287  30.398  29.463  1.00  0.00    -0.354 N 
ATOM     52  N   UNL A   1      44.636  29.450  28.012  1.00  0.00    -0.248 NA
ATOM     53  C   UNL A   1      46.772  29.815  27.148  1.00  0.00     0.031 C 
ATOM     54  C   UNL A   1      42.382  32.394  30.437  1.00  0.00     0.029 A 
ATOM     55  C   UNL A   1      43.114  31.487  29.688  1.00  0.00     0.049 A 
ATOM     56  H   UNL A   1      42.535  29.598  28.947  1.00  0.00     0.167 HD
ATOM     57  C   UNL A   1      45.098  30.689  28.442  1.00  0.00     0.074 A 
ATOM     58  C   UNL A   1      46.434  30.847  27.910  1.00  0.00     0.031 C 
ATOM     59  C   UNL A   1      44.466  31.612  29.209  1.00  0.00     0.034 A 
BRANCH  46  60
ATOM     60  C   UNL A   1      38.662  30.107  30.683  1.00  0.00     0.023 A 
ATOM     61  C   UNL A   1      38.448  29.828  32.048  1.00  0.00     0.012 A 
ATOM     62  C   UNL A   1      37.692  30.839  29.969  1.00  0.00     0.148 A 
ATOM     63  C   UNL A   1      37.276  30.237  32.682  1.00  0.00     0.002 A 
ATOM     64  C   UNL A   1      36.548  31.286  30.620  1.00  0.00     0.091 A 
ATOM     65  F   UNL A   1      37.906  31.083  28.668  1.00  0.00    -0.205 F 
ATOM     66  C   UNL A   1      36.331  30.973  31.972  1.00  0.00     0.022 A 
BRANCH  64  67
ATOM     67  S   UNL A   1      35.314  32.314  29.816  1.00  0.00     0.127 S 
ATOM     68  O   UNL A   1      34.396  32.590  30.920  1.00  0.00    -0.237 OA
ATOM     69  O   UNL A   1      36.108  33.464  29.382  1.00  0.00    -0.237 OA
ATOM     70  O   UNL A   1      34.763  31.512  28.733  1.00  0.00    -0.744 OA
ENDBRANCH  64  67
ENDBRANCH  46  60
BRANCH  47  71
ATOM     71  C   UNL A   1      46.895  27.175  25.878  1.00  0.00     0.023 A 
ATOM     72  C   UNL A   1      47.860  26.350  26.488  1.00  0.00     0.012 A 
ATOM     73  C   UNL A   1      47.092  27.593  24.548  1.00  0.00     0.148 A 
ATOM     74  C   UNL A   1      49.017  25.979  25.802  1.00  0.00     0.002 A 
ATOM     75  C   UNL A   1      48.218  27.172  23.849  1.00  0.00     0.091 A 
ATOM     76  F   UNL A   1      46.167  28.385  23.988  1.00  0.00    -0.205 F 
ATOM     77  C   UNL A   1      49.191  26.381  24.480  1.00  0.00     0.022 A 
BRANCH  75  78
ATOM     78  S   UNL A   1      48.462  27.533  22.107  1.00  0.00     0.127 S 
ATOM     79  O   UNL A   1      47.181  28.132  21.744  1.00  0.00    -0.237 OA
ATOM     80  O   UNL A   1      49.590  28.465  22.150  1.00  0.00    -0.237 OA
ATOM     81  O   UNL A   1      48.763  26.254  21.477  1.00  0.00    -0.744 OA
ENDBRANCH  75  78
ENDBRANCH  47  71
BRANCH  59  82
ATOM     82  C   UNL A   1      45.226  32.854  29.596  1.00  0.00     0.023 A 
ATOM     83  C   UNL A   1      45.972  32.891  30.790  1.00  0.00     0.012 A 
ATOM     84  C   UNL A   1      45.279  33.951  28.712  1.00  0.00     0.148 A 
ATOM     85  C   UNL A   1      46.741  34.012  31.109  1.00  0.00     0.002 A 
ATOM     86  C   UNL A   1      46.088  35.040  29.011  1.00  0.00     0.091 A 
ATOM     87  F   UNL A   1      44.546  33.902  27.590  1.00  0.00    -0.205 F 
ATOM     88  C   UNL A   1      46.810  35.078  30.214  1.00  0.00     0.022 A 
BRANCH  86  89
ATOM     89  S   UNL A   1      46.320  36.410  27.873  1.00  0.00     0.127 S 
ATOM     90  O   UNL A   1      47.338  37.202  28.564  1.00  0.00    -0.237 OA
ATOM     91  O   UNL A   1      46.792  35.731  26.665  1.00  0.00    -0.237 OA
ATOM     92  O   UNL A   1      45.020  37.053  27.740  1.00  0.00    -0.744 OA
ENDBRANCH  86  89
ENDBRANCH  59  82
ENDBRANCH  33  34
ENDBRANCH  25  28
ENDBRANCH  23  24
ENDBRANCH  22  23
ENDBRANCH   1  22
TORSDOF 18
ENDMDL
MODEL 2
REMARK VINA RESULT:     -11.4      2.473      8.474
REMARK SMILES O=C(CC1(NS(=O)(=O)C[C@H]2CCCO2)CCC1)NCCCNC(=O)c1ccc(-c2c3nc(c(-c4cccc(S(=O)(=O)[O-])c4F)c4ccc([nH]4)c(-c4cccc(S(=O)(=O)[O-])c4F)c4nc(c(-c5cccc(S(=O)(=O)[O-])c5F)c5ccc2[nH]5)C=C4)C=C3)cc1
REMARK SMILES IDX 19 1 18 2 1 3 2 4 3 6 4 7 15 8 17 9 16 10 5 11 6 13 7 14
REMARK SMILES IDX 8 15 9 16 10 17 11 18 14 19 12 20 13 21 20 22 21 23 22 24
REMARK SMILES IDX 23 25 24 27 25 28 26 29 87 30 27 31 86 32 28 33 29 34 30 35
REMARK SMILES IDX 80 36 31 37 85 38 79 39 81 40 32 41 84 42 78 43 77 44 33 46
REMARK SMILES IDX 65 47 45 48 64 49 46 50 49 51 63 52 82 53 47 54 48 55 62 57
REMARK SMILES IDX 83 58 50 59 34 60 35 61 43 62 36 63 38 64 44 65 37 66 39 67
REMARK SMILES IDX 40 68 41 69 42 70 66 71 67 72 75 73 68 74 70 75 76 76 69 77
REMARK SMILES IDX 71 78 72 79 73 80 74 81 51 82 52 83 60 84 53 85 55 86 61 87
REMARK SMILES IDX 54 88 56 89 57 90 58 91 59 92
REMARK H PARENT 18 5 5 12 22 26 81 45 49 56
REMARK Flexibility Score: inf
ROOT
ATOM      1  C   UNL A   1      35.870  23.048  23.401  1.00  0.00     0.117 C 
ENDROOT
BRANCH   1   2
ATOM      2  N   UNL A   1      34.947  23.941  24.091  1.00  0.00    -0.356 N 
ATOM      3  O   UNL A   1      33.801  24.572  22.215  1.00  0.00    -0.275 OA
ATOM      4  C   UNL A   1      33.978  24.659  23.429  1.00  0.00     0.221 C 
ATOM      5  H   UNL A   1      35.021  24.035  25.069  1.00  0.00     0.163 HD
BRANCH   4   6
ATOM      6  C   UNL A   1      33.166  25.643  24.254  1.00  0.00     0.123 C 
BRANCH   6   7
ATOM      7  C   UNL A   1      31.909  25.129  24.969  1.00  0.00     0.042 C 
ATOM      8  C   UNL A   1      31.446  26.035  26.166  1.00  0.00     0.024 C 
ATOM      9  C   UNL A   1      30.574  25.575  24.272  1.00  0.00     0.024 C 
ATOM     10  C   UNL A   1      30.006  25.946  25.645  1.00  0.00     0.004 C 
BRANCH   7  11
ATOM     11  N   UNL A   1      32.026  23.624  25.225  1.00  0.00    -0.208 NA
ATOM     12  H   UNL A   1      32.554  23.271  24.428  1.00  0.00     0.141 HD
BRANCH  11  13
ATOM     13  S   UNL A   1      32.690  22.823  26.561  1.00  0.00     0.214 S 
ATOM     14  O   UNL A   1      33.918  23.507  26.896  1.00  0.00    -0.212 OA
ATOM     15  O   UNL A   1      31.627  22.774  27.542  1.00  0.00    -0.212 OA
BRANCH  13  16
ATOM     16  C   UNL A   1      33.118  21.179  26.041  1.00  0.00     0.185 C 
BRANCH  16  17
ATOM     17  C   UNL A   1      32.210  20.358  25.133  1.00  0.00     0.134 C 
ATOM     18  C   UNL A   1      32.472  20.151  23.654  1.00  0.00     0.035 C 
ATOM     19  O   UNL A   1      32.137  19.027  25.714  1.00  0.00    -0.377 OA
ATOM     20  C   UNL A   1      33.169  18.824  23.615  1.00  0.00     0.031 C 
ATOM     21  C   UNL A   1      32.490  18.058  24.722  1.00  0.00     0.160 C 
ENDBRANCH  16  17
ENDBRANCH  13  16
ENDBRANCH  11  13
ENDBRANCH   7  11
ENDBRANCH   6   7
ENDBRANCH   4   6
ENDBRANCH   1   2
BRANCH   1  22
ATOM     22  C   UNL A   1      36.031  21.688  24.083  1.00  0.00     0.042 C 
BRANCH  22  23
ATOM     23  C   UNL A   1      36.679  21.718  25.466  1.00  0.00     0.118 C 
BRANCH  23  24
ATOM     24  N   UNL A   1      37.749  20.748  25.631  1.00  0.00    -0.352 N 
ATOM     25  C   UNL A   1      39.052  20.936  26.027  1.00  0.00     0.251 C 
ATOM     26  H   UNL A   1      37.504  19.817  25.427  1.00  0.00     0.163 HD
ATOM     27  O   UNL A   1      39.823  19.979  26.024  1.00  0.00    -0.269 OA
BRANCH  25  28
ATOM     28  C   UNL A   1      39.550  22.276  26.423  1.00  0.00     0.039 A 
ATOM     29  C   UNL A   1      40.608  22.348  27.335  1.00  0.00     0.014 A 
ATOM     30  C   UNL A   1      38.974  23.454  25.937  1.00  0.00     0.014 A 
ATOM     31  C   UNL A   1      41.131  23.590  27.709  1.00  0.00     0.010 A 
ATOM     32  C   UNL A   1      39.534  24.691  26.268  1.00  0.00     0.010 A 
ATOM     33  C   UNL A   1      40.622  24.775  27.153  1.00  0.00    -0.014 A 
BRANCH  33  34
ATOM     34  C   UNL A   1      41.227  26.100  27.465  1.00  0.00     0.031 A 
ATOM     35  C   UNL A   1      42.647  26.407  27.069  1.00  0.00     0.074 A 
ATOM     36  C   UNL A   1      40.527  27.005  28.182  1.00  0.00     0.049 A 
ATOM     37  N   UNL A   1      43.371  27.461  27.343  1.00  0.00    -0.248 NA
ATOM     38  C   UNL A   1      43.351  25.387  26.276  1.00  0.00     0.031 C 
ATOM     39  C   UNL A   1      39.157  26.822  28.665  1.00  0.00     0.029 A 
ATOM     40  N   UNL A   1      40.883  28.244  28.659  1.00  0.00    -0.354 N 
ATOM     41  C   UNL A   1      44.625  27.219  26.792  1.00  0.00     0.074 A 
ATOM     42  C   UNL A   1      44.567  25.906  26.184  1.00  0.00     0.031 C 
ATOM     43  C   UNL A   1      38.794  27.900  29.377  1.00  0.00     0.029 A 
ATOM     44  C   UNL A   1      39.914  28.834  29.439  1.00  0.00     0.049 A 
ATOM     45  H   UNL A   1      41.748  28.669  28.461  1.00  0.00     0.167 HD
ATOM     46  C   UNL A   1      45.718  28.019  26.778  1.00  0.00     0.034 A 
ATOM     47  C   UNL A   1      39.931  29.981  30.148  1.00  0.00     0.034 A 
ATOM     48  C   UNL A   1      45.768  29.334  27.361  1.00  0.00     0.049 A 
ATOM     49  C   UNL A   1      41.160  30.850  30.120  1.00  0.00     0.074 A 
ATOM     50  C   UNL A   1      46.810  30.246  27.335  1.00  0.00     0.029 A 
ATOM     51  N   UNL A   1      44.743  29.921  28.085  1.00  0.00    -0.354 N 
ATOM     52  N   UNL A   1      42.291  30.657  29.489  1.00  0.00    -0.248 NA
ATOM     53  C   UNL A   1      41.104  32.111  30.875  1.00  0.00     0.031 C 
ATOM     54  C   UNL A   1      46.430  31.366  28.079  1.00  0.00     0.029 A 
ATOM     55  C   UNL A   1      45.133  31.176  28.523  1.00  0.00     0.049 A 
ATOM     56  H   UNL A   1      43.868  29.508  28.262  1.00  0.00     0.167 HD
ATOM     57  C   UNL A   1      43.060  31.791  29.728  1.00  0.00     0.074 A 
ATOM     58  C   UNL A   1      42.265  32.669  30.558  1.00  0.00     0.031 C 
ATOM     59  C   UNL A   1      44.314  32.074  29.297  1.00  0.00     0.034 A 
BRANCH  46  60
ATOM     60  C   UNL A   1      46.957  27.508  26.088  1.00  0.00     0.023 A 
ATOM     61  C   UNL A   1      47.165  27.788  24.722  1.00  0.00     0.012 A 
ATOM     62  C   UNL A   1      47.948  26.811  26.806  1.00  0.00     0.148 A 
ATOM     63  C   UNL A   1      48.319  27.351  24.074  1.00  0.00     0.002 A 
ATOM     64  C   UNL A   1      49.119  26.422  26.166  1.00  0.00     0.091 A 
ATOM     65  F   UNL A   1      47.729  26.542  28.101  1.00  0.00    -0.205 F 
ATOM     66  C   UNL A   1      49.300  26.677  24.797  1.00  0.00     0.022 A 
BRANCH  64  67
ATOM     67  S   UNL A   1      50.479  25.626  27.030  1.00  0.00     0.127 S 
ATOM     68  O   UNL A   1      51.477  25.514  25.967  1.00  0.00    -0.237 OA
ATOM     69  O   UNL A   1      50.800  26.607  28.066  1.00  0.00    -0.237 OA
ATOM     70  O   UNL A   1      49.954  24.363  27.530  1.00  0.00    -0.744 OA
ENDBRANCH  64  67
ENDBRANCH  46  60
BRANCH  47  71
ATOM     71  C   UNL A   1      38.726  30.396  30.923  1.00  0.00     0.023 A 
ATOM     72  C   UNL A   1      38.617  30.046  32.282  1.00  0.00     0.012 A 
ATOM     73  C   UNL A   1      37.695  31.146  30.323  1.00  0.00     0.148 A 
ATOM     74  C   UNL A   1      37.488  30.401  33.021  1.00  0.00     0.002 A 
ATOM     75  C   UNL A   1      36.600  31.547  31.080  1.00  0.00     0.091 A 
ATOM     76  F   UNL A   1      37.813  31.462  29.025  1.00  0.00    -0.205 F 
ATOM     77  C   UNL A   1      36.486  31.159  32.423  1.00  0.00     0.022 A 
BRANCH  75  78
ATOM     78  S   UNL A   1      35.325  32.633  30.430  1.00  0.00     0.127 S 
ATOM     79  O   UNL A   1      34.338  32.611  31.505  1.00  0.00    -0.237 OA
ATOM     80  O   UNL A   1      36.053  33.894  30.284  1.00  0.00    -0.237 OA
ATOM     81  O   UNL A   1      34.902  32.035  29.171  1.00  0.00    -0.744 OA
ENDBRANCH  75  78
ENDBRANCH  47  71
BRANCH  59  82
ATOM     82  C   UNL A   1      44.897  33.420  29.640  1.00  0.00     0.023 A 
ATOM     83  C   UNL A   1      45.635  33.597  30.826  1.00  0.00     0.012 A 
ATOM     84  C   UNL A   1      44.795  34.485  28.722  1.00  0.00     0.148 A 
ATOM     85  C   UNL A   1      46.243  34.822  31.104  1.00  0.00     0.002 A 
ATOM     86  C   UNL A   1      45.448  35.684  28.980  1.00  0.00     0.091 A 
ATOM     87  F   UNL A   1      44.073  34.301  27.608  1.00  0.00    -0.205 F 
ATOM     88  C   UNL A   1      46.162  35.858  30.176  1.00  0.00     0.022 A 
BRANCH  86  89
ATOM     89  S   UNL A   1      45.486  37.036  27.798  1.00  0.00     0.127 S 
ATOM     90  O   UNL A   1      46.258  38.044  28.525  1.00  0.00    -0.237 OA
ATOM     91  O   UNL A   1      46.186  36.433  26.663  1.00  0.00    -0.237 OA
ATOM     92  O   UNL A   1      44.097  37.388  27.539  1.00  0.00    -0.744 OA
ENDBRANCH  86  89
ENDBRANCH  59  82
ENDBRANCH  33  34
ENDBRANCH  25  28
ENDBRANCH  23  24
ENDBRANCH  22  23
ENDBRANCH   1  22
TORSDOF 18
ENDMDL
MODEL 3
REMARK VINA RESULT:     -11.4      3.273      8.523
REMARK SMILES O=C(CC1(NS(=O)(=O)C[C@H]2CCCO2)CCC1)NCCCNC(=O)c1ccc(-c2c3nc(c(-c4cccc(S(=O)(=O)[O-])c4F)c4ccc([nH]4)c(-c4cccc(S(=O)(=O)[O-])c4F)c4nc(c(-c5cccc(S(=O)(=O)[O-])c5F)c5ccc2[nH]5)C=C4)C=C3)cc1
REMARK SMILES IDX 19 1 18 2 1 3 2 4 3 6 4 7 15 8 17 9 16 10 5 11 6 13 7 14
REMARK SMILES IDX 8 15 9 16 10 17 11 18 14 19 12 20 13 21 20 22 21 23 22 24
REMARK SMILES IDX 23 25 24 27 25 28 26 29 87 30 27 31 86 32 28 33 29 34 30 35
REMARK SMILES IDX 80 36 31 37 85 38 79 39 81 40 32 41 84 42 78 43 77 44 33 46
REMARK SMILES IDX 65 47 45 48 64 49 46 50 49 51 63 52 82 53 47 54 48 55 62 57
REMARK SMILES IDX 83 58 50 59 34 60 35 61 43 62 36 63 38 64 44 65 37 66 39 67
REMARK SMILES IDX 40 68 41 69 42 70 66 71 67 72 75 73 68 74 70 75 76 76 69 77
REMARK SMILES IDX 71 78 72 79 73 80 74 81 51 82 52 83 60 84 53 85 55 86 61 87
REMARK SMILES IDX 54 88 56 89 57 90 58 91 59 92
REMARK H PARENT 18 5 5 12 22 26 81 45 49 56
REMARK Flexibility Score: inf
ROOT
ATOM      1  C   UNL A   1      35.541  23.273  23.248  1.00  0.00     0.117 C 
ENDROOT
BRANCH   1   2
ATOM      2  N   UNL A   1      34.715  24.340  23.799  1.00  0.00    -0.356 N 
ATOM      3  O   UNL A   1      33.597  24.783  21.853  1.00  0.00    -0.275 OA
ATOM      4  C   UNL A   1      33.803  25.036  23.039  1.00  0.00     0.221 C 
ATOM      5  H   UNL A   1      34.814  24.573  24.750  1.00  0.00     0.163 HD
BRANCH   4   6
ATOM      6  C   UNL A   1      33.097  26.203  23.709  1.00  0.00     0.123 C 
BRANCH   6   7
ATOM      7  C   UNL A   1      32.288  25.929  24.984  1.00  0.00     0.042 C 
ATOM      8  C   UNL A   1      32.818  26.696  26.247  1.00  0.00     0.024 C 
ATOM      9  C   UNL A   1      31.013  26.837  25.116  1.00  0.00     0.024 C 
ATOM     10  C   UNL A   1      31.375  27.096  26.581  1.00  0.00     0.004 C 
BRANCH   7  11
ATOM     11  N   UNL A   1      32.022  24.428  25.127  1.00  0.00    -0.208 NA
ATOM     12  H   UNL A   1      32.507  24.007  24.336  1.00  0.00     0.141 HD
BRANCH  11  13
ATOM     13  S   UNL A   1      32.375  23.407  26.432  1.00  0.00     0.214 S 
ATOM     14  O   UNL A   1      33.758  23.633  26.782  1.00  0.00    -0.212 OA
ATOM     15  O   UNL A   1      31.349  23.682  27.416  1.00  0.00    -0.212 OA
BRANCH  13  16
ATOM     16  C   UNL A   1      32.235  21.733  25.854  1.00  0.00     0.185 C 
BRANCH  16  17
ATOM     17  C   UNL A   1      33.030  21.224  24.656  1.00  0.00     0.134 C 
ATOM     18  C   UNL A   1      33.183  19.753  24.320  1.00  0.00     0.035 C 
ATOM     19  O   UNL A   1      32.447  21.844  23.478  1.00  0.00    -0.377 OA
ATOM     20  C   UNL A   1      32.113  19.527  23.294  1.00  0.00     0.031 C 
ATOM     21  C   UNL A   1      32.101  20.827  22.531  1.00  0.00     0.160 C 
ENDBRANCH  16  17
ENDBRANCH  13  16
ENDBRANCH  11  13
ENDBRANCH   7  11
ENDBRANCH   6   7
ENDBRANCH   4   6
ENDBRANCH   1   2
BRANCH   1  22
ATOM     22  C   UNL A   1      36.223  22.414  24.315  1.00  0.00     0.042 C 
BRANCH  22  23
ATOM     23  C   UNL A   1      37.229  23.143  25.204  1.00  0.00     0.118 C 
BRANCH  23  24
ATOM     24  N   UNL A   1      38.237  22.271  25.782  1.00  0.00    -0.352 N 
ATOM     25  C   UNL A   1      39.360  22.588  26.510  1.00  0.00     0.251 C 
ATOM     26  H   UNL A   1      38.095  21.309  25.629  1.00  0.00     0.163 HD
ATOM     27  O   UNL A   1      40.132  21.690  26.841  1.00  0.00    -0.269 OA
BRANCH  25  28
ATOM     28  C   UNL A   1      39.673  23.992  26.869  1.00  0.00     0.039 A 
ATOM     29  C   UNL A   1      39.390  24.423  28.169  1.00  0.00     0.014 A 
ATOM     30  C   UNL A   1      40.209  24.892  25.943  1.00  0.00     0.014 A 
ATOM     31  C   UNL A   1      39.701  25.729  28.560  1.00  0.00     0.010 A 
ATOM     32  C   UNL A   1      40.570  26.180  26.352  1.00  0.00     0.010 A 
ATOM     33  C   UNL A   1      40.326  26.612  27.666  1.00  0.00    -0.014 A 
BRANCH  33  34
ATOM     34  C   UNL A   1      40.752  27.975  28.092  1.00  0.00     0.031 A 
ATOM     35  C   UNL A   1      42.211  28.342  28.140  1.00  0.00     0.074 A 
ATOM     36  C   UNL A   1      39.829  28.863  28.518  1.00  0.00     0.049 A 
ATOM     37  N   UNL A   1      42.772  29.440  28.578  1.00  0.00    -0.248 NA
ATOM     38  C   UNL A   1      43.166  27.337  27.648  1.00  0.00     0.031 C 
ATOM     39  C   UNL A   1      38.384  28.624  28.562  1.00  0.00     0.029 A 
ATOM     40  N   UNL A   1      39.969  30.132  29.027  1.00  0.00    -0.354 N 
ATOM     41  C   UNL A   1      44.143  29.247  28.452  1.00  0.00     0.074 A 
ATOM     42  C   UNL A   1      44.329  27.915  27.913  1.00  0.00     0.031 C 
ATOM     43  C   UNL A   1      37.776  29.703  29.080  1.00  0.00     0.029 A 
ATOM     44  C   UNL A   1      38.783  30.694  29.444  1.00  0.00     0.049 A 
ATOM     45  H   UNL A   1      40.836  30.595  29.087  1.00  0.00     0.167 HD
ATOM     46  C   UNL A   1      45.154  30.100  28.741  1.00  0.00     0.034 A 
ATOM     47  C   UNL A   1      38.534  31.860  30.073  1.00  0.00     0.034 A 
ATOM     48  C   UNL A   1      44.968  31.433  29.253  1.00  0.00     0.049 A 
ATOM     49  C   UNL A   1      39.675  32.790  30.388  1.00  0.00     0.074 A 
ATOM     50  C   UNL A   1      45.930  32.395  29.511  1.00  0.00     0.029 A 
ATOM     51  N   UNL A   1      43.747  31.987  29.600  1.00  0.00    -0.354 N 
ATOM     52  N   UNL A   1      40.953  32.636  30.146  1.00  0.00    -0.248 NA
ATOM     53  C   UNL A   1      39.338  34.067  31.034  1.00  0.00     0.031 C 
ATOM     54  C   UNL A   1      45.294  33.516  30.052  1.00  0.00     0.029 A 
ATOM     55  C   UNL A   1      43.931  33.272  30.082  1.00  0.00     0.049 A 
ATOM     56  H   UNL A   1      42.877  31.535  29.516  1.00  0.00     0.167 HD
ATOM     57  C   UNL A   1      41.564  33.815  30.561  1.00  0.00     0.074 A 
ATOM     58  C   UNL A   1      40.517  34.675  31.067  1.00  0.00     0.031 C 
ATOM     59  C   UNL A   1      42.878  34.149  30.526  1.00  0.00     0.034 A 
BRANCH  46  60
ATOM     60  C   UNL A   1      46.565  29.634  28.489  1.00  0.00     0.023 A 
ATOM     61  C   UNL A   1      47.193  29.928  27.261  1.00  0.00     0.012 A 
ATOM     62  C   UNL A   1      47.295  28.967  29.493  1.00  0.00     0.148 A 
ATOM     63  C   UNL A   1      48.508  29.533  27.022  1.00  0.00     0.002 A 
ATOM     64  C   UNL A   1      48.621  28.619  29.266  1.00  0.00     0.091 A 
ATOM     65  F   UNL A   1      46.678  28.683  30.650  1.00  0.00    -0.205 F 
ATOM     66  C   UNL A   1      49.225  28.887  28.026  1.00  0.00     0.022 A 
BRANCH  64  67
ATOM     67  S   UNL A   1      49.655  27.863  30.526  1.00  0.00     0.127 S 
ATOM     68  O   UNL A   1      49.443  26.440  30.265  1.00  0.00    -0.237 OA
ATOM     69  O   UNL A   1      50.985  28.357  30.167  1.00  0.00    -0.237 OA
ATOM     70  O   UNL A   1      49.151  28.346  31.804  1.00  0.00    -0.744 OA
ENDBRANCH  64  67
ENDBRANCH  46  60
BRANCH  47  71
ATOM     71  C   UNL A   1      37.132  32.235  30.420  1.00  0.00     0.023 A 
ATOM     72  C   UNL A   1      36.632  31.949  31.705  1.00  0.00     0.012 A 
ATOM     73  C   UNL A   1      36.299  32.883  29.488  1.00  0.00     0.148 A 
ATOM     74  C   UNL A   1      35.317  32.268  32.044  1.00  0.00     0.002 A 
ATOM     75  C   UNL A   1      35.008  33.251  29.851  1.00  0.00     0.091 A 
ATOM     76  F   UNL A   1      36.790  33.138  28.267  1.00  0.00    -0.205 F 
ATOM     77  C   UNL A   1      34.509  32.927  31.122  1.00  0.00     0.022 A 
BRANCH  75  78
ATOM     78  S   UNL A   1      33.941  34.215  28.775  1.00  0.00     0.127 S 
ATOM     79  O   UNL A   1      33.572  33.231  27.762  1.00  0.00    -0.237 OA
ATOM     80  O   UNL A   1      32.863  34.597  29.688  1.00  0.00    -0.237 OA
ATOM     81  O   UNL A   1      34.756  35.328  28.308  1.00  0.00    -0.744 OA
ENDBRANCH  75  78
ENDBRANCH  47  71
BRANCH  59  82
ATOM     82  C   UNL A   1      43.271  35.532  30.973  1.00  0.00     0.023 A 
ATOM     83  C   UNL A   1      43.667  35.767  32.305  1.00  0.00     0.012 A 
ATOM     84  C   UNL A   1      43.347  36.581  30.034  1.00  0.00     0.148 A 
ATOM     85  C   UNL A   1      44.109  37.031  32.699  1.00  0.00     0.002 A 
ATOM     86  C   UNL A   1      43.839  37.821  30.421  1.00  0.00     0.091 A 
ATOM     87  F   UNL A   1      42.949  36.341  28.776  1.00  0.00    -0.205 F 
ATOM     88  C   UNL A   1      44.209  38.051  31.756  1.00  0.00     0.022 A 
BRANCH  86  89
ATOM     89  S   UNL A   1      44.100  39.163  29.255  1.00  0.00     0.127 S 
ATOM     90  O   UNL A   1      44.659  40.203  30.119  1.00  0.00    -0.237 OA
ATOM     91  O   UNL A   1      45.054  38.573  28.316  1.00  0.00    -0.237 OA
ATOM     92  O   UNL A   1      42.795  39.465  28.686  1.00  0.00    -0.744 OA
ENDBRANCH  86  89
ENDBRANCH  59  82
ENDBRANCH  33  34
ENDBRANCH  25  28
ENDBRANCH  23  24
ENDBRANCH  22  23
ENDBRANCH   1  22
TORSDOF 18
ENDMDL
