MODEL 1
REMARK VINA RESULT:     -15.3      0.000      0.000
REMARK SMILES CC(C)[C@@H]1C(=O)Nc2ccccc2N1C(=O)N[C@H](Cc1ccccc1)C(=O)NCCCNC(=O)c1ccc(-c2c3nc(c(-c4cccc(S(=O)(=O)[O-])c4F)c4ccc([nH]4)c(-c4cccc(S(=O)(=O)[O-])c4F)c4nc(c(-c5cccc(S(=O)(=O)[O-])c5F)c5ccc2[nH]5)C=C4)C=C3)cc1
REMARK SMILES IDX 30 1 29 2 28 3 26 4 27 5 18 7 17 8 15 9 16 10 14 12 4 13
REMARK SMILES IDX 5 14 6 15 7 16 13 17 8 18 12 20 9 21 11 22 10 23 2 24 1 25
REMARK SMILES IDX 3 26 19 27 20 28 21 29 25 30 22 31 24 32 23 33 31 34 32 35
REMARK SMILES IDX 33 36 34 38 35 39 36 40 97 41 37 42 96 43 38 44 39 45 40 46
REMARK SMILES IDX 90 47 41 48 95 49 89 50 91 51 42 52 94 53 88 54 87 55 43 57
REMARK SMILES IDX 75 58 55 59 74 60 56 61 59 62 73 63 92 64 57 65 58 66 72 68
REMARK SMILES IDX 93 69 60 70 44 71 45 72 53 73 46 74 48 75 54 76 47 77 49 78
REMARK SMILES IDX 50 79 51 80 52 81 76 82 77 83 85 84 78 85 80 86 86 87 79 88
REMARK SMILES IDX 81 89 82 90 83 91 84 92 61 93 62 94 70 95 63 96 65 97 71 98
REMARK SMILES IDX 64 99 66 100 67 101 68 102 69 103
REMARK H PARENT 28 6 17 11 7 19 32 37 91 56 59 67
REMARK Flexibility Score: inf
ROOT
ATOM      1  C   UNL A   1      32.205  30.050  26.971  1.00  0.00     0.042 C 
ENDROOT
BRANCH   1   2
ATOM      2  C   UNL A   1      32.786  28.744  25.894  1.00  0.00     0.117 C 
BRANCH   2   3
ATOM      3  N   UNL A   1      33.339  29.001  24.426  1.00  0.00    -0.354 N 
ATOM      4  C   UNL A   1      33.278  28.325  23.255  1.00  0.00     0.242 C 
ATOM      5  O   UNL A   1      33.762  28.751  22.215  1.00  0.00    -0.273 OA
ATOM      6  H   UNL A   1      33.842  29.844  24.352  1.00  0.00     0.163 HD
BRANCH   4   7
ATOM      7  C   UNL A   1      32.280  27.276  23.379  1.00  0.00     0.177 C 
BRANCH   7   8
ATOM      8  N   UNL A   1      33.261  26.055  22.988  1.00  0.00    -0.326 N 
ATOM      9  C   UNL A   1      32.959  24.607  22.935  1.00  0.00     0.323 C 
ATOM     10  O   UNL A   1      33.103  24.080  21.825  1.00  0.00    -0.248 OA
ATOM     11  H   UNL A   1      34.184  26.308  22.754  1.00  0.00     0.166 HD
BRANCH   9  12
ATOM     12  N   UNL A   1      33.104  23.808  24.199  1.00  0.00    -0.280 N 
ATOM     13  C   UNL A   1      31.970  23.322  25.778  1.00  0.00     0.184 C 
ATOM     14  C   UNL A   1      32.939  22.595  27.345  1.00  0.00     0.247 C 
ATOM     15  O   UNL A   1      32.397  22.213  28.376  1.00  0.00    -0.272 OA
ATOM     16  N   UNL A   1      34.620  22.430  27.184  1.00  0.00    -0.322 N 
ATOM     17  C   UNL A   1      34.871  23.286  24.301  1.00  0.00     0.070 A 
ATOM     18  C   UNL A   1      35.569  22.740  25.771  1.00  0.00     0.065 A 
ATOM     19  H   UNL A   1      35.109  22.125  27.982  1.00  0.00     0.170 HD
ATOM     20  C   UNL A   1      35.682  23.172  23.186  1.00  0.00     0.028 A 
ATOM     21  C   UNL A   1      36.882  22.317  25.841  1.00  0.00     0.028 A 
ATOM     22  C   UNL A   1      36.978  22.607  23.367  1.00  0.00     0.002 A 
ATOM     23  C   UNL A   1      37.555  22.224  24.623  1.00  0.00     0.002 A 
BRANCH  13  24
ATOM     24  C   UNL A   1      30.706  24.199  26.640  1.00  0.00     0.015 C 
ATOM     25  C   UNL A   1      30.373  25.509  25.925  1.00  0.00     0.010 C 
ATOM     26  C   UNL A   1      29.430  23.433  27.036  1.00  0.00     0.010 C 
ENDBRANCH  13  24
ENDBRANCH   9  12
ENDBRANCH   7   8
BRANCH   7  27
ATOM     27  C   UNL A   1      31.081  27.723  22.443  1.00  0.00     0.070 C 
BRANCH  27  28
ATOM     28  C   UNL A   1      29.875  28.544  22.943  1.00  0.00    -0.045 A 
ATOM     29  C   UNL A   1      30.041  29.929  23.223  1.00  0.00     0.004 A 
ATOM     30  C   UNL A   1      28.574  28.042  22.961  1.00  0.00     0.004 A 
ATOM     31  C   UNL A   1      28.950  30.781  23.445  1.00  0.00     0.000 A 
ATOM     32  C   UNL A   1      27.479  28.900  23.184  1.00  0.00     0.000 A 
ATOM     33  C   UNL A   1      27.663  30.266  23.406  1.00  0.00     0.000 A 
ENDBRANCH  27  28
ENDBRANCH   7  27
ENDBRANCH   4   7
ENDBRANCH   2   3
ENDBRANCH   1   2
BRANCH   1  34
ATOM     34  C   UNL A   1      31.870  32.138  26.519  1.00  0.00     0.118 C 
BRANCH  34  35
ATOM     35  N   UNL A   1      32.204  33.502  27.207  1.00  0.00    -0.352 N 
ATOM     36  C   UNL A   1      33.234  34.072  27.916  1.00  0.00     0.251 C 
ATOM     37  H   UNL A   1      31.459  34.137  27.103  1.00  0.00     0.163 HD
ATOM     38  O   UNL A   1      33.131  35.257  28.238  1.00  0.00    -0.269 OA
BRANCH  36  39
ATOM     39  C   UNL A   1      34.416  33.332  28.407  1.00  0.00     0.039 A 
ATOM     40  C   UNL A   1      34.181  32.197  29.200  1.00  0.00     0.014 A 
ATOM     41  C   UNL A   1      35.725  33.749  28.181  1.00  0.00     0.014 A 
ATOM     42  C   UNL A   1      35.247  31.474  29.747  1.00  0.00     0.010 A 
ATOM     43  C   UNL A   1      36.794  33.000  28.699  1.00  0.00     0.010 A 
ATOM     44  C   UNL A   1      36.568  31.873  29.509  1.00  0.00    -0.014 A 
BRANCH  44  45
ATOM     45  C   UNL A   1      37.705  31.181  30.179  1.00  0.00     0.031 A 
ATOM     46  C   UNL A   1      38.060  31.535  31.600  1.00  0.00     0.074 A 
ATOM     47  C   UNL A   1      38.438  30.257  29.528  1.00  0.00     0.049 A 
ATOM     48  N   UNL A   1      39.030  31.079  32.352  1.00  0.00    -0.248 NA
ATOM     49  C   UNL A   1      37.215  32.545  32.259  1.00  0.00     0.031 C 
ATOM     50  C   UNL A   1      38.226  29.830  28.146  1.00  0.00     0.029 A 
ATOM     51  N   UNL A   1      39.533  29.531  29.938  1.00  0.00    -0.354 N 
ATOM     52  C   UNL A   1      38.939  31.773  33.554  1.00  0.00     0.074 A 
ATOM     53  C   UNL A   1      37.828  32.692  33.425  1.00  0.00     0.031 C 
ATOM     54  C   UNL A   1      39.170  28.934  27.815  1.00  0.00     0.029 A 
ATOM     55  C   UNL A   1      40.074  28.743  28.947  1.00  0.00     0.049 A 
ATOM     56  H   UNL A   1      39.894  29.570  30.852  1.00  0.00     0.167 HD
ATOM     57  C   UNL A   1      39.696  31.649  34.672  1.00  0.00     0.034 A 
ATOM     58  C   UNL A   1      41.182  27.974  28.941  1.00  0.00     0.034 A 
ATOM     59  C   UNL A   1      40.784  30.720  34.817  1.00  0.00     0.049 A 
ATOM     60  C   UNL A   1      42.012  27.853  30.194  1.00  0.00     0.074 A 
ATOM     61  C   UNL A   1      41.558  30.470  35.937  1.00  0.00     0.029 A 
ATOM     62  N   UNL A   1      41.270  29.903  33.809  1.00  0.00    -0.354 N 
ATOM     63  N   UNL A   1      41.826  28.411  31.365  1.00  0.00    -0.248 NA
ATOM     64  C   UNL A   1      43.188  26.971  30.133  1.00  0.00     0.031 C 
ATOM     65  C   UNL A   1      42.535  29.529  35.596  1.00  0.00     0.029 A 
ATOM     66  C   UNL A   1      42.346  29.163  34.273  1.00  0.00     0.049 A 
ATOM     67  H   UNL A   1      40.904  29.855  32.897  1.00  0.00     0.167 HD
ATOM     68  C   UNL A   1      42.839  27.925  32.187  1.00  0.00     0.074 A 
ATOM     69  C   UNL A   1      43.623  27.010  31.385  1.00  0.00     0.031 C 
ATOM     70  C   UNL A   1      43.100  28.220  33.486  1.00  0.00     0.034 A 
BRANCH  57  71
ATOM     71  C   UNL A   1      39.356  32.536  35.844  1.00  0.00     0.023 A 
ATOM     72  C   UNL A   1      38.574  32.028  36.904  1.00  0.00     0.012 A 
ATOM     73  C   UNL A   1      39.842  33.856  35.917  1.00  0.00     0.148 A 
ATOM     74  C   UNL A   1      38.246  32.835  37.994  1.00  0.00     0.002 A 
ATOM     75  C   UNL A   1      39.550  34.637  37.030  1.00  0.00     0.091 A 
ATOM     76  F   UNL A   1      40.567  34.329  34.893  1.00  0.00    -0.205 F 
ATOM     77  C   UNL A   1      38.740  34.133  38.060  1.00  0.00     0.022 A 
BRANCH  75  78
ATOM     78  S   UNL A   1      40.211  36.293  37.248  1.00  0.00     0.127 S 
ATOM     79  O   UNL A   1      39.941  36.893  35.942  1.00  0.00    -0.237 OA
ATOM     80  O   UNL A   1      39.385  36.813  38.339  1.00  0.00    -0.237 OA
ATOM     81  O   UNL A   1      41.617  36.123  37.582  1.00  0.00    -0.744 OA
ENDBRANCH  75  78
ENDBRANCH  57  71
BRANCH  58  82
ATOM     82  C   UNL A   1      41.553  27.223  27.708  1.00  0.00     0.023 A 
ATOM     83  C   UNL A   1      42.079  27.916  26.601  1.00  0.00     0.012 A 
ATOM     84  C   UNL A   1      41.422  25.822  27.640  1.00  0.00     0.148 A 
ATOM     85  C   UNL A   1      42.445  27.233  25.441  1.00  0.00     0.002 A 
ATOM     86  C   UNL A   1      41.843  25.140  26.505  1.00  0.00     0.091 A 
ATOM     87  F   UNL A   1      40.905  25.181  28.699  1.00  0.00    -0.205 F 
ATOM     88  C   UNL A   1      42.339  25.845  25.397  1.00  0.00     0.022 A 
BRANCH  86  89
ATOM     89  S   UNL A   1      41.872  23.346  26.407  1.00  0.00     0.127 S 
ATOM     90  O   UNL A   1      42.638  22.993  27.599  1.00  0.00    -0.237 OA
ATOM     91  O   UNL A   1      40.447  23.021  26.471  1.00  0.00    -0.237 OA
ATOM     92  O   UNL A   1      42.506  23.027  25.135  1.00  0.00    -0.744 OA
ENDBRANCH  86  89
ENDBRANCH  58  82
BRANCH  70  93
ATOM     93  C   UNL A   1      44.266  27.528  34.146  1.00  0.00     0.023 A 
ATOM     94  C   UNL A   1      45.555  28.094  34.071  1.00  0.00     0.012 A 
ATOM     95  C   UNL A   1      44.073  26.355  34.904  1.00  0.00     0.148 A 
ATOM     96  C   UNL A   1      46.636  27.486  34.711  1.00  0.00     0.002 A 
ATOM     97  C   UNL A   1      45.145  25.783  35.580  1.00  0.00     0.091 A 
ATOM     98  F   UNL A   1      42.843  25.821  34.952  1.00  0.00    -0.205 F 
ATOM     99  C   UNL A   1      46.429  26.338  35.473  1.00  0.00     0.022 A 
BRANCH  97 100
ATOM    100  S   UNL A   1      44.956  24.361  36.662  1.00  0.00     0.127 S 
ATOM    101  O   UNL A   1      43.994  24.858  37.644  1.00  0.00    -0.237 OA
ATOM    102  O   UNL A   1      44.427  23.346  35.751  1.00  0.00    -0.237 OA
ATOM    103  O   UNL A   1      46.285  24.072  37.183  1.00  0.00    -0.744 OA
ENDBRANCH  97 100
ENDBRANCH  70  93
ENDBRANCH  44  45
ENDBRANCH  36  39
ENDBRANCH  34  35
ENDBRANCH   1  34
TORSDOF 18
ENDMDL
MODEL 2
REMARK VINA RESULT:     -14.8      1.432      7.307
REMARK SMILES CC(C)[C@@H]1C(=O)Nc2ccccc2N1C(=O)N[C@H](Cc1ccccc1)C(=O)NCCCNC(=O)c1ccc(-c2c3nc(c(-c4cccc(S(=O)(=O)[O-])c4F)c4ccc([nH]4)c(-c4cccc(S(=O)(=O)[O-])c4F)c4nc(c(-c5cccc(S(=O)(=O)[O-])c5F)c5ccc2[nH]5)C=C4)C=C3)cc1
REMARK SMILES IDX 30 1 29 2 28 3 26 4 27 5 18 7 17 8 15 9 16 10 14 12 4 13
REMARK SMILES IDX 5 14 6 15 7 16 13 17 8 18 12 20 9 21 11 22 10 23 2 24 1 25
REMARK SMILES IDX 3 26 19 27 20 28 21 29 25 30 22 31 24 32 23 33 31 34 32 35
REMARK SMILES IDX 33 36 34 38 35 39 36 40 97 41 37 42 96 43 38 44 39 45 40 46
REMARK SMILES IDX 90 47 41 48 95 49 89 50 91 51 42 52 94 53 88 54 87 55 43 57
REMARK SMILES IDX 75 58 55 59 74 60 56 61 59 62 73 63 92 64 57 65 58 66 72 68
REMARK SMILES IDX 93 69 60 70 44 71 45 72 53 73 46 74 48 75 54 76 47 77 49 78
REMARK SMILES IDX 50 79 51 80 52 81 76 82 77 83 85 84 78 85 80 86 86 87 79 88
REMARK SMILES IDX 81 89 82 90 83 91 84 92 61 93 62 94 70 95 63 96 65 97 71 98
REMARK SMILES IDX 64 99 66 100 67 101 68 102 69 103
REMARK H PARENT 28 6 17 11 7 19 32 37 91 56 59 67
REMARK Flexibility Score: inf
ROOT
ATOM      1  C   UNL A   1      32.524  30.121  26.957  1.00  0.00     0.042 C 
ENDROOT
BRANCH   1   2
ATOM      2  C   UNL A   1      33.014  28.826  25.823  1.00  0.00     0.117 C 
BRANCH   2   3
ATOM      3  N   UNL A   1      33.458  29.100  24.321  1.00  0.00    -0.354 N 
ATOM      4  C   UNL A   1      33.304  28.441  23.149  1.00  0.00     0.242 C 
ATOM      5  O   UNL A   1      33.713  28.878  22.081  1.00  0.00    -0.273 OA
ATOM      6  H   UNL A   1      33.962  29.940  24.222  1.00  0.00     0.163 HD
BRANCH   4   7
ATOM      7  C   UNL A   1      32.309  27.398  23.333  1.00  0.00     0.177 C 
BRANCH   7   8
ATOM      8  N   UNL A   1      33.277  26.164  22.950  1.00  0.00    -0.326 N 
ATOM      9  C   UNL A   1      32.955  24.720  22.891  1.00  0.00     0.323 C 
ATOM     10  O   UNL A   1      33.104  24.194  21.781  1.00  0.00    -0.248 OA
ATOM     11  H   UNL A   1      34.205  26.405  22.725  1.00  0.00     0.166 HD
BRANCH   9  12
ATOM     12  N   UNL A   1      33.077  23.917  24.154  1.00  0.00    -0.280 N 
ATOM     13  C   UNL A   1      31.932  23.473  25.738  1.00  0.00     0.184 C 
ATOM     14  C   UNL A   1      32.880  22.713  27.302  1.00  0.00     0.247 C 
ATOM     15  O   UNL A   1      32.328  22.351  28.335  1.00  0.00    -0.272 OA
ATOM     16  N   UNL A   1      34.553  22.488  27.134  1.00  0.00    -0.322 N 
ATOM     17  C   UNL A   1      34.824  23.333  24.250  1.00  0.00     0.070 A 
ATOM     18  C   UNL A   1      35.508  22.762  25.718  1.00  0.00     0.065 A 
ATOM     19  H   UNL A   1      35.034  22.165  27.931  1.00  0.00     0.170 HD
ATOM     20  C   UNL A   1      35.626  23.189  23.132  1.00  0.00     0.028 A 
ATOM     21  C   UNL A   1      36.805  22.293  25.783  1.00  0.00     0.028 A 
ATOM     22  C   UNL A   1      36.902  22.578  23.309  1.00  0.00     0.002 A 
ATOM     23  C   UNL A   1      37.470  22.175  24.562  1.00  0.00     0.002 A 
BRANCH  13  24
ATOM     24  C   UNL A   1      30.704  24.395  26.604  1.00  0.00     0.015 C 
ATOM     25  C   UNL A   1      30.400  25.707  25.879  1.00  0.00     0.010 C 
ATOM     26  C   UNL A   1      29.410  23.671  27.022  1.00  0.00     0.010 C 
ENDBRANCH  13  24
ENDBRANCH   9  12
ENDBRANCH   7   8
BRANCH   7  27
ATOM     27  C   UNL A   1      31.084  27.820  22.420  1.00  0.00     0.070 C 
BRANCH  27  28
ATOM     28  C   UNL A   1      29.888  28.646  22.933  1.00  0.00    -0.045 A 
ATOM     29  C   UNL A   1      30.080  30.012  23.282  1.00  0.00     0.004 A 
ATOM     30  C   UNL A   1      28.574  28.176  22.901  1.00  0.00     0.004 A 
ATOM     31  C   UNL A   1      29.006  30.880  23.522  1.00  0.00     0.000 A 
ATOM     32  C   UNL A   1      27.496  29.050  23.143  1.00  0.00     0.000 A 
ATOM     33  C   UNL A   1      27.707  30.400  23.433  1.00  0.00     0.000 A 
ENDBRANCH  27  28
ENDBRANCH   7  27
ENDBRANCH   4   7
ENDBRANCH   2   3
ENDBRANCH   1   2
BRANCH   1  34
ATOM     34  C   UNL A   1      31.964  32.165  26.529  1.00  0.00     0.118 C 
BRANCH  34  35
ATOM     35  N   UNL A   1      32.072  33.537  27.271  1.00  0.00    -0.352 N 
ATOM     36  C   UNL A   1      32.973  34.211  28.060  1.00  0.00     0.251 C 
ATOM     37  H   UNL A   1      31.258  34.073  27.135  1.00  0.00     0.163 HD
ATOM     38  O   UNL A   1      32.696  35.361  28.405  1.00  0.00    -0.269 OA
BRANCH  36  39
ATOM     39  C   UNL A   1      34.209  33.614  28.610  1.00  0.00     0.039 A 
ATOM     40  C   UNL A   1      34.074  32.440  29.369  1.00  0.00     0.014 A 
ATOM     41  C   UNL A   1      35.465  34.197  28.469  1.00  0.00     0.014 A 
ATOM     42  C   UNL A   1      35.189  31.844  29.968  1.00  0.00     0.010 A 
ATOM     43  C   UNL A   1      36.589  33.576  29.038  1.00  0.00     0.010 A 
ATOM     44  C   UNL A   1      36.461  32.411  29.816  1.00  0.00    -0.014 A 
BRANCH  44  45
ATOM     45  C   UNL A   1      37.637  31.852  30.542  1.00  0.00     0.031 A 
ATOM     46  C   UNL A   1      38.521  30.840  29.861  1.00  0.00     0.074 A 
ATOM     47  C   UNL A   1      37.911  32.220  31.809  1.00  0.00     0.049 A 
ATOM     48  N   UNL A   1      39.569  30.206  30.325  1.00  0.00    -0.248 NA
ATOM     49  C   UNL A   1      38.173  30.487  28.475  1.00  0.00     0.031 C 
ATOM     50  C   UNL A   1      37.133  33.171  32.600  1.00  0.00     0.029 A 
ATOM     51  N   UNL A   1      38.910  31.813  32.663  1.00  0.00    -0.354 N 
ATOM     52  C   UNL A   1      39.979  29.352  29.307  1.00  0.00     0.074 A 
ATOM     53  C   UNL A   1      39.058  29.538  28.207  1.00  0.00     0.031 C 
ATOM     54  C   UNL A   1      37.667  33.259  33.829  1.00  0.00     0.029 A 
ATOM     55  C   UNL A   1      38.808  32.350  33.926  1.00  0.00     0.049 A 
ATOM     56  H   UNL A   1      39.628  31.196  32.397  1.00  0.00     0.167 HD
ATOM     57  C   UNL A   1      41.035  28.502  29.279  1.00  0.00     0.034 A 
ATOM     58  C   UNL A   1      39.532  32.122  35.041  1.00  0.00     0.034 A 
ATOM     59  C   UNL A   1      41.970  28.332  30.359  1.00  0.00     0.049 A 
ATOM     60  C   UNL A   1      40.699  31.169  34.989  1.00  0.00     0.074 A 
ATOM     61  C   UNL A   1      43.112  27.552  30.392  1.00  0.00     0.029 A 
ATOM     62  N   UNL A   1      41.863  28.932  31.603  1.00  0.00    -0.354 N 
ATOM     63  N   UNL A   1      41.157  30.477  33.974  1.00  0.00    -0.248 NA
ATOM     64  C   UNL A   1      41.471  30.992  36.229  1.00  0.00     0.031 C 
ATOM     65  C   UNL A   1      43.676  27.650  31.669  1.00  0.00     0.029 A 
ATOM     66  C   UNL A   1      42.906  28.524  32.420  1.00  0.00     0.049 A 
ATOM     67  H   UNL A   1      41.150  29.557  31.869  1.00  0.00     0.167 HD
ATOM     68  C   UNL A   1      42.284  29.808  34.442  1.00  0.00     0.074 A 
ATOM     69  C   UNL A   1      42.453  30.195  35.827  1.00  0.00     0.031 C 
ATOM     70  C   UNL A   1      43.097  28.943  33.785  1.00  0.00     0.034 A 
BRANCH  57  71
ATOM     71  C   UNL A   1      41.248  27.699  28.020  1.00  0.00     0.023 A 
ATOM     72  C   UNL A   1      41.666  28.345  26.838  1.00  0.00     0.012 A 
ATOM     73  C   UNL A   1      41.074  26.301  28.018  1.00  0.00     0.148 A 
ATOM     74  C   UNL A   1      41.863  27.619  25.663  1.00  0.00     0.002 A 
ATOM     75  C   UNL A   1      41.319  25.578  26.855  1.00  0.00     0.091 A 
ATOM     76  F   UNL A   1      40.658  25.704  29.144  1.00  0.00    -0.205 F 
ATOM     77  C   UNL A   1      41.699  26.237  25.674  1.00  0.00     0.022 A 
BRANCH  75  78
ATOM     78  S   UNL A   1      41.218  23.786  26.791  1.00  0.00     0.127 S 
ATOM     79  O   UNL A   1      41.876  23.408  28.041  1.00  0.00    -0.237 OA
ATOM     80  O   UNL A   1      39.771  23.560  26.773  1.00  0.00    -0.237 OA
ATOM     81  O   UNL A   1      41.907  23.388  25.573  1.00  0.00    -0.744 OA
ENDBRANCH  75  78
ENDBRANCH  57  71
BRANCH  58  82
ATOM     82  C   UNL A   1      39.194  32.841  36.302  1.00  0.00     0.023 A 
ATOM     83  C   UNL A   1      39.657  34.156  36.500  1.00  0.00     0.012 A 
ATOM     84  C   UNL A   1      38.386  32.242  37.289  1.00  0.00     0.148 A 
ATOM     85  C   UNL A   1      39.343  34.854  37.668  1.00  0.00     0.002 A 
ATOM     86  C   UNL A   1      38.027  32.962  38.422  1.00  0.00     0.091 A 
ATOM     87  F   UNL A   1      37.968  30.984  37.088  1.00  0.00    -0.205 F 
ATOM     88  C   UNL A   1      38.518  34.262  38.622  1.00  0.00     0.022 A 
BRANCH  86  89
ATOM     89  S   UNL A   1      36.862  32.337  39.638  1.00  0.00     0.127 S 
ATOM     90  O   UNL A   1      35.632  32.244  38.856  1.00  0.00    -0.237 OA
ATOM     91  O   UNL A   1      37.465  31.053  39.995  1.00  0.00    -0.237 OA
ATOM     92  O   UNL A   1      36.849  33.316  40.717  1.00  0.00    -0.744 OA
ENDBRANCH  86  89
ENDBRANCH  58  82
BRANCH  70  93
ATOM     93  C   UNL A   1      44.271  28.368  34.538  1.00  0.00     0.023 A 
ATOM     94  C   UNL A   1      45.472  29.101  34.636  1.00  0.00     0.012 A 
ATOM     95  C   UNL A   1      44.161  27.135  35.213  1.00  0.00     0.148 A 
ATOM     96  C   UNL A   1      46.553  28.599  35.362  1.00  0.00     0.002 A 
ATOM     97  C   UNL A   1      45.224  26.666  35.976  1.00  0.00     0.091 A 
ATOM     98  F   UNL A   1      43.018  26.443  35.097  1.00  0.00    -0.205 F 
ATOM     99  C   UNL A   1      46.425  27.389  36.041  1.00  0.00     0.022 A 
BRANCH  97 100
ATOM    100  S   UNL A   1      45.119  25.167  36.961  1.00  0.00     0.127 S 
ATOM    101  O   UNL A   1      46.522  24.933  37.299  1.00  0.00    -0.237 OA
ATOM    102  O   UNL A   1      44.284  25.592  38.084  1.00  0.00    -0.237 OA
ATOM    103  O   UNL A   1      44.509  24.162  36.100  1.00  0.00    -0.744 OA
ENDBRANCH  97 100
ENDBRANCH  70  93
ENDBRANCH  44  45
ENDBRANCH  36  39
ENDBRANCH  34  35
ENDBRANCH   1  34
TORSDOF 18
ENDMDL
MODEL 3
REMARK VINA RESULT:     -14.1      1.343      7.376
REMARK SMILES CC(C)[C@@H]1C(=O)Nc2ccccc2N1C(=O)N[C@H](Cc1ccccc1)C(=O)NCCCNC(=O)c1ccc(-c2c3nc(c(-c4cccc(S(=O)(=O)[O-])c4F)c4ccc([nH]4)c(-c4cccc(S(=O)(=O)[O-])c4F)c4nc(c(-c5cccc(S(=O)(=O)[O-])c5F)c5ccc2[nH]5)C=C4)C=C3)cc1
REMARK SMILES IDX 30 1 29 2 28 3 26 4 27 5 18 7 17 8 15 9 16 10 14 12 4 13
REMARK SMILES IDX 5 14 6 15 7 16 13 17 8 18 12 20 9 21 11 22 10 23 2 24 1 25
REMARK SMILES IDX 3 26 19 27 20 28 21 29 25 30 22 31 24 32 23 33 31 34 32 35
REMARK SMILES IDX 33 36 34 38 35 39 36 40 97 41 37 42 96 43 38 44 39 45 40 46
REMARK SMILES IDX 90 47 41 48 95 49 89 50 91 51 42 52 94 53 88 54 87 55 43 57
REMARK SMILES IDX 75 58 55 59 74 60 56 61 59 62 73 63 92 64 57 65 58 66 72 68
REMARK SMILES IDX 93 69 60 70 44 71 45 72 53 73 46 74 48 75 54 76 47 77 49 78
REMARK SMILES IDX 50 79 51 80 52 81 76 82 77 83 85 84 78 85 80 86 86 87 79 88
REMARK SMILES IDX 81 89 82 90 83 91 84 92 61 93 62 94 70 95 63 96 65 97 71 98
REMARK SMILES IDX 64 99 66 100 67 101 68 102 69 103
REMARK H PARENT 28 6 17 11 7 19 32 37 91 56 59 67
REMARK Flexibility Score: inf
ROOT
ATOM      1  C   UNL A   1      33.283  30.641  26.569  1.00  0.00     0.042 C 
ENDROOT
BRANCH   1   2
ATOM      2  C   UNL A   1      32.884  29.335  25.413  1.00  0.00     0.117 C 
BRANCH   2   3
ATOM      3  N   UNL A   1      33.365  29.330  23.897  1.00  0.00    -0.354 N 
ATOM      4  C   UNL A   1      33.283  28.445  22.877  1.00  0.00     0.242 C 
ATOM      5  O   UNL A   1      33.705  28.685  21.753  1.00  0.00    -0.273 OA
ATOM      6  H   UNL A   1      33.828  30.161  23.643  1.00  0.00     0.163 HD
BRANCH   4   7
ATOM      7  C   UNL A   1      32.336  27.405  23.242  1.00  0.00     0.177 C 
BRANCH   7   8
ATOM      8  N   UNL A   1      33.304  26.159  22.895  1.00  0.00    -0.326 N 
ATOM      9  C   UNL A   1      32.981  24.715  22.877  1.00  0.00     0.323 C 
ATOM     10  O   UNL A   1      33.131  24.157  21.783  1.00  0.00    -0.248 OA
ATOM     11  H   UNL A   1      34.233  26.393  22.666  1.00  0.00     0.166 HD
BRANCH   9  12
ATOM     12  N   UNL A   1      33.099  23.948  24.163  1.00  0.00    -0.280 N 
ATOM     13  C   UNL A   1      31.941  23.526  25.743  1.00  0.00     0.184 C 
ATOM     14  C   UNL A   1      32.881  22.824  27.339  1.00  0.00     0.247 C 
ATOM     15  O   UNL A   1      32.322  22.481  28.375  1.00  0.00    -0.272 OA
ATOM     16  N   UNL A   1      34.560  22.624  27.199  1.00  0.00    -0.322 N 
ATOM     17  C   UNL A   1      34.854  23.396  24.297  1.00  0.00     0.070 A 
ATOM     18  C   UNL A   1      35.528  22.877  25.788  1.00  0.00     0.065 A 
ATOM     19  H   UNL A   1      35.035  22.330  28.010  1.00  0.00     0.170 HD
ATOM     20  C   UNL A   1      35.674  23.237  23.193  1.00  0.00     0.028 A 
ATOM     21  C   UNL A   1      36.832  22.431  25.883  1.00  0.00     0.028 A 
ATOM     22  C   UNL A   1      36.957  22.653  23.403  1.00  0.00     0.002 A 
ATOM     23  C   UNL A   1      37.515  22.293  24.674  1.00  0.00     0.002 A 
BRANCH  13  24
ATOM     24  C   UNL A   1      30.686  24.450  26.568  1.00  0.00     0.015 C 
ATOM     25  C   UNL A   1      30.376  25.741  25.809  1.00  0.00     0.010 C 
ATOM     26  C   UNL A   1      29.397  23.717  26.982  1.00  0.00     0.010 C 
ENDBRANCH  13  24
ENDBRANCH   9  12
ENDBRANCH   7   8
BRANCH   7  27
ATOM     27  C   UNL A   1      31.029  27.712  22.400  1.00  0.00     0.070 C 
BRANCH  27  28
ATOM     28  C   UNL A   1      29.862  28.569  22.929  1.00  0.00    -0.045 A 
ATOM     29  C   UNL A   1      30.103  29.918  23.312  1.00  0.00     0.004 A 
ATOM     30  C   UNL A   1      28.532  28.150  22.880  1.00  0.00     0.004 A 
ATOM     31  C   UNL A   1      29.060  30.820  23.568  1.00  0.00     0.000 A 
ATOM     32  C   UNL A   1      27.486  29.057  23.138  1.00  0.00     0.000 A 
ATOM     33  C   UNL A   1      27.746  30.391  23.462  1.00  0.00     0.000 A 
ENDBRANCH  27  28
ENDBRANCH   7  27
ENDBRANCH   4   7
ENDBRANCH   2   3
ENDBRANCH   1   2
BRANCH   1  34
ATOM     34  C   UNL A   1      32.101  32.358  27.144  1.00  0.00     0.118 C 
BRANCH  34  35
ATOM     35  N   UNL A   1      32.401  33.802  27.663  1.00  0.00    -0.352 N 
ATOM     36  C   UNL A   1      33.411  34.476  28.307  1.00  0.00     0.251 C 
ATOM     37  H   UNL A   1      31.645  34.404  27.475  1.00  0.00     0.163 HD
ATOM     38  O   UNL A   1      33.282  35.689  28.481  1.00  0.00    -0.269 OA
BRANCH  36  39
ATOM     39  C   UNL A   1      34.601  33.826  28.896  1.00  0.00     0.039 A 
ATOM     40  C   UNL A   1      34.378  32.787  29.814  1.00  0.00     0.014 A 
ATOM     41  C   UNL A   1      35.904  34.243  28.638  1.00  0.00     0.014 A 
ATOM     42  C   UNL A   1      35.450  32.158  30.457  1.00  0.00     0.010 A 
ATOM     43  C   UNL A   1      36.981  33.584  29.254  1.00  0.00     0.010 A 
ATOM     44  C   UNL A   1      36.766  32.556  30.189  1.00  0.00    -0.014 A 
BRANCH  44  45
ATOM     45  C   UNL A   1      37.908  31.974  30.950  1.00  0.00     0.031 A 
ATOM     46  C   UNL A   1      38.666  30.803  30.378  1.00  0.00     0.074 A 
ATOM     47  C   UNL A   1      38.262  32.462  32.155  1.00  0.00     0.049 A 
ATOM     48  N   UNL A   1      39.664  30.129  30.892  1.00  0.00    -0.248 NA
ATOM     49  C   UNL A   1      38.235  30.323  29.055  1.00  0.00     0.031 C 
ATOM     50  C   UNL A   1      37.608  33.575  32.841  1.00  0.00     0.029 A 
ATOM     51  N   UNL A   1      39.247  32.063  33.029  1.00  0.00    -0.354 N 
ATOM     52  C   UNL A   1      39.953  29.121  29.977  1.00  0.00     0.074 A 
ATOM     53  C   UNL A   1      39.015  29.264  28.885  1.00  0.00     0.031 C 
ATOM     54  C   UNL A   1      38.193  33.756  34.037  1.00  0.00     0.029 A 
ATOM     55  C   UNL A   1      39.243  32.756  34.218  1.00  0.00     0.049 A 
ATOM     56  H   UNL A   1      39.893  31.350  32.824  1.00  0.00     0.167 HD
ATOM     57  C   UNL A   1      40.920  28.173  30.029  1.00  0.00     0.034 A 
ATOM     58  C   UNL A   1      39.982  32.592  35.335  1.00  0.00     0.034 A 
ATOM     59  C   UNL A   1      41.873  28.042  31.099  1.00  0.00     0.049 A 
ATOM     60  C   UNL A   1      41.050  31.529  35.372  1.00  0.00     0.074 A 
ATOM     61  C   UNL A   1      42.935  27.160  31.200  1.00  0.00     0.029 A 
ATOM     62  N   UNL A   1      41.869  28.794  32.262  1.00  0.00    -0.354 N 
ATOM     63  N   UNL A   1      41.402  30.677  34.440  1.00  0.00    -0.248 NA
ATOM     64  C   UNL A   1      41.845  31.426  36.606  1.00  0.00     0.031 C 
ATOM     65  C   UNL A   1      43.551  27.356  32.441  1.00  0.00     0.029 A 
ATOM     66  C   UNL A   1      42.897  28.386  33.097  1.00  0.00     0.049 A 
ATOM     67  H   UNL A   1      41.230  29.515  32.465  1.00  0.00     0.167 HD
ATOM     68  C   UNL A   1      42.475  29.960  34.960  1.00  0.00     0.074 A 
ATOM     69  C   UNL A   1      42.731  30.492  36.282  1.00  0.00     0.031 C 
ATOM     70  C   UNL A   1      43.177  28.945  34.396  1.00  0.00     0.034 A 
BRANCH  57  71
ATOM     71  C   UNL A   1      41.009  27.206  28.875  1.00  0.00     0.023 A 
ATOM     72  C   UNL A   1      40.136  26.100  28.817  1.00  0.00     0.012 A 
ATOM     73  C   UNL A   1      41.928  27.415  27.827  1.00  0.00     0.148 A 
ATOM     74  C   UNL A   1      40.207  25.193  27.760  1.00  0.00     0.002 A 
ATOM     75  C   UNL A   1      41.959  26.533  26.752  1.00  0.00     0.091 A 
ATOM     76  F   UNL A   1      42.764  28.460  27.906  1.00  0.00    -0.205 F 
ATOM     77  C   UNL A   1      41.110  25.414  26.725  1.00  0.00     0.022 A 
BRANCH  75  78
ATOM     78  S   UNL A   1      43.028  26.779  25.330  1.00  0.00     0.127 S 
ATOM     79  O   UNL A   1      44.331  26.962  25.969  1.00  0.00    -0.237 OA
ATOM     80  O   UNL A   1      42.876  25.515  24.608  1.00  0.00    -0.237 OA
ATOM     81  O   UNL A   1      42.504  27.943  24.631  1.00  0.00    -0.744 OA
ENDBRANCH  75  78
ENDBRANCH  57  71
BRANCH  58  82
ATOM     82  C   UNL A   1      39.761  33.489  36.505  1.00  0.00     0.023 A 
ATOM     83  C   UNL A   1      38.618  33.315  37.309  1.00  0.00     0.012 A 
ATOM     84  C   UNL A   1      40.694  34.487  36.846  1.00  0.00     0.148 A 
ATOM     85  C   UNL A   1      38.395  34.134  38.417  1.00  0.00     0.002 A 
ATOM     86  C   UNL A   1      40.497  35.261  37.984  1.00  0.00     0.091 A 
ATOM     87  F   UNL A   1      41.768  34.647  36.059  1.00  0.00    -0.205 F 
ATOM     88  C   UNL A   1      39.340  35.098  38.762  1.00  0.00     0.022 A 
BRANCH  86  89
ATOM     89  S   UNL A   1      41.722  36.431  38.584  1.00  0.00     0.127 S 
ATOM     90  O   UNL A   1      41.027  37.040  39.714  1.00  0.00    -0.237 OA
ATOM     91  O   UNL A   1      42.828  35.544  38.945  1.00  0.00    -0.237 OA
ATOM     92  O   UNL A   1      42.004  37.319  37.465  1.00  0.00    -0.744 OA
ENDBRANCH  86  89
ENDBRANCH  58  82
BRANCH  70  93
ATOM     93  C   UNL A   1      44.317  28.351  35.185  1.00  0.00     0.023 A 
ATOM     94  C   UNL A   1      45.627  28.840  35.007  1.00  0.00     0.012 A 
ATOM     95  C   UNL A   1      44.079  27.359  36.159  1.00  0.00     0.148 A 
ATOM     96  C   UNL A   1      46.685  28.327  35.759  1.00  0.00     0.002 A 
ATOM     97  C   UNL A   1      45.129  26.889  36.939  1.00  0.00     0.091 A 
ATOM     98  F   UNL A   1      42.829  26.893  36.304  1.00  0.00    -0.205 F 
ATOM     99  C   UNL A   1      46.434  27.361  36.731  1.00  0.00     0.022 A 
BRANCH  97 100
ATOM    100  S   UNL A   1      44.888  25.717  38.279  1.00  0.00     0.127 S 
ATOM    101  O   UNL A   1      43.978  24.749  37.668  1.00  0.00    -0.237 OA
ATOM    102  O   UNL A   1      46.245  25.220  38.505  1.00  0.00    -0.237 OA
ATOM    103  O   UNL A   1      44.332  26.481  39.388  1.00  0.00    -0.744 OA
ENDBRANCH  97 100
ENDBRANCH  70  93
ENDBRANCH  44  45
ENDBRANCH  36  39
ENDBRANCH  34  35
ENDBRANCH   1  34
TORSDOF 18
ENDMDL
