MODEL 1
REMARK VINA RESULT:     -12.9      0.000      0.000
REMARK SMILES O=C(NCCCNC(=O)c1sccc1S(=O)(=O)Nc1ccccc1N1CCCCC1)c1ccc(-c2c3nc(c(-c4cccc(S(=O)(=O)[O-])c4F)c4ccc([nH]4)c(-c4cccc(S(=O)(=O)[O-])c4F)c4nc(c(-c5cccc(S(=O)(=O)[O-])c5F)c5ccc2[nH]5)C=C4)C=C3)cc1
REMARK SMILES IDX 5 1 4 2 3 3 1 4 2 5 31 7 32 8 93 9 33 10 92 11 34 12 35 13
REMARK SMILES IDX 36 14 86 15 37 16 91 17 85 18 87 19 38 20 90 21 84 22 83 23
REMARK SMILES IDX 39 25 71 26 51 27 70 28 52 29 55 30 69 31 88 32 53 33 54 34
REMARK SMILES IDX 68 36 89 37 56 38 40 39 41 40 49 41 42 42 44 43 50 44 43 45
REMARK SMILES IDX 45 46 46 47 47 48 48 49 72 50 73 51 81 52 74 53 76 54 82 55
REMARK SMILES IDX 75 56 77 57 78 58 79 59 80 60 57 61 58 62 66 63 59 64 61 65
REMARK SMILES IDX 67 66 60 67 62 68 63 69 64 70 65 71 6 72 7 73 8 74 9 76
REMARK SMILES IDX 10 77 11 78 14 79 12 80 13 81 15 82 16 83 17 84 18 85 19 87
REMARK SMILES IDX 20 88 24 89 21 90 23 91 22 92 25 93 26 94 30 95 27 96 29 97
REMARK SMILES IDX 28 98
REMARK H PARENT 3 6 87 24 55 35 7 75 18 86
REMARK Flexibility Score: inf
ROOT
ATOM      1  C   UNL A   1      31.638  28.879  27.240  1.00  0.00     0.042 C 
ENDROOT
BRANCH   1   2
ATOM      2  C   UNL A   1      32.392  29.877  26.369  1.00  0.00     0.118 C 
BRANCH   2   3
ATOM      3  N   UNL A   1      32.195  31.269  26.769  1.00  0.00    -0.352 N 
ATOM      4  O   UNL A   1      32.675  33.269  27.704  1.00  0.00    -0.269 OA
ATOM      5  C   UNL A   1      33.061  32.150  27.376  1.00  0.00     0.251 C 
ATOM      6  H   UNL A   1      31.302  31.633  26.573  1.00  0.00     0.163 HD
BRANCH   5   7
ATOM      7  C   UNL A   1      34.425  31.693  27.690  1.00  0.00     0.039 A 
ATOM      8  C   UNL A   1      34.661  30.338  27.889  1.00  0.00     0.014 A 
ATOM      9  C   UNL A   1      35.423  32.633  27.951  1.00  0.00     0.014 A 
ATOM     10  C   UNL A   1      35.762  29.958  28.636  1.00  0.00     0.010 A 
ATOM     11  C   UNL A   1      36.615  32.216  28.545  1.00  0.00     0.010 A 
ATOM     12  C   UNL A   1      36.763  30.887  28.969  1.00  0.00    -0.014 A 
BRANCH  12  13
ATOM     13  C   UNL A   1      37.949  30.419  29.736  1.00  0.00     0.031 A 
ATOM     14  C   UNL A   1      38.157  30.796  31.181  1.00  0.00     0.074 A 
ATOM     15  C   UNL A   1      38.825  29.604  29.116  1.00  0.00     0.049 A 
ATOM     16  N   UNL A   1      39.133  30.452  31.984  1.00  0.00    -0.248 NA
ATOM     17  C   UNL A   1      37.162  31.682  31.808  1.00  0.00     0.031 C 
ATOM     18  C   UNL A   1      38.745  29.196  27.710  1.00  0.00     0.029 A 
ATOM     19  N   UNL A   1      39.936  28.950  29.582  1.00  0.00    -0.354 N 
ATOM     20  C   UNL A   1      38.912  31.133  33.176  1.00  0.00     0.074 A 
ATOM     21  C   UNL A   1      37.701  31.905  33.000  1.00  0.00     0.031 C 
ATOM     22  C   UNL A   1      39.712  28.309  27.448  1.00  0.00     0.029 A 
ATOM     23  C   UNL A   1      40.541  28.158  28.636  1.00  0.00     0.049 A 
ATOM     24  H   UNL A   1      40.268  29.040  30.504  1.00  0.00     0.167 HD
ATOM     25  C   UNL A   1      39.648  31.110  34.314  1.00  0.00     0.034 A 
ATOM     26  C   UNL A   1      41.655  27.406  28.700  1.00  0.00     0.034 A 
ATOM     27  C   UNL A   1      40.814  30.287  34.503  1.00  0.00     0.049 A 
ATOM     28  C   UNL A   1      42.415  27.362  29.989  1.00  0.00     0.074 A 
ATOM     29  C   UNL A   1      41.588  30.136  35.640  1.00  0.00     0.029 A 
ATOM     30  N   UNL A   1      41.374  29.472  33.530  1.00  0.00    -0.354 N 
ATOM     31  N   UNL A   1      42.132  27.940  31.131  1.00  0.00    -0.248 NA
ATOM     32  C   UNL A   1      43.636  26.549  30.005  1.00  0.00     0.031 C 
ATOM     33  C   UNL A   1      42.627  29.247  35.349  1.00  0.00     0.029 A 
ATOM     34  C   UNL A   1      42.487  28.822  34.038  1.00  0.00     0.049 A 
ATOM     35  H   UNL A   1      41.031  29.369  32.613  1.00  0.00     0.167 HD
ATOM     36  C   UNL A   1      43.129  27.543  32.012  1.00  0.00     0.074 A 
ATOM     37  C   UNL A   1      44.003  26.650  31.276  1.00  0.00     0.031 C 
ATOM     38  C   UNL A   1      43.316  27.900  33.305  1.00  0.00     0.034 A 
BRANCH  25  39
ATOM     39  C   UNL A   1      39.210  31.986  35.463  1.00  0.00     0.023 A 
ATOM     40  C   UNL A   1      38.357  31.470  36.459  1.00  0.00     0.012 A 
ATOM     41  C   UNL A   1      39.705  33.301  35.594  1.00  0.00     0.148 A 
ATOM     42  C   UNL A   1      37.981  32.255  37.550  1.00  0.00     0.002 A 
ATOM     43  C   UNL A   1      39.359  34.062  36.707  1.00  0.00     0.091 A 
ATOM     44  F   UNL A   1      40.498  33.786  34.629  1.00  0.00    -0.205 F 
ATOM     45  C   UNL A   1      38.489  33.544  37.679  1.00  0.00     0.022 A 
BRANCH  43  46
ATOM     46  S   UNL A   1      40.030  35.703  37.001  1.00  0.00     0.127 S 
ATOM     47  O   UNL A   1      39.379  36.067  38.259  1.00  0.00    -0.237 OA
ATOM     48  O   UNL A   1      41.464  35.436  37.113  1.00  0.00    -0.237 OA
ATOM     49  O   UNL A   1      39.652  36.504  35.844  1.00  0.00    -0.744 OA
ENDBRANCH  43  46
ENDBRANCH  25  39
BRANCH  26  50
ATOM     50  C   UNL A   1      42.078  26.614  27.511  1.00  0.00     0.023 A 
ATOM     51  C   UNL A   1      42.856  27.228  26.512  1.00  0.00     0.012 A 
ATOM     52  C   UNL A   1      41.773  25.244  27.401  1.00  0.00     0.148 A 
ATOM     53  C   UNL A   1      43.306  26.496  25.414  1.00  0.00     0.002 A 
ATOM     54  C   UNL A   1      42.280  24.505  26.340  1.00  0.00     0.091 A 
ATOM     55  F   UNL A   1      41.018  24.680  28.355  1.00  0.00    -0.205 F 
ATOM     56  C   UNL A   1      43.032  25.133  25.335  1.00  0.00     0.022 A 
BRANCH  54  57
ATOM     57  S   UNL A   1      42.111  22.719  26.253  1.00  0.00     0.127 S 
ATOM     58  O   UNL A   1      42.830  22.410  25.020  1.00  0.00    -0.237 OA
ATOM     59  O   UNL A   1      42.779  22.289  27.482  1.00  0.00    -0.237 OA
ATOM     60  O   UNL A   1      40.676  22.465  26.235  1.00  0.00    -0.744 OA
ENDBRANCH  54  57
ENDBRANCH  26  50
BRANCH  38  61
ATOM     61  C   UNL A   1      44.493  27.293  34.018  1.00  0.00     0.023 A 
ATOM     62  C   UNL A   1      45.754  27.919  33.948  1.00  0.00     0.012 A 
ATOM     63  C   UNL A   1      44.339  26.128  34.791  1.00  0.00     0.148 A 
ATOM     64  C   UNL A   1      46.853  27.370  34.605  1.00  0.00     0.002 A 
ATOM     65  C   UNL A   1      45.429  25.613  35.484  1.00  0.00     0.091 A 
ATOM     66  F   UNL A   1      43.138  25.533  34.825  1.00  0.00    -0.205 F 
ATOM     67  C   UNL A   1      46.689  26.225  35.381  1.00  0.00     0.022 A 
BRANCH  65  68
ATOM     68  S   UNL A   1      45.280  24.199  36.580  1.00  0.00     0.127 S 
ATOM     69  O   UNL A   1      44.677  23.201  35.699  1.00  0.00    -0.237 OA
ATOM     70  O   UNL A   1      46.674  23.932  36.939  1.00  0.00    -0.237 OA
ATOM     71  O   UNL A   1      44.449  24.643  37.691  1.00  0.00    -0.744 OA
ENDBRANCH  65  68
ENDBRANCH  38  61
ENDBRANCH  12  13
ENDBRANCH   5   7
ENDBRANCH   2   3
ENDBRANCH   1   2
BRANCH   1  72
ATOM     72  C   UNL A   1      31.624  27.504  26.607  1.00  0.00     0.118 C 
BRANCH  72  73
ATOM     73  N   UNL A   1      32.961  27.004  26.372  1.00  0.00    -0.351 N 
ATOM     74  C   UNL A   1      33.388  25.972  25.593  1.00  0.00     0.262 C 
ATOM     75  H   UNL A   1      33.675  27.485  26.851  1.00  0.00     0.163 HD
ATOM     76  O   UNL A   1      34.588  25.690  25.673  1.00  0.00    -0.268 OA
BRANCH  74  77
ATOM     77  C   UNL A   1      32.455  25.211  24.802  1.00  0.00     0.112 A 
ATOM     78  S   UNL A   1      32.221  25.846  23.205  1.00  0.00    -0.137 S 
ATOM     79  C   UNL A   1      31.644  24.109  25.030  1.00  0.00     0.111 A 
ATOM     80  C   UNL A   1      31.101  24.641  22.796  1.00  0.00     0.067 A 
ATOM     81  C   UNL A   1      30.891  23.774  23.840  1.00  0.00     0.035 A 
BRANCH  79  82
ATOM     82  S   UNL A   1      31.487  23.083  26.422  1.00  0.00     0.263 S 
ATOM     83  O   UNL A   1      31.588  24.013  27.534  1.00  0.00    -0.201 OA
ATOM     84  O   UNL A   1      30.203  22.448  26.205  1.00  0.00    -0.201 OA
BRANCH  82  85
ATOM     85  N   UNL A   1      32.554  21.845  26.783  1.00  0.00    -0.277 N 
ATOM     86  H   UNL A   1      32.252  21.160  27.423  1.00  0.00     0.180 HD
BRANCH  85  87
ATOM     87  C   UNL A   1      33.864  21.702  26.237  1.00  0.00     0.072 A 
ATOM     88  C   UNL A   1      34.829  22.629  26.662  1.00  0.00     0.029 A 
ATOM     89  C   UNL A   1      34.180  20.733  25.264  1.00  0.00     0.061 A 
ATOM     90  C   UNL A   1      36.144  22.550  26.209  1.00  0.00     0.002 A 
ATOM     91  C   UNL A   1      35.521  20.665  24.840  1.00  0.00     0.028 A 
ATOM     92  C   UNL A   1      36.495  21.551  25.313  1.00  0.00     0.002 A 
BRANCH  89  93
ATOM     93  N   UNL A   1      33.237  19.913  24.667  1.00  0.00    -0.370 N 
ATOM     94  C   UNL A   1      33.014  18.550  25.139  1.00  0.00     0.116 C 
ATOM     95  C   UNL A   1      32.414  20.426  23.572  1.00  0.00     0.116 C 
ATOM     96  C   UNL A   1      32.984  17.570  23.974  1.00  0.00     0.021 C 
ATOM     97  C   UNL A   1      32.405  19.434  22.412  1.00  0.00     0.021 C 
ATOM     98  C   UNL A   1      32.015  18.040  22.892  1.00  0.00     0.004 C 
ENDBRANCH  89  93
ENDBRANCH  85  87
ENDBRANCH  82  85
ENDBRANCH  79  82
ENDBRANCH  74  77
ENDBRANCH  72  73
ENDBRANCH   1  72
TORSDOF 17
ENDMDL
MODEL 2
REMARK VINA RESULT:     -12.9      4.805     10.193
REMARK SMILES O=C(NCCCNC(=O)c1sccc1S(=O)(=O)Nc1ccccc1N1CCCCC1)c1ccc(-c2c3nc(c(-c4cccc(S(=O)(=O)[O-])c4F)c4ccc([nH]4)c(-c4cccc(S(=O)(=O)[O-])c4F)c4nc(c(-c5cccc(S(=O)(=O)[O-])c5F)c5ccc2[nH]5)C=C4)C=C3)cc1
REMARK SMILES IDX 5 1 4 2 3 3 1 4 2 5 31 7 32 8 93 9 33 10 92 11 34 12 35 13
REMARK SMILES IDX 36 14 86 15 37 16 91 17 85 18 87 19 38 20 90 21 84 22 83 23
REMARK SMILES IDX 39 25 71 26 51 27 70 28 52 29 55 30 69 31 88 32 53 33 54 34
REMARK SMILES IDX 68 36 89 37 56 38 40 39 41 40 49 41 42 42 44 43 50 44 43 45
REMARK SMILES IDX 45 46 46 47 47 48 48 49 72 50 73 51 81 52 74 53 76 54 82 55
REMARK SMILES IDX 75 56 77 57 78 58 79 59 80 60 57 61 58 62 66 63 59 64 61 65
REMARK SMILES IDX 67 66 60 67 62 68 63 69 64 70 65 71 6 72 7 73 8 74 9 76
REMARK SMILES IDX 10 77 11 78 14 79 12 80 13 81 15 82 16 83 17 84 18 85 19 87
REMARK SMILES IDX 20 88 24 89 21 90 23 91 22 92 25 93 26 94 30 95 27 96 29 97
REMARK SMILES IDX 28 98
REMARK H PARENT 3 6 87 24 55 35 7 75 18 86
REMARK Flexibility Score: inf
ROOT
ATOM      1  C   UNL A   1      36.651  22.343  23.704  1.00  0.00     0.042 C 
ENDROOT
BRANCH   1   2
ATOM      2  C   UNL A   1      36.932  21.954  25.150  1.00  0.00     0.118 C 
BRANCH   2   3
ATOM      3  N   UNL A   1      37.976  20.940  25.291  1.00  0.00    -0.352 N 
ATOM      4  O   UNL A   1      39.965  20.049  25.886  1.00  0.00    -0.269 OA
ATOM      5  C   UNL A   1      39.184  20.994  25.951  1.00  0.00     0.251 C 
ATOM      6  H   UNL A   1      37.786  20.085  24.843  1.00  0.00     0.163 HD
BRANCH   5   7
ATOM      7  C   UNL A   1      39.542  22.232  26.663  1.00  0.00     0.039 A 
ATOM      8  C   UNL A   1      38.978  23.437  26.262  1.00  0.00     0.014 A 
ATOM      9  C   UNL A   1      40.563  22.207  27.614  1.00  0.00     0.014 A 
ATOM     10  C   UNL A   1      39.640  24.613  26.566  1.00  0.00     0.010 A 
ATOM     11  C   UNL A   1      41.111  23.411  28.058  1.00  0.00     0.010 A 
ATOM     12  C   UNL A   1      40.711  24.623  27.476  1.00  0.00    -0.014 A 
BRANCH  12  13
ATOM     13  C   UNL A   1      41.361  25.921  27.803  1.00  0.00     0.031 A 
ATOM     14  C   UNL A   1      42.744  26.262  27.308  1.00  0.00     0.074 A 
ATOM     15  C   UNL A   1      40.661  26.818  28.527  1.00  0.00     0.049 A 
ATOM     16  N   UNL A   1      43.434  27.359  27.499  1.00  0.00    -0.248 NA
ATOM     17  C   UNL A   1      43.457  25.248  26.514  1.00  0.00     0.031 C 
ATOM     18  C   UNL A   1      39.326  26.587  29.088  1.00  0.00     0.029 A 
ATOM     19  N   UNL A   1      40.953  28.105  28.896  1.00  0.00    -0.354 N 
ATOM     20  C   UNL A   1      44.678  27.139  26.918  1.00  0.00     0.074 A 
ATOM     21  C   UNL A   1      44.650  25.807  26.356  1.00  0.00     0.031 C 
ATOM     22  C   UNL A   1      38.885  27.712  29.662  1.00  0.00     0.029 A 
ATOM     23  C   UNL A   1      39.939  28.714  29.598  1.00  0.00     0.049 A 
ATOM     24  H   UNL A   1      41.804  28.549  28.680  1.00  0.00     0.167 HD
ATOM     25  C   UNL A   1      45.744  27.975  26.854  1.00  0.00     0.034 A 
ATOM     26  C   UNL A   1      39.867  29.937  30.154  1.00  0.00     0.034 A 
ATOM     27  C   UNL A   1      45.739  29.324  27.357  1.00  0.00     0.049 A 
ATOM     28  C   UNL A   1      41.042  30.855  30.019  1.00  0.00     0.074 A 
ATOM     29  C   UNL A   1      46.740  30.277  27.279  1.00  0.00     0.029 A 
ATOM     30  N   UNL A   1      44.681  29.916  28.031  1.00  0.00    -0.354 N 
ATOM     31  N   UNL A   1      42.171  30.659  29.383  1.00  0.00    -0.248 NA
ATOM     32  C   UNL A   1      40.928  32.170  30.662  1.00  0.00     0.031 C 
ATOM     33  C   UNL A   1      46.295  31.436  27.923  1.00  0.00     0.029 A 
ATOM     34  C   UNL A   1      45.007  31.216  28.380  1.00  0.00     0.049 A 
ATOM     35  H   UNL A   1      43.822  29.476  28.232  1.00  0.00     0.167 HD
ATOM     36  C   UNL A   1      42.896  31.833  29.529  1.00  0.00     0.074 A 
ATOM     37  C   UNL A   1      42.062  32.746  30.287  1.00  0.00     0.031 C 
ATOM     38  C   UNL A   1      44.145  32.124  29.093  1.00  0.00     0.034 A 
BRANCH  25  39
ATOM     39  C   UNL A   1      47.007  27.471  26.199  1.00  0.00     0.023 A 
ATOM     40  C   UNL A   1      47.273  27.778  24.850  1.00  0.00     0.012 A 
ATOM     41  C   UNL A   1      47.966  26.754  26.944  1.00  0.00     0.148 A 
ATOM     42  C   UNL A   1      48.458  27.357  24.244  1.00  0.00     0.002 A 
ATOM     43  C   UNL A   1      49.164  26.374  26.345  1.00  0.00     0.091 A 
ATOM     44  F   UNL A   1      47.690  26.451  28.220  1.00  0.00    -0.205 F 
ATOM     45  C   UNL A   1      49.406  26.665  24.994  1.00  0.00     0.022 A 
BRANCH  43  46
ATOM     46  S   UNL A   1      50.480  25.553  27.253  1.00  0.00     0.127 S 
ATOM     47  O   UNL A   1      49.851  24.278  27.594  1.00  0.00    -0.237 OA
ATOM     48  O   UNL A   1      51.538  25.459  26.246  1.00  0.00    -0.237 OA
ATOM     49  O   UNL A   1      50.792  26.421  28.380  1.00  0.00    -0.744 OA
ENDBRANCH  43  46
ENDBRANCH  25  39
BRANCH  26  50
ATOM     50  C   UNL A   1      38.618  30.358  30.849  1.00  0.00     0.023 A 
ATOM     51  C   UNL A   1      38.492  30.144  32.234  1.00  0.00     0.012 A 
ATOM     52  C   UNL A   1      37.589  31.026  30.159  1.00  0.00     0.148 A 
ATOM     53  C   UNL A   1      37.353  30.573  32.917  1.00  0.00     0.002 A 
ATOM     54  C   UNL A   1      36.488  31.509  30.856  1.00  0.00     0.091 A 
ATOM     55  F   UNL A   1      37.720  31.207  28.837  1.00  0.00    -0.205 F 
ATOM     56  C   UNL A   1      36.360  31.268  32.232  1.00  0.00     0.022 A 
BRANCH  54  57
ATOM     57  S   UNL A   1      35.250  32.552  30.079  1.00  0.00     0.127 S 
ATOM     58  O   UNL A   1      34.756  31.687  29.012  1.00  0.00    -0.237 OA
ATOM     59  O   UNL A   1      34.308  32.777  31.177  1.00  0.00    -0.237 OA
ATOM     60  O   UNL A   1      35.962  33.749  29.652  1.00  0.00    -0.744 OA
ENDBRANCH  54  57
ENDBRANCH  26  50
BRANCH  38  61
ATOM     61  C   UNL A   1      44.671  33.501  29.395  1.00  0.00     0.023 A 
ATOM     62  C   UNL A   1      45.390  33.731  30.585  1.00  0.00     0.012 A 
ATOM     63  C   UNL A   1      44.489  34.554  28.479  1.00  0.00     0.148 A 
ATOM     64  C   UNL A   1      45.884  35.000  30.877  1.00  0.00     0.002 A 
ATOM     65  C   UNL A   1      45.029  35.805  28.755  1.00  0.00     0.091 A 
ATOM     66  F   UNL A   1      43.782  34.321  27.365  1.00  0.00    -0.205 F 
ATOM     67  C   UNL A   1      45.714  36.033  29.958  1.00  0.00     0.022 A 
BRANCH  65  68
ATOM     68  S   UNL A   1      44.936  37.161  27.582  1.00  0.00     0.127 S 
ATOM     69  O   UNL A   1      45.820  36.695  26.515  1.00  0.00    -0.237 OA
ATOM     70  O   UNL A   1      43.515  37.177  27.232  1.00  0.00    -0.237 OA
ATOM     71  O   UNL A   1      45.389  38.342  28.304  1.00  0.00    -0.744 OA
ENDBRANCH  65  68
ENDBRANCH  38  61
ENDBRANCH  12  13
ENDBRANCH   5   7
ENDBRANCH   2   3
ENDBRANCH   1   2
BRANCH   1  72
ATOM     72  C   UNL A   1      35.355  23.118  23.590  1.00  0.00     0.118 C 
BRANCH  72  73
ATOM     73  N   UNL A   1      35.276  24.184  24.565  1.00  0.00    -0.351 N 
ATOM     74  C   UNL A   1      34.211  24.933  24.964  1.00  0.00     0.262 C 
ATOM     75  H   UNL A   1      36.127  24.404  25.011  1.00  0.00     0.163 HD
ATOM     76  O   UNL A   1      34.458  25.864  25.736  1.00  0.00    -0.268 OA
BRANCH  74  77
ATOM     77  C   UNL A   1      32.897  24.688  24.426  1.00  0.00     0.112 A 
ATOM     78  S   UNL A   1      31.960  23.573  25.368  1.00  0.00    -0.137 S 
ATOM     79  C   UNL A   1      32.209  25.091  23.291  1.00  0.00     0.111 A 
ATOM     80  C   UNL A   1      30.633  23.665  24.316  1.00  0.00     0.067 A 
ATOM     81  C   UNL A   1      30.883  24.512  23.265  1.00  0.00     0.035 A 
BRANCH  79  82
ATOM     82  S   UNL A   1      32.652  26.197  22.028  1.00  0.00     0.263 S 
ATOM     83  O   UNL A   1      33.988  25.762  21.658  1.00  0.00    -0.201 OA
ATOM     84  O   UNL A   1      31.599  26.002  21.052  1.00  0.00    -0.201 OA
BRANCH  82  85
ATOM     85  N   UNL A   1      32.770  27.851  22.248  1.00  0.00    -0.277 N 
ATOM     86  H   UNL A   1      33.004  28.397  21.463  1.00  0.00     0.180 HD
BRANCH  85  87
ATOM     87  C   UNL A   1      32.559  28.535  23.482  1.00  0.00     0.072 A 
ATOM     88  C   UNL A   1      33.618  28.518  24.404  1.00  0.00     0.029 A 
ATOM     89  C   UNL A   1      31.330  29.143  23.814  1.00  0.00     0.061 A 
ATOM     90  C   UNL A   1      33.517  29.185  25.622  1.00  0.00     0.002 A 
ATOM     91  C   UNL A   1      31.265  29.825  25.043  1.00  0.00     0.028 A 
ATOM     92  C   UNL A   1      32.345  29.859  25.932  1.00  0.00     0.002 A 
BRANCH  89  93
ATOM     93  N   UNL A   1      30.191  29.037  23.034  1.00  0.00    -0.370 N 
ATOM     94  C   UNL A   1      29.902  30.009  21.983  1.00  0.00     0.116 C 
ATOM     95  C   UNL A   1      29.276  27.913  23.230  1.00  0.00     0.116 C 
ATOM     96  C   UNL A   1      28.460  30.488  22.068  1.00  0.00     0.021 C 
ATOM     97  C   UNL A   1      27.838  28.416  23.322  1.00  0.00     0.021 C 
ATOM     98  C   UNL A   1      27.496  29.306  22.131  1.00  0.00     0.004 C 
ENDBRANCH  89  93
ENDBRANCH  85  87
ENDBRANCH  82  85
ENDBRANCH  79  82
ENDBRANCH  74  77
ENDBRANCH  72  73
ENDBRANCH   1  72
TORSDOF 17
ENDMDL
MODEL 3
REMARK VINA RESULT:     -12.7      4.684     10.236
REMARK SMILES O=C(NCCCNC(=O)c1sccc1S(=O)(=O)Nc1ccccc1N1CCCCC1)c1ccc(-c2c3nc(c(-c4cccc(S(=O)(=O)[O-])c4F)c4ccc([nH]4)c(-c4cccc(S(=O)(=O)[O-])c4F)c4nc(c(-c5cccc(S(=O)(=O)[O-])c5F)c5ccc2[nH]5)C=C4)C=C3)cc1
REMARK SMILES IDX 5 1 4 2 3 3 1 4 2 5 31 7 32 8 93 9 33 10 92 11 34 12 35 13
REMARK SMILES IDX 36 14 86 15 37 16 91 17 85 18 87 19 38 20 90 21 84 22 83 23
REMARK SMILES IDX 39 25 71 26 51 27 70 28 52 29 55 30 69 31 88 32 53 33 54 34
REMARK SMILES IDX 68 36 89 37 56 38 40 39 41 40 49 41 42 42 44 43 50 44 43 45
REMARK SMILES IDX 45 46 46 47 47 48 48 49 72 50 73 51 81 52 74 53 76 54 82 55
REMARK SMILES IDX 75 56 77 57 78 58 79 59 80 60 57 61 58 62 66 63 59 64 61 65
REMARK SMILES IDX 67 66 60 67 62 68 63 69 64 70 65 71 6 72 7 73 8 74 9 76
REMARK SMILES IDX 10 77 11 78 14 79 12 80 13 81 15 82 16 83 17 84 18 85 19 87
REMARK SMILES IDX 20 88 24 89 21 90 23 91 22 92 25 93 26 94 30 95 27 96 29 97
REMARK SMILES IDX 28 98
REMARK H PARENT 3 6 87 24 55 35 7 75 18 86
REMARK Flexibility Score: inf
ROOT
ATOM      1  C   UNL A   1      36.563  22.609  23.611  1.00  0.00     0.042 C 
ENDROOT
BRANCH   1   2
ATOM      2  C   UNL A   1      36.758  22.141  25.048  1.00  0.00     0.118 C 
BRANCH   2   3
ATOM      3  N   UNL A   1      37.766  21.092  25.191  1.00  0.00    -0.352 N 
ATOM      4  O   UNL A   1      39.719  20.131  25.796  1.00  0.00    -0.269 OA
ATOM      5  C   UNL A   1      38.969  21.101  25.860  1.00  0.00     0.251 C 
ATOM      6  H   UNL A   1      37.550  20.247  24.736  1.00  0.00     0.163 HD
BRANCH   5   7
ATOM      7  C   UNL A   1      39.362  22.322  26.584  1.00  0.00     0.039 A 
ATOM      8  C   UNL A   1      38.802  23.540  26.222  1.00  0.00     0.014 A 
ATOM      9  C   UNL A   1      40.411  22.268  27.503  1.00  0.00     0.014 A 
ATOM     10  C   UNL A   1      39.485  24.703  26.526  1.00  0.00     0.010 A 
ATOM     11  C   UNL A   1      40.986  23.458  27.952  1.00  0.00     0.010 A 
ATOM     12  C   UNL A   1      40.583  24.685  27.404  1.00  0.00    -0.014 A 
BRANCH  12  13
ATOM     13  C   UNL A   1      41.258  25.969  27.735  1.00  0.00     0.031 A 
ATOM     14  C   UNL A   1      42.637  26.296  27.220  1.00  0.00     0.074 A 
ATOM     15  C   UNL A   1      40.584  26.867  28.481  1.00  0.00     0.049 A 
ATOM     16  N   UNL A   1      43.346  27.380  27.411  1.00  0.00    -0.248 NA
ATOM     17  C   UNL A   1      43.321  25.281  26.402  1.00  0.00     0.031 C 
ATOM     18  C   UNL A   1      39.256  26.649  29.064  1.00  0.00     0.029 A 
ATOM     19  N   UNL A   1      40.901  28.145  28.860  1.00  0.00    -0.354 N 
ATOM     20  C   UNL A   1      44.577  27.149  26.806  1.00  0.00     0.074 A 
ATOM     21  C   UNL A   1      44.519  25.824  26.229  1.00  0.00     0.031 C 
ATOM     22  C   UNL A   1      38.841  27.773  29.658  1.00  0.00     0.029 A 
ATOM     23  C   UNL A   1      39.909  28.761  29.587  1.00  0.00     0.049 A 
ATOM     24  H   UNL A   1      41.754  28.580  28.635  1.00  0.00     0.167 HD
ATOM     25  C   UNL A   1      45.653  27.970  26.733  1.00  0.00     0.034 A 
ATOM     26  C   UNL A   1      39.864  29.978  30.159  1.00  0.00     0.034 A 
ATOM     27  C   UNL A   1      45.677  29.314  27.252  1.00  0.00     0.049 A 
ATOM     28  C   UNL A   1      41.050  30.881  30.013  1.00  0.00     0.074 A 
ATOM     29  C   UNL A   1      46.691  30.252  27.167  1.00  0.00     0.029 A 
ATOM     30  N   UNL A   1      44.639  29.912  27.951  1.00  0.00    -0.354 N 
ATOM     31  N   UNL A   1      42.165  30.675  29.356  1.00  0.00    -0.248 NA
ATOM     32  C   UNL A   1      40.966  32.189  30.674  1.00  0.00     0.031 C 
ATOM     33  C   UNL A   1      46.274  31.410  27.832  1.00  0.00     0.029 A 
ATOM     34  C   UNL A   1      44.990  31.203  28.310  1.00  0.00     0.049 A 
ATOM     35  H   UNL A   1      43.778  29.483  28.162  1.00  0.00     0.167 HD
ATOM     36  C   UNL A   1      42.910  31.837  29.502  1.00  0.00     0.074 A 
ATOM     37  C   UNL A   1      42.103  32.752  30.286  1.00  0.00     0.031 C 
ATOM     38  C   UNL A   1      44.155  32.115  29.048  1.00  0.00     0.034 A 
BRANCH  25  39
ATOM     39  C   UNL A   1      46.897  27.456  26.050  1.00  0.00     0.023 A 
ATOM     40  C   UNL A   1      47.129  27.749  24.692  1.00  0.00     0.012 A 
ATOM     41  C   UNL A   1      47.874  26.743  26.777  1.00  0.00     0.148 A 
ATOM     42  C   UNL A   1      48.296  27.318  24.060  1.00  0.00     0.002 A 
ATOM     43  C   UNL A   1      49.054  26.354  26.151  1.00  0.00     0.091 A 
ATOM     44  F   UNL A   1      47.630  26.453  28.063  1.00  0.00    -0.205 F 
ATOM     45  C   UNL A   1      49.261  26.630  24.791  1.00  0.00     0.022 A 
BRANCH  43  46
ATOM     46  S   UNL A   1      50.391  25.537  27.031  1.00  0.00     0.127 S 
ATOM     47  O   UNL A   1      51.371  25.342  25.964  1.00  0.00    -0.237 OA
ATOM     48  O   UNL A   1      50.766  26.542  28.027  1.00  0.00    -0.237 OA
ATOM     49  O   UNL A   1      49.818  24.319  27.589  1.00  0.00    -0.744 OA
ENDBRANCH  43  46
ENDBRANCH  25  39
BRANCH  26  50
ATOM     50  C   UNL A   1      38.634  30.408  30.880  1.00  0.00     0.023 A 
ATOM     51  C   UNL A   1      38.549  30.225  32.272  1.00  0.00     0.012 A 
ATOM     52  C   UNL A   1      37.582  31.058  30.206  1.00  0.00     0.148 A 
ATOM     53  C   UNL A   1      37.428  30.663  32.978  1.00  0.00     0.002 A 
ATOM     54  C   UNL A   1      36.500  31.551  30.923  1.00  0.00     0.091 A 
ATOM     55  F   UNL A   1      37.674  31.209  28.876  1.00  0.00    -0.205 F 
ATOM     56  C   UNL A   1      36.412  31.339  32.308  1.00  0.00     0.022 A 
BRANCH  54  57
ATOM     57  S   UNL A   1      35.234  32.571  30.161  1.00  0.00     0.127 S 
ATOM     58  O   UNL A   1      34.758  31.705  29.086  1.00  0.00    -0.237 OA
ATOM     59  O   UNL A   1      34.291  32.763  31.264  1.00  0.00    -0.237 OA
ATOM     60  O   UNL A   1      35.916  33.789  29.743  1.00  0.00    -0.744 OA
ENDBRANCH  54  57
ENDBRANCH  26  50
BRANCH  38  61
ATOM     61  C   UNL A   1      44.706  33.481  29.356  1.00  0.00     0.023 A 
ATOM     62  C   UNL A   1      45.463  33.683  30.528  1.00  0.00     0.012 A 
ATOM     63  C   UNL A   1      44.510  34.551  28.464  1.00  0.00     0.148 A 
ATOM     64  C   UNL A   1      45.981  34.941  30.827  1.00  0.00     0.002 A 
ATOM     65  C   UNL A   1      45.072  35.790  28.744  1.00  0.00     0.091 A 
ATOM     66  F   UNL A   1      43.767  34.345  27.367  1.00  0.00    -0.205 F 
ATOM     67  C   UNL A   1      45.796  35.991  29.930  1.00  0.00     0.022 A 
BRANCH  65  68
ATOM     68  S   UNL A   1      44.962  37.168  27.597  1.00  0.00     0.127 S 
ATOM     69  O   UNL A   1      46.004  36.834  26.627  1.00  0.00    -0.237 OA
ATOM     70  O   UNL A   1      43.594  37.043  27.088  1.00  0.00    -0.237 OA
ATOM     71  O   UNL A   1      45.200  38.366  28.390  1.00  0.00    -0.744 OA
ENDBRANCH  65  68
ENDBRANCH  38  61
ENDBRANCH  12  13
ENDBRANCH   5   7
ENDBRANCH   2   3
ENDBRANCH   1   2
BRANCH   1  72
ATOM     72  C   UNL A   1      35.301  23.435  23.472  1.00  0.00     0.118 C 
BRANCH  72  73
ATOM     73  N   UNL A   1      34.206  22.660  22.929  1.00  0.00    -0.351 N 
ATOM     74  C   UNL A   1      32.980  22.384  23.454  1.00  0.00     0.262 C 
ATOM     75  H   UNL A   1      34.373  22.272  22.039  1.00  0.00     0.163 HD
ATOM     76  O   UNL A   1      32.281  21.590  22.816  1.00  0.00    -0.268 OA
BRANCH  74  77
ATOM     77  C   UNL A   1      32.586  22.926  24.729  1.00  0.00     0.112 A 
ATOM     78  S   UNL A   1      33.038  21.929  26.075  1.00  0.00    -0.137 S 
ATOM     79  C   UNL A   1      31.875  24.042  25.145  1.00  0.00     0.111 A 
ATOM     80  C   UNL A   1      32.349  22.991  27.204  1.00  0.00     0.067 A 
ATOM     81  C   UNL A   1      31.779  24.077  26.588  1.00  0.00     0.035 A 
BRANCH  79  82
ATOM     82  S   UNL A   1      31.209  25.366  24.240  1.00  0.00     0.263 S 
ATOM     83  O   UNL A   1      32.344  25.851  23.474  1.00  0.00    -0.201 OA
ATOM     84  O   UNL A   1      30.133  24.736  23.502  1.00  0.00    -0.201 OA
BRANCH  82  85
ATOM     85  N   UNL A   1      30.541  26.726  24.950  1.00  0.00    -0.277 N 
ATOM     86  H   UNL A   1      30.444  26.724  25.929  1.00  0.00     0.180 HD
BRANCH  85  87
ATOM     87  C   UNL A   1      30.102  27.889  24.249  1.00  0.00     0.072 A 
ATOM     88  C   UNL A   1      29.032  27.721  23.355  1.00  0.00     0.029 A 
ATOM     89  C   UNL A   1      30.740  29.139  24.376  1.00  0.00     0.061 A 
ATOM     90  C   UNL A   1      28.513  28.805  22.650  1.00  0.00     0.002 A 
ATOM     91  C   UNL A   1      30.181  30.219  23.666  1.00  0.00     0.028 A 
ATOM     92  C   UNL A   1      29.076  30.060  22.824  1.00  0.00     0.002 A 
BRANCH  89  93
ATOM     93  N   UNL A   1      31.909  29.331  25.094  1.00  0.00    -0.370 N 
ATOM     94  C   UNL A   1      33.213  29.043  24.504  1.00  0.00     0.116 C 
ATOM     95  C   UNL A   1      31.851  29.870  26.452  1.00  0.00     0.116 C 
ATOM     96  C   UNL A   1      34.070  28.219  25.455  1.00  0.00     0.021 C 
ATOM     97  C   UNL A   1      32.708  29.024  27.390  1.00  0.00     0.021 C 
ATOM     98  C   UNL A   1      34.121  28.862  26.838  1.00  0.00     0.004 C 
ENDBRANCH  89  93
ENDBRANCH  85  87
ENDBRANCH  82  85
ENDBRANCH  79  82
ENDBRANCH  74  77
ENDBRANCH  72  73
ENDBRANCH   1  72
TORSDOF 17
ENDMDL
