MODEL 1
REMARK VINA RESULT:     -11.9      0.000      0.000
REMARK SMILES CC[C@@](C)(NC(=O)c1cc(C)c(Br)s1)C(=O)NCCCNC(=O)c1ccc(-c2c3nc(c(-c4cccc(S(=O)(=O)[O-])c4F)c4ccc([nH]4)c(-c4cccc(S(=O)(=O)[O-])c4F)c4nc(c(-c5cccc(S(=O)(=O)[O-])c5F)c5ccc2[nH]5)C=C4)C=C3)cc1
REMARK SMILES IDX 19 1 18 2 17 3 15 4 16 5 3 7 4 8 2 9 1 10 5 11 6 12 7 14
REMARK SMILES IDX 8 15 9 16 14 17 10 18 12 19 11 20 13 21 20 22 21 23 22 24
REMARK SMILES IDX 23 26 24 27 25 28 86 29 26 30 85 31 27 32 28 33 29 34 79 35
REMARK SMILES IDX 30 36 84 37 78 38 80 39 31 40 83 41 77 42 76 43 32 45 64 46
REMARK SMILES IDX 44 47 63 48 45 49 48 50 62 51 81 52 46 53 47 54 61 56 82 57
REMARK SMILES IDX 49 58 33 59 34 60 42 61 35 62 37 63 43 64 36 65 38 66 39 67
REMARK SMILES IDX 40 68 41 69 65 70 66 71 74 72 67 73 69 74 75 75 68 76 70 77
REMARK SMILES IDX 71 78 72 79 73 80 50 81 51 82 59 83 52 84 54 85 60 86 53 87
REMARK SMILES IDX 55 88 56 89 57 90 58 91
REMARK H PARENT 17 6 5 13 21 25 80 44 48 55
REMARK Flexibility Score: inf
ROOT
ATOM      1  C   UNL A   1      31.268  31.856  26.273  1.00  0.00     0.042 C 
ENDROOT
BRANCH   1   2
ATOM      2  C   UNL A   1      31.412  30.417  25.762  1.00  0.00     0.117 C 
BRANCH   2   3
ATOM      3  N   UNL A   1      31.041  30.105  24.385  1.00  0.00    -0.354 N 
ATOM      4  C   UNL A   1      31.118  28.983  23.593  1.00  0.00     0.245 C 
ATOM      5  O   UNL A   1      30.461  29.033  22.548  1.00  0.00    -0.272 OA
ATOM      6  H   UNL A   1      30.645  30.875  23.916  1.00  0.00     0.163 HD
BRANCH   4   7
ATOM      7  C   UNL A   1      31.870  27.691  24.019  1.00  0.00     0.116 C 
ATOM      8  C   UNL A   1      31.503  26.647  22.934  1.00  0.00     0.045 C 
BRANCH   7   9
ATOM      9  C   UNL A   1      33.429  27.791  24.043  1.00  0.00     0.035 C 
ATOM     10  C   UNL A   1      34.116  28.648  22.982  1.00  0.00     0.007 C 
ENDBRANCH   7   9
BRANCH   7  11
ATOM     11  N   UNL A   1      31.441  27.178  25.345  1.00  0.00    -0.337 N 
ATOM     12  C   UNL A   1      31.523  25.917  25.922  1.00  0.00     0.262 C 
ATOM     13  H   UNL A   1      31.020  27.857  25.921  1.00  0.00     0.164 HD
ATOM     14  O   UNL A   1      30.623  25.699  26.741  1.00  0.00    -0.268 OA
BRANCH  12  15
ATOM     15  C   UNL A   1      32.602  24.971  25.649  1.00  0.00     0.093 A 
ATOM     16  C   UNL A   1      33.960  25.032  25.869  1.00  0.00     0.030 A 
ATOM     17  S   UNL A   1      32.221  23.388  25.082  1.00  0.00    -0.123 S 
ATOM     18  C   UNL A   1      34.721  23.901  25.450  1.00  0.00    -0.025 A 
ATOM     19  C   UNL A   1      33.852  22.897  25.103  1.00  0.00     0.074 A 
ATOM     20  C   UNL A   1      36.217  23.911  25.453  1.00  0.00     0.046 C 
ATOM     21  Br  UNL A   1      34.362  21.133  24.728  1.00  0.00    -0.039 Br
ENDBRANCH  12  15
ENDBRANCH   7  11
ENDBRANCH   4   7
ENDBRANCH   2   3
ENDBRANCH   1   2
BRANCH   1  22
ATOM     22  C   UNL A   1      32.369  32.407  27.171  1.00  0.00     0.118 C 
BRANCH  22  23
ATOM     23  N   UNL A   1      32.232  33.811  27.544  1.00  0.00    -0.352 N 
ATOM     24  C   UNL A   1      32.990  34.524  28.466  1.00  0.00     0.251 C 
ATOM     25  H   UNL A   1      31.519  34.313  27.088  1.00  0.00     0.163 HD
ATOM     26  O   UNL A   1      32.574  35.583  28.907  1.00  0.00    -0.269 OA
BRANCH  24  27
ATOM     27  C   UNL A   1      34.307  34.000  28.907  1.00  0.00     0.039 A 
ATOM     28  C   UNL A   1      34.466  33.348  30.138  1.00  0.00     0.014 A 
ATOM     29  C   UNL A   1      35.407  34.180  28.080  1.00  0.00     0.014 A 
ATOM     30  C   UNL A   1      35.721  32.834  30.494  1.00  0.00     0.010 A 
ATOM     31  C   UNL A   1      36.592  33.549  28.372  1.00  0.00     0.010 A 
ATOM     32  C   UNL A   1      36.791  32.936  29.596  1.00  0.00    -0.014 A 
BRANCH  32  33
ATOM     33  C   UNL A   1      38.062  32.231  29.787  1.00  0.00     0.031 A 
ATOM     34  C   UNL A   1      38.023  30.848  29.245  1.00  0.00     0.074 A 
ATOM     35  C   UNL A   1      39.231  32.829  30.131  1.00  0.00     0.049 A 
ATOM     36  N   UNL A   1      38.002  29.745  29.917  1.00  0.00    -0.248 NA
ATOM     37  C   UNL A   1      37.788  30.668  27.801  1.00  0.00     0.031 C 
ATOM     38  C   UNL A   1      39.462  34.271  30.316  1.00  0.00     0.029 A 
ATOM     39  N   UNL A   1      40.496  32.314  30.252  1.00  0.00    -0.354 N 
ATOM     40  C   UNL A   1      38.072  28.739  28.954  1.00  0.00     0.074 A 
ATOM     41  C   UNL A   1      37.665  29.341  27.715  1.00  0.00     0.031 C 
ATOM     42  C   UNL A   1      40.789  34.531  30.274  1.00  0.00     0.029 A 
ATOM     43  C   UNL A   1      41.512  33.274  30.238  1.00  0.00     0.049 A 
ATOM     44  H   UNL A   1      40.673  31.350  30.340  1.00  0.00     0.167 HD
ATOM     45  C   UNL A   1      38.811  27.621  29.190  1.00  0.00     0.034 A 
ATOM     46  C   UNL A   1      42.853  33.067  30.189  1.00  0.00     0.034 A 
ATOM     47  C   UNL A   1      39.199  27.557  30.576  1.00  0.00     0.049 A 
ATOM     48  C   UNL A   1      43.100  31.692  30.665  1.00  0.00     0.074 A 
ATOM     49  C   UNL A   1      38.604  27.293  31.788  1.00  0.00     0.029 A 
ATOM     50  N   UNL A   1      40.376  28.209  30.824  1.00  0.00    -0.354 N 
ATOM     51  N   UNL A   1      42.892  31.316  31.896  1.00  0.00    -0.248 NA
ATOM     52  C   UNL A   1      43.288  30.617  29.699  1.00  0.00     0.031 C 
ATOM     53  C   UNL A   1      39.411  27.937  32.773  1.00  0.00     0.029 A 
ATOM     54  C   UNL A   1      40.498  28.540  32.141  1.00  0.00     0.049 A 
ATOM     55  H   UNL A   1      41.051  28.415  30.137  1.00  0.00     0.167 HD
ATOM     56  C   UNL A   1      42.454  30.013  31.764  1.00  0.00     0.074 A 
ATOM     57  C   UNL A   1      42.907  29.580  30.449  1.00  0.00     0.031 C 
ATOM     58  C   UNL A   1      41.465  29.529  32.565  1.00  0.00     0.034 A 
BRANCH  45  59
ATOM     59  C   UNL A   1      39.639  26.864  28.160  1.00  0.00     0.023 A 
ATOM     60  C   UNL A   1      39.558  25.450  28.200  1.00  0.00     0.012 A 
ATOM     61  C   UNL A   1      40.693  27.413  27.396  1.00  0.00     0.148 A 
ATOM     62  C   UNL A   1      40.503  24.635  27.566  1.00  0.00     0.002 A 
ATOM     63  C   UNL A   1      41.589  26.600  26.708  1.00  0.00     0.091 A 
ATOM     64  F   UNL A   1      40.936  28.724  27.428  1.00  0.00    -0.205 F 
ATOM     65  C   UNL A   1      41.518  25.210  26.814  1.00  0.00     0.022 A 
BRANCH  63  66
ATOM     66  S   UNL A   1      42.907  27.288  25.696  1.00  0.00     0.127 S 
ATOM     67  O   UNL A   1      43.745  27.928  26.706  1.00  0.00    -0.237 OA
ATOM     68  O   UNL A   1      43.475  26.082  25.091  1.00  0.00    -0.237 OA
ATOM     69  O   UNL A   1      42.250  28.179  24.748  1.00  0.00    -0.744 OA
ENDBRANCH  63  66
ENDBRANCH  45  59
BRANCH  46  70
ATOM     70  C   UNL A   1      43.974  33.894  29.674  1.00  0.00     0.023 A 
ATOM     71  C   UNL A   1      44.860  34.526  30.574  1.00  0.00     0.012 A 
ATOM     72  C   UNL A   1      44.357  33.811  28.320  1.00  0.00     0.148 A 
ATOM     73  C   UNL A   1      46.107  35.003  30.149  1.00  0.00     0.002 A 
ATOM     74  C   UNL A   1      45.606  34.269  27.904  1.00  0.00     0.091 A 
ATOM     75  F   UNL A   1      43.518  33.226  27.458  1.00  0.00    -0.205 F 
ATOM     76  C   UNL A   1      46.489  34.854  28.819  1.00  0.00     0.022 A 
BRANCH  74  77
ATOM     77  S   UNL A   1      46.197  34.070  26.217  1.00  0.00     0.127 S 
ATOM     78  O   UNL A   1      47.469  34.791  26.259  1.00  0.00    -0.237 OA
ATOM     79  O   UNL A   1      46.323  32.618  26.108  1.00  0.00    -0.237 OA
ATOM     80  O   UNL A   1      45.186  34.681  25.364  1.00  0.00    -0.744 OA
ENDBRANCH  74  77
ENDBRANCH  46  70
BRANCH  58  81
ATOM     81  C   UNL A   1      41.268  30.174  33.902  1.00  0.00     0.023 A 
ATOM     82  C   UNL A   1      42.158  30.016  34.981  1.00  0.00     0.012 A 
ATOM     83  C   UNL A   1      40.181  31.052  34.030  1.00  0.00     0.148 A 
ATOM     84  C   UNL A   1      41.955  30.718  36.173  1.00  0.00     0.002 A 
ATOM     85  C   UNL A   1      40.009  31.782  35.195  1.00  0.00     0.091 A 
ATOM     86  F   UNL A   1      39.338  31.171  32.993  1.00  0.00    -0.205 F 
ATOM     87  C   UNL A   1      40.888  31.612  36.274  1.00  0.00     0.022 A 
BRANCH  85  88
ATOM     88  S   UNL A   1      38.725  33.027  35.329  1.00  0.00     0.127 S 
ATOM     89  O   UNL A   1      37.520  32.210  35.450  1.00  0.00    -0.237 OA
ATOM     90  O   UNL A   1      39.108  33.740  36.549  1.00  0.00    -0.237 OA
ATOM     91  O   UNL A   1      38.819  33.833  34.118  1.00  0.00    -0.744 OA
ENDBRANCH  85  88
ENDBRANCH  58  81
ENDBRANCH  32  33
ENDBRANCH  24  27
ENDBRANCH  22  23
ENDBRANCH   1  22
TORSDOF 16
ENDMDL
MODEL 2
REMARK VINA RESULT:     -11.8      4.267      9.520
REMARK SMILES CC[C@@](C)(NC(=O)c1cc(C)c(Br)s1)C(=O)NCCCNC(=O)c1ccc(-c2c3nc(c(-c4cccc(S(=O)(=O)[O-])c4F)c4ccc([nH]4)c(-c4cccc(S(=O)(=O)[O-])c4F)c4nc(c(-c5cccc(S(=O)(=O)[O-])c5F)c5ccc2[nH]5)C=C4)C=C3)cc1
REMARK SMILES IDX 19 1 18 2 17 3 15 4 16 5 3 7 4 8 2 9 1 10 5 11 6 12 7 14
REMARK SMILES IDX 8 15 9 16 14 17 10 18 12 19 11 20 13 21 20 22 21 23 22 24
REMARK SMILES IDX 23 26 24 27 25 28 86 29 26 30 85 31 27 32 28 33 29 34 79 35
REMARK SMILES IDX 30 36 84 37 78 38 80 39 31 40 83 41 77 42 76 43 32 45 64 46
REMARK SMILES IDX 44 47 63 48 45 49 48 50 62 51 81 52 46 53 47 54 61 56 82 57
REMARK SMILES IDX 49 58 33 59 34 60 42 61 35 62 37 63 43 64 36 65 38 66 39 67
REMARK SMILES IDX 40 68 41 69 65 70 66 71 74 72 67 73 69 74 75 75 68 76 70 77
REMARK SMILES IDX 71 78 72 79 73 80 50 81 51 82 59 83 52 84 54 85 60 86 53 87
REMARK SMILES IDX 55 88 56 89 57 90 58 91
REMARK H PARENT 17 6 5 13 21 25 80 44 48 55
REMARK Flexibility Score: inf
ROOT
ATOM      1  C   UNL A   1      37.277  19.696  24.929  1.00  0.00     0.042 C 
ENDROOT
BRANCH   1   2
ATOM      2  C   UNL A   1      36.042  20.575  25.164  1.00  0.00     0.117 C 
BRANCH   2   3
ATOM      3  N   UNL A   1      34.755  19.943  25.432  1.00  0.00    -0.354 N 
ATOM      4  C   UNL A   1      33.464  20.398  25.571  1.00  0.00     0.245 C 
ATOM      5  O   UNL A   1      32.592  19.523  25.541  1.00  0.00    -0.272 OA
ATOM      6  H   UNL A   1      34.827  18.967  25.539  1.00  0.00     0.163 HD
BRANCH   4   7
ATOM      7  C   UNL A   1      33.097  21.907  25.638  1.00  0.00     0.116 C 
ATOM      8  C   UNL A   1      34.132  22.521  26.614  1.00  0.00     0.045 C 
BRANCH   7   9
ATOM      9  C   UNL A   1      33.218  22.694  24.294  1.00  0.00     0.035 C 
ATOM     10  C   UNL A   1      32.448  22.178  23.081  1.00  0.00     0.007 C 
ENDBRANCH   7   9
BRANCH   7  11
ATOM     11  N   UNL A   1      31.732  22.151  26.170  1.00  0.00    -0.337 N 
ATOM     12  C   UNL A   1      31.047  23.324  26.466  1.00  0.00     0.262 C 
ATOM     13  H   UNL A   1      31.216  21.330  26.346  1.00  0.00     0.164 HD
ATOM     14  O   UNL A   1      30.214  23.184  27.367  1.00  0.00    -0.268 OA
BRANCH  12  15
ATOM     15  C   UNL A   1      31.237  24.576  25.738  1.00  0.00     0.093 A 
ATOM     16  C   UNL A   1      30.597  25.112  24.643  1.00  0.00     0.030 A 
ATOM     17  S   UNL A   1      32.333  25.757  26.351  1.00  0.00    -0.123 S 
ATOM     18  C   UNL A   1      31.071  26.378  24.189  1.00  0.00    -0.025 A 
ATOM     19  C   UNL A   1      31.951  26.872  25.120  1.00  0.00     0.074 A 
ATOM     20  C   UNL A   1      30.600  26.985  22.905  1.00  0.00     0.046 C 
ATOM     21  Br  UNL A   1      32.649  28.610  25.104  1.00  0.00    -0.039 Br
ENDBRANCH  12  15
ENDBRANCH   7  11
ENDBRANCH   4   7
ENDBRANCH   2   3
ENDBRANCH   1   2
BRANCH   1  22
ATOM     22  C   UNL A   1      38.616  20.193  25.461  1.00  0.00     0.118 C 
BRANCH  22  23
ATOM     23  N   UNL A   1      39.644  19.171  25.631  1.00  0.00    -0.352 N 
ATOM     24  C   UNL A   1      40.987  19.357  25.941  1.00  0.00     0.251 C 
ATOM     25  H   UNL A   1      39.352  18.239  25.511  1.00  0.00     0.163 HD
ATOM     26  O   UNL A   1      41.788  18.458  25.743  1.00  0.00    -0.269 OA
BRANCH  24  27
ATOM     27  C   UNL A   1      41.442  20.646  26.521  1.00  0.00     0.039 A 
ATOM     28  C   UNL A   1      41.952  21.676  25.718  1.00  0.00     0.014 A 
ATOM     29  C   UNL A   1      41.372  20.820  27.896  1.00  0.00     0.014 A 
ATOM     30  C   UNL A   1      42.331  22.890  26.306  1.00  0.00     0.010 A 
ATOM     31  C   UNL A   1      41.609  22.060  28.441  1.00  0.00     0.010 A 
ATOM     32  C   UNL A   1      42.153  23.079  27.682  1.00  0.00    -0.014 A 
BRANCH  32  33
ATOM     33  C   UNL A   1      42.305  24.384  28.334  1.00  0.00     0.031 A 
ATOM     34  C   UNL A   1      41.125  25.260  28.117  1.00  0.00     0.074 A 
ATOM     35  C   UNL A   1      43.245  24.673  29.270  1.00  0.00     0.049 A 
ATOM     36  N   UNL A   1      41.060  26.314  27.373  1.00  0.00    -0.248 NA
ATOM     37  C   UNL A   1      39.817  24.813  28.629  1.00  0.00     0.031 C 
ATOM     38  C   UNL A   1      44.231  23.744  29.844  1.00  0.00     0.029 A 
ATOM     39  N   UNL A   1      43.441  25.805  30.019  1.00  0.00    -0.354 N 
ATOM     40  C   UNL A   1      39.781  26.825  27.590  1.00  0.00     0.074 A 
ATOM     41  C   UNL A   1      39.002  25.744  28.126  1.00  0.00     0.031 C 
ATOM     42  C   UNL A   1      44.732  24.258  30.991  1.00  0.00     0.029 A 
ATOM     43  C   UNL A   1      44.246  25.616  31.146  1.00  0.00     0.049 A 
ATOM     44  H   UNL A   1      43.048  26.675  29.782  1.00  0.00     0.167 HD
ATOM     45  C   UNL A   1      39.589  28.171  27.663  1.00  0.00     0.034 A 
ATOM     46  C   UNL A   1      44.496  26.498  32.148  1.00  0.00     0.034 A 
ATOM     47  C   UNL A   1      40.766  28.872  27.217  1.00  0.00     0.049 A 
ATOM     48  C   UNL A   1      44.210  27.847  31.623  1.00  0.00     0.074 A 
ATOM     49  C   UNL A   1      41.405  29.133  26.027  1.00  0.00     0.029 A 
ATOM     50  N   UNL A   1      41.661  29.093  28.228  1.00  0.00    -0.354 N 
ATOM     51  N   UNL A   1      44.920  28.413  30.687  1.00  0.00    -0.248 NA
ATOM     52  C   UNL A   1      42.927  28.476  31.910  1.00  0.00     0.031 C 
ATOM     53  C   UNL A   1      42.769  29.389  26.360  1.00  0.00     0.029 A 
ATOM     54  C   UNL A   1      42.916  29.322  27.745  1.00  0.00     0.049 A 
ATOM     55  H   UNL A   1      41.429  29.087  29.184  1.00  0.00     0.167 HD
ATOM     56  C   UNL A   1      43.988  29.139  29.971  1.00  0.00     0.074 A 
ATOM     57  C   UNL A   1      42.851  29.305  30.866  1.00  0.00     0.031 C 
ATOM     58  C   UNL A   1      44.068  29.222  28.614  1.00  0.00     0.034 A 
BRANCH  45  59
ATOM     59  C   UNL A   1      38.616  28.885  28.591  1.00  0.00     0.023 A 
ATOM     60  C   UNL A   1      37.826  29.908  28.012  1.00  0.00     0.012 A 
ATOM     61  C   UNL A   1      38.651  28.839  30.003  1.00  0.00     0.148 A 
ATOM     62  C   UNL A   1      37.159  30.862  28.791  1.00  0.00     0.002 A 
ATOM     63  C   UNL A   1      37.930  29.746  30.775  1.00  0.00     0.091 A 
ATOM     64  F   UNL A   1      39.487  28.010  30.629  1.00  0.00    -0.205 F 
ATOM     65  C   UNL A   1      37.207  30.778  30.175  1.00  0.00     0.022 A 
BRANCH  63  66
ATOM     66  S   UNL A   1      37.931  29.670  32.572  1.00  0.00     0.127 S 
ATOM     67  O   UNL A   1      36.966  30.712  32.908  1.00  0.00    -0.237 OA
ATOM     68  O   UNL A   1      37.475  28.300  32.810  1.00  0.00    -0.237 OA
ATOM     69  O   UNL A   1      39.310  29.917  32.974  1.00  0.00    -0.744 OA
ENDBRANCH  63  66
ENDBRANCH  45  59
BRANCH  46  70
ATOM     70  C   UNL A   1      44.865  26.312  33.574  1.00  0.00     0.023 A 
ATOM     71  C   UNL A   1      46.186  26.565  34.004  1.00  0.00     0.012 A 
ATOM     72  C   UNL A   1      43.864  26.188  34.559  1.00  0.00     0.148 A 
ATOM     73  C   UNL A   1      46.485  26.749  35.360  1.00  0.00     0.002 A 
ATOM     74  C   UNL A   1      44.160  26.391  35.905  1.00  0.00     0.091 A 
ATOM     75  F   UNL A   1      42.612  25.935  34.162  1.00  0.00    -0.205 F 
ATOM     76  C   UNL A   1      45.469  26.685  36.308  1.00  0.00     0.022 A 
BRANCH  74  77
ATOM     77  S   UNL A   1      42.899  26.375  37.188  1.00  0.00     0.127 S 
ATOM     78  O   UNL A   1      42.328  25.038  37.029  1.00  0.00    -0.237 OA
ATOM     79  O   UNL A   1      43.695  26.559  38.399  1.00  0.00    -0.237 OA
ATOM     80  O   UNL A   1      41.985  27.463  36.863  1.00  0.00    -0.744 OA
ENDBRANCH  74  77
ENDBRANCH  46  70
BRANCH  58  81
ATOM     81  C   UNL A   1      45.412  29.038  27.979  1.00  0.00     0.023 A 
ATOM     82  C   UNL A   1      46.410  30.031  27.968  1.00  0.00     0.012 A 
ATOM     83  C   UNL A   1      45.699  27.768  27.457  1.00  0.00     0.148 A 
ATOM     84  C   UNL A   1      47.671  29.758  27.432  1.00  0.00     0.002 A 
ATOM     85  C   UNL A   1      46.965  27.486  26.970  1.00  0.00     0.091 A 
ATOM     86  F   UNL A   1      44.724  26.845  27.464  1.00  0.00    -0.205 F 
ATOM     87  C   UNL A   1      47.954  28.481  26.946  1.00  0.00     0.022 A 
BRANCH  85  88
ATOM     88  S   UNL A   1      47.409  25.830  26.444  1.00  0.00     0.127 S 
ATOM     89  O   UNL A   1      48.807  25.998  26.054  1.00  0.00    -0.237 OA
ATOM     90  O   UNL A   1      47.203  25.049  27.665  1.00  0.00    -0.237 OA
ATOM     91  O   UNL A   1      46.491  25.492  25.363  1.00  0.00    -0.744 OA
ENDBRANCH  85  88
ENDBRANCH  58  81
ENDBRANCH  32  33
ENDBRANCH  24  27
ENDBRANCH  22  23
ENDBRANCH   1  22
TORSDOF 16
ENDMDL
MODEL 3
REMARK VINA RESULT:     -11.1      1.491      1.806
REMARK SMILES CC[C@@](C)(NC(=O)c1cc(C)c(Br)s1)C(=O)NCCCNC(=O)c1ccc(-c2c3nc(c(-c4cccc(S(=O)(=O)[O-])c4F)c4ccc([nH]4)c(-c4cccc(S(=O)(=O)[O-])c4F)c4nc(c(-c5cccc(S(=O)(=O)[O-])c5F)c5ccc2[nH]5)C=C4)C=C3)cc1
REMARK SMILES IDX 19 1 18 2 17 3 15 4 16 5 3 7 4 8 2 9 1 10 5 11 6 12 7 14
REMARK SMILES IDX 8 15 9 16 14 17 10 18 12 19 11 20 13 21 20 22 21 23 22 24
REMARK SMILES IDX 23 26 24 27 25 28 86 29 26 30 85 31 27 32 28 33 29 34 79 35
REMARK SMILES IDX 30 36 84 37 78 38 80 39 31 40 83 41 77 42 76 43 32 45 64 46
REMARK SMILES IDX 44 47 63 48 45 49 48 50 62 51 81 52 46 53 47 54 61 56 82 57
REMARK SMILES IDX 49 58 33 59 34 60 42 61 35 62 37 63 43 64 36 65 38 66 39 67
REMARK SMILES IDX 40 68 41 69 65 70 66 71 74 72 67 73 69 74 75 75 68 76 70 77
REMARK SMILES IDX 71 78 72 79 73 80 50 81 51 82 59 83 52 84 54 85 60 86 53 87
REMARK SMILES IDX 55 88 56 89 57 90 58 91
REMARK H PARENT 17 6 5 13 21 25 80 44 48 55
REMARK Flexibility Score: inf
ROOT
ATOM      1  C   UNL A   1      31.139  31.806  26.381  1.00  0.00     0.042 C 
ENDROOT
BRANCH   1   2
ATOM      2  C   UNL A   1      31.400  30.520  25.587  1.00  0.00     0.117 C 
BRANCH   2   3
ATOM      3  N   UNL A   1      30.687  30.297  24.333  1.00  0.00    -0.354 N 
ATOM      4  C   UNL A   1      30.508  29.216  23.501  1.00  0.00     0.245 C 
ATOM      5  O   UNL A   1      29.619  29.347  22.653  1.00  0.00    -0.272 OA
ATOM      6  H   UNL A   1      30.230  31.106  24.008  1.00  0.00     0.163 HD
BRANCH   4   7
ATOM      7  C   UNL A   1      31.272  27.873  23.676  1.00  0.00     0.116 C 
ATOM      8  C   UNL A   1      30.353  26.810  23.022  1.00  0.00     0.045 C 
BRANCH   7   9
ATOM      9  C   UNL A   1      32.655  27.782  22.955  1.00  0.00     0.035 C 
ATOM     10  C   UNL A   1      33.806  28.632  23.487  1.00  0.00     0.007 C 
ENDBRANCH   7   9
BRANCH   7  11
ATOM     11  N   UNL A   1      31.491  27.508  25.098  1.00  0.00    -0.337 N 
ATOM     12  C   UNL A   1      31.729  26.287  25.717  1.00  0.00     0.262 C 
ATOM     13  H   UNL A   1      31.462  28.274  25.719  1.00  0.00     0.164 HD
ATOM     14  O   UNL A   1      31.320  26.246  26.882  1.00  0.00    -0.268 OA
BRANCH  12  15
ATOM     15  C   UNL A   1      32.455  25.189  25.085  1.00  0.00     0.093 A 
ATOM     16  C   UNL A   1      32.035  24.133  24.307  1.00  0.00     0.030 A 
ATOM     17  S   UNL A   1      34.179  25.178  25.119  1.00  0.00    -0.123 S 
ATOM     18  C   UNL A   1      33.046  23.227  23.869  1.00  0.00    -0.025 A 
ATOM     19  C   UNL A   1      34.273  23.768  24.168  1.00  0.00     0.074 A 
ATOM     20  C   UNL A   1      32.712  21.941  23.182  1.00  0.00     0.046 C 
ATOM     21  Br  UNL A   1      35.910  23.081  23.571  1.00  0.00    -0.039 Br
ENDBRANCH  12  15
ENDBRANCH   7  11
ENDBRANCH   4   7
ENDBRANCH   2   3
ENDBRANCH   1   2
BRANCH   1  22
ATOM     22  C   UNL A   1      32.298  32.401  27.174  1.00  0.00     0.118 C 
BRANCH  22  23
ATOM     23  N   UNL A   1      32.165  33.813  27.517  1.00  0.00    -0.352 N 
ATOM     24  C   UNL A   1      32.930  34.545  28.419  1.00  0.00     0.251 C 
ATOM     25  H   UNL A   1      31.450  34.306  27.055  1.00  0.00     0.163 HD
ATOM     26  O   UNL A   1      32.518  35.614  28.840  1.00  0.00    -0.269 OA
BRANCH  24  27
ATOM     27  C   UNL A   1      34.250  34.029  28.862  1.00  0.00     0.039 A 
ATOM     28  C   UNL A   1      34.401  33.336  30.072  1.00  0.00     0.014 A 
ATOM     29  C   UNL A   1      35.359  34.257  28.060  1.00  0.00     0.014 A 
ATOM     30  C   UNL A   1      35.659  32.832  30.429  1.00  0.00     0.010 A 
ATOM     31  C   UNL A   1      36.550  33.636  28.348  1.00  0.00     0.010 A 
ATOM     32  C   UNL A   1      36.741  32.984  29.553  1.00  0.00    -0.014 A 
BRANCH  32  33
ATOM     33  C   UNL A   1      38.021  32.294  29.739  1.00  0.00     0.031 A 
ATOM     34  C   UNL A   1      37.986  30.899  29.232  1.00  0.00     0.074 A 
ATOM     35  C   UNL A   1      39.191  32.911  30.050  1.00  0.00     0.049 A 
ATOM     36  N   UNL A   1      37.986  29.812  29.930  1.00  0.00    -0.248 NA
ATOM     37  C   UNL A   1      37.729  30.682  27.797  1.00  0.00     0.031 C 
ATOM     38  C   UNL A   1      39.412  34.359  30.196  1.00  0.00     0.029 A 
ATOM     39  N   UNL A   1      40.462  32.410  30.162  1.00  0.00    -0.354 N 
ATOM     40  C   UNL A   1      38.049  28.784  28.990  1.00  0.00     0.074 A 
ATOM     41  C   UNL A   1      37.617  29.353  27.744  1.00  0.00     0.031 C 
ATOM     42  C   UNL A   1      40.735  34.630  30.126  1.00  0.00     0.029 A 
ATOM     43  C   UNL A   1      41.469  33.379  30.108  1.00  0.00     0.049 A 
ATOM     44  H   UNL A   1      40.649  31.450  30.270  1.00  0.00     0.167 HD
ATOM     45  C   UNL A   1      38.803  27.678  29.240  1.00  0.00     0.034 A 
ATOM     46  C   UNL A   1      42.811  33.182  30.042  1.00  0.00     0.034 A 
ATOM     47  C   UNL A   1      39.213  27.651  30.621  1.00  0.00     0.049 A 
ATOM     48  C   UNL A   1      43.078  31.821  30.546  1.00  0.00     0.074 A 
ATOM     49  C   UNL A   1      38.641  27.411  31.848  1.00  0.00     0.029 A 
ATOM     50  N   UNL A   1      40.389  28.319  30.833  1.00  0.00    -0.354 N 
ATOM     51  N   UNL A   1      42.893  31.473  31.789  1.00  0.00    -0.248 NA
ATOM     52  C   UNL A   1      43.259  30.725  29.603  1.00  0.00     0.031 C 
ATOM     53  C   UNL A   1      39.458  28.086  32.804  1.00  0.00     0.029 A 
ATOM     54  C   UNL A   1      40.529  28.682  32.140  1.00  0.00     0.049 A 
ATOM     55  H   UNL A   1      41.050  28.515  30.131  1.00  0.00     0.167 HD
ATOM     56  C   UNL A   1      42.466  30.163  31.696  1.00  0.00     0.074 A 
ATOM     57  C   UNL A   1      42.900  29.703  30.384  1.00  0.00     0.031 C 
ATOM     58  C   UNL A   1      41.494  29.690  32.524  1.00  0.00     0.034 A 
BRANCH  45  59
ATOM     59  C   UNL A   1      39.621  26.905  28.215  1.00  0.00     0.023 A 
ATOM     60  C   UNL A   1      39.528  25.492  28.269  1.00  0.00     0.012 A 
ATOM     61  C   UNL A   1      40.676  27.437  27.442  1.00  0.00     0.148 A 
ATOM     62  C   UNL A   1      40.463  24.662  27.640  1.00  0.00     0.002 A 
ATOM     63  C   UNL A   1      41.563  26.609  26.759  1.00  0.00     0.091 A 
ATOM     64  F   UNL A   1      40.930  28.746  27.459  1.00  0.00    -0.205 F 
ATOM     65  C   UNL A   1      41.480  25.221  26.879  1.00  0.00     0.022 A 
BRANCH  63  66
ATOM     66  S   UNL A   1      42.883  27.276  25.735  1.00  0.00     0.127 S 
ATOM     67  O   UNL A   1      43.684  27.990  26.724  1.00  0.00    -0.237 OA
ATOM     68  O   UNL A   1      43.492  26.054  25.206  1.00  0.00    -0.237 OA
ATOM     69  O   UNL A   1      42.222  28.097  24.729  1.00  0.00    -0.744 OA
ENDBRANCH  63  66
ENDBRANCH  45  59
BRANCH  46  70
ATOM     70  C   UNL A   1      43.915  34.006  29.488  1.00  0.00     0.023 A 
ATOM     71  C   UNL A   1      44.116  34.076  28.092  1.00  0.00     0.012 A 
ATOM     72  C   UNL A   1      44.569  34.957  30.297  1.00  0.00     0.148 A 
ATOM     73  C   UNL A   1      44.891  35.094  27.520  1.00  0.00     0.002 A 
ATOM     74  C   UNL A   1      45.323  35.980  29.725  1.00  0.00     0.091 A 
ATOM     75  F   UNL A   1      44.395  34.891  31.622  1.00  0.00    -0.205 F 
ATOM     76  C   UNL A   1      45.475  36.059  28.335  1.00  0.00     0.022 A 
BRANCH  74  77
ATOM     77  S   UNL A   1      46.069  37.295  30.700  1.00  0.00     0.127 S 
ATOM     78  O   UNL A   1      46.730  36.540  31.764  1.00  0.00    -0.237 OA
ATOM     79  O   UNL A   1      46.977  37.910  29.735  1.00  0.00    -0.237 OA
ATOM     80  O   UNL A   1      44.966  38.134  31.151  1.00  0.00    -0.744 OA
ENDBRANCH  74  77
ENDBRANCH  46  70
BRANCH  58  81
ATOM     81  C   UNL A   1      41.313  30.366  33.848  1.00  0.00     0.023 A 
ATOM     82  C   UNL A   1      42.194  30.198  34.934  1.00  0.00     0.012 A 
ATOM     83  C   UNL A   1      40.255  31.281  33.956  1.00  0.00     0.148 A 
ATOM     84  C   UNL A   1      42.009  30.928  36.112  1.00  0.00     0.002 A 
ATOM     85  C   UNL A   1      40.103  32.037  35.107  1.00  0.00     0.091 A 
ATOM     86  F   UNL A   1      39.420  31.408  32.913  1.00  0.00    -0.205 F 
ATOM     87  C   UNL A   1      40.972  31.858  36.193  1.00  0.00     0.022 A 
BRANCH  85  88
ATOM     88  S   UNL A   1      38.860  33.325  35.213  1.00  0.00     0.127 S 
ATOM     89  O   UNL A   1      39.179  34.154  34.054  1.00  0.00    -0.237 OA
ATOM     90  O   UNL A   1      37.613  32.566  35.099  1.00  0.00    -0.237 OA
ATOM     91  O   UNL A   1      39.050  33.960  36.512  1.00  0.00    -0.744 OA
ENDBRANCH  85  88
ENDBRANCH  58  81
ENDBRANCH  32  33
ENDBRANCH  24  27
ENDBRANCH  22  23
ENDBRANCH   1  22
TORSDOF 16
ENDMDL
