MODEL 1
REMARK VINA RESULT:     -11.9      0.000      0.000
REMARK SMILES CC(=O)Nc1cccc(NC(=O)N[C@H](C(=O)NCCCNC(=O)c2ccc(-c3c4nc(c(-c5cccc(S(=O)(=O)[O-])c5F)c5ccc([nH]5)c(-c5cccc(S(=O)(=O)[O-])c5F)c5nc(c(-c6cccc(S(=O)(=O)[O-])c6F)c6ccc3[nH]6)C=C5)C=C4)cc2)C(C)C)c1
REMARK SMILES IDX 19 1 18 2 17 3 15 4 16 5 14 7 13 8 10 9 11 10 12 12 9 14
REMARK SMILES IDX 5 15 6 16 90 17 7 18 8 19 4 20 1 21 2 22 3 23 87 25 88 26
REMARK SMILES IDX 89 27 20 28 21 29 22 30 23 32 24 33 25 34 86 35 26 36 85 37
REMARK SMILES IDX 27 38 28 39 29 40 79 41 30 42 84 43 78 44 80 45 31 46 83 47
REMARK SMILES IDX 77 48 76 49 32 51 64 52 44 53 63 54 45 55 48 56 62 57 81 58
REMARK SMILES IDX 46 59 47 60 61 62 82 63 49 64 33 65 34 66 42 67 35 68 37 69
REMARK SMILES IDX 43 70 36 71 38 72 39 73 40 74 41 75 65 76 66 77 74 78 67 79
REMARK SMILES IDX 69 80 75 81 68 82 70 83 71 84 72 85 73 86 50 87 51 88 59 89
REMARK SMILES IDX 52 90 54 91 60 92 53 93 55 94 56 95 57 96 58 97
REMARK H PARENT 17 6 10 11 13 13 4 24 21 31 80 50 48 61
REMARK Flexibility Score: inf
ROOT
ATOM      1  C   UNL A   1      38.250  19.486  24.999  1.00  0.00     0.042 C 
ENDROOT
BRANCH   1   2
ATOM      2  C   UNL A   1      37.129  20.508  24.892  1.00  0.00     0.117 C 
BRANCH   2   3
ATOM      3  N   UNL A   1      37.510  21.798  25.437  1.00  0.00    -0.354 N 
ATOM      4  C   UNL A   1      36.722  22.863  25.777  1.00  0.00     0.242 C 
ATOM      5  O   UNL A   1      37.314  23.898  26.088  1.00  0.00    -0.273 OA
ATOM      6  H   UNL A   1      38.475  21.925  25.583  1.00  0.00     0.163 HD
BRANCH   4   7
ATOM      7  C   UNL A   1      35.185  22.788  25.555  1.00  0.00     0.175 C 
BRANCH   7   8
ATOM      8  N   UNL A   1      34.335  22.812  26.762  1.00  0.00    -0.326 N 
ATOM      9  N   UNL A   1      32.447  21.374  26.540  1.00  0.00    -0.308 N 
ATOM     10  C   UNL A   1      33.265  22.173  27.242  1.00  0.00     0.319 C 
ATOM     11  H   UNL A   1      31.520  21.416  26.868  1.00  0.00     0.171 HD
ATOM     12  O   UNL A   1      32.896  22.508  28.374  1.00  0.00    -0.248 OA
ATOM     13  H   UNL A   1      34.647  23.498  27.396  1.00  0.00     0.166 HD
BRANCH   9  14
ATOM     14  C   UNL A   1      32.579  20.496  25.460  1.00  0.00     0.044 A 
ATOM     15  C   UNL A   1      33.499  18.389  24.641  1.00  0.00     0.043 A 
ATOM     16  C   UNL A   1      33.009  18.700  23.368  1.00  0.00     0.026 A 
ATOM     17  C   UNL A   1      33.292  19.302  25.676  1.00  0.00     0.052 A 
ATOM     18  C   UNL A   1      32.343  19.901  23.136  1.00  0.00     0.004 A 
ATOM     19  C   UNL A   1      32.152  20.806  24.178  1.00  0.00     0.026 A 
BRANCH  15  20
ATOM     20  N   UNL A   1      34.236  17.196  24.748  1.00  0.00    -0.326 N 
ATOM     21  C   UNL A   1      32.528  15.507  25.437  1.00  0.00     0.114 C 
ATOM     22  C   UNL A   1      33.944  15.945  25.199  1.00  0.00     0.221 C 
ATOM     23  O   UNL A   1      34.880  15.159  25.375  1.00  0.00    -0.275 OA
ATOM     24  H   UNL A   1      35.163  17.285  24.426  1.00  0.00     0.169 HD
ENDBRANCH  15  20
ENDBRANCH   9  14
ENDBRANCH   7   8
BRANCH   7  25
ATOM     25  C   UNL A   1      34.497  23.586  24.407  1.00  0.00     0.015 C 
ATOM     26  C   UNL A   1      34.401  25.099  24.589  1.00  0.00     0.010 C 
ATOM     27  C   UNL A   1      35.223  23.313  23.074  1.00  0.00     0.010 C 
ENDBRANCH   7  25
ENDBRANCH   4   7
ENDBRANCH   2   3
ENDBRANCH   1   2
BRANCH   1  28
ATOM     28  C   UNL A   1      39.187  19.725  26.177  1.00  0.00     0.118 C 
BRANCH  28  29
ATOM     29  N   UNL A   1      40.423  18.959  26.087  1.00  0.00    -0.352 N 
ATOM     30  C   UNL A   1      41.722  19.411  26.143  1.00  0.00     0.251 C 
ATOM     31  H   UNL A   1      40.315  17.988  25.971  1.00  0.00     0.163 HD
ATOM     32  O   UNL A   1      42.650  18.638  25.922  1.00  0.00    -0.269 OA
BRANCH  30  33
ATOM     33  C   UNL A   1      41.991  20.837  26.438  1.00  0.00     0.039 A 
ATOM     34  C   UNL A   1      42.403  21.200  27.723  1.00  0.00     0.014 A 
ATOM     35  C   UNL A   1      41.869  21.806  25.440  1.00  0.00     0.014 A 
ATOM     36  C   UNL A   1      42.760  22.527  27.986  1.00  0.00     0.010 A 
ATOM     37  C   UNL A   1      42.304  23.106  25.682  1.00  0.00     0.010 A 
ATOM     38  C   UNL A   1      42.746  23.483  26.959  1.00  0.00    -0.014 A 
BRANCH  38  39
ATOM     39  C   UNL A   1      43.176  24.887  27.195  1.00  0.00     0.031 A 
ATOM     40  C   UNL A   1      42.242  25.857  27.870  1.00  0.00     0.074 A 
ATOM     41  C   UNL A   1      44.360  25.319  26.715  1.00  0.00     0.049 A 
ATOM     42  N   UNL A   1      42.401  27.135  28.094  1.00  0.00    -0.248 NA
ATOM     43  C   UNL A   1      40.942  25.329  28.319  1.00  0.00     0.031 C 
ATOM     44  C   UNL A   1      45.314  24.507  25.957  1.00  0.00     0.029 A 
ATOM     45  N   UNL A   1      44.950  26.557  26.771  1.00  0.00    -0.354 N 
ATOM     46  C   UNL A   1      41.209  27.574  28.658  1.00  0.00     0.074 A 
ATOM     47  C   UNL A   1      40.323  26.432  28.713  1.00  0.00     0.031 C 
ATOM     48  C   UNL A   1      46.372  25.267  25.624  1.00  0.00     0.029 A 
ATOM     49  C   UNL A   1      46.167  26.620  26.131  1.00  0.00     0.049 A 
ATOM     50  H   UNL A   1      44.541  27.328  27.225  1.00  0.00     0.167 HD
ATOM     51  C   UNL A   1      40.889  28.804  29.124  1.00  0.00     0.034 A 
ATOM     52  C   UNL A   1      47.024  27.649  25.980  1.00  0.00     0.034 A 
ATOM     53  C   UNL A   1      41.798  29.917  29.147  1.00  0.00     0.049 A 
ATOM     54  C   UNL A   1      46.695  28.975  26.613  1.00  0.00     0.074 A 
ATOM     55  C   UNL A   1      41.605  31.177  29.685  1.00  0.00     0.029 A 
ATOM     56  N   UNL A   1      43.081  29.898  28.623  1.00  0.00    -0.354 N 
ATOM     57  N   UNL A   1      45.627  29.322  27.289  1.00  0.00    -0.248 NA
ATOM     58  C   UNL A   1      47.707  30.036  26.504  1.00  0.00     0.031 C 
ATOM     59  C   UNL A   1      42.777  31.917  29.494  1.00  0.00     0.029 A 
ATOM     60  C   UNL A   1      43.699  31.117  28.838  1.00  0.00     0.049 A 
ATOM     61  H   UNL A   1      43.493  29.129  28.165  1.00  0.00     0.167 HD
ATOM     62  C   UNL A   1      45.854  30.625  27.718  1.00  0.00     0.074 A 
ATOM     63  C   UNL A   1      47.170  30.999  27.242  1.00  0.00     0.031 C 
ATOM     64  C   UNL A   1      45.039  31.444  28.426  1.00  0.00     0.034 A 
BRANCH  51  65
ATOM     65  C   UNL A   1      39.521  28.986  29.724  1.00  0.00     0.023 A 
ATOM     66  C   UNL A   1      39.282  28.536  31.039  1.00  0.00     0.012 A 
ATOM     67  C   UNL A   1      38.490  29.633  29.017  1.00  0.00     0.148 A 
ATOM     68  C   UNL A   1      38.029  28.694  31.628  1.00  0.00     0.002 A 
ATOM     69  C   UNL A   1      37.254  29.824  29.626  1.00  0.00     0.091 A 
ATOM     70  F   UNL A   1      38.727  30.032  27.759  1.00  0.00    -0.205 F 
ATOM     71  C   UNL A   1      37.019  29.346  30.925  1.00  0.00     0.022 A 
BRANCH  69  72
ATOM     72  S   UNL A   1      35.918  30.720  28.827  1.00  0.00     0.127 S 
ATOM     73  O   UNL A   1      35.238  29.650  28.098  1.00  0.00    -0.237 OA
ATOM     74  O   UNL A   1      35.169  31.250  29.967  1.00  0.00    -0.237 OA
ATOM     75  O   UNL A   1      36.559  31.735  28.004  1.00  0.00    -0.744 OA
ENDBRANCH  69  72
ENDBRANCH  51  65
BRANCH  52  76
ATOM     76  C   UNL A   1      48.330  27.433  25.295  1.00  0.00     0.023 A 
ATOM     77  C   UNL A   1      49.444  27.034  26.059  1.00  0.00     0.012 A 
ATOM     78  C   UNL A   1      48.471  27.577  23.902  1.00  0.00     0.148 A 
ATOM     79  C   UNL A   1      50.681  26.812  25.455  1.00  0.00     0.002 A 
ATOM     80  C   UNL A   1      49.695  27.306  23.299  1.00  0.00     0.091 A 
ATOM     81  F   UNL A   1      47.404  27.972  23.191  1.00  0.00    -0.205 F 
ATOM     82  C   UNL A   1      50.804  26.938  24.074  1.00  0.00     0.022 A 
BRANCH  80  83
ATOM     83  S   UNL A   1      49.900  27.317  21.513  1.00  0.00     0.127 S 
ATOM     84  O   UNL A   1      51.272  26.839  21.365  1.00  0.00    -0.237 OA
ATOM     85  O   UNL A   1      48.868  26.376  21.077  1.00  0.00    -0.237 OA
ATOM     86  O   UNL A   1      49.656  28.695  21.108  1.00  0.00    -0.744 OA
ENDBRANCH  80  83
ENDBRANCH  52  76
BRANCH  64  87
ATOM     87  C   UNL A   1      45.552  32.817  28.768  1.00  0.00     0.023 A 
ATOM     88  C   UNL A   1      46.267  33.012  29.966  1.00  0.00     0.012 A 
ATOM     89  C   UNL A   1      45.398  33.890  27.870  1.00  0.00     0.148 A 
ATOM     90  C   UNL A   1      46.801  34.262  30.275  1.00  0.00     0.002 A 
ATOM     91  C   UNL A   1      45.968  35.124  28.167  1.00  0.00     0.091 A 
ATOM     92  F   UNL A   1      44.693  33.693  26.746  1.00  0.00    -0.205 F 
ATOM     93  C   UNL A   1      46.663  35.313  29.371  1.00  0.00     0.022 A 
BRANCH  91  94
ATOM     94  S   UNL A   1      45.904  36.495  27.007  1.00  0.00     0.127 S 
ATOM     95  O   UNL A   1      46.534  35.916  25.822  1.00  0.00    -0.237 OA
ATOM     96  O   UNL A   1      44.466  36.735  26.877  1.00  0.00    -0.237 OA
ATOM     97  O   UNL A   1      46.633  37.580  27.650  1.00  0.00    -0.744 OA
ENDBRANCH  91  94
ENDBRANCH  64  87
ENDBRANCH  38  39
ENDBRANCH  30  33
ENDBRANCH  28  29
ENDBRANCH   1  28
TORSDOF 17
ENDMDL
MODEL 2
REMARK VINA RESULT:     -11.7      2.050      7.953
REMARK SMILES CC(=O)Nc1cccc(NC(=O)N[C@H](C(=O)NCCCNC(=O)c2ccc(-c3c4nc(c(-c5cccc(S(=O)(=O)[O-])c5F)c5ccc([nH]5)c(-c5cccc(S(=O)(=O)[O-])c5F)c5nc(c(-c6cccc(S(=O)(=O)[O-])c6F)c6ccc3[nH]6)C=C5)C=C4)cc2)C(C)C)c1
REMARK SMILES IDX 19 1 18 2 17 3 15 4 16 5 14 7 13 8 10 9 11 10 12 12 9 14
REMARK SMILES IDX 5 15 6 16 90 17 7 18 8 19 4 20 1 21 2 22 3 23 87 25 88 26
REMARK SMILES IDX 89 27 20 28 21 29 22 30 23 32 24 33 25 34 86 35 26 36 85 37
REMARK SMILES IDX 27 38 28 39 29 40 79 41 30 42 84 43 78 44 80 45 31 46 83 47
REMARK SMILES IDX 77 48 76 49 32 51 64 52 44 53 63 54 45 55 48 56 62 57 81 58
REMARK SMILES IDX 46 59 47 60 61 62 82 63 49 64 33 65 34 66 42 67 35 68 37 69
REMARK SMILES IDX 43 70 36 71 38 72 39 73 40 74 41 75 65 76 66 77 74 78 67 79
REMARK SMILES IDX 69 80 75 81 68 82 70 83 71 84 72 85 73 86 50 87 51 88 59 89
REMARK SMILES IDX 52 90 54 91 60 92 53 93 55 94 56 95 57 96 58 97
REMARK H PARENT 17 6 10 11 13 13 4 24 21 31 80 50 48 61
REMARK Flexibility Score: inf
ROOT
ATOM      1  C   UNL A   1      36.568  22.307  23.837  1.00  0.00     0.042 C 
ENDROOT
BRANCH   1   2
ATOM      2  C   UNL A   1      35.586  23.407  23.464  1.00  0.00     0.117 C 
BRANCH   2   3
ATOM      3  N   UNL A   1      35.281  24.272  24.589  1.00  0.00    -0.354 N 
ATOM      4  C   UNL A   1      34.227  25.126  24.765  1.00  0.00     0.242 C 
ATOM      5  O   UNL A   1      34.280  25.855  25.757  1.00  0.00    -0.273 OA
ATOM      6  H   UNL A   1      35.925  24.240  25.332  1.00  0.00     0.163 HD
BRANCH   4   7
ATOM      7  C   UNL A   1      33.167  25.286  23.640  1.00  0.00     0.175 C 
BRANCH   7   8
ATOM      8  N   UNL A   1      31.777  25.545  24.066  1.00  0.00    -0.326 N 
ATOM      9  N   UNL A   1      30.940  23.798  25.456  1.00  0.00    -0.308 N 
ATOM     10  C   UNL A   1      30.869  25.011  24.888  1.00  0.00     0.319 C 
ATOM     11  H   UNL A   1      30.051  23.395  25.578  1.00  0.00     0.171 HD
ATOM     12  O   UNL A   1      29.791  25.612  24.968  1.00  0.00    -0.248 OA
ATOM     13  H   UNL A   1      31.413  26.339  23.611  1.00  0.00     0.166 HD
BRANCH   9  14
ATOM     14  C   UNL A   1      31.961  22.960  25.917  1.00  0.00     0.044 A 
ATOM     15  C   UNL A   1      33.395  21.041  25.453  1.00  0.00     0.043 A 
ATOM     16  C   UNL A   1      33.918  21.152  26.746  1.00  0.00     0.026 A 
ATOM     17  C   UNL A   1      32.405  21.941  25.055  1.00  0.00     0.052 A 
ATOM     18  C   UNL A   1      33.450  22.130  27.622  1.00  0.00     0.004 A 
ATOM     19  C   UNL A   1      32.456  23.015  27.211  1.00  0.00     0.026 A 
BRANCH  15  20
ATOM     20  N   UNL A   1      33.869  19.964  24.683  1.00  0.00    -0.326 N 
ATOM     21  C   UNL A   1      32.604  18.001  25.574  1.00  0.00     0.114 C 
ATOM     22  C   UNL A   1      33.690  18.615  24.739  1.00  0.00     0.221 C 
ATOM     23  O   UNL A   1      34.427  17.903  24.050  1.00  0.00    -0.275 OA
ATOM     24  H   UNL A   1      34.455  20.247  23.944  1.00  0.00     0.169 HD
ENDBRANCH  15  20
ENDBRANCH   9  14
ENDBRANCH   7   8
BRANCH   7  25
ATOM     25  C   UNL A   1      33.482  26.092  22.344  1.00  0.00     0.015 C 
ATOM     26  C   UNL A   1      32.645  25.757  21.111  1.00  0.00     0.010 C 
ATOM     27  C   UNL A   1      33.336  27.602  22.621  1.00  0.00     0.010 C 
ENDBRANCH   7  25
ENDBRANCH   4   7
ENDBRANCH   2   3
ENDBRANCH   1   2
BRANCH   1  28
ATOM     28  C   UNL A   1      37.005  22.344  25.296  1.00  0.00     0.118 C 
BRANCH  28  29
ATOM     29  N   UNL A   1      37.972  21.305  25.628  1.00  0.00    -0.352 N 
ATOM     30  C   UNL A   1      39.209  21.437  26.218  1.00  0.00     0.251 C 
ATOM     31  H   UNL A   1      37.704  20.387  25.401  1.00  0.00     0.163 HD
ATOM     32  O   UNL A   1      39.951  20.463  26.311  1.00  0.00    -0.269 OA
BRANCH  30  33
ATOM     33  C   UNL A   1      39.650  22.763  26.710  1.00  0.00     0.039 A 
ATOM     34  C   UNL A   1      40.585  22.827  27.746  1.00  0.00     0.014 A 
ATOM     35  C   UNL A   1      39.167  23.936  26.125  1.00  0.00     0.014 A 
ATOM     36  C   UNL A   1      41.088  24.069  28.148  1.00  0.00     0.010 A 
ATOM     37  C   UNL A   1      39.730  25.161  26.469  1.00  0.00     0.010 A 
ATOM     38  C   UNL A   1      40.689  25.244  27.490  1.00  0.00    -0.014 A 
BRANCH  38  39
ATOM     39  C   UNL A   1      41.250  26.572  27.856  1.00  0.00     0.031 A 
ATOM     40  C   UNL A   1      42.673  26.911  27.501  1.00  0.00     0.074 A 
ATOM     41  C   UNL A   1      40.517  27.432  28.592  1.00  0.00     0.049 A 
ATOM     42  N   UNL A   1      43.365  27.980  27.799  1.00  0.00    -0.248 NA
ATOM     43  C   UNL A   1      43.432  25.901  26.743  1.00  0.00     0.031 C 
ATOM     44  C   UNL A   1      39.161  27.184  29.086  1.00  0.00     0.029 A 
ATOM     45  N   UNL A   1      40.824  28.679  29.078  1.00  0.00    -0.354 N 
ATOM     46  C   UNL A   1      44.648  27.750  27.315  1.00  0.00     0.074 A 
ATOM     47  C   UNL A   1      44.647  26.427  26.731  1.00  0.00     0.031 C 
ATOM     48  C   UNL A   1      38.751  28.247  29.799  1.00  0.00     0.029 A 
ATOM     49  C   UNL A   1      39.817  29.245  29.825  1.00  0.00     0.049 A 
ATOM     50  H   UNL A   1      41.685  29.126  28.909  1.00  0.00     0.167 HD
ATOM     51  C   UNL A   1      45.720  28.575  27.321  1.00  0.00     0.034 A 
ATOM     52  C   UNL A   1      39.755  30.437  30.452  1.00  0.00     0.034 A 
ATOM     53  C   UNL A   1      45.697  29.921  27.824  1.00  0.00     0.049 A 
ATOM     54  C   UNL A   1      40.920  31.384  30.338  1.00  0.00     0.074 A 
ATOM     55  C   UNL A   1      46.702  30.873  27.788  1.00  0.00     0.029 A 
ATOM     56  N   UNL A   1      44.607  30.514  28.441  1.00  0.00    -0.354 N 
ATOM     57  N   UNL A   1      42.068  31.208  29.731  1.00  0.00    -0.248 NA
ATOM     58  C   UNL A   1      40.764  32.710  30.955  1.00  0.00     0.031 C 
ATOM     59  C   UNL A   1      46.213  32.045  28.376  1.00  0.00     0.029 A 
ATOM     60  C   UNL A   1      44.906  31.822  28.776  1.00  0.00     0.049 A 
ATOM     61  H   UNL A   1      43.745  30.069  28.615  1.00  0.00     0.167 HD
ATOM     62  C   UNL A   1      42.755  32.411  29.858  1.00  0.00     0.074 A 
ATOM     63  C   UNL A   1      41.886  33.314  30.584  1.00  0.00     0.031 C 
ATOM     64  C   UNL A   1      44.000  32.731  29.430  1.00  0.00     0.034 A 
BRANCH  51  65
ATOM     65  C   UNL A   1      46.989  28.071  26.686  1.00  0.00     0.023 A 
ATOM     66  C   UNL A   1      48.009  27.551  27.508  1.00  0.00     0.012 A 
ATOM     67  C   UNL A   1      47.159  28.071  25.288  1.00  0.00     0.148 A 
ATOM     68  C   UNL A   1      49.194  27.070  26.953  1.00  0.00     0.002 A 
ATOM     69  C   UNL A   1      48.327  27.552  24.740  1.00  0.00     0.091 A 
ATOM     70  F   UNL A   1      46.190  28.593  24.523  1.00  0.00    -0.205 F 
ATOM     71  C   UNL A   1      49.349  27.062  25.570  1.00  0.00     0.022 A 
BRANCH  69  72
ATOM     72  S   UNL A   1      48.583  27.431  22.965  1.00  0.00     0.127 S 
ATOM     73  O   UNL A   1      49.942  27.950  22.826  1.00  0.00    -0.237 OA
ATOM     74  O   UNL A   1      48.453  25.993  22.727  1.00  0.00    -0.237 OA
ATOM     75  O   UNL A   1      47.534  28.238  22.359  1.00  0.00    -0.744 OA
ENDBRANCH  69  72
ENDBRANCH  51  65
BRANCH  52  76
ATOM     76  C   UNL A   1      38.501  30.848  31.144  1.00  0.00     0.023 A 
ATOM     77  C   UNL A   1      38.385  30.636  32.531  1.00  0.00     0.012 A 
ATOM     78  C   UNL A   1      37.447  31.479  30.457  1.00  0.00     0.148 A 
ATOM     79  C   UNL A   1      37.232  31.016  33.217  1.00  0.00     0.002 A 
ATOM     80  C   UNL A   1      36.319  31.900  31.155  1.00  0.00     0.091 A 
ATOM     81  F   UNL A   1      37.566  31.659  29.133  1.00  0.00    -0.205 F 
ATOM     82  C   UNL A   1      36.204  31.657  32.531  1.00  0.00     0.022 A 
BRANCH  80  83
ATOM     83  S   UNL A   1      35.010  32.849  30.370  1.00  0.00     0.127 S 
ATOM     84  O   UNL A   1      34.104  33.094  31.488  1.00  0.00    -0.237 OA
ATOM     85  O   UNL A   1      35.731  34.029  29.889  1.00  0.00    -0.237 OA
ATOM     86  O   UNL A   1      34.500  31.992  29.308  1.00  0.00    -0.744 OA
ENDBRANCH  80  83
ENDBRANCH  52  76
BRANCH  64  87
ATOM     87  C   UNL A   1      44.494  34.128  29.695  1.00  0.00     0.023 A 
ATOM     88  C   UNL A   1      45.083  34.432  30.937  1.00  0.00     0.012 A 
ATOM     89  C   UNL A   1      44.449  35.112  28.689  1.00  0.00     0.148 A 
ATOM     90  C   UNL A   1      45.599  35.703  31.183  1.00  0.00     0.002 A 
ATOM     91  C   UNL A   1      45.003  36.366  28.928  1.00  0.00     0.091 A 
ATOM     92  F   UNL A   1      43.862  34.813  27.521  1.00  0.00    -0.205 F 
ATOM     93  C   UNL A   1      45.571  36.665  30.176  1.00  0.00     0.022 A 
BRANCH  91  94
ATOM     94  S   UNL A   1      45.078  37.622  27.645  1.00  0.00     0.127 S 
ATOM     95  O   UNL A   1      43.666  37.953  27.465  1.00  0.00    -0.237 OA
ATOM     96  O   UNL A   1      45.875  38.676  28.277  1.00  0.00    -0.237 OA
ATOM     97  O   UNL A   1      45.731  36.981  26.512  1.00  0.00    -0.744 OA
ENDBRANCH  91  94
ENDBRANCH  64  87
ENDBRANCH  38  39
ENDBRANCH  30  33
ENDBRANCH  28  29
ENDBRANCH   1  28
TORSDOF 17
ENDMDL
MODEL 3
REMARK VINA RESULT:     -11.7      3.500      9.002
REMARK SMILES CC(=O)Nc1cccc(NC(=O)N[C@H](C(=O)NCCCNC(=O)c2ccc(-c3c4nc(c(-c5cccc(S(=O)(=O)[O-])c5F)c5ccc([nH]5)c(-c5cccc(S(=O)(=O)[O-])c5F)c5nc(c(-c6cccc(S(=O)(=O)[O-])c6F)c6ccc3[nH]6)C=C5)C=C4)cc2)C(C)C)c1
REMARK SMILES IDX 19 1 18 2 17 3 15 4 16 5 14 7 13 8 10 9 11 10 12 12 9 14
REMARK SMILES IDX 5 15 6 16 90 17 7 18 8 19 4 20 1 21 2 22 3 23 87 25 88 26
REMARK SMILES IDX 89 27 20 28 21 29 22 30 23 32 24 33 25 34 86 35 26 36 85 37
REMARK SMILES IDX 27 38 28 39 29 40 79 41 30 42 84 43 78 44 80 45 31 46 83 47
REMARK SMILES IDX 77 48 76 49 32 51 64 52 44 53 63 54 45 55 48 56 62 57 81 58
REMARK SMILES IDX 46 59 47 60 61 62 82 63 49 64 33 65 34 66 42 67 35 68 37 69
REMARK SMILES IDX 43 70 36 71 38 72 39 73 40 74 41 75 65 76 66 77 74 78 67 79
REMARK SMILES IDX 69 80 75 81 68 82 70 83 71 84 72 85 73 86 50 87 51 88 59 89
REMARK SMILES IDX 52 90 54 91 60 92 53 93 55 94 56 95 57 96 58 97
REMARK H PARENT 17 6 10 11 13 13 4 24 21 31 80 50 48 61
REMARK Flexibility Score: inf
ROOT
ATOM      1  C   UNL A   1      35.855  23.667  24.266  1.00  0.00     0.042 C 
ENDROOT
BRANCH   1   2
ATOM      2  C   UNL A   1      34.424  24.170  24.368  1.00  0.00     0.117 C 
BRANCH   2   3
ATOM      3  N   UNL A   1      33.498  23.346  23.613  1.00  0.00    -0.354 N 
ATOM      4  C   UNL A   1      32.609  22.408  24.061  1.00  0.00     0.242 C 
ATOM      5  O   UNL A   1      32.038  21.746  23.194  1.00  0.00    -0.273 OA
ATOM      6  H   UNL A   1      33.512  23.481  22.638  1.00  0.00     0.163 HD
BRANCH   4   7
ATOM      7  C   UNL A   1      32.527  22.085  25.579  1.00  0.00     0.175 C 
BRANCH   7   8
ATOM      8  N   UNL A   1      31.176  21.928  26.155  1.00  0.00    -0.326 N 
ATOM      9  N   UNL A   1      30.101  24.033  26.471  1.00  0.00    -0.308 N 
ATOM     10  C   UNL A   1      30.117  22.692  26.439  1.00  0.00     0.319 C 
ATOM     11  H   UNL A   1      29.470  24.378  27.142  1.00  0.00     0.171 HD
ATOM     12  O   UNL A   1      29.132  22.102  26.899  1.00  0.00    -0.248 OA
ATOM     13  H   UNL A   1      31.008  20.990  26.402  1.00  0.00     0.166 HD
BRANCH   9  14
ATOM     14  C   UNL A   1      30.756  25.064  25.789  1.00  0.00     0.044 A 
ATOM     15  C   UNL A   1      32.486  26.784  25.861  1.00  0.00     0.043 A 
ATOM     16  C   UNL A   1      32.082  27.207  24.591  1.00  0.00     0.026 A 
ATOM     17  C   UNL A   1      31.805  25.721  26.458  1.00  0.00     0.052 A 
ATOM     18  C   UNL A   1      31.013  26.591  23.941  1.00  0.00     0.004 A 
ATOM     19  C   UNL A   1      30.339  25.537  24.554  1.00  0.00     0.026 A 
BRANCH  15  20
ATOM     20  N   UNL A   1      33.512  27.531  26.467  1.00  0.00    -0.326 N 
ATOM     21  C   UNL A   1      32.351  29.602  27.247  1.00  0.00     0.114 C 
ATOM     22  C   UNL A   1      33.586  28.793  26.973  1.00  0.00     0.221 C 
ATOM     23  O   UNL A   1      34.703  29.246  27.239  1.00  0.00    -0.275 OA
ATOM     24  H   UNL A   1      34.359  27.034  26.541  1.00  0.00     0.169 HD
ENDBRANCH  15  20
ENDBRANCH   9  14
ENDBRANCH   7   8
BRANCH   7  25
ATOM     25  C   UNL A   1      33.506  21.070  26.242  1.00  0.00     0.015 C 
ATOM     26  C   UNL A   1      34.579  20.467  25.338  1.00  0.00     0.010 C 
ATOM     27  C   UNL A   1      34.213  21.734  27.441  1.00  0.00     0.010 C 
ENDBRANCH   7  25
ENDBRANCH   4   7
ENDBRANCH   2   3
ENDBRANCH   1   2
BRANCH   1  28
ATOM     28  C   UNL A   1      36.675  23.891  25.531  1.00  0.00     0.118 C 
BRANCH  28  29
ATOM     29  N   UNL A   1      37.542  22.765  25.856  1.00  0.00    -0.352 N 
ATOM     30  C   UNL A   1      38.798  22.780  26.420  1.00  0.00     0.251 C 
ATOM     31  H   UNL A   1      37.182  21.875  25.643  1.00  0.00     0.163 HD
ATOM     32  O   UNL A   1      39.443  21.739  26.508  1.00  0.00    -0.269 OA
BRANCH  30  33
ATOM     33  C   UNL A   1      39.377  24.060  26.888  1.00  0.00     0.039 A 
ATOM     34  C   UNL A   1      39.984  24.911  25.962  1.00  0.00     0.014 A 
ATOM     35  C   UNL A   1      39.288  24.432  28.231  1.00  0.00     0.014 A 
ATOM     36  C   UNL A   1      40.441  26.169  26.373  1.00  0.00     0.010 A 
ATOM     37  C   UNL A   1      39.666  25.714  28.620  1.00  0.00     0.010 A 
ATOM     38  C   UNL A   1      40.255  26.593  27.698  1.00  0.00    -0.014 A 
BRANCH  38  39
ATOM     39  C   UNL A   1      40.677  27.946  28.150  1.00  0.00     0.031 A 
ATOM     40  C   UNL A   1      42.137  28.314  28.162  1.00  0.00     0.074 A 
ATOM     41  C   UNL A   1      39.763  28.806  28.644  1.00  0.00     0.049 A 
ATOM     42  N   UNL A   1      42.708  29.409  28.591  1.00  0.00    -0.248 NA
ATOM     43  C   UNL A   1      43.084  27.304  27.659  1.00  0.00     0.031 C 
ATOM     44  C   UNL A   1      38.330  28.536  28.781  1.00  0.00     0.029 A 
ATOM     45  N   UNL A   1      39.910  30.074  29.150  1.00  0.00    -0.354 N 
ATOM     46  C   UNL A   1      44.076  29.200  28.462  1.00  0.00     0.074 A 
ATOM     47  C   UNL A   1      44.251  27.862  27.943  1.00  0.00     0.031 C 
ATOM     48  C   UNL A   1      37.730  29.607  29.327  1.00  0.00     0.029 A 
ATOM     49  C   UNL A   1      38.734  30.634  29.593  1.00  0.00     0.049 A 
ATOM     50  H   UNL A   1      40.776  30.539  29.192  1.00  0.00     0.167 HD
ATOM     51  C   UNL A   1      45.095  30.054  28.715  1.00  0.00     0.034 A 
ATOM     52  C   UNL A   1      38.490  31.840  30.141  1.00  0.00     0.034 A 
ATOM     53  C   UNL A   1      44.918  31.413  29.149  1.00  0.00     0.049 A 
ATOM     54  C   UNL A   1      39.627  32.815  30.299  1.00  0.00     0.074 A 
ATOM     55  C   UNL A   1      45.879  32.390  29.340  1.00  0.00     0.029 A 
ATOM     56  N   UNL A   1      43.694  31.992  29.444  1.00  0.00    -0.354 N 
ATOM     57  N   UNL A   1      40.896  32.653  30.013  1.00  0.00    -0.248 NA
ATOM     58  C   UNL A   1      39.292  34.153  30.809  1.00  0.00     0.031 C 
ATOM     59  C   UNL A   1      45.233  33.564  29.742  1.00  0.00     0.029 A 
ATOM     60  C   UNL A   1      43.871  33.317  29.800  1.00  0.00     0.049 A 
ATOM     61  H   UNL A   1      42.825  31.529  29.406  1.00  0.00     0.167 HD
ATOM     62  C   UNL A   1      41.503  33.878  30.271  1.00  0.00     0.074 A 
ATOM     63  C   UNL A   1      40.460  34.777  30.719  1.00  0.00     0.031 C 
ATOM     64  C   UNL A   1      42.810  34.220  30.167  1.00  0.00     0.034 A 
BRANCH  51  65
ATOM     65  C   UNL A   1      46.494  29.567  28.445  1.00  0.00     0.023 A 
ATOM     66  C   UNL A   1      47.064  29.782  27.173  1.00  0.00     0.012 A 
ATOM     67  C   UNL A   1      47.258  28.940  29.448  1.00  0.00     0.148 A 
ATOM     68  C   UNL A   1      48.358  29.350  26.891  1.00  0.00     0.002 A 
ATOM     69  C   UNL A   1      48.563  28.548  29.171  1.00  0.00     0.091 A 
ATOM     70  F   UNL A   1      46.691  28.720  30.643  1.00  0.00    -0.205 F 
ATOM     71  C   UNL A   1      49.110  28.742  27.893  1.00  0.00     0.022 A 
BRANCH  69  72
ATOM     72  S   UNL A   1      49.634  27.826  30.421  1.00  0.00     0.127 S 
ATOM     73  O   UNL A   1      49.626  28.862  31.451  1.00  0.00    -0.237 OA
ATOM     74  O   UNL A   1      48.914  26.603  30.782  1.00  0.00    -0.237 OA
ATOM     75  O   UNL A   1      50.912  27.599  29.762  1.00  0.00    -0.744 OA
ENDBRANCH  69  72
ENDBRANCH  51  65
BRANCH  52  76
ATOM     76  C   UNL A   1      37.092  32.237  30.473  1.00  0.00     0.023 A 
ATOM     77  C   UNL A   1      36.614  32.026  31.781  1.00  0.00     0.012 A 
ATOM     78  C   UNL A   1      36.251  32.853  29.527  1.00  0.00     0.148 A 
ATOM     79  C   UNL A   1      35.316  32.392  32.134  1.00  0.00     0.002 A 
ATOM     80  C   UNL A   1      34.974  33.261  29.899  1.00  0.00     0.091 A 
ATOM     81  F   UNL A   1      36.716  33.034  28.282  1.00  0.00    -0.205 F 
ATOM     82  C   UNL A   1      34.499  33.019  31.196  1.00  0.00     0.022 A 
BRANCH  80  83
ATOM     83  S   UNL A   1      33.910  34.193  28.789  1.00  0.00     0.127 S 
ATOM     84  O   UNL A   1      34.829  35.201  28.268  1.00  0.00    -0.237 OA
ATOM     85  O   UNL A   1      33.502  33.172  27.823  1.00  0.00    -0.237 OA
ATOM     86  O   UNL A   1      32.824  34.687  29.625  1.00  0.00    -0.744 OA
ENDBRANCH  80  83
ENDBRANCH  52  76
BRANCH  64  87
ATOM     87  C   UNL A   1      43.193  35.636  30.502  1.00  0.00     0.023 A 
ATOM     88  C   UNL A   1      43.569  35.961  31.820  1.00  0.00     0.012 A 
ATOM     89  C   UNL A   1      43.258  36.622  29.500  1.00  0.00     0.148 A 
ATOM     90  C   UNL A   1      43.982  37.252  32.140  1.00  0.00     0.002 A 
ATOM     91  C   UNL A   1      43.710  37.899  29.818  1.00  0.00     0.091 A 
ATOM     92  F   UNL A   1      42.873  36.302  28.256  1.00  0.00    -0.205 F 
ATOM     93  C   UNL A   1      44.065  38.218  31.138  1.00  0.00     0.022 A 
BRANCH  91  94
ATOM     94  S   UNL A   1      43.924  39.164  28.560  1.00  0.00     0.127 S 
ATOM     95  O   UNL A   1      42.547  39.395  28.129  1.00  0.00    -0.237 OA
ATOM     96  O   UNL A   1      44.519  40.268  29.316  1.00  0.00    -0.237 OA
ATOM     97  O   UNL A   1      44.813  38.576  27.566  1.00  0.00    -0.744 OA
ENDBRANCH  91  94
ENDBRANCH  64  87
ENDBRANCH  38  39
ENDBRANCH  30  33
ENDBRANCH  28  29
ENDBRANCH   1  28
TORSDOF 17
ENDMDL
