MODEL 1
REMARK VINA RESULT:     -10.4      0.000      0.000
REMARK SMILES C=CCN(CC(=O)NCCCNC(=O)c1ccc(-c2c3nc(c(-c4cccc(S(=O)(=O)[O-])c4F)c4ccc([nH]4)c(-c4cccc(S(=O)(=O)[O-])c4F)c4nc(c(-c5cccc(S(=O)(=O)[O-])c5F)c5ccc2[nH]5)C=C4)C=C3)cc1)S(=O)(=O)c1ccccc1OC
REMARK SMILES IDX 9 1 8 2 6 3 7 4 5 6 4 7 3 8 2 9 1 10 78 11 79 12 80 13 81 14
REMARK SMILES IDX 82 15 86 16 83 17 85 18 84 19 87 20 88 21 10 22 11 23 12 24
REMARK SMILES IDX 13 25 14 27 15 28 16 29 77 30 17 31 76 32 18 33 19 34 20 35
REMARK SMILES IDX 70 36 21 37 75 38 69 39 71 40 22 41 74 42 68 43 67 44 23 46
REMARK SMILES IDX 55 47 35 48 54 49 36 50 39 51 53 52 72 53 37 54 38 55 52 57
REMARK SMILES IDX 73 58 40 59 24 60 25 61 33 62 26 63 28 64 34 65 27 66 29 67
REMARK SMILES IDX 30 68 31 69 32 70 56 71 57 72 65 73 58 74 60 75 66 76 59 77
REMARK SMILES IDX 61 78 62 79 63 80 64 81 41 82 42 83 50 84 43 85 45 86 51 87
REMARK SMILES IDX 44 88 46 89 47 90 48 91 49 92
REMARK H PARENT 8 5 12 26 71 45 39 56
REMARK Flexibility Score: inf
ROOT
ATOM      1  C   UNL A   1      31.501  30.677  25.736  1.00  0.00     0.117 C 
ENDROOT
BRANCH   1   2
ATOM      2  N   UNL A   1      31.428  29.530  26.625  1.00  0.00    -0.355 N 
ATOM      3  C   UNL A   1      32.120  28.352  26.611  1.00  0.00     0.235 C 
ATOM      4  O   UNL A   1      31.876  27.528  27.498  1.00  0.00    -0.274 OA
ATOM      5  H   UNL A   1      30.774  29.616  27.356  1.00  0.00     0.163 HD
BRANCH   3   6
ATOM      6  C   UNL A   1      33.210  28.090  25.586  1.00  0.00     0.202 C 
BRANCH   6   7
ATOM      7  N   UNL A   1      32.997  27.102  24.474  1.00  0.00    -0.185 NA
BRANCH   7   8
ATOM      8  C   UNL A   1      34.003  26.004  24.583  1.00  0.00     0.130 C 
BRANCH   8   9
ATOM      9  C   UNL A   1      33.476  24.674  24.995  1.00  0.00    -0.018 C 
ATOM     10  C   UNL A   1      33.059  24.379  26.235  1.00  0.00     0.005 C 
ENDBRANCH   8   9
ENDBRANCH   7   8
BRANCH   7  11
ATOM     11  S   UNL A   1      32.699  27.745  22.900  1.00  0.00     0.247 S 
ATOM     12  O   UNL A   1      33.487  28.958  22.815  1.00  0.00    -0.207 OA
ATOM     13  O   UNL A   1      32.835  26.675  21.937  1.00  0.00    -0.207 OA
BRANCH  11  14
ATOM     14  C   UNL A   1      30.970  28.148  22.837  1.00  0.00     0.124 A 
ATOM     15  C   UNL A   1      30.541  29.410  22.407  1.00  0.00     0.026 A 
ATOM     16  C   UNL A   1      30.039  27.241  23.353  1.00  0.00     0.138 A 
ATOM     17  C   UNL A   1      29.182  29.734  22.432  1.00  0.00     0.002 A 
ATOM     18  C   UNL A   1      28.684  27.580  23.403  1.00  0.00     0.048 A 
ATOM     19  C   UNL A   1      28.254  28.819  22.926  1.00  0.00     0.004 A 
BRANCH  16  20
ATOM     20  O   UNL A   1      30.435  26.093  23.982  1.00  0.00    -0.495 OA
ATOM     21  C   UNL A   1      29.737  25.892  25.209  1.00  0.00     0.278 C 
ENDBRANCH  16  20
ENDBRANCH  11  14
ENDBRANCH   7  11
ENDBRANCH   6   7
ENDBRANCH   3   6
ENDBRANCH   1   2
BRANCH   1  22
ATOM     22  C   UNL A   1      31.336  32.000  26.480  1.00  0.00     0.042 C 
BRANCH  22  23
ATOM     23  C   UNL A   1      32.591  32.460  27.214  1.00  0.00     0.118 C 
BRANCH  23  24
ATOM     24  N   UNL A   1      32.506  33.857  27.621  1.00  0.00    -0.352 N 
ATOM     25  C   UNL A   1      33.178  34.547  28.603  1.00  0.00     0.251 C 
ATOM     26  H   UNL A   1      31.861  34.396  27.108  1.00  0.00     0.163 HD
ATOM     27  O   UNL A   1      32.778  35.669  28.909  1.00  0.00    -0.269 OA
BRANCH  25  28
ATOM     28  C   UNL A   1      34.356  33.973  29.299  1.00  0.00     0.039 A 
ATOM     29  C   UNL A   1      34.141  33.044  30.325  1.00  0.00     0.014 A 
ATOM     30  C   UNL A   1      35.659  34.391  29.016  1.00  0.00     0.014 A 
ATOM     31  C   UNL A   1      35.226  32.503  31.027  1.00  0.00     0.010 A 
ATOM     32  C   UNL A   1      36.743  33.805  29.670  1.00  0.00     0.010 A 
ATOM     33  C   UNL A   1      36.540  32.865  30.691  1.00  0.00    -0.014 A 
BRANCH  33  34
ATOM     34  C   UNL A   1      37.711  32.294  31.408  1.00  0.00     0.031 A 
ATOM     35  C   UNL A   1      38.504  31.173  30.792  1.00  0.00     0.074 A 
ATOM     36  C   UNL A   1      38.021  32.730  32.645  1.00  0.00     0.049 A 
ATOM     37  N   UNL A   1      39.502  30.495  31.299  1.00  0.00    -0.248 NA
ATOM     38  C   UNL A   1      38.115  30.745  29.438  1.00  0.00     0.031 C 
ATOM     39  C   UNL A   1      37.300  33.769  33.383  1.00  0.00     0.029 A 
ATOM     40  N   UNL A   1      39.012  32.336  33.509  1.00  0.00    -0.354 N 
ATOM     41  C   UNL A   1      39.824  29.530  30.353  1.00  0.00     0.074 A 
ATOM     42  C   UNL A   1      38.916  29.707  29.241  1.00  0.00     0.031 C 
ATOM     43  C   UNL A   1      37.880  33.938  34.583  1.00  0.00     0.029 A 
ATOM     44  C   UNL A   1      38.997  33.006  34.710  1.00  0.00     0.049 A 
ATOM     45  H   UNL A   1      39.672  31.639  33.290  1.00  0.00     0.167 HD
ATOM     46  C   UNL A   1      40.807  28.599  30.390  1.00  0.00     0.034 A 
ATOM     47  C   UNL A   1      39.794  32.888  35.790  1.00  0.00     0.034 A 
ATOM     48  C   UNL A   1      41.770  28.473  31.448  1.00  0.00     0.049 A 
ATOM     49  C   UNL A   1      40.923  31.894  35.775  1.00  0.00     0.074 A 
ATOM     50  C   UNL A   1      42.854  27.615  31.526  1.00  0.00     0.029 A 
ATOM     51  N   UNL A   1      41.776  29.235  32.604  1.00  0.00    -0.354 N 
ATOM     52  N   UNL A   1      41.291  31.083  34.813  1.00  0.00    -0.248 NA
ATOM     53  C   UNL A   1      41.760  31.817  36.982  1.00  0.00     0.031 C 
ATOM     54  C   UNL A   1      43.529  27.874  32.725  1.00  0.00     0.029 A 
ATOM     55  C   UNL A   1      42.850  28.876  33.399  1.00  0.00     0.049 A 
ATOM     56  H   UNL A   1      41.114  29.928  32.828  1.00  0.00     0.167 HD
ATOM     57  C   UNL A   1      42.413  30.416  35.289  1.00  0.00     0.074 A 
ATOM     58  C   UNL A   1      42.678  30.930  36.617  1.00  0.00     0.031 C 
ATOM     59  C   UNL A   1      43.144  29.446  34.688  1.00  0.00     0.034 A 
BRANCH  46  60
ATOM     60  C   UNL A   1      40.943  27.695  29.198  1.00  0.00     0.023 A 
ATOM     61  C   UNL A   1      40.220  26.486  29.176  1.00  0.00     0.012 A 
ATOM     62  C   UNL A   1      41.737  28.049  28.093  1.00  0.00     0.148 A 
ATOM     63  C   UNL A   1      40.297  25.636  28.074  1.00  0.00     0.002 A 
ATOM     64  C   UNL A   1      41.793  27.204  26.989  1.00  0.00     0.091 A 
ATOM     65  F   UNL A   1      42.446  29.187  28.142  1.00  0.00    -0.205 F 
ATOM     66  C   UNL A   1      41.075  25.997  26.977  1.00  0.00     0.022 A 
BRANCH  64  67
ATOM     67  S   UNL A   1      42.755  27.650  25.539  1.00  0.00     0.127 S 
ATOM     68  O   UNL A   1      44.089  27.832  26.105  1.00  0.00    -0.237 OA
ATOM     69  O   UNL A   1      42.618  26.473  24.678  1.00  0.00    -0.237 OA
ATOM     70  O   UNL A   1      42.103  28.845  25.018  1.00  0.00    -0.744 OA
ENDBRANCH  64  67
ENDBRANCH  46  60
BRANCH  47  71
ATOM     71  C   UNL A   1      39.611  33.814  36.940  1.00  0.00     0.023 A 
ATOM     72  C   UNL A   1      39.996  35.160  36.796  1.00  0.00     0.012 A 
ATOM     73  C   UNL A   1      39.015  33.396  38.143  1.00  0.00     0.148 A 
ATOM     74  C   UNL A   1      39.801  36.072  37.834  1.00  0.00     0.002 A 
ATOM     75  C   UNL A   1      38.787  34.320  39.159  1.00  0.00     0.091 A 
ATOM     76  F   UNL A   1      38.669  32.108  38.279  1.00  0.00    -0.205 F 
ATOM     77  C   UNL A   1      39.186  35.655  39.013  1.00  0.00     0.022 A 
BRANCH  75  78
ATOM     78  S   UNL A   1      37.883  33.834  40.633  1.00  0.00     0.127 S 
ATOM     79  O   UNL A   1      38.843  32.974  41.316  1.00  0.00    -0.237 OA
ATOM     80  O   UNL A   1      37.625  35.113  41.298  1.00  0.00    -0.237 OA
ATOM     81  O   UNL A   1      36.684  33.191  40.107  1.00  0.00    -0.744 OA
ENDBRANCH  75  78
ENDBRANCH  47  71
BRANCH  59  82
ATOM     82  C   UNL A   1      44.306  28.876  35.448  1.00  0.00     0.023 A 
ATOM     83  C   UNL A   1      45.582  29.445  35.270  1.00  0.00     0.012 A 
ATOM     84  C   UNL A   1      44.131  27.849  36.393  1.00  0.00     0.148 A 
ATOM     85  C   UNL A   1      46.669  28.992  36.016  1.00  0.00     0.002 A 
ATOM     86  C   UNL A   1      45.216  27.418  37.151  1.00  0.00     0.091 A 
ATOM     87  F   UNL A   1      42.916  27.300  36.537  1.00  0.00    -0.205 F 
ATOM     88  C   UNL A   1      46.486  27.987  36.963  1.00  0.00     0.022 A 
BRANCH  86  89
ATOM     89  S   UNL A   1      45.000  26.170  38.423  1.00  0.00     0.127 S 
ATOM     90  O   UNL A   1      44.061  26.817  39.335  1.00  0.00    -0.237 OA
ATOM     91  O   UNL A   1      44.442  25.035  37.686  1.00  0.00    -0.237 OA
ATOM     92  O   UNL A   1      46.344  25.938  38.939  1.00  0.00    -0.744 OA
ENDBRANCH  86  89
ENDBRANCH  59  82
ENDBRANCH  33  34
ENDBRANCH  25  28
ENDBRANCH  23  24
ENDBRANCH  22  23
ENDBRANCH   1  22
TORSDOF 19
ENDMDL
MODEL 2
REMARK VINA RESULT:     -10.4      2.580      4.091
REMARK SMILES C=CCN(CC(=O)NCCCNC(=O)c1ccc(-c2c3nc(c(-c4cccc(S(=O)(=O)[O-])c4F)c4ccc([nH]4)c(-c4cccc(S(=O)(=O)[O-])c4F)c4nc(c(-c5cccc(S(=O)(=O)[O-])c5F)c5ccc2[nH]5)C=C4)C=C3)cc1)S(=O)(=O)c1ccccc1OC
REMARK SMILES IDX 9 1 8 2 6 3 7 4 5 6 4 7 3 8 2 9 1 10 78 11 79 12 80 13 81 14
REMARK SMILES IDX 82 15 86 16 83 17 85 18 84 19 87 20 88 21 10 22 11 23 12 24
REMARK SMILES IDX 13 25 14 27 15 28 16 29 77 30 17 31 76 32 18 33 19 34 20 35
REMARK SMILES IDX 70 36 21 37 75 38 69 39 71 40 22 41 74 42 68 43 67 44 23 46
REMARK SMILES IDX 55 47 35 48 54 49 36 50 39 51 53 52 72 53 37 54 38 55 52 57
REMARK SMILES IDX 73 58 40 59 24 60 25 61 33 62 26 63 28 64 34 65 27 66 29 67
REMARK SMILES IDX 30 68 31 69 32 70 56 71 57 72 65 73 58 74 60 75 66 76 59 77
REMARK SMILES IDX 61 78 62 79 63 80 64 81 41 82 42 83 50 84 43 85 45 86 51 87
REMARK SMILES IDX 44 88 46 89 47 90 48 91 49 92
REMARK H PARENT 8 5 12 26 71 45 39 56
REMARK Flexibility Score: inf
ROOT
ATOM      1  C   UNL A   1      31.368  27.352  24.188  1.00  0.00     0.117 C 
ENDROOT
BRANCH   1   2
ATOM      2  N   UNL A   1      32.128  27.121  22.971  1.00  0.00    -0.355 N 
ATOM      3  C   UNL A   1      33.311  26.467  22.775  1.00  0.00     0.235 C 
ATOM      4  O   UNL A   1      33.750  26.400  21.623  1.00  0.00    -0.274 OA
ATOM      5  H   UNL A   1      31.724  27.498  22.156  1.00  0.00     0.163 HD
BRANCH   3   6
ATOM      6  C   UNL A   1      34.029  25.776  23.921  1.00  0.00     0.202 C 
BRANCH   6   7
ATOM      7  N   UNL A   1      34.003  24.280  24.054  1.00  0.00    -0.185 NA
BRANCH   7   8
ATOM      8  C   UNL A   1      35.008  23.679  23.127  1.00  0.00     0.130 C 
BRANCH   8   9
ATOM      9  C   UNL A   1      36.225  23.107  23.767  1.00  0.00    -0.018 C 
ATOM     10  C   UNL A   1      36.693  23.482  24.966  1.00  0.00     0.005 C 
ENDBRANCH   8   9
ENDBRANCH   7   8
BRANCH   7  11
ATOM     11  S   UNL A   1      32.451  23.527  24.130  1.00  0.00     0.247 S 
ATOM     12  O   UNL A   1      31.848  23.993  25.364  1.00  0.00    -0.207 OA
ATOM     13  O   UNL A   1      31.799  23.692  22.851  1.00  0.00    -0.207 OA
BRANCH  11  14
ATOM     14  C   UNL A   1      32.742  21.777  24.229  1.00  0.00     0.124 A 
ATOM     15  C   UNL A   1      32.153  20.897  23.313  1.00  0.00     0.026 A 
ATOM     16  C   UNL A   1      33.457  21.265  25.316  1.00  0.00     0.138 A 
ATOM     17  C   UNL A   1      32.334  19.518  23.449  1.00  0.00     0.002 A 
ATOM     18  C   UNL A   1      33.611  19.884  25.465  1.00  0.00     0.048 A 
ATOM     19  C   UNL A   1      33.066  19.013  24.521  1.00  0.00     0.004 A 
BRANCH  16  20
ATOM     20  O   UNL A   1      33.859  22.068  26.347  1.00  0.00    -0.495 OA
ATOM     21  C   UNL A   1      33.652  21.449  27.614  1.00  0.00     0.278 C 
ENDBRANCH  16  20
ENDBRANCH  11  14
ENDBRANCH   7  11
ENDBRANCH   6   7
ENDBRANCH   3   6
ENDBRANCH   1   2
BRANCH   1  22
ATOM     22  C   UNL A   1      32.215  27.981  25.291  1.00  0.00     0.042 C 
BRANCH  22  23
ATOM     23  C   UNL A   1      32.930  29.261  24.871  1.00  0.00     0.118 C 
BRANCH  23  24
ATOM     24  N   UNL A   1      32.320  30.447  25.459  1.00  0.00    -0.352 N 
ATOM     25  C   UNL A   1      32.604  31.115  26.627  1.00  0.00     0.251 C 
ATOM     26  H   UNL A   1      31.583  30.834  24.933  1.00  0.00     0.163 HD
ATOM     27  O   UNL A   1      31.807  31.963  27.026  1.00  0.00    -0.269 OA
BRANCH  25  28
ATOM     28  C   UNL A   1      33.832  30.834  27.413  1.00  0.00     0.039 A 
ATOM     29  C   UNL A   1      34.703  31.894  27.696  1.00  0.00     0.014 A 
ATOM     30  C   UNL A   1      34.179  29.539  27.805  1.00  0.00     0.014 A 
ATOM     31  C   UNL A   1      35.887  31.663  28.407  1.00  0.00     0.010 A 
ATOM     32  C   UNL A   1      35.326  29.320  28.570  1.00  0.00     0.010 A 
ATOM     33  C   UNL A   1      36.199  30.376  28.869  1.00  0.00    -0.014 A 
BRANCH  33  34
ATOM     34  C   UNL A   1      37.441  30.106  29.641  1.00  0.00     0.031 A 
ATOM     35  C   UNL A   1      38.518  29.228  29.063  1.00  0.00     0.074 A 
ATOM     36  C   UNL A   1      37.573  30.589  30.892  1.00  0.00     0.049 A 
ATOM     37  N   UNL A   1      39.628  28.813  29.617  1.00  0.00    -0.248 NA
ATOM     38  C   UNL A   1      38.312  28.734  27.691  1.00  0.00     0.031 C 
ATOM     39  C   UNL A   1      36.582  31.405  31.595  1.00  0.00     0.029 A 
ATOM     40  N   UNL A   1      38.590  30.444  31.803  1.00  0.00    -0.354 N 
ATOM     41  C   UNL A   1      40.226  27.973  28.686  1.00  0.00     0.074 A 
ATOM     42  C   UNL A   1      39.355  27.932  27.531  1.00  0.00     0.031 C 
ATOM     43  C   UNL A   1      37.044  31.697  32.822  1.00  0.00     0.029 A 
ATOM     44  C   UNL A   1      38.351  31.073  33.002  1.00  0.00     0.049 A 
ATOM     45  H   UNL A   1      39.413  29.937  31.615  1.00  0.00     0.167 HD
ATOM     46  C   UNL A   1      41.407  27.316  28.770  1.00  0.00     0.034 A 
ATOM     47  C   UNL A   1      39.101  31.143  34.120  1.00  0.00     0.034 A 
ATOM     48  C   UNL A   1      42.320  27.420  29.874  1.00  0.00     0.049 A 
ATOM     49  C   UNL A   1      40.442  30.463  34.158  1.00  0.00     0.074 A 
ATOM     50  C   UNL A   1      43.580  26.859  30.004  1.00  0.00     0.029 A 
ATOM     51  N   UNL A   1      42.081  28.144  31.030  1.00  0.00    -0.354 N 
ATOM     52  N   UNL A   1      41.046  29.782  33.215  1.00  0.00    -0.248 NA
ATOM     53  C   UNL A   1      41.214  30.581  35.405  1.00  0.00     0.031 C 
ATOM     54  C   UNL A   1      44.112  27.263  31.235  1.00  0.00     0.029 A 
ATOM     55  C   UNL A   1      43.173  28.054  31.876  1.00  0.00     0.049 A 
ATOM     56  H   UNL A   1      41.257  28.647  31.222  1.00  0.00     0.167 HD
ATOM     57  C   UNL A   1      42.276  29.410  33.745  1.00  0.00     0.074 A 
ATOM     58  C   UNL A   1      42.341  29.956  35.084  1.00  0.00     0.031 C 
ATOM     59  C   UNL A   1      43.253  28.662  33.178  1.00  0.00     0.034 A 
BRANCH  46  60
ATOM     60  C   UNL A   1      41.820  26.491  27.586  1.00  0.00     0.023 A 
ATOM     61  C   UNL A   1      42.478  27.123  26.513  1.00  0.00     0.012 A 
ATOM     62  C   UNL A   1      41.605  25.102  27.544  1.00  0.00     0.148 A 
ATOM     63  C   UNL A   1      42.904  26.386  25.409  1.00  0.00     0.002 A 
ATOM     64  C   UNL A   1      42.050  24.370  26.448  1.00  0.00     0.091 A 
ATOM     65  F   UNL A   1      40.947  24.518  28.558  1.00  0.00    -0.205 F 
ATOM     66  C   UNL A   1      42.698  25.009  25.380  1.00  0.00     0.022 A 
BRANCH  64  67
ATOM     67  S   UNL A   1      41.838  22.587  26.388  1.00  0.00     0.127 S 
ATOM     68  O   UNL A   1      42.509  22.245  25.136  1.00  0.00    -0.237 OA
ATOM     69  O   UNL A   1      42.537  22.132  27.592  1.00  0.00    -0.237 OA
ATOM     70  O   UNL A   1      40.395  22.385  26.426  1.00  0.00    -0.744 OA
ENDBRANCH  64  67
ENDBRANCH  46  60
BRANCH  47  71
ATOM     71  C   UNL A   1      38.638  31.978  35.261  1.00  0.00     0.023 A 
ATOM     72  C   UNL A   1      38.635  33.379  35.120  1.00  0.00     0.012 A 
ATOM     73  C   UNL A   1      38.154  31.408  36.451  1.00  0.00     0.148 A 
ATOM     74  C   UNL A   1      38.167  34.197  36.149  1.00  0.00     0.002 A 
ATOM     75  C   UNL A   1      37.652  32.229  37.457  1.00  0.00     0.091 A 
ATOM     76  F   UNL A   1      38.179  30.074  36.584  1.00  0.00    -0.205 F 
ATOM     77  C   UNL A   1      37.664  33.623  37.314  1.00  0.00     0.022 A 
BRANCH  75  78
ATOM     78  S   UNL A   1      36.884  31.506  38.911  1.00  0.00     0.127 S 
ATOM     79  O   UNL A   1      35.685  32.323  39.067  1.00  0.00    -0.237 OA
ATOM     80  O   UNL A   1      36.632  30.124  38.497  1.00  0.00    -0.237 OA
ATOM     81  O   UNL A   1      37.906  31.635  39.943  1.00  0.00    -0.744 OA
ENDBRANCH  75  78
ENDBRANCH  47  71
BRANCH  59  82
ATOM     82  C   UNL A   1      44.484  28.390  33.994  1.00  0.00     0.023 A 
ATOM     83  C   UNL A   1      45.560  29.296  33.926  1.00  0.00     0.012 A 
ATOM     84  C   UNL A   1      44.549  27.303  34.883  1.00  0.00     0.148 A 
ATOM     85  C   UNL A   1      46.687  29.118  34.727  1.00  0.00     0.002 A 
ATOM     86  C   UNL A   1      45.667  27.144  35.696  1.00  0.00     0.091 A 
ATOM     87  F   UNL A   1      43.527  26.434  34.922  1.00  0.00    -0.205 F 
ATOM     88  C   UNL A   1      46.738  28.048  35.619  1.00  0.00     0.022 A 
BRANCH  86  89
ATOM     89  S   UNL A   1      45.736  25.814  36.901  1.00  0.00     0.127 S 
ATOM     90  O   UNL A   1      45.816  24.629  36.049  1.00  0.00    -0.237 OA
ATOM     91  O   UNL A   1      46.960  26.104  37.649  1.00  0.00    -0.237 OA
ATOM     92  O   UNL A   1      44.514  25.965  37.681  1.00  0.00    -0.744 OA
ENDBRANCH  86  89
ENDBRANCH  59  82
ENDBRANCH  33  34
ENDBRANCH  25  28
ENDBRANCH  23  24
ENDBRANCH  22  23
ENDBRANCH   1  22
TORSDOF 19
ENDMDL
MODEL 3
REMARK VINA RESULT:     -10.2      6.047     11.914
REMARK SMILES C=CCN(CC(=O)NCCCNC(=O)c1ccc(-c2c3nc(c(-c4cccc(S(=O)(=O)[O-])c4F)c4ccc([nH]4)c(-c4cccc(S(=O)(=O)[O-])c4F)c4nc(c(-c5cccc(S(=O)(=O)[O-])c5F)c5ccc2[nH]5)C=C4)C=C3)cc1)S(=O)(=O)c1ccccc1OC
REMARK SMILES IDX 9 1 8 2 6 3 7 4 5 6 4 7 3 8 2 9 1 10 78 11 79 12 80 13 81 14
REMARK SMILES IDX 82 15 86 16 83 17 85 18 84 19 87 20 88 21 10 22 11 23 12 24
REMARK SMILES IDX 13 25 14 27 15 28 16 29 77 30 17 31 76 32 18 33 19 34 20 35
REMARK SMILES IDX 70 36 21 37 75 38 69 39 71 40 22 41 74 42 68 43 67 44 23 46
REMARK SMILES IDX 55 47 35 48 54 49 36 50 39 51 53 52 72 53 37 54 38 55 52 57
REMARK SMILES IDX 73 58 40 59 24 60 25 61 33 62 26 63 28 64 34 65 27 66 29 67
REMARK SMILES IDX 30 68 31 69 32 70 56 71 57 72 65 73 58 74 60 75 66 76 59 77
REMARK SMILES IDX 61 78 62 79 63 80 64 81 41 82 42 83 50 84 43 85 45 86 51 87
REMARK SMILES IDX 44 88 46 89 47 90 48 91 49 92
REMARK H PARENT 8 5 12 26 71 45 39 56
REMARK Flexibility Score: inf
ROOT
ATOM      1  C   UNL A   1      37.273  20.274  24.550  1.00  0.00     0.117 C 
ENDROOT
BRANCH   1   2
ATOM      2  N   UNL A   1      37.143  21.522  25.282  1.00  0.00    -0.355 N 
ATOM      3  C   UNL A   1      36.030  22.174  25.733  1.00  0.00     0.235 C 
ATOM      4  O   UNL A   1      36.190  23.233  26.347  1.00  0.00    -0.274 OA
ATOM      5  H   UNL A   1      37.995  21.971  25.486  1.00  0.00     0.163 HD
BRANCH   3   6
ATOM      6  C   UNL A   1      34.643  21.582  25.554  1.00  0.00     0.202 C 
BRANCH   6   7
ATOM      7  N   UNL A   1      33.497  22.435  25.089  1.00  0.00    -0.185 NA
BRANCH   7   8
ATOM      8  C   UNL A   1      32.210  21.715  25.323  1.00  0.00     0.130 C 
BRANCH   8   9
ATOM      9  C   UNL A   1      31.044  22.564  25.692  1.00  0.00    -0.018 C 
ATOM     10  C   UNL A   1      30.942  23.244  26.842  1.00  0.00     0.005 C 
ENDBRANCH   8   9
ENDBRANCH   7   8
BRANCH   7  11
ATOM     11  S   UNL A   1      33.685  23.243  23.575  1.00  0.00     0.247 S 
ATOM     12  O   UNL A   1      34.984  22.842  23.073  1.00  0.00    -0.207 OA
ATOM     13  O   UNL A   1      32.476  23.055  22.804  1.00  0.00    -0.207 OA
BRANCH  11  14
ATOM     14  C   UNL A   1      33.690  24.985  23.927  1.00  0.00     0.124 A 
ATOM     15  C   UNL A   1      33.530  25.454  25.237  1.00  0.00     0.026 A 
ATOM     16  C   UNL A   1      33.716  25.894  22.866  1.00  0.00     0.138 A 
ATOM     17  C   UNL A   1      33.463  26.827  25.486  1.00  0.00     0.002 A 
ATOM     18  C   UNL A   1      33.620  27.266  23.116  1.00  0.00     0.048 A 
ATOM     19  C   UNL A   1      33.513  27.732  24.427  1.00  0.00     0.004 A 
BRANCH  16  20
ATOM     20  O   UNL A   1      33.649  25.476  21.566  1.00  0.00    -0.495 OA
ATOM     21  C   UNL A   1      32.404  25.818  20.961  1.00  0.00     0.278 C 
ENDBRANCH  16  20
ENDBRANCH  11  14
ENDBRANCH   7  11
ENDBRANCH   6   7
ENDBRANCH   3   6
ENDBRANCH   1   2
BRANCH   1  22
ATOM     22  C   UNL A   1      38.225  19.296  25.234  1.00  0.00     0.042 C 
BRANCH  22  23
ATOM     23  C   UNL A   1      39.430  19.960  25.892  1.00  0.00     0.118 C 
BRANCH  23  24
ATOM     24  N   UNL A   1      40.565  19.052  25.996  1.00  0.00    -0.352 N 
ATOM     25  C   UNL A   1      41.913  19.309  26.086  1.00  0.00     0.251 C 
ATOM     26  H   UNL A   1      40.329  18.096  26.005  1.00  0.00     0.163 HD
ATOM     27  O   UNL A   1      42.700  18.374  25.941  1.00  0.00    -0.269 OA
BRANCH  25  28
ATOM     28  C   UNL A   1      42.436  20.675  26.341  1.00  0.00     0.039 A 
ATOM     29  C   UNL A   1      42.628  21.081  27.668  1.00  0.00     0.014 A 
ATOM     30  C   UNL A   1      42.663  21.586  25.306  1.00  0.00     0.014 A 
ATOM     31  C   UNL A   1      43.090  22.373  27.950  1.00  0.00     0.010 A 
ATOM     32  C   UNL A   1      43.185  22.850  25.584  1.00  0.00     0.010 A 
ATOM     33  C   UNL A   1      43.392  23.263  26.909  1.00  0.00    -0.014 A 
BRANCH  33  34
ATOM     34  C   UNL A   1      43.900  24.634  27.180  1.00  0.00     0.031 A 
ATOM     35  C   UNL A   1      42.975  25.693  27.715  1.00  0.00     0.074 A 
ATOM     36  C   UNL A   1      45.174  24.951  26.878  1.00  0.00     0.049 A 
ATOM     37  N   UNL A   1      43.214  26.961  27.934  1.00  0.00    -0.248 NA
ATOM     38  C   UNL A   1      41.596  25.281  28.026  1.00  0.00     0.031 C 
ATOM     39  C   UNL A   1      46.161  24.037  26.300  1.00  0.00     0.029 A 
ATOM     40  N   UNL A   1      45.852  26.139  26.996  1.00  0.00    -0.354 N 
ATOM     41  C   UNL A   1      42.008  27.506  28.358  1.00  0.00     0.074 A 
ATOM     42  C   UNL A   1      41.036  26.434  28.363  1.00  0.00     0.031 C 
ATOM     43  C   UNL A   1      47.319  24.695  26.124  1.00  0.00     0.029 A 
ATOM     44  C   UNL A   1      47.152  26.080  26.555  1.00  0.00     0.049 A 
ATOM     45  H   UNL A   1      45.444  26.957  27.362  1.00  0.00     0.167 HD
ATOM     46  C   UNL A   1      41.737  28.778  28.738  1.00  0.00     0.034 A 
ATOM     47  C   UNL A   1      48.106  27.031  26.506  1.00  0.00     0.034 A 
ATOM     48  C   UNL A   1      42.714  29.828  28.822  1.00  0.00     0.049 A 
ATOM     49  C   UNL A   1      47.798  28.417  27.002  1.00  0.00     0.074 A 
ATOM     50  C   UNL A   1      42.547  31.123  29.281  1.00  0.00     0.029 A 
ATOM     51  N   UNL A   1      44.043  29.700  28.455  1.00  0.00    -0.354 N 
ATOM     52  N   UNL A   1      46.686  28.876  27.522  1.00  0.00    -0.248 NA
ATOM     53  C   UNL A   1      48.882  29.409  26.927  1.00  0.00     0.031 C 
ATOM     54  C   UNL A   1      43.784  31.774  29.211  1.00  0.00     0.029 A 
ATOM     55  C   UNL A   1      44.712  30.889  28.686  1.00  0.00     0.049 A 
ATOM     56  H   UNL A   1      44.452  28.885  28.084  1.00  0.00     0.167 HD
ATOM     57  C   UNL A   1      46.942  30.200  27.857  1.00  0.00     0.074 A 
ATOM     58  C   UNL A   1      48.319  30.467  27.498  1.00  0.00     0.031 C 
ATOM     59  C   UNL A   1      46.101  31.120  28.391  1.00  0.00     0.034 A 
BRANCH  46  60
ATOM     60  C   UNL A   1      40.335  29.079  29.180  1.00  0.00     0.023 A 
ATOM     61  C   UNL A   1      39.398  29.513  28.221  1.00  0.00     0.012 A 
ATOM     62  C   UNL A   1      39.928  28.897  30.514  1.00  0.00     0.148 A 
ATOM     63  C   UNL A   1      38.079  29.773  28.588  1.00  0.00     0.002 A 
ATOM     64  C   UNL A   1      38.605  29.142  30.868  1.00  0.00     0.091 A 
ATOM     65  F   UNL A   1      40.839  28.517  31.423  1.00  0.00    -0.205 F 
ATOM     66  C   UNL A   1      37.679  29.580  29.908  1.00  0.00     0.022 A 
BRANCH  64  67
ATOM     67  S   UNL A   1      38.040  28.868  32.551  1.00  0.00     0.127 S 
ATOM     68  O   UNL A   1      38.270  27.436  32.719  1.00  0.00    -0.237 OA
ATOM     69  O   UNL A   1      38.932  29.721  33.340  1.00  0.00    -0.237 OA
ATOM     70  O   UNL A   1      36.649  29.305  32.549  1.00  0.00    -0.744 OA
ENDBRANCH  64  67
ENDBRANCH  46  60
BRANCH  47  71
ATOM     71  C   UNL A   1      49.478  26.671  26.059  1.00  0.00     0.023 A 
ATOM     72  C   UNL A   1      50.265  25.844  26.883  1.00  0.00     0.012 A 
ATOM     73  C   UNL A   1      49.989  27.085  24.817  1.00  0.00     0.148 A 
ATOM     74  C   UNL A   1      51.541  25.445  26.482  1.00  0.00     0.002 A 
ATOM     75  C   UNL A   1      51.246  26.650  24.406  1.00  0.00     0.091 A 
ATOM     76  F   UNL A   1      49.240  27.888  24.047  1.00  0.00    -0.205 F 
ATOM     77  C   UNL A   1      52.028  25.839  25.238  1.00  0.00     0.022 A 
BRANCH  75  78
ATOM     78  S   UNL A   1      51.839  27.041  22.756  1.00  0.00     0.127 S 
ATOM     79  O   UNL A   1      52.977  26.138  22.615  1.00  0.00    -0.237 OA
ATOM     80  O   UNL A   1      50.691  26.715  21.907  1.00  0.00    -0.237 OA
ATOM     81  O   UNL A   1      52.136  28.467  22.823  1.00  0.00    -0.744 OA
ENDBRANCH  75  78
ENDBRANCH  47  71
BRANCH  59  82
ATOM     82  C   UNL A   1      46.641  32.500  28.631  1.00  0.00     0.023 A 
ATOM     83  C   UNL A   1      47.188  32.808  29.892  1.00  0.00     0.012 A 
ATOM     84  C   UNL A   1      46.688  33.458  27.603  1.00  0.00     0.148 A 
ATOM     85  C   UNL A   1      47.767  34.054  30.127  1.00  0.00     0.002 A 
ATOM     86  C   UNL A   1      47.288  34.692  27.838  1.00  0.00     0.091 A 
ATOM     87  F   UNL A   1      46.143  33.161  26.414  1.00  0.00    -0.205 F 
ATOM     88  C   UNL A   1      47.826  34.993  29.099  1.00  0.00     0.022 A 
BRANCH  86  89
ATOM     89  S   UNL A   1      47.437  35.898  26.516  1.00  0.00     0.127 S 
ATOM     90  O   UNL A   1      48.120  35.134  25.475  1.00  0.00    -0.237 OA
ATOM     91  O   UNL A   1      46.045  36.229  26.208  1.00  0.00    -0.237 OA
ATOM     92  O   UNL A   1      48.190  36.997  27.109  1.00  0.00    -0.744 OA
ENDBRANCH  86  89
ENDBRANCH  59  82
ENDBRANCH  33  34
ENDBRANCH  25  28
ENDBRANCH  23  24
ENDBRANCH  22  23
ENDBRANCH   1  22
TORSDOF 19
ENDMDL
