MODEL 1
REMARK VINA RESULT:     -10.6      0.000      0.000
REMARK SMILES CCC1(CC)C[NH+](C2(C(=O)NCCCNC(=O)c3ccc(-c4c5nc(c(-c6cccc(S(=O)(=O)[O-])c6F)c6ccc([nH]6)c(-c6cccc(S(=O)(=O)[O-])c6F)c6nc(c(-c7cccc(S(=O)(=O)[O-])c7F)c7ccc4[nH]7)C=C6)C=C5)cc3)CC2)C1
REMARK SMILES IDX 13 1 12 2 11 3 9 4 10 5 8 7 81 8 82 9 7 10 3 11 6 12 83 13
REMARK SMILES IDX 2 15 1 16 4 17 5 18 14 19 15 20 16 21 17 23 18 24 19 25
REMARK SMILES IDX 80 26 20 27 79 28 21 29 22 30 23 31 73 32 24 33 78 34 72 35
REMARK SMILES IDX 74 36 25 37 77 38 71 39 70 40 26 42 58 43 38 44 57 45 39 46
REMARK SMILES IDX 42 47 56 48 75 49 40 50 41 51 55 53 76 54 43 55 27 56 28 57
REMARK SMILES IDX 36 58 29 59 31 60 37 61 30 62 32 63 33 64 34 65 35 66 59 67
REMARK SMILES IDX 60 68 68 69 61 70 63 71 69 72 62 73 64 74 65 75 66 76 67 77
REMARK SMILES IDX 44 78 45 79 53 80 46 81 48 82 54 83 47 84 49 85 50 86 51 87
REMARK SMILES IDX 52 88
REMARK H PARENT 11 6 7 14 15 22 74 41 42 52
REMARK Flexibility Score: inf
ROOT
ATOM      1  C   UNL A   1      32.709  28.239  27.099  1.00  0.00     0.042 C 
ENDROOT
BRANCH   1   2
ATOM      2  C   UNL A   1      31.742  27.415  26.255  1.00  0.00     0.118 C 
BRANCH   2   3
ATOM      3  N   UNL A   1      31.424  26.123  26.840  1.00  0.00    -0.351 N 
ATOM      4  C   UNL A   1      31.457  24.822  26.391  1.00  0.00     0.281 C 
ATOM      5  O   UNL A   1      31.170  23.970  27.243  1.00  0.00    -0.268 OA
ATOM      6  H   UNL A   1      31.113  26.195  27.771  1.00  0.00     0.163 HD
BRANCH   4   7
ATOM      7  C   UNL A   1      31.803  24.392  24.953  1.00  0.00     0.177 C 
ATOM      8  C   UNL A   1      30.773  24.499  23.835  1.00  0.00     0.086 C 
ATOM      9  C   UNL A   1      31.118  23.156  24.395  1.00  0.00     0.086 C 
BRANCH   7  10
ATOM     10  N   UNL A   1      33.237  24.708  24.644  1.00  0.00    -0.321 N 
ATOM     11  C   UNL A   1      34.930  23.413  24.940  1.00  0.00     0.068 C 
ATOM     12  C   UNL A   1      34.232  24.595  25.707  1.00  0.00     0.275 C 
ATOM     13  C   UNL A   1      34.010  23.849  23.748  1.00  0.00     0.275 C 
ATOM     14  H   UNL A   1      32.970  25.632  24.305  1.00  0.00     0.349 HD
BRANCH  11  15
ATOM     15  C   UNL A   1      36.429  23.746  24.771  1.00  0.00     0.015 C 
ATOM     16  C   UNL A   1      37.230  23.638  26.055  1.00  0.00     0.005 C 
ENDBRANCH  11  15
BRANCH  11  17
ATOM     17  C   UNL A   1      34.683  22.048  25.615  1.00  0.00     0.015 C 
ATOM     18  C   UNL A   1      35.400  20.871  24.970  1.00  0.00     0.005 C 
ENDBRANCH  11  17
ENDBRANCH   7  10
ENDBRANCH   4   7
ENDBRANCH   2   3
ENDBRANCH   1   2
BRANCH   1  19
ATOM     19  C   UNL A   1      33.744  29.009  26.292  1.00  0.00     0.118 C 
BRANCH  19  20
ATOM     20  N   UNL A   1      33.809  30.414  26.671  1.00  0.00    -0.352 N 
ATOM     21  C   UNL A   1      34.642  31.057  27.549  1.00  0.00     0.251 C 
ATOM     22  H   UNL A   1      33.151  30.995  26.225  1.00  0.00     0.163 HD
ATOM     23  O   UNL A   1      34.370  32.208  27.899  1.00  0.00    -0.269 OA
BRANCH  21  24
ATOM     24  C   UNL A   1      35.850  30.391  28.081  1.00  0.00     0.039 A 
ATOM     25  C   UNL A   1      37.028  30.424  27.330  1.00  0.00     0.014 A 
ATOM     26  C   UNL A   1      35.816  29.699  29.295  1.00  0.00     0.014 A 
ATOM     27  C   UNL A   1      38.183  29.812  27.823  1.00  0.00     0.010 A 
ATOM     28  C   UNL A   1      36.988  29.168  29.825  1.00  0.00     0.010 A 
ATOM     29  C   UNL A   1      38.181  29.205  29.090  1.00  0.00    -0.014 A 
BRANCH  29  30
ATOM     30  C   UNL A   1      39.415  28.613  29.667  1.00  0.00     0.031 A 
ATOM     31  C   UNL A   1      40.068  29.240  30.868  1.00  0.00     0.074 A 
ATOM     32  C   UNL A   1      40.002  27.572  29.046  1.00  0.00     0.049 A 
ATOM     33  N   UNL A   1      41.182  28.908  31.468  1.00  0.00    -0.248 NA
ATOM     34  C   UNL A   1      39.400  30.415  31.455  1.00  0.00     0.031 C 
ATOM     35  C   UNL A   1      39.516  26.938  27.819  1.00  0.00     0.029 A 
ATOM     36  N   UNL A   1      41.155  26.889  29.339  1.00  0.00    -0.354 N 
ATOM     37  C   UNL A   1      41.371  29.851  32.472  1.00  0.00     0.074 A 
ATOM     38  C   UNL A   1      40.274  30.790  32.379  1.00  0.00     0.031 C 
ATOM     39  C   UNL A   1      40.367  25.963  27.461  1.00  0.00     0.029 A 
ATOM     40  C   UNL A   1      41.473  25.923  28.413  1.00  0.00     0.049 A 
ATOM     41  H   UNL A   1      41.703  27.072  30.137  1.00  0.00     0.167 HD
ATOM     42  C   UNL A   1      42.352  29.915  33.403  1.00  0.00     0.034 A 
ATOM     43  C   UNL A   1      42.541  25.105  28.330  1.00  0.00     0.034 A 
ATOM     44  C   UNL A   1      43.415  28.954  33.518  1.00  0.00     0.049 A 
ATOM     45  C   UNL A   1      43.586  25.157  29.409  1.00  0.00     0.074 A 
ATOM     46  C   UNL A   1      44.394  28.865  34.491  1.00  0.00     0.029 A 
ATOM     47  N   UNL A   1      43.647  27.921  32.622  1.00  0.00    -0.354 N 
ATOM     48  N   UNL A   1      43.651  25.943  30.457  1.00  0.00    -0.248 NA
ATOM     49  C   UNL A   1      44.685  24.185  29.318  1.00  0.00     0.031 C 
ATOM     50  C   UNL A   1      45.236  27.795  34.168  1.00  0.00     0.029 A 
ATOM     51  C   UNL A   1      44.763  27.198  33.011  1.00  0.00     0.049 A 
ATOM     52  H   UNL A   1      43.099  27.729  31.827  1.00  0.00     0.167 HD
ATOM     53  C   UNL A   1      44.779  25.544  31.164  1.00  0.00     0.074 A 
ATOM     54  C   UNL A   1      45.352  24.429  30.439  1.00  0.00     0.031 C 
ATOM     55  C   UNL A   1      45.299  26.063  32.304  1.00  0.00     0.034 A 
BRANCH  42  56
ATOM     56  C   UNL A   1      42.291  31.039  34.405  1.00  0.00     0.023 A 
ATOM     57  C   UNL A   1      41.647  30.835  35.644  1.00  0.00     0.012 A 
ATOM     58  C   UNL A   1      42.907  32.279  34.145  1.00  0.00     0.148 A 
ATOM     59  C   UNL A   1      41.580  31.858  36.589  1.00  0.00     0.002 A 
ATOM     60  C   UNL A   1      42.877  33.279  35.112  1.00  0.00     0.091 A 
ATOM     61  F   UNL A   1      43.495  32.465  32.955  1.00  0.00    -0.205 F 
ATOM     62  C   UNL A   1      42.202  33.075  36.326  1.00  0.00     0.022 A 
BRANCH  60  63
ATOM     63  S   UNL A   1      43.719  34.852  34.901  1.00  0.00     0.127 S 
ATOM     64  O   UNL A   1      45.108  34.423  34.746  1.00  0.00    -0.237 OA
ATOM     65  O   UNL A   1      43.102  35.371  33.680  1.00  0.00    -0.237 OA
ATOM     66  O   UNL A   1      43.430  35.624  36.101  1.00  0.00    -0.744 OA
ENDBRANCH  60  63
ENDBRANCH  42  56
BRANCH  43  67
ATOM     67  C   UNL A   1      42.636  24.131  27.207  1.00  0.00     0.023 A 
ATOM     68  C   UNL A   1      43.409  24.449  26.074  1.00  0.00     0.012 A 
ATOM     69  C   UNL A   1      42.010  22.871  27.280  1.00  0.00     0.148 A 
ATOM     70  C   UNL A   1      43.536  23.542  25.022  1.00  0.00     0.002 A 
ATOM     71  C   UNL A   1      42.187  21.950  26.255  1.00  0.00     0.091 A 
ATOM     72  F   UNL A   1      41.272  22.591  28.363  1.00  0.00    -0.205 F 
ATOM     73  C   UNL A   1      42.935  22.290  25.117  1.00  0.00     0.022 A 
BRANCH  71  74
ATOM     74  S   UNL A   1      41.570  20.266  26.357  1.00  0.00     0.127 S 
ATOM     75  O   UNL A   1      41.975  19.880  27.708  1.00  0.00    -0.237 OA
ATOM     76  O   UNL A   1      40.129  20.461  26.180  1.00  0.00    -0.237 OA
ATOM     77  O   UNL A   1      42.214  19.543  25.272  1.00  0.00    -0.744 OA
ENDBRANCH  71  74
ENDBRANCH  43  67
BRANCH  55  78
ATOM     78  C   UNL A   1      46.543  25.420  32.860  1.00  0.00     0.023 A 
ATOM     79  C   UNL A   1      47.808  25.808  32.378  1.00  0.00     0.012 A 
ATOM     80  C   UNL A   1      46.459  24.486  33.912  1.00  0.00     0.148 A 
ATOM     81  C   UNL A   1      48.971  25.254  32.913  1.00  0.00     0.002 A 
ATOM     82  C   UNL A   1      47.624  23.976  34.473  1.00  0.00     0.091 A 
ATOM     83  F   UNL A   1      45.246  24.115  34.343  1.00  0.00    -0.205 F 
ATOM     84  C   UNL A   1      48.879  24.349  33.967  1.00  0.00     0.022 A 
BRANCH  82  85
ATOM     85  S   UNL A   1      47.606  22.879  35.897  1.00  0.00     0.127 S 
ATOM     86  O   UNL A   1      48.989  22.407  35.926  1.00  0.00    -0.237 OA
ATOM     87  O   UNL A   1      47.249  23.790  36.985  1.00  0.00    -0.237 OA
ATOM     88  O   UNL A   1      46.603  21.862  35.607  1.00  0.00    -0.744 OA
ENDBRANCH  82  85
ENDBRANCH  55  78
ENDBRANCH  29  30
ENDBRANCH  21  24
ENDBRANCH  19  20
ENDBRANCH   1  19
TORSDOF 16
ENDMDL
MODEL 2
REMARK VINA RESULT:     -10.5      2.344      2.714
REMARK SMILES CCC1(CC)C[NH+](C2(C(=O)NCCCNC(=O)c3ccc(-c4c5nc(c(-c6cccc(S(=O)(=O)[O-])c6F)c6ccc([nH]6)c(-c6cccc(S(=O)(=O)[O-])c6F)c6nc(c(-c7cccc(S(=O)(=O)[O-])c7F)c7ccc4[nH]7)C=C6)C=C5)cc3)CC2)C1
REMARK SMILES IDX 13 1 12 2 11 3 9 4 10 5 8 7 81 8 82 9 7 10 3 11 6 12 83 13
REMARK SMILES IDX 2 15 1 16 4 17 5 18 14 19 15 20 16 21 17 23 18 24 19 25
REMARK SMILES IDX 80 26 20 27 79 28 21 29 22 30 23 31 73 32 24 33 78 34 72 35
REMARK SMILES IDX 74 36 25 37 77 38 71 39 70 40 26 42 58 43 38 44 57 45 39 46
REMARK SMILES IDX 42 47 56 48 75 49 40 50 41 51 55 53 76 54 43 55 27 56 28 57
REMARK SMILES IDX 36 58 29 59 31 60 37 61 30 62 32 63 33 64 34 65 35 66 59 67
REMARK SMILES IDX 60 68 68 69 61 70 63 71 69 72 62 73 64 74 65 75 66 76 67 77
REMARK SMILES IDX 44 78 45 79 53 80 46 81 48 82 54 83 47 84 49 85 50 86 51 87
REMARK SMILES IDX 52 88
REMARK H PARENT 11 6 7 14 15 22 74 41 42 52
REMARK Flexibility Score: inf
ROOT
ATOM      1  C   UNL A   1      31.914  28.635  26.713  1.00  0.00     0.042 C 
ENDROOT
BRANCH   1   2
ATOM      2  C   UNL A   1      31.395  27.480  25.863  1.00  0.00     0.118 C 
BRANCH   2   3
ATOM      3  N   UNL A   1      31.255  26.237  26.603  1.00  0.00    -0.351 N 
ATOM      4  C   UNL A   1      31.443  24.906  26.307  1.00  0.00     0.281 C 
ATOM      5  O   UNL A   1      31.285  24.132  27.261  1.00  0.00    -0.268 OA
ATOM      6  H   UNL A   1      30.958  26.380  27.532  1.00  0.00     0.163 HD
BRANCH   4   7
ATOM      7  C   UNL A   1      31.811  24.354  24.916  1.00  0.00     0.177 C 
ATOM      8  C   UNL A   1      30.843  24.477  23.745  1.00  0.00     0.086 C 
ATOM      9  C   UNL A   1      31.042  23.149  24.403  1.00  0.00     0.086 C 
BRANCH   7  10
ATOM     10  N   UNL A   1      33.280  24.523  24.658  1.00  0.00    -0.321 N 
ATOM     11  C   UNL A   1      34.891  23.674  25.803  1.00  0.00     0.068 C 
ATOM     12  C   UNL A   1      34.130  25.048  25.723  1.00  0.00     0.275 C 
ATOM     13  C   UNL A   1      34.139  23.356  24.465  1.00  0.00     0.275 C 
ATOM     14  H   UNL A   1      33.079  25.107  23.846  1.00  0.00     0.349 HD
BRANCH  11  15
ATOM     15  C   UNL A   1      36.406  23.935  25.661  1.00  0.00     0.015 C 
ATOM     16  C   UNL A   1      37.231  22.678  25.460  1.00  0.00     0.005 C 
ENDBRANCH  11  15
BRANCH  11  17
ATOM     17  C   UNL A   1      34.528  22.875  27.072  1.00  0.00     0.015 C 
ATOM     18  C   UNL A   1      33.938  21.495  26.818  1.00  0.00     0.005 C 
ENDBRANCH  11  17
ENDBRANCH   7  10
ENDBRANCH   4   7
ENDBRANCH   2   3
ENDBRANCH   1   2
BRANCH   1  19
ATOM     19  C   UNL A   1      32.960  29.497  26.023  1.00  0.00     0.118 C 
BRANCH  19  20
ATOM     20  N   UNL A   1      32.845  30.904  26.384  1.00  0.00    -0.352 N 
ATOM     21  C   UNL A   1      33.546  31.645  27.298  1.00  0.00     0.251 C 
ATOM     22  H   UNL A   1      32.153  31.403  25.890  1.00  0.00     0.163 HD
ATOM     23  O   UNL A   1      33.126  32.761  27.613  1.00  0.00    -0.269 OA
BRANCH  21  24
ATOM     24  C   UNL A   1      34.787  31.125  27.910  1.00  0.00     0.039 A 
ATOM     25  C   UNL A   1      35.911  31.953  27.971  1.00  0.00     0.014 A 
ATOM     26  C   UNL A   1      34.861  29.813  28.385  1.00  0.00     0.014 A 
ATOM     27  C   UNL A   1      37.089  31.484  28.558  1.00  0.00     0.010 A 
ATOM     28  C   UNL A   1      36.005  29.378  29.049  1.00  0.00     0.010 A 
ATOM     29  C   UNL A   1      37.136  30.202  29.130  1.00  0.00    -0.014 A 
BRANCH  29  30
ATOM     30  C   UNL A   1      38.352  29.708  29.826  1.00  0.00     0.031 A 
ATOM     31  C   UNL A   1      38.728  30.251  31.178  1.00  0.00     0.074 A 
ATOM     32  C   UNL A   1      39.172  28.846  29.192  1.00  0.00     0.049 A 
ATOM     33  N   UNL A   1      39.784  29.993  31.905  1.00  0.00    -0.248 NA
ATOM     34  C   UNL A   1      37.814  31.238  31.779  1.00  0.00     0.031 C 
ATOM     35  C   UNL A   1      38.964  28.323  27.842  1.00  0.00     0.029 A 
ATOM     36  N   UNL A   1      40.363  28.290  29.586  1.00  0.00    -0.354 N 
ATOM     37  C   UNL A   1      39.685  30.811  33.024  1.00  0.00     0.074 A 
ATOM     38  C   UNL A   1      38.482  31.599  32.865  1.00  0.00     0.031 C 
ATOM     39  C   UNL A   1      39.995  27.526  27.516  1.00  0.00     0.029 A 
ATOM     40  C   UNL A   1      40.949  27.507  28.620  1.00  0.00     0.049 A 
ATOM     41  H   UNL A   1      40.759  28.437  30.476  1.00  0.00     0.167 HD
ATOM     42  C   UNL A   1      40.505  30.880  34.100  1.00  0.00     0.034 A 
ATOM     43  C   UNL A   1      42.130  26.857  28.616  1.00  0.00     0.034 A 
ATOM     44  C   UNL A   1      41.675  30.063  34.273  1.00  0.00     0.049 A 
ATOM     45  C   UNL A   1      42.994  26.904  29.846  1.00  0.00     0.074 A 
ATOM     46  C   UNL A   1      42.509  29.977  35.373  1.00  0.00     0.029 A 
ATOM     47  N   UNL A   1      42.184  29.198  33.316  1.00  0.00    -0.354 N 
ATOM     48  N   UNL A   1      42.791  27.545  30.971  1.00  0.00    -0.248 NA
ATOM     49  C   UNL A   1      44.229  26.107  29.822  1.00  0.00     0.031 C 
ATOM     50  C   UNL A   1      43.541  29.081  35.070  1.00  0.00     0.029 A 
ATOM     51  C   UNL A   1      43.331  28.586  33.792  1.00  0.00     0.049 A 
ATOM     52  H   UNL A   1      41.788  29.043  32.428  1.00  0.00     0.167 HD
ATOM     53  C   UNL A   1      43.856  27.209  31.799  1.00  0.00     0.074 A 
ATOM     54  C   UNL A   1      44.688  26.287  31.053  1.00  0.00     0.031 C 
ATOM     55  C   UNL A   1      44.127  27.636  33.057  1.00  0.00     0.034 A 
BRANCH  42  56
ATOM     56  C   UNL A   1      40.134  31.843  35.199  1.00  0.00     0.023 A 
ATOM     57  C   UNL A   1      40.713  33.130  35.224  1.00  0.00     0.012 A 
ATOM     58  C   UNL A   1      39.184  31.496  36.180  1.00  0.00     0.148 A 
ATOM     59  C   UNL A   1      40.385  34.039  36.229  1.00  0.00     0.002 A 
ATOM     60  C   UNL A   1      38.826  32.426  37.150  1.00  0.00     0.091 A 
ATOM     61  F   UNL A   1      38.659  30.263  36.155  1.00  0.00    -0.205 F 
ATOM     62  C   UNL A   1      39.435  33.690  37.185  1.00  0.00     0.022 A 
BRANCH  60  63
ATOM     63  S   UNL A   1      37.552  32.101  38.376  1.00  0.00     0.127 S 
ATOM     64  O   UNL A   1      38.254  32.414  39.620  1.00  0.00    -0.237 OA
ATOM     65  O   UNL A   1      36.513  33.062  38.004  1.00  0.00    -0.237 OA
ATOM     66  O   UNL A   1      37.176  30.706  38.200  1.00  0.00    -0.744 OA
ENDBRANCH  60  63
ENDBRANCH  42  56
BRANCH  43  67
ATOM     67  C   UNL A   1      42.528  26.062  27.420  1.00  0.00     0.023 A 
ATOM     68  C   UNL A   1      43.352  26.648  26.440  1.00  0.00     0.012 A 
ATOM     69  C   UNL A   1      42.141  24.715  27.278  1.00  0.00     0.148 A 
ATOM     70  C   UNL A   1      43.761  25.915  25.325  1.00  0.00     0.002 A 
ATOM     71  C   UNL A   1      42.598  23.974  26.196  1.00  0.00     0.091 A 
ATOM     72  F   UNL A   1      41.350  24.180  28.218  1.00  0.00    -0.205 F 
ATOM     73  C   UNL A   1      43.394  24.577  25.209  1.00  0.00     0.022 A 
BRANCH  71  74
ATOM     74  S   UNL A   1      42.294  22.211  26.040  1.00  0.00     0.127 S 
ATOM     75  O   UNL A   1      40.850  22.174  25.816  1.00  0.00    -0.237 OA
ATOM     76  O   UNL A   1      43.106  21.867  24.870  1.00  0.00    -0.237 OA
ATOM     77  O   UNL A   1      42.757  21.618  27.284  1.00  0.00    -0.744 OA
ENDBRANCH  71  74
ENDBRANCH  43  67
BRANCH  55  78
ATOM     78  C   UNL A   1      45.363  27.096  33.727  1.00  0.00     0.023 A 
ATOM     79  C   UNL A   1      46.550  27.855  33.725  1.00  0.00     0.012 A 
ATOM     80  C   UNL A   1      45.326  25.871  34.423  1.00  0.00     0.148 A 
ATOM     81  C   UNL A   1      47.690  27.389  34.378  1.00  0.00     0.002 A 
ATOM     82  C   UNL A   1      46.452  25.437  35.113  1.00  0.00     0.091 A 
ATOM     83  F   UNL A   1      44.194  25.155  34.397  1.00  0.00    -0.205 F 
ATOM     84  C   UNL A   1      47.637  26.188  35.082  1.00  0.00     0.022 A 
BRANCH  82  85
ATOM     85  S   UNL A   1      46.447  23.952  36.125  1.00  0.00     0.127 S 
ATOM     86  O   UNL A   1      47.872  23.769  36.392  1.00  0.00    -0.237 OA
ATOM     87  O   UNL A   1      45.658  24.370  37.285  1.00  0.00    -0.237 OA
ATOM     88  O   UNL A   1      45.824  22.915  35.313  1.00  0.00    -0.744 OA
ENDBRANCH  82  85
ENDBRANCH  55  78
ENDBRANCH  29  30
ENDBRANCH  21  24
ENDBRANCH  19  20
ENDBRANCH   1  19
TORSDOF 16
ENDMDL
MODEL 3
REMARK VINA RESULT:     -10.5      3.560      6.146
REMARK SMILES CCC1(CC)C[NH+](C2(C(=O)NCCCNC(=O)c3ccc(-c4c5nc(c(-c6cccc(S(=O)(=O)[O-])c6F)c6ccc([nH]6)c(-c6cccc(S(=O)(=O)[O-])c6F)c6nc(c(-c7cccc(S(=O)(=O)[O-])c7F)c7ccc4[nH]7)C=C6)C=C5)cc3)CC2)C1
REMARK SMILES IDX 13 1 12 2 11 3 9 4 10 5 8 7 81 8 82 9 7 10 3 11 6 12 83 13
REMARK SMILES IDX 2 15 1 16 4 17 5 18 14 19 15 20 16 21 17 23 18 24 19 25
REMARK SMILES IDX 80 26 20 27 79 28 21 29 22 30 23 31 73 32 24 33 78 34 72 35
REMARK SMILES IDX 74 36 25 37 77 38 71 39 70 40 26 42 58 43 38 44 57 45 39 46
REMARK SMILES IDX 42 47 56 48 75 49 40 50 41 51 55 53 76 54 43 55 27 56 28 57
REMARK SMILES IDX 36 58 29 59 31 60 37 61 30 62 32 63 33 64 34 65 35 66 59 67
REMARK SMILES IDX 60 68 68 69 61 70 63 71 69 72 62 73 64 74 65 75 66 76 67 77
REMARK SMILES IDX 44 78 45 79 53 80 46 81 48 82 54 83 47 84 49 85 50 86 51 87
REMARK SMILES IDX 52 88
REMARK H PARENT 11 6 7 14 15 22 74 41 42 52
REMARK Flexibility Score: inf
ROOT
ATOM      1  C   UNL A   1      34.473  34.637  28.048  1.00  0.00     0.042 C 
ENDROOT
BRANCH   1   2
ATOM      2  C   UNL A   1      33.107  34.951  28.652  1.00  0.00     0.118 C 
BRANCH   2   3
ATOM      3  N   UNL A   1      33.033  36.272  29.252  1.00  0.00    -0.351 N 
ATOM      4  C   UNL A   1      33.173  36.765  30.530  1.00  0.00     0.281 C 
ATOM      5  O   UNL A   1      33.107  37.998  30.622  1.00  0.00    -0.268 OA
ATOM      6  H   UNL A   1      32.837  36.978  28.593  1.00  0.00     0.163 HD
BRANCH   4   7
ATOM      7  C   UNL A   1      33.384  35.905  31.790  1.00  0.00     0.177 C 
ATOM      8  C   UNL A   1      32.207  35.504  32.670  1.00  0.00     0.086 C 
ATOM      9  C   UNL A   1      33.157  36.557  33.143  1.00  0.00     0.086 C 
BRANCH   7  10
ATOM     10  N   UNL A   1      34.487  34.912  31.566  1.00  0.00    -0.321 N 
ATOM     11  C   UNL A   1      35.611  33.877  33.081  1.00  0.00     0.068 C 
ATOM     12  C   UNL A   1      35.791  35.152  32.178  1.00  0.00     0.275 C 
ATOM     13  C   UNL A   1      34.402  33.567  32.133  1.00  0.00     0.275 C 
ATOM     14  H   UNL A   1      34.383  35.010  30.557  1.00  0.00     0.349 HD
BRANCH  11  15
ATOM     15  C   UNL A   1      36.842  32.962  32.901  1.00  0.00     0.015 C 
ATOM     16  C   UNL A   1      36.503  31.485  32.821  1.00  0.00     0.005 C 
ENDBRANCH  11  15
BRANCH  11  17
ATOM     17  C   UNL A   1      35.333  34.237  34.555  1.00  0.00     0.015 C 
ATOM     18  C   UNL A   1      36.408  33.801  35.540  1.00  0.00     0.005 C 
ENDBRANCH  11  17
ENDBRANCH   7  10
ENDBRANCH   4   7
ENDBRANCH   2   3
ENDBRANCH   1   2
BRANCH   1  19
ATOM     19  C   UNL A   1      35.021  33.268  28.420  1.00  0.00     0.118 C 
BRANCH  19  20
ATOM     20  N   UNL A   1      34.175  32.183  27.936  1.00  0.00    -0.352 N 
ATOM     21  C   UNL A   1      34.476  30.870  27.686  1.00  0.00     0.251 C 
ATOM     22  H   UNL A   1      33.239  32.434  27.764  1.00  0.00     0.163 HD
ATOM     23  O   UNL A   1      33.670  30.182  27.055  1.00  0.00    -0.269 OA
BRANCH  21  24
ATOM     24  C   UNL A   1      35.745  30.276  28.154  1.00  0.00     0.039 A 
ATOM     25  C   UNL A   1      36.851  30.279  27.299  1.00  0.00     0.014 A 
ATOM     26  C   UNL A   1      35.840  29.677  29.413  1.00  0.00     0.014 A 
ATOM     27  C   UNL A   1      38.064  29.734  27.728  1.00  0.00     0.010 A 
ATOM     28  C   UNL A   1      37.071  29.216  29.872  1.00  0.00     0.010 A 
ATOM     29  C   UNL A   1      38.192  29.226  29.031  1.00  0.00    -0.014 A 
BRANCH  29  30
ATOM     30  C   UNL A   1      39.490  28.709  29.536  1.00  0.00     0.031 A 
ATOM     31  C   UNL A   1      40.218  29.430  30.637  1.00  0.00     0.074 A 
ATOM     32  C   UNL A   1      40.061  27.649  28.930  1.00  0.00     0.049 A 
ATOM     33  N   UNL A   1      41.389  29.170  31.159  1.00  0.00    -0.248 NA
ATOM     34  C   UNL A   1      39.560  30.619  31.207  1.00  0.00     0.031 C 
ATOM     35  C   UNL A   1      39.497  26.925  27.790  1.00  0.00     0.029 A 
ATOM     36  N   UNL A   1      41.258  27.021  29.165  1.00  0.00    -0.354 N 
ATOM     37  C   UNL A   1      41.627  30.180  32.084  1.00  0.00     0.074 A 
ATOM     38  C   UNL A   1      40.493  31.078  32.029  1.00  0.00     0.031 C 
ATOM     39  C   UNL A   1      40.350  25.956  27.420  1.00  0.00     0.029 A 
ATOM     40  C   UNL A   1      41.531  26.009  28.276  1.00  0.00     0.049 A 
ATOM     41  H   UNL A   1      41.863  27.271  29.901  1.00  0.00     0.167 HD
ATOM     42  C   UNL A   1      42.679  30.332  32.923  1.00  0.00     0.034 A 
ATOM     43  C   UNL A   1      42.617  25.221  28.151  1.00  0.00     0.034 A 
ATOM     44  C   UNL A   1      43.781  29.414  33.005  1.00  0.00     0.049 A 
ATOM     45  C   UNL A   1      43.746  25.373  29.133  1.00  0.00     0.074 A 
ATOM     46  C   UNL A   1      44.840  29.416  33.895  1.00  0.00     0.029 A 
ATOM     47  N   UNL A   1      43.975  28.334  32.157  1.00  0.00    -0.354 N 
ATOM     48  N   UNL A   1      43.870  26.225  30.121  1.00  0.00    -0.248 NA
ATOM     49  C   UNL A   1      44.868  24.430  29.007  1.00  0.00     0.031 C 
ATOM     50  C   UNL A   1      45.690  28.354  33.567  1.00  0.00     0.029 A 
ATOM     51  C   UNL A   1      45.144  27.671  32.491  1.00  0.00     0.049 A 
ATOM     52  H   UNL A   1      43.370  28.075  31.424  1.00  0.00     0.167 HD
ATOM     53  C   UNL A   1      45.066  25.905  30.754  1.00  0.00     0.074 A 
ATOM     54  C   UNL A   1      45.616  24.765  30.050  1.00  0.00     0.031 C 
ATOM     55  C   UNL A   1      45.660  26.511  31.811  1.00  0.00     0.034 A 
BRANCH  42  56
ATOM     56  C   UNL A   1      42.661  31.515  33.858  1.00  0.00     0.023 A 
ATOM     57  C   UNL A   1      43.181  32.754  33.425  1.00  0.00     0.012 A 
ATOM     58  C   UNL A   1      42.093  31.418  35.143  1.00  0.00     0.148 A 
ATOM     59  C   UNL A   1      43.174  33.863  34.270  1.00  0.00     0.002 A 
ATOM     60  C   UNL A   1      42.046  32.541  35.962  1.00  0.00     0.091 A 
ATOM     61  F   UNL A   1      41.623  30.229  35.547  1.00  0.00    -0.205 F 
ATOM     62  C   UNL A   1      42.598  33.759  35.533  1.00  0.00     0.022 A 
BRANCH  60  63
ATOM     63  S   UNL A   1      41.252  32.529  37.573  1.00  0.00     0.127 S 
ATOM     64  O   UNL A   1      39.919  32.028  37.242  1.00  0.00    -0.237 OA
ATOM     65  O   UNL A   1      42.088  31.589  38.322  1.00  0.00    -0.237 OA
ATOM     66  O   UNL A   1      41.305  33.902  38.055  1.00  0.00    -0.744 OA
ENDBRANCH  60  63
ENDBRANCH  42  56
BRANCH  43  67
ATOM     67  C   UNL A   1      42.653  24.181  27.085  1.00  0.00     0.023 A 
ATOM     68  C   UNL A   1      43.378  24.424  25.902  1.00  0.00     0.012 A 
ATOM     69  C   UNL A   1      42.021  22.934  27.260  1.00  0.00     0.148 A 
ATOM     70  C   UNL A   1      43.449  23.455  24.901  1.00  0.00     0.002 A 
ATOM     71  C   UNL A   1      42.144  21.953  26.285  1.00  0.00     0.091 A 
ATOM     72  F   UNL A   1      41.330  22.727  28.390  1.00  0.00    -0.205 F 
ATOM     73  C   UNL A   1      42.843  22.217  25.097  1.00  0.00     0.022 A 
BRANCH  71  74
ATOM     74  S   UNL A   1      41.519  20.285  26.515  1.00  0.00     0.127 S 
ATOM     75  O   UNL A   1      42.074  19.594  25.352  1.00  0.00    -0.237 OA
ATOM     76  O   UNL A   1      42.120  19.911  27.797  1.00  0.00    -0.237 OA
ATOM     77  O   UNL A   1      40.070  20.407  26.546  1.00  0.00    -0.744 OA
ENDBRANCH  71  74
ENDBRANCH  43  67
BRANCH  55  78
ATOM     78  C   UNL A   1      46.968  25.942  32.297  1.00  0.00     0.023 A 
ATOM     79  C   UNL A   1      46.987  25.086  33.416  1.00  0.00     0.012 A 
ATOM     80  C   UNL A   1      48.165  26.194  31.598  1.00  0.00     0.148 A 
ATOM     81  C   UNL A   1      48.182  24.516  33.851  1.00  0.00     0.002 A 
ATOM     82  C   UNL A   1      49.344  25.582  32.008  1.00  0.00     0.091 A 
ATOM     83  F   UNL A   1      48.129  27.026  30.548  1.00  0.00    -0.205 F 
ATOM     84  C   UNL A   1      49.356  24.753  33.141  1.00  0.00     0.022 A 
BRANCH  82  85
ATOM     85  S   UNL A   1      50.884  25.754  31.099  1.00  0.00     0.127 S 
ATOM     86  O   UNL A   1      51.789  24.917  31.885  1.00  0.00    -0.237 OA
ATOM     87  O   UNL A   1      50.532  25.207  29.787  1.00  0.00    -0.237 OA
ATOM     88  O   UNL A   1      51.192  27.178  31.095  1.00  0.00    -0.744 OA
ENDBRANCH  82  85
ENDBRANCH  55  78
ENDBRANCH  29  30
ENDBRANCH  21  24
ENDBRANCH  19  20
ENDBRANCH   1  19
TORSDOF 16
ENDMDL
