MODEL 1
REMARK VINA RESULT:     -12.4      0.000      0.000
REMARK SMILES C[C@H](C[N@H+]1[C@@H]2CC[C@H]1C[C@H](CC(=O)NCCCNC(=O)c1ccc(-c3c4nc(c(-c5cccc(S(=O)(=O)[O-])c5F)c5ccc([nH]5)c(-c5cccc(S(=O)(=O)[O-])c5F)c5nc(c(-c6cccc(S(=O)(=O)[O-])c6F)c6ccc3[nH]6)C=C5)C=C4)cc1)C2)c1ccccc1
REMARK SMILES IDX 15 1 14 2 12 3 13 4 11 6 10 7 4 8 5 9 8 10 6 12 84 13 7 14
REMARK SMILES IDX 9 15 3 16 2 17 1 18 85 19 86 20 90 21 87 22 89 23 88 24
REMARK SMILES IDX 16 25 17 26 18 27 19 28 20 30 21 31 22 32 83 33 23 34 82 35
REMARK SMILES IDX 24 36 25 37 26 38 76 39 27 40 81 41 75 42 77 43 28 44 80 45
REMARK SMILES IDX 74 46 73 47 29 49 61 50 41 51 60 52 42 53 45 54 59 55 78 56
REMARK SMILES IDX 43 57 44 58 58 60 79 61 46 62 30 63 31 64 39 65 32 66 34 67
REMARK SMILES IDX 40 68 33 69 35 70 36 71 37 72 38 73 62 74 63 75 71 76 64 77
REMARK SMILES IDX 66 78 72 79 65 80 67 81 68 82 69 83 70 84 47 85 48 86 56 87
REMARK SMILES IDX 49 88 51 89 57 90 50 91 52 92 53 93 54 94 55 95
REMARK H PARENT 14 5 4 11 18 29 77 48 45 59
REMARK Flexibility Score: inf
ROOT
ATOM      1  C   UNL A   1      31.458  30.924  25.946  1.00  0.00     0.117 C 
ENDROOT
BRANCH   1   2
ATOM      2  N   UNL A   1      32.268  29.990  26.718  1.00  0.00    -0.356 N 
ATOM      3  C   UNL A   1      33.265  29.138  26.354  1.00  0.00     0.220 C 
ATOM      4  O   UNL A   1      33.865  28.539  27.250  1.00  0.00    -0.275 OA
ATOM      5  H   UNL A   1      32.056  29.973  27.679  1.00  0.00     0.163 HD
BRANCH   3   6
ATOM      6  C   UNL A   1      33.633  28.909  24.900  1.00  0.00     0.104 C 
BRANCH   6   7
ATOM      7  C   UNL A   1      32.927  27.681  24.294  1.00  0.00     0.010 C 
ATOM      8  N   UNL A   1      30.128  27.085  23.468  1.00  0.00    -0.330 N 
ATOM      9  C   UNL A   1      31.206  27.076  22.477  1.00  0.00     0.184 C 
ATOM     10  C   UNL A   1      30.703  26.364  24.604  1.00  0.00     0.184 C 
ATOM     11  H   UNL A   1      29.299  26.639  23.074  1.00  0.00     0.348 HD
ATOM     12  C   UNL A   1      31.597  25.588  22.511  1.00  0.00     0.071 C 
ATOM     13  C   UNL A   1      32.367  27.995  22.892  1.00  0.00     0.069 C 
ATOM     14  C   UNL A   1      31.223  25.109  23.915  1.00  0.00     0.071 C 
ATOM     15  C   UNL A   1      31.846  27.151  25.248  1.00  0.00     0.069 C 
BRANCH   8  16
ATOM     16  C   UNL A   1      29.476  28.353  23.795  1.00  0.00     0.270 C 
BRANCH  16  17
ATOM     17  C   UNL A   1      28.281  28.723  22.874  1.00  0.00     0.071 C 
ATOM     18  C   UNL A   1      26.919  28.341  23.471  1.00  0.00     0.019 C 
BRANCH  17  19
ATOM     19  C   UNL A   1      28.264  30.210  22.528  1.00  0.00    -0.040 A 
ATOM     20  C   UNL A   1      28.533  31.171  23.513  1.00  0.00     0.004 A 
ATOM     21  C   UNL A   1      28.070  30.645  21.205  1.00  0.00     0.004 A 
ATOM     22  C   UNL A   1      28.617  32.527  23.182  1.00  0.00     0.000 A 
ATOM     23  C   UNL A   1      28.148  31.999  20.877  1.00  0.00     0.000 A 
ATOM     24  C   UNL A   1      28.427  32.940  21.864  1.00  0.00     0.000 A 
ENDBRANCH  17  19
ENDBRANCH  16  17
ENDBRANCH   8  16
ENDBRANCH   6   7
ENDBRANCH   3   6
ENDBRANCH   1   2
BRANCH   1  25
ATOM     25  C   UNL A   1      31.355  32.316  26.573  1.00  0.00     0.042 C 
BRANCH  25  26
ATOM     26  C   UNL A   1      32.622  32.807  27.261  1.00  0.00     0.118 C 
BRANCH  26  27
ATOM     27  N   UNL A   1      32.513  34.206  27.628  1.00  0.00    -0.352 N 
ATOM     28  C   UNL A   1      33.081  34.876  28.686  1.00  0.00     0.251 C 
ATOM     29  H   UNL A   1      31.951  34.755  27.035  1.00  0.00     0.163 HD
ATOM     30  O   UNL A   1      32.629  35.974  29.001  1.00  0.00    -0.269 OA
BRANCH  28  31
ATOM     31  C   UNL A   1      34.221  34.301  29.448  1.00  0.00     0.039 A 
ATOM     32  C   UNL A   1      35.505  34.387  28.901  1.00  0.00     0.014 A 
ATOM     33  C   UNL A   1      34.031  33.606  30.646  1.00  0.00     0.014 A 
ATOM     34  C   UNL A   1      36.592  33.801  29.561  1.00  0.00     0.010 A 
ATOM     35  C   UNL A   1      35.126  33.089  31.341  1.00  0.00     0.010 A 
ATOM     36  C   UNL A   1      36.417  33.155  30.794  1.00  0.00    -0.014 A 
BRANCH  36  37
ATOM     37  C   UNL A   1      37.561  32.518  31.504  1.00  0.00     0.031 A 
ATOM     38  C   UNL A   1      38.313  31.376  30.865  1.00  0.00     0.074 A 
ATOM     39  C   UNL A   1      37.888  32.918  32.749  1.00  0.00     0.049 A 
ATOM     40  N   UNL A   1      39.307  30.671  31.344  1.00  0.00    -0.248 NA
ATOM     41  C   UNL A   1      37.875  30.953  29.525  1.00  0.00     0.031 C 
ATOM     42  C   UNL A   1      37.198  33.960  33.511  1.00  0.00     0.029 A 
ATOM     43  N   UNL A   1      38.872  32.480  33.602  1.00  0.00    -0.354 N 
ATOM     44  C   UNL A   1      39.586  29.703  30.386  1.00  0.00     0.074 A 
ATOM     45  C   UNL A   1      38.635  29.889  29.312  1.00  0.00     0.031 C 
ATOM     46  C   UNL A   1      37.778  34.081  34.716  1.00  0.00     0.029 A 
ATOM     47  C   UNL A   1      38.866  33.112  34.824  1.00  0.00     0.049 A 
ATOM     48  H   UNL A   1      39.520  31.779  33.362  1.00  0.00     0.167 HD
ATOM     49  C   UNL A   1      40.563  28.765  30.381  1.00  0.00     0.034 A 
ATOM     50  C   UNL A   1      39.643  32.931  35.910  1.00  0.00     0.034 A 
ATOM     51  C   UNL A   1      41.545  28.616  31.421  1.00  0.00     0.049 A 
ATOM     52  C   UNL A   1      40.752  31.915  35.860  1.00  0.00     0.074 A 
ATOM     53  C   UNL A   1      42.633  27.761  31.462  1.00  0.00     0.029 A 
ATOM     54  N   UNL A   1      41.560  29.337  32.604  1.00  0.00    -0.354 N 
ATOM     55  N   UNL A   1      41.102  31.122  34.876  1.00  0.00    -0.248 NA
ATOM     56  C   UNL A   1      41.599  31.794  37.057  1.00  0.00     0.031 C 
ATOM     57  C   UNL A   1      43.294  27.952  32.679  1.00  0.00     0.029 A 
ATOM     58  C   UNL A   1      42.631  28.940  33.387  1.00  0.00     0.049 A 
ATOM     59  H   UNL A   1      40.904  30.028  32.852  1.00  0.00     0.167 HD
ATOM     60  C   UNL A   1      42.223  30.433  35.322  1.00  0.00     0.074 A 
ATOM     61  C   UNL A   1      42.511  30.920  36.655  1.00  0.00     0.031 C 
ATOM     62  C   UNL A   1      42.939  29.470  34.690  1.00  0.00     0.034 A 
BRANCH  49  63
ATOM     63  C   UNL A   1      40.662  27.859  29.180  1.00  0.00     0.023 A 
ATOM     64  C   UNL A   1      39.817  26.733  29.090  1.00  0.00     0.012 A 
ATOM     65  C   UNL A   1      41.537  28.151  28.115  1.00  0.00     0.148 A 
ATOM     66  C   UNL A   1      39.865  25.894  27.978  1.00  0.00     0.002 A 
ATOM     67  C   UNL A   1      41.548  27.334  26.990  1.00  0.00     0.091 A 
ATOM     68  F   UNL A   1      42.346  29.214  28.225  1.00  0.00    -0.205 F 
ATOM     69  C   UNL A   1      40.722  26.199  26.925  1.00  0.00     0.022 A 
BRANCH  67  70
ATOM     70  S   UNL A   1      42.560  27.683  25.547  1.00  0.00     0.127 S 
ATOM     71  O   UNL A   1      42.303  26.509  24.714  1.00  0.00    -0.237 OA
ATOM     72  O   UNL A   1      41.967  28.925  25.048  1.00  0.00    -0.237 OA
ATOM     73  O   UNL A   1      43.924  27.816  26.036  1.00  0.00    -0.744 OA
ENDBRANCH  67  70
ENDBRANCH  49  63
BRANCH  50  74
ATOM     74  C   UNL A   1      39.443  33.783  37.117  1.00  0.00     0.023 A 
ATOM     75  C   UNL A   1      39.903  35.114  37.108  1.00  0.00     0.012 A 
ATOM     76  C   UNL A   1      38.780  33.294  38.260  1.00  0.00     0.148 A 
ATOM     77  C   UNL A   1      39.733  35.934  38.225  1.00  0.00     0.002 A 
ATOM     78  C   UNL A   1      38.565  34.133  39.347  1.00  0.00     0.091 A 
ATOM     79  F   UNL A   1      38.363  32.020  38.256  1.00  0.00    -0.205 F 
ATOM     80  C   UNL A   1      39.056  35.447  39.339  1.00  0.00     0.022 A 
BRANCH  78  81
ATOM     81  S   UNL A   1      37.588  33.632  40.769  1.00  0.00     0.127 S 
ATOM     82  O   UNL A   1      37.443  34.890  41.493  1.00  0.00    -0.237 OA
ATOM     83  O   UNL A   1      36.365  33.136  40.137  1.00  0.00    -0.237 OA
ATOM     84  O   UNL A   1      38.374  32.600  41.437  1.00  0.00    -0.744 OA
ENDBRANCH  78  81
ENDBRANCH  50  74
BRANCH  62  85
ATOM     85  C   UNL A   1      44.125  28.889  35.417  1.00  0.00     0.023 A 
ATOM     86  C   UNL A   1      45.401  29.459  35.235  1.00  0.00     0.012 A 
ATOM     87  C   UNL A   1      43.964  27.833  36.335  1.00  0.00     0.148 A 
ATOM     88  C   UNL A   1      46.503  28.966  35.932  1.00  0.00     0.002 A 
ATOM     89  C   UNL A   1      45.058  27.379  37.062  1.00  0.00     0.091 A 
ATOM     90  F   UNL A   1      42.746  27.292  36.480  1.00  0.00    -0.205 F 
ATOM     91  C   UNL A   1      46.330  27.936  36.854  1.00  0.00     0.022 A 
BRANCH  89  92
ATOM     92  S   UNL A   1      44.912  26.122  38.337  1.00  0.00     0.127 S 
ATOM     93  O   UNL A   1      46.244  26.147  38.937  1.00  0.00    -0.237 OA
ATOM     94  O   UNL A   1      43.849  26.661  39.186  1.00  0.00    -0.237 OA
ATOM     95  O   UNL A   1      44.562  24.889  37.643  1.00  0.00    -0.744 OA
ENDBRANCH  89  92
ENDBRANCH  62  85
ENDBRANCH  36  37
ENDBRANCH  28  31
ENDBRANCH  26  27
ENDBRANCH  25  26
ENDBRANCH   1  25
TORSDOF 17
ENDMDL
MODEL 2
REMARK VINA RESULT:     -12.2      1.328      3.300
REMARK SMILES C[C@H](C[N@H+]1[C@@H]2CC[C@H]1C[C@H](CC(=O)NCCCNC(=O)c1ccc(-c3c4nc(c(-c5cccc(S(=O)(=O)[O-])c5F)c5ccc([nH]5)c(-c5cccc(S(=O)(=O)[O-])c5F)c5nc(c(-c6cccc(S(=O)(=O)[O-])c6F)c6ccc3[nH]6)C=C5)C=C4)cc1)C2)c1ccccc1
REMARK SMILES IDX 15 1 14 2 12 3 13 4 11 6 10 7 4 8 5 9 8 10 6 12 84 13 7 14
REMARK SMILES IDX 9 15 3 16 2 17 1 18 85 19 86 20 90 21 87 22 89 23 88 24
REMARK SMILES IDX 16 25 17 26 18 27 19 28 20 30 21 31 22 32 83 33 23 34 82 35
REMARK SMILES IDX 24 36 25 37 26 38 76 39 27 40 81 41 75 42 77 43 28 44 80 45
REMARK SMILES IDX 74 46 73 47 29 49 61 50 41 51 60 52 42 53 45 54 59 55 78 56
REMARK SMILES IDX 43 57 44 58 58 60 79 61 46 62 30 63 31 64 39 65 32 66 34 67
REMARK SMILES IDX 40 68 33 69 35 70 36 71 37 72 38 73 62 74 63 75 71 76 64 77
REMARK SMILES IDX 66 78 72 79 65 80 67 81 68 82 69 83 70 84 47 85 48 86 56 87
REMARK SMILES IDX 49 88 51 89 57 90 50 91 52 92 53 93 54 94 55 95
REMARK H PARENT 14 5 4 11 18 29 77 48 45 59
REMARK Flexibility Score: inf
ROOT
ATOM      1  C   UNL A   1      31.406  30.867  26.254  1.00  0.00     0.117 C 
ENDROOT
BRANCH   1   2
ATOM      2  N   UNL A   1      32.341  30.100  27.067  1.00  0.00    -0.356 N 
ATOM      3  C   UNL A   1      33.251  29.141  26.742  1.00  0.00     0.220 C 
ATOM      4  O   UNL A   1      34.005  28.738  27.632  1.00  0.00    -0.275 OA
ATOM      5  H   UNL A   1      32.310  30.315  28.027  1.00  0.00     0.163 HD
BRANCH   3   6
ATOM      6  C   UNL A   1      33.344  28.566  25.341  1.00  0.00     0.104 C 
BRANCH   6   7
ATOM      7  C   UNL A   1      32.019  27.940  24.866  1.00  0.00     0.010 C 
ATOM      8  N   UNL A   1      31.312  25.617  23.142  1.00  0.00    -0.330 N 
ATOM      9  C   UNL A   1      30.911  25.637  24.550  1.00  0.00     0.184 C 
ATOM     10  C   UNL A   1      30.998  26.968  22.678  1.00  0.00     0.184 C 
ATOM     11  H   UNL A   1      30.799  24.883  22.652  1.00  0.00     0.348 HD
ATOM     12  C   UNL A   1      29.509  26.257  24.426  1.00  0.00     0.071 C 
ATOM     13  C   UNL A   1      31.860  26.502  25.398  1.00  0.00     0.069 C 
ATOM     14  C   UNL A   1      29.559  27.109  23.158  1.00  0.00     0.071 C 
ATOM     15  C   UNL A   1      31.901  28.013  23.336  1.00  0.00     0.069 C 
BRANCH   8  16
ATOM     16  C   UNL A   1      32.645  25.128  22.791  1.00  0.00     0.270 C 
BRANCH  16  17
ATOM     17  C   UNL A   1      33.011  23.747  23.403  1.00  0.00     0.071 C 
ATOM     18  C   UNL A   1      32.776  22.578  22.437  1.00  0.00     0.019 C 
BRANCH  17  19
ATOM     19  C   UNL A   1      34.460  23.701  23.884  1.00  0.00    -0.040 A 
ATOM     20  C   UNL A   1      34.817  24.267  25.116  1.00  0.00     0.004 A 
ATOM     21  C   UNL A   1      35.445  23.016  23.151  1.00  0.00     0.004 A 
ATOM     22  C   UNL A   1      36.121  24.142  25.606  1.00  0.00     0.000 A 
ATOM     23  C   UNL A   1      36.747  22.897  23.639  1.00  0.00     0.000 A 
ATOM     24  C   UNL A   1      37.084  23.454  24.869  1.00  0.00     0.000 A 
ENDBRANCH  17  19
ENDBRANCH  16  17
ENDBRANCH   8  16
ENDBRANCH   6   7
ENDBRANCH   3   6
ENDBRANCH   1   2
BRANCH   1  25
ATOM     25  C   UNL A   1      31.453  32.374  26.517  1.00  0.00     0.042 C 
BRANCH  25  26
ATOM     26  C   UNL A   1      32.704  32.863  27.235  1.00  0.00     0.118 C 
BRANCH  26  27
ATOM     27  N   UNL A   1      32.569  34.250  27.640  1.00  0.00    -0.352 N 
ATOM     28  C   UNL A   1      33.108  34.896  28.727  1.00  0.00     0.251 C 
ATOM     29  H   UNL A   1      32.011  34.808  27.052  1.00  0.00     0.163 HD
ATOM     30  O   UNL A   1      32.636  35.980  29.064  1.00  0.00    -0.269 OA
BRANCH  28  31
ATOM     31  C   UNL A   1      34.242  34.314  29.493  1.00  0.00     0.039 A 
ATOM     32  C   UNL A   1      35.546  34.549  29.045  1.00  0.00     0.014 A 
ATOM     33  C   UNL A   1      34.035  33.475  30.592  1.00  0.00     0.014 A 
ATOM     34  C   UNL A   1      36.633  33.964  29.706  1.00  0.00     0.010 A 
ATOM     35  C   UNL A   1      35.123  32.955  31.296  1.00  0.00     0.010 A 
ATOM     36  C   UNL A   1      36.434  33.170  30.845  1.00  0.00    -0.014 A 
BRANCH  36  37
ATOM     37  C   UNL A   1      37.579  32.532  31.554  1.00  0.00     0.031 A 
ATOM     38  C   UNL A   1      38.321  31.380  30.920  1.00  0.00     0.074 A 
ATOM     39  C   UNL A   1      37.917  32.942  32.793  1.00  0.00     0.049 A 
ATOM     40  N   UNL A   1      39.314  30.675  31.399  1.00  0.00    -0.248 NA
ATOM     41  C   UNL A   1      37.872  30.948  29.587  1.00  0.00     0.031 C 
ATOM     42  C   UNL A   1      37.237  33.994  33.550  1.00  0.00     0.029 A 
ATOM     43  N   UNL A   1      38.904  32.505  33.644  1.00  0.00    -0.354 N 
ATOM     44  C   UNL A   1      39.582  29.696  30.448  1.00  0.00     0.074 A 
ATOM     45  C   UNL A   1      38.625  29.878  29.378  1.00  0.00     0.031 C 
ATOM     46  C   UNL A   1      37.825  34.123  34.750  1.00  0.00     0.029 A 
ATOM     47  C   UNL A   1      38.908  33.148  34.860  1.00  0.00     0.049 A 
ATOM     48  H   UNL A   1      39.546  31.799  33.405  1.00  0.00     0.167 HD
ATOM     49  C   UNL A   1      40.554  28.753  30.445  1.00  0.00     0.034 A 
ATOM     50  C   UNL A   1      39.691  32.973  35.943  1.00  0.00     0.034 A 
ATOM     51  C   UNL A   1      41.542  28.608  31.480  1.00  0.00     0.049 A 
ATOM     52  C   UNL A   1      40.795  31.950  35.895  1.00  0.00     0.074 A 
ATOM     53  C   UNL A   1      42.625  27.747  31.522  1.00  0.00     0.029 A 
ATOM     54  N   UNL A   1      41.567  29.339  32.657  1.00  0.00    -0.354 N 
ATOM     55  N   UNL A   1      41.134  31.147  34.916  1.00  0.00    -0.248 NA
ATOM     56  C   UNL A   1      41.648  31.835  37.087  1.00  0.00     0.031 C 
ATOM     57  C   UNL A   1      43.295  27.945  32.733  1.00  0.00     0.029 A 
ATOM     58  C   UNL A   1      42.641  28.943  33.436  1.00  0.00     0.049 A 
ATOM     59  H   UNL A   1      40.918  30.036  32.903  1.00  0.00     0.167 HD
ATOM     60  C   UNL A   1      42.254  30.455  35.360  1.00  0.00     0.074 A 
ATOM     61  C   UNL A   1      42.553  30.952  36.687  1.00  0.00     0.031 C 
ATOM     62  C   UNL A   1      42.961  29.482  34.733  1.00  0.00     0.034 A 
BRANCH  49  63
ATOM     63  C   UNL A   1      40.640  27.836  29.251  1.00  0.00     0.023 A 
ATOM     64  C   UNL A   1      39.792  26.710  29.180  1.00  0.00     0.012 A 
ATOM     65  C   UNL A   1      41.505  28.117  28.176  1.00  0.00     0.148 A 
ATOM     66  C   UNL A   1      39.829  25.861  28.075  1.00  0.00     0.002 A 
ATOM     67  C   UNL A   1      41.505  27.289  27.058  1.00  0.00     0.091 A 
ATOM     68  F   UNL A   1      42.317  29.179  28.268  1.00  0.00    -0.205 F 
ATOM     69  C   UNL A   1      40.677  26.156  27.011  1.00  0.00     0.022 A 
BRANCH  67  70
ATOM     70  S   UNL A   1      42.503  27.624  25.602  1.00  0.00     0.127 S 
ATOM     71  O   UNL A   1      41.941  28.894  25.144  1.00  0.00    -0.237 OA
ATOM     72  O   UNL A   1      43.849  27.723  26.167  1.00  0.00    -0.237 OA
ATOM     73  O   UNL A   1      42.302  26.493  24.708  1.00  0.00    -0.744 OA
ENDBRANCH  67  70
ENDBRANCH  49  63
BRANCH  50  74
ATOM     74  C   UNL A   1      39.504  33.836  37.144  1.00  0.00     0.023 A 
ATOM     75  C   UNL A   1      39.970  35.164  37.120  1.00  0.00     0.012 A 
ATOM     76  C   UNL A   1      38.846  33.361  38.295  1.00  0.00     0.148 A 
ATOM     77  C   UNL A   1      39.813  35.995  38.230  1.00  0.00     0.002 A 
ATOM     78  C   UNL A   1      38.642  34.210  39.376  1.00  0.00     0.091 A 
ATOM     79  F   UNL A   1      38.422  32.089  38.305  1.00  0.00    -0.205 F 
ATOM     80  C   UNL A   1      39.140  35.522  39.353  1.00  0.00     0.022 A 
BRANCH  78  81
ATOM     81  S   UNL A   1      37.672  33.727  40.808  1.00  0.00     0.127 S 
ATOM     82  O   UNL A   1      36.494  33.132  40.186  1.00  0.00    -0.237 OA
ATOM     83  O   UNL A   1      38.565  32.780  41.475  1.00  0.00    -0.237 OA
ATOM     84  O   UNL A   1      37.441  34.959  41.556  1.00  0.00    -0.744 OA
ENDBRANCH  78  81
ENDBRANCH  50  74
BRANCH  62  85
ATOM     85  C   UNL A   1      44.148  28.901  35.457  1.00  0.00     0.023 A 
ATOM     86  C   UNL A   1      45.422  29.478  35.281  1.00  0.00     0.012 A 
ATOM     87  C   UNL A   1      43.990  27.838  36.367  1.00  0.00     0.148 A 
ATOM     88  C   UNL A   1      46.525  28.985  35.977  1.00  0.00     0.002 A 
ATOM     89  C   UNL A   1      45.085  27.383  37.093  1.00  0.00     0.091 A 
ATOM     90  F   UNL A   1      42.774  27.291  36.506  1.00  0.00    -0.205 F 
ATOM     91  C   UNL A   1      46.355  27.947  36.891  1.00  0.00     0.022 A 
BRANCH  89  92
ATOM     92  S   UNL A   1      44.942  26.116  38.358  1.00  0.00     0.127 S 
ATOM     93  O   UNL A   1      46.328  25.978  38.801  1.00  0.00    -0.237 OA
ATOM     94  O   UNL A   1      44.050  26.746  39.331  1.00  0.00    -0.237 OA
ATOM     95  O   UNL A   1      44.379  24.948  37.692  1.00  0.00    -0.744 OA
ENDBRANCH  89  92
ENDBRANCH  62  85
ENDBRANCH  36  37
ENDBRANCH  28  31
ENDBRANCH  26  27
ENDBRANCH  25  26
ENDBRANCH   1  25
TORSDOF 17
ENDMDL
MODEL 3
REMARK VINA RESULT:     -12.0      6.078     11.902
REMARK SMILES C[C@H](C[N@H+]1[C@@H]2CC[C@H]1C[C@H](CC(=O)NCCCNC(=O)c1ccc(-c3c4nc(c(-c5cccc(S(=O)(=O)[O-])c5F)c5ccc([nH]5)c(-c5cccc(S(=O)(=O)[O-])c5F)c5nc(c(-c6cccc(S(=O)(=O)[O-])c6F)c6ccc3[nH]6)C=C5)C=C4)cc1)C2)c1ccccc1
REMARK SMILES IDX 15 1 14 2 12 3 13 4 11 6 10 7 4 8 5 9 8 10 6 12 84 13 7 14
REMARK SMILES IDX 9 15 3 16 2 17 1 18 85 19 86 20 90 21 87 22 89 23 88 24
REMARK SMILES IDX 16 25 17 26 18 27 19 28 20 30 21 31 22 32 83 33 23 34 82 35
REMARK SMILES IDX 24 36 25 37 26 38 76 39 27 40 81 41 75 42 77 43 28 44 80 45
REMARK SMILES IDX 74 46 73 47 29 49 61 50 41 51 60 52 42 53 45 54 59 55 78 56
REMARK SMILES IDX 43 57 44 58 58 60 79 61 46 62 30 63 31 64 39 65 32 66 34 67
REMARK SMILES IDX 40 68 33 69 35 70 36 71 37 72 38 73 62 74 63 75 71 76 64 77
REMARK SMILES IDX 66 78 72 79 65 80 67 81 68 82 69 83 70 84 47 85 48 86 56 87
REMARK SMILES IDX 49 88 51 89 57 90 50 91 52 92 53 93 54 94 55 95
REMARK H PARENT 14 5 4 11 18 29 77 48 45 59
REMARK Flexibility Score: inf
ROOT
ATOM      1  C   UNL A   1      37.215  20.637  24.856  1.00  0.00     0.117 C 
ENDROOT
BRANCH   1   2
ATOM      2  N   UNL A   1      37.516  21.967  25.370  1.00  0.00    -0.356 N 
ATOM      3  C   UNL A   1      36.896  23.167  25.200  1.00  0.00     0.220 C 
ATOM      4  O   UNL A   1      37.308  24.125  25.859  1.00  0.00    -0.275 OA
ATOM      5  H   UNL A   1      38.313  22.004  25.946  1.00  0.00     0.163 HD
BRANCH   3   6
ATOM      6  C   UNL A   1      35.744  23.344  24.230  1.00  0.00     0.104 C 
BRANCH   6   7
ATOM      7  C   UNL A   1      34.380  22.994  24.857  1.00  0.00     0.010 C 
ATOM      8  N   UNL A   1      31.725  24.340  24.954  1.00  0.00    -0.330 N 
ATOM      9  C   UNL A   1      31.867  23.040  24.297  1.00  0.00     0.184 C 
ATOM     10  C   UNL A   1      32.488  24.183  26.192  1.00  0.00     0.184 C 
ATOM     11  H   UNL A   1      30.736  24.541  25.102  1.00  0.00     0.348 HD
ATOM     12  C   UNL A   1      31.523  22.103  25.468  1.00  0.00     0.071 C 
ATOM     13  C   UNL A   1      33.297  22.821  23.773  1.00  0.00     0.069 C 
ATOM     14  C   UNL A   1      31.901  22.883  26.728  1.00  0.00     0.071 C 
ATOM     15  C   UNL A   1      33.986  24.035  25.914  1.00  0.00     0.069 C 
BRANCH   8  16
ATOM     16  C   UNL A   1      32.012  25.555  24.192  1.00  0.00     0.270 C 
BRANCH  16  17
ATOM     17  C   UNL A   1      30.916  26.652  24.284  1.00  0.00     0.071 C 
ATOM     18  C   UNL A   1      29.549  26.104  24.719  1.00  0.00     0.019 C 
BRANCH  17  19
ATOM     19  C   UNL A   1      31.315  27.781  25.232  1.00  0.00    -0.040 A 
ATOM     20  C   UNL A   1      31.446  29.094  24.757  1.00  0.00     0.004 A 
ATOM     21  C   UNL A   1      31.472  27.549  26.610  1.00  0.00     0.004 A 
ATOM     22  C   UNL A   1      31.715  30.146  25.638  1.00  0.00     0.000 A 
ATOM     23  C   UNL A   1      31.746  28.600  27.487  1.00  0.00     0.000 A 
ATOM     24  C   UNL A   1      31.862  29.899  27.002  1.00  0.00     0.000 A 
ENDBRANCH  17  19
ENDBRANCH  16  17
ENDBRANCH   8  16
ENDBRANCH   6   7
ENDBRANCH   3   6
ENDBRANCH   1   2
BRANCH   1  25
ATOM     25  C   UNL A   1      38.340  19.622  25.075  1.00  0.00     0.042 C 
BRANCH  25  26
ATOM     26  C   UNL A   1      39.426  20.065  26.048  1.00  0.00     0.118 C 
BRANCH  26  27
ATOM     27  N   UNL A   1      40.522  19.115  26.080  1.00  0.00    -0.352 N 
ATOM     28  C   UNL A   1      41.876  19.347  26.026  1.00  0.00     0.251 C 
ATOM     29  H   UNL A   1      40.259  18.169  26.148  1.00  0.00     0.163 HD
ATOM     30  O   UNL A   1      42.626  18.410  25.758  1.00  0.00    -0.269 OA
BRANCH  28  31
ATOM     31  C   UNL A   1      42.444  20.696  26.286  1.00  0.00     0.039 A 
ATOM     32  C   UNL A   1      42.625  21.105  27.611  1.00  0.00     0.014 A 
ATOM     33  C   UNL A   1      42.721  21.591  25.248  1.00  0.00     0.014 A 
ATOM     34  C   UNL A   1      43.098  22.392  27.892  1.00  0.00     0.010 A 
ATOM     35  C   UNL A   1      43.265  22.846  25.527  1.00  0.00     0.010 A 
ATOM     36  C   UNL A   1      43.435  23.274  26.853  1.00  0.00    -0.014 A 
BRANCH  36  37
ATOM     37  C   UNL A   1      43.930  24.650  27.135  1.00  0.00     0.031 A 
ATOM     38  C   UNL A   1      42.995  25.696  27.692  1.00  0.00     0.074 A 
ATOM     39  C   UNL A   1      45.201  24.983  26.835  1.00  0.00     0.049 A 
ATOM     40  N   UNL A   1      43.233  26.955  27.964  1.00  0.00    -0.248 NA
ATOM     41  C   UNL A   1      41.607  25.283  27.953  1.00  0.00     0.031 C 
ATOM     42  C   UNL A   1      46.187  24.090  26.224  1.00  0.00     0.029 A 
ATOM     43  N   UNL A   1      45.874  26.172  26.979  1.00  0.00    -0.354 N 
ATOM     44  C   UNL A   1      42.022  27.490  28.389  1.00  0.00     0.074 A 
ATOM     45  C   UNL A   1      41.042  26.428  28.308  1.00  0.00     0.031 C 
ATOM     46  C   UNL A   1      47.338  24.759  26.049  1.00  0.00     0.029 A 
ATOM     47  C   UNL A   1      47.167  26.135  26.510  1.00  0.00     0.049 A 
ATOM     48  H   UNL A   1      45.470  26.974  27.381  1.00  0.00     0.167 HD
ATOM     49  C   UNL A   1      41.752  28.739  28.838  1.00  0.00     0.034 A 
ATOM     50  C   UNL A   1      48.108  27.098  26.452  1.00  0.00     0.034 A 
ATOM     51  C   UNL A   1      42.736  29.779  28.973  1.00  0.00     0.049 A 
ATOM     52  C   UNL A   1      47.796  28.465  27.001  1.00  0.00     0.074 A 
ATOM     53  C   UNL A   1      42.582  31.046  29.509  1.00  0.00     0.029 A 
ATOM     54  N   UNL A   1      44.058  29.675  28.569  1.00  0.00    -0.354 N 
ATOM     55  N   UNL A   1      46.690  28.901  27.552  1.00  0.00    -0.248 NA
ATOM     56  C   UNL A   1      48.876  29.463  26.956  1.00  0.00     0.031 C 
ATOM     57  C   UNL A   1      43.806  31.715  29.411  1.00  0.00     0.029 A 
ATOM     58  C   UNL A   1      44.728  30.857  28.834  1.00  0.00     0.049 A 
ATOM     59  H   UNL A   1      44.460  28.878  28.155  1.00  0.00     0.167 HD
ATOM     60  C   UNL A   1      46.948  30.208  27.945  1.00  0.00     0.074 A 
ATOM     61  C   UNL A   1      48.325  30.487  27.593  1.00  0.00     0.031 C 
ATOM     62  C   UNL A   1      46.114  31.105  28.528  1.00  0.00     0.034 A 
BRANCH  49  63
ATOM     63  C   UNL A   1      40.341  29.039  29.277  1.00  0.00     0.023 A 
ATOM     64  C   UNL A   1      39.386  29.437  28.318  1.00  0.00     0.012 A 
ATOM     65  C   UNL A   1      39.943  28.866  30.617  1.00  0.00     0.148 A 
ATOM     66  C   UNL A   1      38.068  29.692  28.691  1.00  0.00     0.002 A 
ATOM     67  C   UNL A   1      38.615  29.081  30.973  1.00  0.00     0.091 A 
ATOM     68  F   UNL A   1      40.867  28.507  31.519  1.00  0.00    -0.205 F 
ATOM     69  C   UNL A   1      37.680  29.505  30.014  1.00  0.00     0.022 A 
BRANCH  67  70
ATOM     70  S   UNL A   1      37.998  28.794  32.636  1.00  0.00     0.127 S 
ATOM     71  O   UNL A   1      38.032  27.334  32.715  1.00  0.00    -0.237 OA
ATOM     72  O   UNL A   1      39.000  29.472  33.459  1.00  0.00    -0.237 OA
ATOM     73  O   UNL A   1      36.671  29.391  32.680  1.00  0.00    -0.744 OA
ENDBRANCH  67  70
ENDBRANCH  49  63
BRANCH  50  74
ATOM     74  C   UNL A   1      49.462  26.784  25.913  1.00  0.00     0.023 A 
ATOM     75  C   UNL A   1      50.363  26.040  26.699  1.00  0.00     0.012 A 
ATOM     76  C   UNL A   1      49.852  27.192  24.623  1.00  0.00     0.148 A 
ATOM     77  C   UNL A   1      51.638  25.733  26.223  1.00  0.00     0.002 A 
ATOM     78  C   UNL A   1      51.103  26.836  24.133  1.00  0.00     0.091 A 
ATOM     79  F   UNL A   1      48.987  27.913  23.896  1.00  0.00    -0.205 F 
ATOM     80  C   UNL A   1      52.005  26.122  24.937  1.00  0.00     0.022 A 
BRANCH  78  81
ATOM     81  S   UNL A   1      51.607  27.179  22.443  1.00  0.00     0.127 S 
ATOM     82  O   UNL A   1      51.753  28.630  22.462  1.00  0.00    -0.237 OA
ATOM     83  O   UNL A   1      52.860  26.432  22.342  1.00  0.00    -0.237 OA
ATOM     84  O   UNL A   1      50.533  26.658  21.604  1.00  0.00    -0.744 OA
ENDBRANCH  78  81
ENDBRANCH  50  74
BRANCH  62  85
ATOM     85  C   UNL A   1      46.667  32.469  28.852  1.00  0.00     0.023 A 
ATOM     86  C   UNL A   1      47.329  32.679  30.078  1.00  0.00     0.012 A 
ATOM     87  C   UNL A   1      46.599  33.517  27.914  1.00  0.00     0.148 A 
ATOM     88  C   UNL A   1      47.888  33.920  30.378  1.00  0.00     0.002 A 
ATOM     89  C   UNL A   1      47.201  34.737  28.199  1.00  0.00     0.091 A 
ATOM     90  F   UNL A   1      45.949  33.303  26.761  1.00  0.00    -0.205 F 
ATOM     91  C   UNL A   1      47.835  34.945  29.435  1.00  0.00     0.022 A 
BRANCH  89  92
ATOM     92  S   UNL A   1      47.263  36.081  27.009  1.00  0.00     0.127 S 
ATOM     93  O   UNL A   1      47.926  35.444  25.873  1.00  0.00    -0.237 OA
ATOM     94  O   UNL A   1      45.846  36.379  26.801  1.00  0.00    -0.237 OA
ATOM     95  O   UNL A   1      48.016  37.150  27.653  1.00  0.00    -0.744 OA
ENDBRANCH  89  92
ENDBRANCH  62  85
ENDBRANCH  36  37
ENDBRANCH  28  31
ENDBRANCH  26  27
ENDBRANCH  25  26
ENDBRANCH   1  25
TORSDOF 17
ENDMDL
