MODEL 1
REMARK VINA RESULT:     -12.8      0.000      0.000
REMARK SMILES N#Cc1ccccc1C[C@@H](NC(=O)OCC1c2ccccc2-c2ccccc21)C(=O)NCCCNC(=O)c1ccc(-c2c3nc(c(-c4cccc(S(=O)(=O)[O-])c4F)c4ccc([nH]4)c(-c4cccc(S(=O)(=O)[O-])c4F)c4nc(c(-c5cccc(S(=O)(=O)[O-])c5F)c5ccc2[nH]5)C=C4)C=C3)cc1
REMARK SMILES IDX 32 1 31 2 29 3 30 4 10 6 9 7 8 8 3 9 4 10 5 11 7 12 6 13
REMARK SMILES IDX 2 14 1 15 11 16 12 17 13 19 14 20 15 21 16 22 17 23 28 24
REMARK SMILES IDX 18 25 22 26 23 27 27 28 19 29 21 30 24 31 26 32 20 33 25 34
REMARK SMILES IDX 33 35 34 36 35 37 36 38 37 40 38 41 39 42 100 43 40 44 99 45
REMARK SMILES IDX 41 46 42 47 43 48 93 49 44 50 98 51 92 52 94 53 45 54 97 55
REMARK SMILES IDX 91 56 90 57 46 59 78 60 58 61 77 62 59 63 62 64 76 65 95 66
REMARK SMILES IDX 60 67 61 68 75 70 96 71 63 72 47 73 48 74 56 75 49 76 51 77
REMARK SMILES IDX 57 78 50 79 52 80 53 81 54 82 55 83 79 84 80 85 88 86 81 87
REMARK SMILES IDX 83 88 89 89 82 90 84 91 85 92 86 93 87 94 64 95 65 96 73 97
REMARK SMILES IDX 66 98 68 99 74 100 67 101 69 102 70 103 71 104 72 105
REMARK H PARENT 31 5 11 18 35 39 94 58 62 69
REMARK Flexibility Score: inf
ROOT
ATOM      1  C   UNL A   1      33.025  29.225  24.861  1.00  0.00     0.117 C 
ENDROOT
BRANCH   1   2
ATOM      2  N   UNL A   1      33.840  28.922  23.690  1.00  0.00    -0.354 N 
ATOM      3  C   UNL A   1      33.481  28.309  22.519  1.00  0.00     0.243 C 
ATOM      4  O   UNL A   1      34.292  28.281  21.593  1.00  0.00    -0.273 OA
ATOM      5  H   UNL A   1      34.783  29.201  23.748  1.00  0.00     0.163 HD
BRANCH   3   6
ATOM      6  C   UNL A   1      32.095  27.643  22.397  1.00  0.00     0.179 C 
BRANCH   6   7
ATOM      7  C   UNL A   1      31.014  28.767  22.428  1.00  0.00     0.072 C 
BRANCH   7   8
ATOM      8  C   UNL A   1      29.620  28.375  22.884  1.00  0.00    -0.028 A 
ATOM      9  C   UNL A   1      28.485  29.158  22.593  1.00  0.00     0.055 A 
ATOM     10  C   UNL A   1      27.219  28.748  23.038  1.00  0.00     0.020 A 
ATOM     11  C   UNL A   1      27.067  27.565  23.760  1.00  0.00     0.001 A 
ATOM     12  C   UNL A   1      29.427  27.142  23.535  1.00  0.00     0.005 A 
ATOM     13  C   UNL A   1      28.170  26.756  23.999  1.00  0.00     0.000 A 
BRANCH   9  14
ATOM     14  C   UNL A   1      28.566  30.360  21.806  1.00  0.00     0.099 C 
ATOM     15  N   UNL A   1      28.627  31.324  21.170  1.00  0.00    -0.192 NA
ENDBRANCH   9  14
ENDBRANCH   7   8
ENDBRANCH   6   7
BRANCH   6  16
ATOM     16  N   UNL A   1      31.965  26.692  21.286  1.00  0.00    -0.309 N 
ATOM     17  C   UNL A   1      32.689  25.558  21.073  1.00  0.00     0.407 C 
ATOM     18  H   UNL A   1      31.273  26.898  20.616  1.00  0.00     0.167 HD
ATOM     19  O   UNL A   1      33.088  25.274  19.952  1.00  0.00    -0.225 OA
BRANCH  17  20
ATOM     20  O   UNL A   1      32.846  24.810  22.191  1.00  0.00    -0.449 OA
BRANCH  20  21
ATOM     21  C   UNL A   1      33.206  23.427  22.007  1.00  0.00     0.248 C 
BRANCH  21  22
ATOM     22  C   UNL A   1      33.297  22.682  23.350  1.00  0.00     0.088 C 
ATOM     23  C   UNL A   1      34.675  22.847  23.985  1.00  0.00    -0.029 A 
ATOM     24  C   UNL A   1      32.408  23.357  24.391  1.00  0.00    -0.029 A 
ATOM     25  C   UNL A   1      35.888  22.335  23.548  1.00  0.00     0.005 A 
ATOM     26  C   UNL A   1      34.599  23.713  25.091  1.00  0.00    -0.014 A 
ATOM     27  C   UNL A   1      33.205  23.967  25.386  1.00  0.00    -0.014 A 
ATOM     28  C   UNL A   1      31.024  23.419  24.437  1.00  0.00     0.005 A 
ATOM     29  C   UNL A   1      37.055  22.834  24.121  1.00  0.00     0.000 A 
ATOM     30  C   UNL A   1      35.758  24.189  25.680  1.00  0.00     0.009 A 
ATOM     31  C   UNL A   1      32.617  24.626  26.451  1.00  0.00     0.009 A 
ATOM     32  C   UNL A   1      30.432  24.087  25.512  1.00  0.00     0.000 A 
ATOM     33  C   UNL A   1      36.991  23.771  25.163  1.00  0.00     0.001 A 
ATOM     34  C   UNL A   1      31.221  24.679  26.512  1.00  0.00     0.001 A 
ENDBRANCH  21  22
ENDBRANCH  20  21
ENDBRANCH  17  20
ENDBRANCH   6  16
ENDBRANCH   3   6
ENDBRANCH   1   2
BRANCH   1  35
ATOM     35  C   UNL A   1      33.502  28.492  26.093  1.00  0.00     0.042 C 
BRANCH  35  36
ATOM     36  C   UNL A   1      34.651  29.220  26.758  1.00  0.00     0.118 C 
BRANCH  36  37
ATOM     37  N   UNL A   1      34.265  30.543  27.244  1.00  0.00    -0.352 N 
ATOM     38  C   UNL A   1      34.813  31.286  28.259  1.00  0.00     0.251 C 
ATOM     39  H   UNL A   1      33.504  30.960  26.778  1.00  0.00     0.163 HD
ATOM     40  O   UNL A   1      34.246  32.296  28.666  1.00  0.00    -0.269 OA
BRANCH  38  41
ATOM     41  C   UNL A   1      36.081  30.838  28.860  1.00  0.00     0.039 A 
ATOM     42  C   UNL A   1      36.061  29.825  29.818  1.00  0.00     0.014 A 
ATOM     43  C   UNL A   1      37.291  31.378  28.417  1.00  0.00     0.014 A 
ATOM     44  C   UNL A   1      37.269  29.309  30.283  1.00  0.00     0.010 A 
ATOM     45  C   UNL A   1      38.482  30.774  28.782  1.00  0.00     0.010 A 
ATOM     46  C   UNL A   1      38.486  29.749  29.736  1.00  0.00    -0.014 A 
BRANCH  46  47
ATOM     47  C   UNL A   1      39.778  29.160  30.159  1.00  0.00     0.031 A 
ATOM     48  C   UNL A   1      40.556  29.787  31.285  1.00  0.00     0.074 A 
ATOM     49  C   UNL A   1      40.284  28.110  29.481  1.00  0.00     0.049 A 
ATOM     50  N   UNL A   1      41.717  29.442  31.771  1.00  0.00    -0.248 NA
ATOM     51  C   UNL A   1      39.968  30.976  31.929  1.00  0.00     0.031 C 
ATOM     52  C   UNL A   1      39.664  27.472  28.318  1.00  0.00     0.029 A 
ATOM     53  N   UNL A   1      41.450  27.409  29.661  1.00  0.00    -0.354 N 
ATOM     54  C   UNL A   1      42.018  30.389  32.743  1.00  0.00     0.074 A 
ATOM     55  C   UNL A   1      40.936  31.346  32.752  1.00  0.00     0.031 C 
ATOM     56  C   UNL A   1      40.446  26.467  27.897  1.00  0.00     0.029 A 
ATOM     57  C   UNL A   1      41.643  26.416  28.729  1.00  0.00     0.049 A 
ATOM     58  H   UNL A   1      42.087  27.599  30.386  1.00  0.00     0.167 HD
ATOM     59  C   UNL A   1      43.084  30.442  33.572  1.00  0.00     0.034 A 
ATOM     60  C   UNL A   1      42.678  25.571  28.554  1.00  0.00     0.034 A 
ATOM     61  C   UNL A   1      44.139  29.467  33.580  1.00  0.00     0.049 A 
ATOM     62  C   UNL A   1      43.837  25.634  29.510  1.00  0.00     0.074 A 
ATOM     63  C   UNL A   1      45.213  29.374  34.445  1.00  0.00     0.029 A 
ATOM     64  N   UNL A   1      44.266  28.432  32.669  1.00  0.00    -0.354 N 
ATOM     65  N   UNL A   1      44.023  26.437  30.530  1.00  0.00    -0.248 NA
ATOM     66  C   UNL A   1      44.912  24.653  29.315  1.00  0.00     0.031 C 
ATOM     67  C   UNL A   1      46.022  28.315  34.023  1.00  0.00     0.029 A 
ATOM     68  C   UNL A   1      45.416  27.709  32.934  1.00  0.00     0.049 A 
ATOM     69  H   UNL A   1      43.632  28.239  31.940  1.00  0.00     0.167 HD
ATOM     70  C   UNL A   1      45.215  26.033  31.119  1.00  0.00     0.074 A 
ATOM     71  C   UNL A   1      45.695  24.900  30.355  1.00  0.00     0.031 C 
ATOM     72  C   UNL A   1      45.860  26.558  32.191  1.00  0.00     0.034 A 
BRANCH  59  73
ATOM     73  C   UNL A   1      43.157  31.580  34.556  1.00  0.00     0.023 A 
ATOM     74  C   UNL A   1      43.844  32.764  34.218  1.00  0.00     0.012 A 
ATOM     75  C   UNL A   1      42.487  31.498  35.791  1.00  0.00     0.148 A 
ATOM     76  C   UNL A   1      43.891  33.836  35.109  1.00  0.00     0.002 A 
ATOM     77  C   UNL A   1      42.492  32.588  36.650  1.00  0.00     0.091 A 
ATOM     78  F   UNL A   1      41.860  30.355  36.102  1.00  0.00    -0.205 F 
ATOM     79  C   UNL A   1      43.204  33.753  36.317  1.00  0.00     0.022 A 
BRANCH  77  80
ATOM     80  S   UNL A   1      41.568  32.613  38.188  1.00  0.00     0.127 S 
ATOM     81  O   UNL A   1      42.290  31.618  38.981  1.00  0.00    -0.237 OA
ATOM     82  O   UNL A   1      41.751  33.996  38.631  1.00  0.00    -0.237 OA
ATOM     83  O   UNL A   1      40.198  32.258  37.845  1.00  0.00    -0.744 OA
ENDBRANCH  77  80
ENDBRANCH  59  73
BRANCH  60  84
ATOM     84  C   UNL A   1      42.654  24.577  27.445  1.00  0.00     0.023 A 
ATOM     85  C   UNL A   1      43.225  24.899  26.199  1.00  0.00     0.012 A 
ATOM     86  C   UNL A   1      42.072  23.307  27.625  1.00  0.00     0.148 A 
ATOM     87  C   UNL A   1      43.175  23.993  25.138  1.00  0.00     0.002 A 
ATOM     88  C   UNL A   1      42.081  22.386  26.585  1.00  0.00     0.091 A 
ATOM     89  F   UNL A   1      41.529  23.021  28.817  1.00  0.00    -0.205 F 
ATOM     90  C   UNL A   1      42.612  22.734  25.333  1.00  0.00     0.022 A 
BRANCH  88  91
ATOM     91  S   UNL A   1      41.498  20.700  26.787  1.00  0.00     0.127 S 
ATOM     92  O   UNL A   1      40.067  20.902  27.000  1.00  0.00    -0.237 OA
ATOM     93  O   UNL A   1      41.853  20.105  25.498  1.00  0.00    -0.237 OA
ATOM     94  O   UNL A   1      42.235  20.161  27.921  1.00  0.00    -0.744 OA
ENDBRANCH  88  91
ENDBRANCH  60  84
BRANCH  72  95
ATOM     95  C   UNL A   1      47.128  25.884  32.643  1.00  0.00     0.023 A 
ATOM     96  C   UNL A   1      47.100  24.941  33.689  1.00  0.00     0.012 A 
ATOM     97  C   UNL A   1      48.342  26.140  31.974  1.00  0.00     0.148 A 
ATOM     98  C   UNL A   1      48.269  24.297  34.091  1.00  0.00     0.002 A 
ATOM     99  C   UNL A   1      49.490  25.451  32.341  1.00  0.00     0.091 A 
ATOM    100  F   UNL A   1      48.349  27.051  30.990  1.00  0.00    -0.205 F 
ATOM    101  C   UNL A   1      49.460  24.542  33.410  1.00  0.00     0.022 A 
BRANCH  99 102
ATOM    102  S   UNL A   1      51.042  25.626  31.455  1.00  0.00     0.127 S 
ATOM    103  O   UNL A   1      50.641  25.307  30.087  1.00  0.00    -0.237 OA
ATOM    104  O   UNL A   1      51.369  27.034  31.684  1.00  0.00    -0.237 OA
ATOM    105  O   UNL A   1      51.967  24.682  32.068  1.00  0.00    -0.744 OA
ENDBRANCH  99 102
ENDBRANCH  72  95
ENDBRANCH  46  47
ENDBRANCH  38  41
ENDBRANCH  36  37
ENDBRANCH  35  36
ENDBRANCH   1  35
TORSDOF 20
ENDMDL
MODEL 2
REMARK VINA RESULT:     -12.7      1.622      2.340
REMARK SMILES N#Cc1ccccc1C[C@@H](NC(=O)OCC1c2ccccc2-c2ccccc21)C(=O)NCCCNC(=O)c1ccc(-c2c3nc(c(-c4cccc(S(=O)(=O)[O-])c4F)c4ccc([nH]4)c(-c4cccc(S(=O)(=O)[O-])c4F)c4nc(c(-c5cccc(S(=O)(=O)[O-])c5F)c5ccc2[nH]5)C=C4)C=C3)cc1
REMARK SMILES IDX 32 1 31 2 29 3 30 4 10 6 9 7 8 8 3 9 4 10 5 11 7 12 6 13
REMARK SMILES IDX 2 14 1 15 11 16 12 17 13 19 14 20 15 21 16 22 17 23 28 24
REMARK SMILES IDX 18 25 22 26 23 27 27 28 19 29 21 30 24 31 26 32 20 33 25 34
REMARK SMILES IDX 33 35 34 36 35 37 36 38 37 40 38 41 39 42 100 43 40 44 99 45
REMARK SMILES IDX 41 46 42 47 43 48 93 49 44 50 98 51 92 52 94 53 45 54 97 55
REMARK SMILES IDX 91 56 90 57 46 59 78 60 58 61 77 62 59 63 62 64 76 65 95 66
REMARK SMILES IDX 60 67 61 68 75 70 96 71 63 72 47 73 48 74 56 75 49 76 51 77
REMARK SMILES IDX 57 78 50 79 52 80 53 81 54 82 55 83 79 84 80 85 88 86 81 87
REMARK SMILES IDX 83 88 89 89 82 90 84 91 85 92 86 93 87 94 64 95 65 96 73 97
REMARK SMILES IDX 66 98 68 99 74 100 67 101 69 102 70 103 71 104 72 105
REMARK H PARENT 31 5 11 18 35 39 94 58 62 69
REMARK Flexibility Score: inf
ROOT
ATOM      1  C   UNL A   1      33.076  27.085  25.418  1.00  0.00     0.117 C 
ENDROOT
BRANCH   1   2
ATOM      2  N   UNL A   1      33.785  27.594  24.251  1.00  0.00    -0.354 N 
ATOM      3  C   UNL A   1      33.328  27.780  22.972  1.00  0.00     0.243 C 
ATOM      4  O   UNL A   1      34.053  28.363  22.164  1.00  0.00    -0.273 OA
ATOM      5  H   UNL A   1      34.726  27.843  24.402  1.00  0.00     0.163 HD
BRANCH   3   6
ATOM      6  C   UNL A   1      31.945  27.233  22.566  1.00  0.00     0.179 C 
BRANCH   6   7
ATOM      7  C   UNL A   1      30.963  28.439  22.447  1.00  0.00     0.072 C 
BRANCH   7   8
ATOM      8  C   UNL A   1      29.531  28.213  22.895  1.00  0.00    -0.028 A 
ATOM      9  C   UNL A   1      28.505  29.143  22.633  1.00  0.00     0.055 A 
ATOM     10  C   UNL A   1      27.197  28.884  23.069  1.00  0.00     0.020 A 
ATOM     11  C   UNL A   1      26.895  27.707  23.752  1.00  0.00     0.001 A 
ATOM     12  C   UNL A   1      29.182  26.994  23.505  1.00  0.00     0.005 A 
ATOM     13  C   UNL A   1      27.886  26.757  23.961  1.00  0.00     0.000 A 
BRANCH   9  14
ATOM     14  C   UNL A   1      28.739  30.350  21.885  1.00  0.00     0.099 C 
ATOM     15  N   UNL A   1      28.922  31.322  21.285  1.00  0.00    -0.192 NA
ENDBRANCH   9  14
ENDBRANCH   7   8
ENDBRANCH   6   7
BRANCH   6  16
ATOM     16  N   UNL A   1      31.957  26.330  21.408  1.00  0.00    -0.309 N 
ATOM     17  C   UNL A   1      32.616  25.144  21.285  1.00  0.00     0.407 C 
ATOM     18  H   UNL A   1      31.426  26.614  20.629  1.00  0.00     0.167 HD
ATOM     19  O   UNL A   1      33.199  24.860  20.248  1.00  0.00    -0.225 OA
BRANCH  17  20
ATOM     20  O   UNL A   1      32.494  24.353  22.378  1.00  0.00    -0.449 OA
BRANCH  20  21
ATOM     21  C   UNL A   1      33.613  23.502  22.696  1.00  0.00     0.248 C 
BRANCH  21  22
ATOM     22  C   UNL A   1      33.574  23.042  24.164  1.00  0.00     0.088 C 
ATOM     23  C   UNL A   1      33.318  21.541  24.269  1.00  0.00    -0.029 A 
ATOM     24  C   UNL A   1      34.961  23.152  24.790  1.00  0.00    -0.029 A 
ATOM     25  C   UNL A   1      32.161  20.844  23.954  1.00  0.00     0.005 A 
ATOM     26  C   UNL A   1      34.494  20.875  24.660  1.00  0.00    -0.014 A 
ATOM     27  C   UNL A   1      35.477  21.862  25.050  1.00  0.00    -0.014 A 
ATOM     28  C   UNL A   1      35.686  24.294  25.092  1.00  0.00     0.005 A 
ATOM     29  C   UNL A   1      32.235  19.456  23.865  1.00  0.00     0.000 A 
ATOM     30  C   UNL A   1      34.561  19.494  24.598  1.00  0.00     0.009 A 
ATOM     31  C   UNL A   1      36.720  21.709  25.640  1.00  0.00     0.009 A 
ATOM     32  C   UNL A   1      36.942  24.137  25.685  1.00  0.00     0.000 A 
ATOM     33  C   UNL A   1      33.433  18.788  24.163  1.00  0.00     0.001 A 
ATOM     34  C   UNL A   1      37.450  22.857  25.961  1.00  0.00     0.001 A 
ENDBRANCH  21  22
ENDBRANCH  20  21
ENDBRANCH  17  20
ENDBRANCH   6  16
ENDBRANCH   3   6
ENDBRANCH   1   2
BRANCH   1  35
ATOM     35  C   UNL A   1      33.252  27.975  26.626  1.00  0.00     0.042 C 
BRANCH  35  36
ATOM     36  C   UNL A   1      34.375  28.969  26.419  1.00  0.00     0.118 C 
BRANCH  36  37
ATOM     37  N   UNL A   1      33.993  30.328  26.799  1.00  0.00    -0.352 N 
ATOM     38  C   UNL A   1      34.526  31.137  27.771  1.00  0.00     0.251 C 
ATOM     39  H   UNL A   1      33.248  30.717  26.286  1.00  0.00     0.163 HD
ATOM     40  O   UNL A   1      33.961  32.178  28.090  1.00  0.00    -0.269 OA
BRANCH  38  41
ATOM     41  C   UNL A   1      35.774  30.720  28.434  1.00  0.00     0.039 A 
ATOM     42  C   UNL A   1      35.723  29.762  29.445  1.00  0.00     0.014 A 
ATOM     43  C   UNL A   1      36.998  31.233  27.997  1.00  0.00     0.014 A 
ATOM     44  C   UNL A   1      36.914  29.270  29.974  1.00  0.00     0.010 A 
ATOM     45  C   UNL A   1      38.176  30.648  28.430  1.00  0.00     0.010 A 
ATOM     46  C   UNL A   1      38.148  29.677  29.439  1.00  0.00    -0.014 A 
BRANCH  46  47
ATOM     47  C   UNL A   1      39.425  29.110  29.933  1.00  0.00     0.031 A 
ATOM     48  C   UNL A   1      40.120  29.740  31.111  1.00  0.00     0.074 A 
ATOM     49  C   UNL A   1      39.994  28.080  29.275  1.00  0.00     0.049 A 
ATOM     50  N   UNL A   1      41.258  29.413  31.662  1.00  0.00    -0.248 NA
ATOM     51  C   UNL A   1      39.469  30.908  31.731  1.00  0.00     0.031 C 
ATOM     52  C   UNL A   1      39.459  27.444  28.069  1.00  0.00     0.029 A 
ATOM     53  N   UNL A   1      41.162  27.402  29.516  1.00  0.00    -0.354 N 
ATOM     54  C   UNL A   1      41.479  30.354  32.660  1.00  0.00     0.074 A 
ATOM     55  C   UNL A   1      40.378  31.288  32.615  1.00  0.00     0.031 C 
ATOM     56  C   UNL A   1      40.287  26.461  27.685  1.00  0.00     0.029 A 
ATOM     57  C   UNL A   1      41.433  26.425  28.586  1.00  0.00     0.049 A 
ATOM     58  H   UNL A   1      41.750  27.596  30.281  1.00  0.00     0.167 HD
ATOM     59  C   UNL A   1      42.492  30.419  33.552  1.00  0.00     0.034 A 
ATOM     60  C   UNL A   1      42.494  25.605  28.464  1.00  0.00     0.034 A 
ATOM     61  C   UNL A   1      43.566  29.467  33.613  1.00  0.00     0.049 A 
ATOM     62  C   UNL A   1      43.592  25.680  29.490  1.00  0.00     0.074 A 
ATOM     63  C   UNL A   1      44.588  29.386  34.540  1.00  0.00     0.029 A 
ATOM     64  N   UNL A   1      43.770  28.446  32.700  1.00  0.00    -0.354 N 
ATOM     65  N   UNL A   1      43.699  26.473  30.527  1.00  0.00    -0.248 NA
ATOM     66  C   UNL A   1      44.699  24.724  29.348  1.00  0.00     0.031 C 
ATOM     67  C   UNL A   1      45.443  28.349  34.155  1.00  0.00     0.029 A 
ATOM     68  C   UNL A   1      44.917  27.744  33.025  1.00  0.00     0.049 A 
ATOM     69  H   UNL A   1      43.186  28.249  31.932  1.00  0.00     0.167 HD
ATOM     70  C   UNL A   1      44.863  26.088  31.183  1.00  0.00     0.074 A 
ATOM     71  C   UNL A   1      45.412  24.975  30.436  1.00  0.00     0.031 C 
ATOM     72  C   UNL A   1      45.430  26.613  32.297  1.00  0.00     0.034 A 
BRANCH  59  73
ATOM     73  C   UNL A   1      42.481  31.546  34.552  1.00  0.00     0.023 A 
ATOM     74  C   UNL A   1      43.319  32.664  34.367  1.00  0.00     0.012 A 
ATOM     75  C   UNL A   1      41.590  31.523  35.641  1.00  0.00     0.148 A 
ATOM     76  C   UNL A   1      43.294  33.727  35.268  1.00  0.00     0.002 A 
ATOM     77  C   UNL A   1      41.531  32.609  36.504  1.00  0.00     0.091 A 
ATOM     78  F   UNL A   1      40.819  30.441  35.812  1.00  0.00    -0.205 F 
ATOM     79  C   UNL A   1      42.392  33.705  36.328  1.00  0.00     0.022 A 
BRANCH  77  80
ATOM     80  S   UNL A   1      40.344  32.716  37.846  1.00  0.00     0.127 S 
ATOM     81  O   UNL A   1      39.978  34.132  37.804  1.00  0.00    -0.237 OA
ATOM     82  O   UNL A   1      39.293  31.801  37.397  1.00  0.00    -0.237 OA
ATOM     83  O   UNL A   1      41.050  32.293  39.047  1.00  0.00    -0.744 OA
ENDBRANCH  77  80
ENDBRANCH  59  73
BRANCH  60  84
ATOM     84  C   UNL A   1      42.559  24.624  27.344  1.00  0.00     0.023 A 
ATOM     85  C   UNL A   1      43.144  24.994  26.118  1.00  0.00     0.012 A 
ATOM     86  C   UNL A   1      42.047  23.320  27.495  1.00  0.00     0.148 A 
ATOM     87  C   UNL A   1      43.176  24.100  25.047  1.00  0.00     0.002 A 
ATOM     88  C   UNL A   1      42.138  22.414  26.446  1.00  0.00     0.091 A 
ATOM     89  F   UNL A   1      41.490  22.989  28.669  1.00  0.00    -0.205 F 
ATOM     90  C   UNL A   1      42.682  22.808  25.214  1.00  0.00     0.022 A 
BRANCH  88  91
ATOM     91  S   UNL A   1      41.649  20.695  26.614  1.00  0.00     0.127 S 
ATOM     92  O   UNL A   1      40.196  20.785  26.495  1.00  0.00    -0.237 OA
ATOM     93  O   UNL A   1      42.326  20.079  25.472  1.00  0.00    -0.237 OA
ATOM     94  O   UNL A   1      42.151  20.267  27.912  1.00  0.00    -0.744 OA
ENDBRANCH  88  91
ENDBRANCH  60  84
BRANCH  72  95
ATOM     95  C   UNL A   1      46.684  25.960  32.817  1.00  0.00     0.023 A 
ATOM     96  C   UNL A   1      47.950  26.453  32.446  1.00  0.00     0.012 A 
ATOM     97  C   UNL A   1      46.598  24.894  33.733  1.00  0.00     0.148 A 
ATOM     98  C   UNL A   1      49.112  25.866  32.946  1.00  0.00     0.002 A 
ATOM     99  C   UNL A   1      47.757  24.353  34.273  1.00  0.00     0.091 A 
ATOM    100  F   UNL A   1      45.383  24.431  34.063  1.00  0.00    -0.205 F 
ATOM    101  C   UNL A   1      49.015  24.825  33.868  1.00  0.00     0.022 A 
BRANCH  99 102
ATOM    102  S   UNL A   1      47.726  23.082  35.541  1.00  0.00     0.127 S 
ATOM    103  O   UNL A   1      47.097  21.970  34.832  1.00  0.00    -0.237 OA
ATOM    104  O   UNL A   1      49.150  22.898  35.825  1.00  0.00    -0.237 OA
ATOM    105  O   UNL A   1      46.953  23.631  36.647  1.00  0.00    -0.744 OA
ENDBRANCH  99 102
ENDBRANCH  72  95
ENDBRANCH  46  47
ENDBRANCH  38  41
ENDBRANCH  36  37
ENDBRANCH  35  36
ENDBRANCH   1  35
TORSDOF 20
ENDMDL
MODEL 3
REMARK VINA RESULT:     -12.3      4.240      9.452
REMARK SMILES N#Cc1ccccc1C[C@@H](NC(=O)OCC1c2ccccc2-c2ccccc21)C(=O)NCCCNC(=O)c1ccc(-c2c3nc(c(-c4cccc(S(=O)(=O)[O-])c4F)c4ccc([nH]4)c(-c4cccc(S(=O)(=O)[O-])c4F)c4nc(c(-c5cccc(S(=O)(=O)[O-])c5F)c5ccc2[nH]5)C=C4)C=C3)cc1
REMARK SMILES IDX 32 1 31 2 29 3 30 4 10 6 9 7 8 8 3 9 4 10 5 11 7 12 6 13
REMARK SMILES IDX 2 14 1 15 11 16 12 17 13 19 14 20 15 21 16 22 17 23 28 24
REMARK SMILES IDX 18 25 22 26 23 27 27 28 19 29 21 30 24 31 26 32 20 33 25 34
REMARK SMILES IDX 33 35 34 36 35 37 36 38 37 40 38 41 39 42 100 43 40 44 99 45
REMARK SMILES IDX 41 46 42 47 43 48 93 49 44 50 98 51 92 52 94 53 45 54 97 55
REMARK SMILES IDX 91 56 90 57 46 59 78 60 58 61 77 62 59 63 62 64 76 65 95 66
REMARK SMILES IDX 60 67 61 68 75 70 96 71 63 72 47 73 48 74 56 75 49 76 51 77
REMARK SMILES IDX 57 78 50 79 52 80 53 81 54 82 55 83 79 84 80 85 88 86 81 87
REMARK SMILES IDX 83 88 89 89 82 90 84 91 85 92 86 93 87 94 64 95 65 96 73 97
REMARK SMILES IDX 66 98 68 99 74 100 67 101 69 102 70 103 71 104 72 105
REMARK H PARENT 31 5 11 18 35 39 94 58 62 69
REMARK Flexibility Score: inf
ROOT
ATOM      1  C   UNL A   1      34.545  24.663  25.110  1.00  0.00     0.117 C 
ENDROOT
BRANCH   1   2
ATOM      2  N   UNL A   1      33.851  24.981  23.868  1.00  0.00    -0.354 N 
ATOM      3  C   UNL A   1      32.768  24.366  23.298  1.00  0.00     0.243 C 
ATOM      4  O   UNL A   1      32.244  24.886  22.312  1.00  0.00    -0.273 OA
ATOM      5  H   UNL A   1      34.211  25.750  23.368  1.00  0.00     0.163 HD
BRANCH   3   6
ATOM      6  C   UNL A   1      32.253  23.032  23.874  1.00  0.00     0.179 C 
BRANCH   6   7
ATOM      7  C   UNL A   1      33.405  21.985  23.777  1.00  0.00     0.072 C 
BRANCH   7   8
ATOM      8  C   UNL A   1      33.070  20.549  24.136  1.00  0.00    -0.028 A 
ATOM      9  C   UNL A   1      33.243  20.039  25.438  1.00  0.00     0.055 A 
ATOM     10  C   UNL A   1      32.915  18.703  25.716  1.00  0.00     0.020 A 
ATOM     11  C   UNL A   1      32.407  17.873  24.718  1.00  0.00     0.001 A 
ATOM     12  C   UNL A   1      32.471  19.717  23.171  1.00  0.00     0.005 A 
ATOM     13  C   UNL A   1      32.175  18.383  23.447  1.00  0.00     0.000 A 
BRANCH   9  14
ATOM     14  C   UNL A   1      33.709  20.858  26.525  1.00  0.00     0.099 C 
ATOM     15  N   UNL A   1      34.085  21.512  27.402  1.00  0.00    -0.192 NA
ENDBRANCH   9  14
ENDBRANCH   7   8
ENDBRANCH   6   7
BRANCH   6  16
ATOM     16  N   UNL A   1      31.624  23.135  25.197  1.00  0.00    -0.309 N 
ATOM     17  C   UNL A   1      31.096  24.246  25.782  1.00  0.00     0.407 C 
ATOM     18  H   UNL A   1      31.578  22.304  25.723  1.00  0.00     0.167 HD
ATOM     19  O   UNL A   1      31.296  24.482  26.965  1.00  0.00    -0.225 OA
BRANCH  17  20
ATOM     20  O   UNL A   1      30.323  24.973  24.941  1.00  0.00    -0.449 OA
BRANCH  20  21
ATOM     21  C   UNL A   1      30.115  26.359  25.277  1.00  0.00     0.248 C 
BRANCH  21  22
ATOM     22  C   UNL A   1      31.097  27.277  24.529  1.00  0.00     0.088 C 
ATOM     23  C   UNL A   1      30.363  28.396  23.796  1.00  0.00    -0.029 A 
ATOM     24  C   UNL A   1      31.940  28.072  25.521  1.00  0.00    -0.029 A 
ATOM     25  C   UNL A   1      29.522  28.296  22.699  1.00  0.00     0.005 A 
ATOM     26  C   UNL A   1      30.570  29.623  24.455  1.00  0.00    -0.014 A 
ATOM     27  C   UNL A   1      31.591  29.441  25.464  1.00  0.00    -0.014 A 
ATOM     28  C   UNL A   1      32.919  27.613  26.389  1.00  0.00     0.005 A 
ATOM     29  C   UNL A   1      28.746  29.404  22.363  1.00  0.00     0.000 A 
ATOM     30  C   UNL A   1      29.819  30.732  24.105  1.00  0.00     0.009 A 
ATOM     31  C   UNL A   1      32.240  30.365  26.264  1.00  0.00     0.009 A 
ATOM     32  C   UNL A   1      33.571  28.548  27.197  1.00  0.00     0.000 A 
ATOM     33  C   UNL A   1      28.878  30.605  23.076  1.00  0.00     0.001 A 
ATOM     34  C   UNL A   1      33.239  29.911  27.130  1.00  0.00     0.001 A 
ENDBRANCH  21  22
ENDBRANCH  20  21
ENDBRANCH  17  20
ENDBRANCH   6  16
ENDBRANCH   3   6
ENDBRANCH   1   2
BRANCH   1  35
ATOM     35  C   UNL A   1      35.882  24.003  24.864  1.00  0.00     0.042 C 
BRANCH  35  36
ATOM     36  C   UNL A   1      36.653  23.820  26.154  1.00  0.00     0.118 C 
BRANCH  36  37
ATOM     37  N   UNL A   1      37.612  22.720  26.078  1.00  0.00    -0.352 N 
ATOM     38  C   UNL A   1      38.972  22.745  26.257  1.00  0.00     0.251 C 
ATOM     39  H   UNL A   1      37.229  21.837  25.869  1.00  0.00     0.163 HD
ATOM     40  O   UNL A   1      39.654  21.766  25.968  1.00  0.00    -0.269 OA
BRANCH  38  41
ATOM     41  C   UNL A   1      39.596  23.972  26.783  1.00  0.00     0.039 A 
ATOM     42  C   UNL A   1      40.055  24.939  25.891  1.00  0.00     0.014 A 
ATOM     43  C   UNL A   1      39.657  24.185  28.162  1.00  0.00     0.014 A 
ATOM     44  C   UNL A   1      40.518  26.155  26.389  1.00  0.00     0.010 A 
ATOM     45  C   UNL A   1      39.992  25.440  28.644  1.00  0.00     0.010 A 
ATOM     46  C   UNL A   1      40.448  26.430  27.765  1.00  0.00    -0.014 A 
BRANCH  46  47
ATOM     47  C   UNL A   1      40.861  27.745  28.309  1.00  0.00     0.031 A 
ATOM     48  C   UNL A   1      42.324  28.063  28.473  1.00  0.00     0.074 A 
ATOM     49  C   UNL A   1      39.923  28.618  28.725  1.00  0.00     0.049 A 
ATOM     50  N   UNL A   1      42.880  29.137  28.964  1.00  0.00    -0.248 NA
ATOM     51  C   UNL A   1      43.289  27.026  28.061  1.00  0.00     0.031 C 
ATOM     52  C   UNL A   1      38.477  28.386  28.698  1.00  0.00     0.029 A 
ATOM     53  N   UNL A   1      40.047  29.869  29.274  1.00  0.00    -0.354 N 
ATOM     54  C   UNL A   1      44.247  28.892  28.960  1.00  0.00     0.074 A 
ATOM     55  C   UNL A   1      44.438  27.552  28.454  1.00  0.00     0.031 C 
ATOM     56  C   UNL A   1      37.848  29.463  29.193  1.00  0.00     0.029 A 
ATOM     57  C   UNL A   1      38.843  30.442  29.615  1.00  0.00     0.049 A 
ATOM     58  H   UNL A   1      40.913  30.314  29.411  1.00  0.00     0.167 HD
ATOM     59  C   UNL A   1      45.256  29.717  29.318  1.00  0.00     0.034 A 
ATOM     60  C   UNL A   1      38.574  31.617  30.216  1.00  0.00     0.034 A 
ATOM     61  C   UNL A   1      45.061  31.061  29.789  1.00  0.00     0.049 A 
ATOM     62  C   UNL A   1      39.716  32.527  30.576  1.00  0.00     0.074 A 
ATOM     63  C   UNL A   1      46.019  32.013  30.084  1.00  0.00     0.029 A 
ATOM     64  N   UNL A   1      43.829  31.634  30.053  1.00  0.00    -0.354 N 
ATOM     65  N   UNL A   1      41.003  32.343  30.410  1.00  0.00    -0.248 NA
ATOM     66  C   UNL A   1      39.368  33.824  31.174  1.00  0.00     0.031 C 
ATOM     67  C   UNL A   1      45.367  33.145  30.582  1.00  0.00     0.029 A 
ATOM     68  C   UNL A   1      44.001  32.920  30.534  1.00  0.00     0.049 A 
ATOM     69  H   UNL A   1      42.959  31.193  29.919  1.00  0.00     0.167 HD
ATOM     70  C   UNL A   1      41.615  33.511  30.847  1.00  0.00     0.074 A 
ATOM     71  C   UNL A   1      40.555  34.406  31.264  1.00  0.00     0.031 C 
ATOM     72  C   UNL A   1      42.936  33.814  30.906  1.00  0.00     0.034 A 
BRANCH  59  73
ATOM     73  C   UNL A   1      46.666  29.202  29.198  1.00  0.00     0.023 A 
ATOM     74  C   UNL A   1      47.270  28.535  30.283  1.00  0.00     0.012 A 
ATOM     75  C   UNL A   1      47.368  29.323  27.984  1.00  0.00     0.148 A 
ATOM     76  C   UNL A   1      48.564  28.025  30.172  1.00  0.00     0.002 A 
ATOM     77  C   UNL A   1      48.634  28.766  27.862  1.00  0.00     0.091 A 
ATOM     78  F   UNL A   1      46.785  29.981  26.973  1.00  0.00    -0.205 F 
ATOM     79  C   UNL A   1      49.239  28.129  28.959  1.00  0.00     0.022 A 
BRANCH  77  80
ATOM     80  S   UNL A   1      49.550  28.770  26.319  1.00  0.00     0.127 S 
ATOM     81  O   UNL A   1      48.521  28.352  25.366  1.00  0.00    -0.237 OA
ATOM     82  O   UNL A   1      49.951  30.173  26.207  1.00  0.00    -0.237 OA
ATOM     83  O   UNL A   1      50.649  27.832  26.497  1.00  0.00    -0.744 OA
ENDBRANCH  77  80
ENDBRANCH  59  73
BRANCH  60  84
ATOM     84  C   UNL A   1      37.164  32.012  30.491  1.00  0.00     0.023 A 
ATOM     85  C   UNL A   1      36.568  31.679  31.723  1.00  0.00     0.012 A 
ATOM     86  C   UNL A   1      36.413  32.725  29.536  1.00  0.00     0.148 A 
ATOM     87  C   UNL A   1      35.236  32.007  31.980  1.00  0.00     0.002 A 
ATOM     88  C   UNL A   1      35.107  33.104  29.823  1.00  0.00     0.091 A 
ATOM     89  F   UNL A   1      36.997  33.029  28.368  1.00  0.00    -0.205 F 
ATOM     90  C   UNL A   1      34.509  32.727  31.035  1.00  0.00     0.022 A 
BRANCH  88  91
ATOM     91  S   UNL A   1      34.144  34.143  28.721  1.00  0.00     0.127 S 
ATOM     92  O   UNL A   1      33.069  34.595  29.601  1.00  0.00    -0.237 OA
ATOM     93  O   UNL A   1      35.116  35.173  28.355  1.00  0.00    -0.237 OA
ATOM     94  O   UNL A   1      33.737  33.281  27.620  1.00  0.00    -0.744 OA
ENDBRANCH  88  91
ENDBRANCH  60  84
BRANCH  72  95
ATOM     95  C   UNL A   1      43.316  35.189  31.389  1.00  0.00     0.023 A 
ATOM     96  C   UNL A   1      43.523  35.431  32.761  1.00  0.00     0.012 A 
ATOM     97  C   UNL A   1      43.536  36.228  30.462  1.00  0.00     0.148 A 
ATOM     98  C   UNL A   1      43.900  36.698  33.206  1.00  0.00     0.002 A 
ATOM     99  C   UNL A   1      43.969  37.469  30.907  1.00  0.00     0.091 A 
ATOM    100  F   UNL A   1      43.321  35.980  29.161  1.00  0.00    -0.205 F 
ATOM    101  C   UNL A   1      44.135  37.712  32.280  1.00  0.00     0.022 A 
BRANCH  99 102
ATOM    102  S   UNL A   1      44.394  38.801  29.781  1.00  0.00     0.127 S 
ATOM    103  O   UNL A   1      43.076  39.325  29.429  1.00  0.00    -0.237 OA
ATOM    104  O   UNL A   1      45.193  39.682  30.634  1.00  0.00    -0.237 OA
ATOM    105  O   UNL A   1      45.131  38.186  28.685  1.00  0.00    -0.744 OA
ENDBRANCH  99 102
ENDBRANCH  72  95
ENDBRANCH  46  47
ENDBRANCH  38  41
ENDBRANCH  36  37
ENDBRANCH  35  36
ENDBRANCH   1  35
TORSDOF 20
ENDMDL
