MODEL 1
REMARK VINA RESULT:     -13.4      0.000      0.000
REMARK SMILES COc1ccccc1[C@@H]1C[N@@H+](Cc2cn3cc(C)ccc3n2)C[C@H]1C(=O)NCCCNC(=O)c1ccc(-c2c3nc(c(-c4cccc(S(=O)(=O)[O-])c4F)c4ccc([nH]4)c(-c4cccc(S(=O)(=O)[O-])c4F)c4nc(c(-c5cccc(S(=O)(=O)[O-])c5F)c5ccc2[nH]5)C=C4)C=C3)cc1
REMARK SMILES IDX 29 1 28 2 27 3 25 4 26 5 24 7 9 8 10 9 11 10 23 11 8 13 3 14
REMARK SMILES IDX 4 15 5 16 7 17 6 18 2 19 1 20 12 21 13 22 14 23 22 24 15 25
REMARK SMILES IDX 21 26 16 27 20 28 17 29 19 30 18 31 30 32 31 33 32 34 33 36
REMARK SMILES IDX 34 37 35 38 96 39 36 40 95 41 37 42 38 43 39 44 89 45 40 46
REMARK SMILES IDX 94 47 88 48 90 49 41 50 93 51 87 52 86 53 42 55 74 56 54 57
REMARK SMILES IDX 73 58 55 59 58 60 72 61 91 62 56 63 57 64 71 66 92 67 59 68
REMARK SMILES IDX 43 69 44 70 52 71 45 72 47 73 53 74 46 75 48 76 49 77 50 78
REMARK SMILES IDX 51 79 75 80 76 81 84 82 77 83 79 84 85 85 78 86 80 87 81 88
REMARK SMILES IDX 82 89 83 90 60 91 61 92 69 93 62 94 64 95 70 96 63 97 65 98
REMARK SMILES IDX 66 99 67 100 68 101
REMARK H PARENT 27 6 11 12 31 35 90 54 58 65
REMARK Flexibility Score: inf
ROOT
ATOM      1  C   UNL A   1      32.673  30.372  26.811  1.00  0.00     0.042 C 
ENDROOT
BRANCH   1   2
ATOM      2  C   UNL A   1      32.090  28.975  27.130  1.00  0.00     0.117 C 
BRANCH   2   3
ATOM      3  N   UNL A   1      32.802  27.770  26.681  1.00  0.00    -0.356 N 
ATOM      4  C   UNL A   1      32.525  26.566  26.105  1.00  0.00     0.229 C 
ATOM      5  O   UNL A   1      33.543  25.891  25.874  1.00  0.00    -0.275 OA
ATOM      6  H   UNL A   1      33.768  27.860  26.845  1.00  0.00     0.163 HD
BRANCH   4   7
ATOM      7  C   UNL A   1      31.173  25.966  25.657  1.00  0.00     0.146 C 
ATOM      8  C   UNL A   1      30.746  26.235  24.178  1.00  0.00     0.096 C 
ATOM      9  C   UNL A   1      30.059  24.935  23.726  1.00  0.00     0.272 C 
ATOM     10  N   UNL A   1      30.712  23.862  24.491  1.00  0.00    -0.329 N 
ATOM     11  C   UNL A   1      30.936  24.467  25.815  1.00  0.00     0.276 C 
ATOM     12  H   UNL A   1      30.132  23.026  24.563  1.00  0.00     0.348 HD
BRANCH   8  13
ATOM     13  C   UNL A   1      30.125  27.512  23.638  1.00  0.00     0.004 A 
ATOM     14  C   UNL A   1      30.741  28.757  23.472  1.00  0.00     0.122 A 
ATOM     15  C   UNL A   1      29.978  29.886  23.115  1.00  0.00     0.047 A 
ATOM     16  C   UNL A   1      28.596  29.805  22.940  1.00  0.00     0.004 A 
ATOM     17  C   UNL A   1      28.715  27.469  23.454  1.00  0.00     0.008 A 
ATOM     18  C   UNL A   1      27.958  28.591  23.126  1.00  0.00     0.001 A 
BRANCH  14  19
ATOM     19  O   UNL A   1      32.040  29.030  23.804  1.00  0.00    -0.496 OA
ATOM     20  C   UNL A   1      32.977  28.581  22.834  1.00  0.00     0.278 C 
ENDBRANCH  14  19
ENDBRANCH   8  13
BRANCH  10  21
ATOM     21  C   UNL A   1      31.898  23.247  23.834  1.00  0.00     0.321 C 
BRANCH  21  22
ATOM     22  C   UNL A   1      32.157  21.777  24.062  1.00  0.00     0.114 A 
ATOM     23  C   UNL A   1      32.278  21.020  25.215  1.00  0.00     0.122 A 
ATOM     24  N   UNL A   1      32.376  20.961  22.990  1.00  0.00    -0.228 NA
ATOM     25  N   UNL A   1      32.474  19.712  24.804  1.00  0.00    -0.306 N 
ATOM     26  C   UNL A   1      32.408  19.728  23.426  1.00  0.00     0.137 A 
ATOM     27  C   UNL A   1      32.725  18.548  25.522  1.00  0.00     0.096 A 
ATOM     28  C   UNL A   1      32.419  18.491  22.728  1.00  0.00     0.048 A 
ATOM     29  C   UNL A   1      32.862  17.379  24.858  1.00  0.00    -0.034 A 
ATOM     30  C   UNL A   1      32.643  17.358  23.413  1.00  0.00     0.009 A 
ATOM     31  C   UNL A   1      33.204  16.085  25.515  1.00  0.00     0.046 C 
ENDBRANCH  21  22
ENDBRANCH  10  21
ENDBRANCH   4   7
ENDBRANCH   2   3
ENDBRANCH   1   2
BRANCH   1  32
ATOM     32  C   UNL A   1      34.045  30.641  27.392  1.00  0.00     0.118 C 
BRANCH  32  33
ATOM     33  N   UNL A   1      34.042  31.672  28.420  1.00  0.00    -0.352 N 
ATOM     34  C   UNL A   1      34.940  31.926  29.435  1.00  0.00     0.251 C 
ATOM     35  H   UNL A   1      33.274  32.288  28.384  1.00  0.00     0.163 HD
ATOM     36  O   UNL A   1      34.622  32.733  30.299  1.00  0.00    -0.269 OA
BRANCH  34  37
ATOM     37  C   UNL A   1      36.278  31.276  29.487  1.00  0.00     0.039 A 
ATOM     38  C   UNL A   1      37.425  32.084  29.458  1.00  0.00     0.014 A 
ATOM     39  C   UNL A   1      36.435  29.892  29.475  1.00  0.00     0.014 A 
ATOM     40  C   UNL A   1      38.689  31.497  29.379  1.00  0.00     0.010 A 
ATOM     41  C   UNL A   1      37.681  29.310  29.499  1.00  0.00     0.010 A 
ATOM     42  C   UNL A   1      38.809  30.101  29.369  1.00  0.00    -0.014 A 
BRANCH  42  43
ATOM     43  C   UNL A   1      40.114  29.449  29.355  1.00  0.00     0.031 A 
ATOM     44  C   UNL A   1      40.684  29.211  30.707  1.00  0.00     0.074 A 
ATOM     45  C   UNL A   1      40.658  28.860  28.266  1.00  0.00     0.049 A 
ATOM     46  N   UNL A   1      41.670  29.812  31.285  1.00  0.00    -0.248 NA
ATOM     47  C   UNL A   1      39.951  28.298  31.587  1.00  0.00     0.031 C 
ATOM     48  C   UNL A   1      40.081  28.666  26.929  1.00  0.00     0.029 A 
ATOM     49  N   UNL A   1      41.830  28.175  28.181  1.00  0.00    -0.354 N 
ATOM     50  C   UNL A   1      41.824  29.181  32.521  1.00  0.00     0.074 A 
ATOM     51  C   UNL A   1      40.613  28.436  32.736  1.00  0.00     0.031 C 
ATOM     52  C   UNL A   1      40.781  27.715  26.268  1.00  0.00     0.029 A 
ATOM     53  C   UNL A   1      41.954  27.376  27.049  1.00  0.00     0.049 A 
ATOM     54  H   UNL A   1      42.533  28.239  28.866  1.00  0.00     0.167 HD
ATOM     55  C   UNL A   1      43.034  29.121  33.146  1.00  0.00     0.034 A 
ATOM     56  C   UNL A   1      42.941  26.481  26.801  1.00  0.00     0.034 A 
ATOM     57  C   UNL A   1      43.976  30.022  32.532  1.00  0.00     0.049 A 
ATOM     58  C   UNL A   1      44.079  26.843  27.677  1.00  0.00     0.074 A 
ATOM     59  C   UNL A   1      44.011  31.383  32.296  1.00  0.00     0.029 A 
ATOM     60  N   UNL A   1      44.888  29.466  31.666  1.00  0.00    -0.354 N 
ATOM     61  N   UNL A   1      44.747  27.957  27.561  1.00  0.00    -0.248 NA
ATOM     62  C   UNL A   1      44.188  26.171  28.961  1.00  0.00     0.031 C 
ATOM     63  C   UNL A   1      44.527  31.499  30.972  1.00  0.00     0.029 A 
ATOM     64  C   UNL A   1      44.864  30.218  30.523  1.00  0.00     0.049 A 
ATOM     65  H   UNL A   1      45.451  28.677  31.836  1.00  0.00     0.167 HD
ATOM     66  C   UNL A   1      44.973  28.356  28.871  1.00  0.00     0.074 A 
ATOM     67  C   UNL A   1      44.702  27.171  29.683  1.00  0.00     0.031 C 
ATOM     68  C   UNL A   1      45.072  29.677  29.199  1.00  0.00     0.034 A 
BRANCH  55  69
ATOM     69  C   UNL A   1      43.515  28.007  34.056  1.00  0.00     0.023 A 
ATOM     70  C   UNL A   1      44.022  28.392  35.321  1.00  0.00     0.012 A 
ATOM     71  C   UNL A   1      43.760  26.677  33.653  1.00  0.00     0.148 A 
ATOM     72  C   UNL A   1      44.800  27.529  36.099  1.00  0.00     0.002 A 
ATOM     73  C   UNL A   1      44.473  25.799  34.463  1.00  0.00     0.091 A 
ATOM     74  F   UNL A   1      43.418  26.271  32.429  1.00  0.00    -0.205 F 
ATOM     75  C   UNL A   1      45.027  26.229  35.670  1.00  0.00     0.022 A 
BRANCH  73  76
ATOM     76  S   UNL A   1      44.761  24.091  33.980  1.00  0.00     0.127 S 
ATOM     77  O   UNL A   1      43.405  23.551  34.000  1.00  0.00    -0.237 OA
ATOM     78  O   UNL A   1      45.344  24.253  32.648  1.00  0.00    -0.237 OA
ATOM     79  O   UNL A   1      45.682  23.552  34.973  1.00  0.00    -0.744 OA
ENDBRANCH  73  76
ENDBRANCH  55  69
BRANCH  56  80
ATOM     80  C   UNL A   1      42.924  25.206  26.048  1.00  0.00     0.023 A 
ATOM     81  C   UNL A   1      43.962  24.920  25.139  1.00  0.00     0.012 A 
ATOM     82  C   UNL A   1      42.073  24.152  26.445  1.00  0.00     0.148 A 
ATOM     83  C   UNL A   1      44.174  23.618  24.670  1.00  0.00     0.002 A 
ATOM     84  C   UNL A   1      42.289  22.858  25.978  1.00  0.00     0.091 A 
ATOM     85  F   UNL A   1      41.116  24.407  27.347  1.00  0.00    -0.205 F 
ATOM     86  C   UNL A   1      43.346  22.585  25.099  1.00  0.00     0.022 A 
BRANCH  84  87
ATOM     87  S   UNL A   1      41.298  21.459  26.520  1.00  0.00     0.127 S 
ATOM     88  O   UNL A   1      39.966  21.831  26.043  1.00  0.00    -0.237 OA
ATOM     89  O   UNL A   1      41.920  20.352  25.799  1.00  0.00    -0.237 OA
ATOM     90  O   UNL A   1      41.430  21.419  27.971  1.00  0.00    -0.744 OA
ENDBRANCH  84  87
ENDBRANCH  56  80
BRANCH  68  91
ATOM     91  C   UNL A   1      45.163  30.693  28.089  1.00  0.00     0.023 A 
ATOM     92  C   UNL A   1      44.027  31.307  27.518  1.00  0.00     0.012 A 
ATOM     93  C   UNL A   1      46.435  31.204  27.789  1.00  0.00     0.148 A 
ATOM     94  C   UNL A   1      44.163  32.408  26.668  1.00  0.00     0.002 A 
ATOM     95  C   UNL A   1      46.562  32.332  26.991  1.00  0.00     0.091 A 
ATOM     96  F   UNL A   1      47.502  30.601  28.335  1.00  0.00    -0.205 F 
ATOM     97  C   UNL A   1      45.430  32.933  26.420  1.00  0.00     0.022 A 
BRANCH  95  98
ATOM     98  S   UNL A   1      48.148  33.141  26.772  1.00  0.00     0.127 S 
ATOM     99  O   UNL A   1      48.398  33.686  28.104  1.00  0.00    -0.237 OA
ATOM    100  O   UNL A   1      49.018  32.028  26.389  1.00  0.00    -0.237 OA
ATOM    101  O   UNL A   1      47.952  34.130  25.717  1.00  0.00    -0.744 OA
ENDBRANCH  95  98
ENDBRANCH  68  91
ENDBRANCH  42  43
ENDBRANCH  34  37
ENDBRANCH  32  33
ENDBRANCH   1  32
TORSDOF 17
ENDMDL
MODEL 2
REMARK VINA RESULT:     -13.3      2.308      2.820
REMARK SMILES COc1ccccc1[C@@H]1C[N@@H+](Cc2cn3cc(C)ccc3n2)C[C@H]1C(=O)NCCCNC(=O)c1ccc(-c2c3nc(c(-c4cccc(S(=O)(=O)[O-])c4F)c4ccc([nH]4)c(-c4cccc(S(=O)(=O)[O-])c4F)c4nc(c(-c5cccc(S(=O)(=O)[O-])c5F)c5ccc2[nH]5)C=C4)C=C3)cc1
REMARK SMILES IDX 29 1 28 2 27 3 25 4 26 5 24 7 9 8 10 9 11 10 23 11 8 13 3 14
REMARK SMILES IDX 4 15 5 16 7 17 6 18 2 19 1 20 12 21 13 22 14 23 22 24 15 25
REMARK SMILES IDX 21 26 16 27 20 28 17 29 19 30 18 31 30 32 31 33 32 34 33 36
REMARK SMILES IDX 34 37 35 38 96 39 36 40 95 41 37 42 38 43 39 44 89 45 40 46
REMARK SMILES IDX 94 47 88 48 90 49 41 50 93 51 87 52 86 53 42 55 74 56 54 57
REMARK SMILES IDX 73 58 55 59 58 60 72 61 91 62 56 63 57 64 71 66 92 67 59 68
REMARK SMILES IDX 43 69 44 70 52 71 45 72 47 73 53 74 46 75 48 76 49 77 50 78
REMARK SMILES IDX 51 79 75 80 76 81 84 82 77 83 79 84 85 85 78 86 80 87 81 88
REMARK SMILES IDX 82 89 83 90 60 91 61 92 69 93 62 94 64 95 70 96 63 97 65 98
REMARK SMILES IDX 66 99 67 100 68 101
REMARK H PARENT 27 6 11 12 31 35 90 54 58 65
REMARK Flexibility Score: inf
ROOT
ATOM      1  C   UNL A   1      32.842  28.302  26.057  1.00  0.00     0.042 C 
ENDROOT
BRANCH   1   2
ATOM      2  C   UNL A   1      31.428  27.791  26.424  1.00  0.00     0.117 C 
BRANCH   2   3
ATOM      3  N   UNL A   1      31.250  26.404  26.874  1.00  0.00    -0.356 N 
ATOM      4  C   UNL A   1      31.004  25.173  26.342  1.00  0.00     0.229 C 
ATOM      5  O   UNL A   1      30.996  24.267  27.194  1.00  0.00    -0.275 OA
ATOM      6  H   UNL A   1      31.336  26.346  27.853  1.00  0.00     0.163 HD
BRANCH   4   7
ATOM      7  C   UNL A   1      30.799  24.749  24.870  1.00  0.00     0.146 C 
ATOM      8  C   UNL A   1      30.710  25.902  23.818  1.00  0.00     0.096 C 
ATOM      9  C   UNL A   1      31.435  25.355  22.576  1.00  0.00     0.272 C 
ATOM     10  N   UNL A   1      32.456  24.433  23.095  1.00  0.00    -0.329 N 
ATOM     11  C   UNL A   1      31.787  23.778  24.231  1.00  0.00     0.276 C 
ATOM     12  H   UNL A   1      32.752  23.748  22.398  1.00  0.00     0.348 HD
BRANCH   8  13
ATOM     13  C   UNL A   1      29.493  26.762  23.526  1.00  0.00     0.004 A 
ATOM     14  C   UNL A   1      29.467  28.036  22.947  1.00  0.00     0.122 A 
ATOM     15  C   UNL A   1      28.267  28.770  22.899  1.00  0.00     0.047 A 
ATOM     16  C   UNL A   1      27.083  28.267  23.441  1.00  0.00     0.004 A 
ATOM     17  C   UNL A   1      28.268  26.284  24.070  1.00  0.00     0.008 A 
ATOM     18  C   UNL A   1      27.087  27.022  24.044  1.00  0.00     0.001 A 
BRANCH  14  19
ATOM     19  O   UNL A   1      30.578  28.736  22.562  1.00  0.00    -0.496 OA
ATOM     20  C   UNL A   1      30.275  29.942  21.876  1.00  0.00     0.278 C 
ENDBRANCH  14  19
ENDBRANCH   8  13
BRANCH  10  21
ATOM     21  C   UNL A   1      33.784  25.047  23.372  1.00  0.00     0.321 C 
BRANCH  21  22
ATOM     22  C   UNL A   1      34.884  24.160  23.900  1.00  0.00     0.114 A 
ATOM     23  C   UNL A   1      35.368  22.929  23.488  1.00  0.00     0.122 A 
ATOM     24  N   UNL A   1      35.562  24.530  25.027  1.00  0.00    -0.228 NA
ATOM     25  N   UNL A   1      36.419  22.620  24.335  1.00  0.00    -0.306 N 
ATOM     26  C   UNL A   1      36.560  23.699  25.185  1.00  0.00     0.137 A 
ATOM     27  C   UNL A   1      37.221  21.488  24.434  1.00  0.00     0.096 A 
ATOM     28  C   UNL A   1      37.670  23.731  26.069  1.00  0.00     0.048 A 
ATOM     29  C   UNL A   1      38.206  21.455  25.359  1.00  0.00    -0.034 A 
ATOM     30  C   UNL A   1      38.462  22.650  26.161  1.00  0.00     0.009 A 
ATOM     31  C   UNL A   1      39.077  20.270  25.604  1.00  0.00     0.046 C 
ENDBRANCH  21  22
ENDBRANCH  10  21
ENDBRANCH   4   7
ENDBRANCH   2   3
ENDBRANCH   1   2
BRANCH   1  32
ATOM     32  C   UNL A   1      33.739  28.606  27.239  1.00  0.00     0.118 C 
BRANCH  32  33
ATOM     33  N   UNL A   1      33.740  30.012  27.612  1.00  0.00    -0.352 N 
ATOM     34  C   UNL A   1      34.666  30.750  28.320  1.00  0.00     0.251 C 
ATOM     35  H   UNL A   1      32.952  30.521  27.310  1.00  0.00     0.163 HD
ATOM     36  O   UNL A   1      34.353  31.877  28.679  1.00  0.00    -0.269 OA
BRANCH  34  37
ATOM     37  C   UNL A   1      36.025  30.226  28.627  1.00  0.00     0.039 A 
ATOM     38  C   UNL A   1      37.012  30.280  27.631  1.00  0.00     0.014 A 
ATOM     39  C   UNL A   1      36.329  29.605  29.836  1.00  0.00     0.014 A 
ATOM     40  C   UNL A   1      38.255  29.683  27.849  1.00  0.00     0.010 A 
ATOM     41  C   UNL A   1      37.585  29.106  30.092  1.00  0.00     0.010 A 
ATOM     42  C   UNL A   1      38.525  29.068  29.078  1.00  0.00    -0.014 A 
BRANCH  42  43
ATOM     43  C   UNL A   1      39.834  28.491  29.370  1.00  0.00     0.031 A 
ATOM     44  C   UNL A   1      40.218  28.562  30.804  1.00  0.00     0.074 A 
ATOM     45  C   UNL A   1      40.536  27.721  28.508  1.00  0.00     0.049 A 
ATOM     46  N   UNL A   1      41.102  29.315  31.368  1.00  0.00    -0.248 NA
ATOM     47  C   UNL A   1      39.391  27.811  31.752  1.00  0.00     0.031 C 
ATOM     48  C   UNL A   1      40.152  27.231  27.177  1.00  0.00     0.029 A 
ATOM     49  N   UNL A   1      41.722  27.092  28.721  1.00  0.00    -0.354 N 
ATOM     50  C   UNL A   1      41.098  28.957  32.717  1.00  0.00     0.074 A 
ATOM     51  C   UNL A   1      39.885  28.212  32.923  1.00  0.00     0.031 C 
ATOM     52  C   UNL A   1      40.957  26.201  26.825  1.00  0.00     0.029 A 
ATOM     53  C   UNL A   1      42.018  26.086  27.806  1.00  0.00     0.049 A 
ATOM     54  H   UNL A   1      42.323  27.328  29.463  1.00  0.00     0.167 HD
ATOM     55  C   UNL A   1      42.211  29.085  33.494  1.00  0.00     0.034 A 
ATOM     56  C   UNL A   1      43.049  25.210  27.880  1.00  0.00     0.034 A 
ATOM     57  C   UNL A   1      43.209  29.889  32.833  1.00  0.00     0.049 A 
ATOM     58  C   UNL A   1      44.047  25.798  28.802  1.00  0.00     0.074 A 
ATOM     59  C   UNL A   1      43.247  31.173  32.326  1.00  0.00     0.029 A 
ATOM     60  N   UNL A   1      44.243  29.214  32.228  1.00  0.00    -0.354 N 
ATOM     61  N   UNL A   1      44.700  26.897  28.545  1.00  0.00    -0.248 NA
ATOM     62  C   UNL A   1      43.993  25.408  30.200  1.00  0.00     0.031 C 
ATOM     63  C   UNL A   1      43.938  31.043  31.085  1.00  0.00     0.029 A 
ATOM     64  C   UNL A   1      44.361  29.716  30.961  1.00  0.00     0.049 A 
ATOM     65  H   UNL A   1      44.794  28.505  32.631  1.00  0.00     0.167 HD
ATOM     66  C   UNL A   1      44.736  27.565  29.760  1.00  0.00     0.074 A 
ATOM     67  C   UNL A   1      44.381  26.557  30.759  1.00  0.00     0.031 C 
ATOM     68  C   UNL A   1      44.761  28.928  29.817  1.00  0.00     0.034 A 
BRANCH  55  69
ATOM     69  C   UNL A   1      42.586  28.205  34.670  1.00  0.00     0.023 A 
ATOM     70  C   UNL A   1      42.917  28.864  35.879  1.00  0.00     0.012 A 
ATOM     71  C   UNL A   1      42.903  26.832  34.589  1.00  0.00     0.148 A 
ATOM     72  C   UNL A   1      43.599  28.214  36.912  1.00  0.00     0.002 A 
ATOM     73  C   UNL A   1      43.518  26.172  35.648  1.00  0.00     0.091 A 
ATOM     74  F   UNL A   1      42.732  26.168  33.444  1.00  0.00    -0.205 F 
ATOM     75  C   UNL A   1      43.901  26.865  36.797  1.00  0.00     0.022 A 
BRANCH  73  76
ATOM     76  S   UNL A   1      43.894  24.415  35.574  1.00  0.00     0.127 S 
ATOM     77  O   UNL A   1      44.506  24.193  36.881  1.00  0.00    -0.237 OA
ATOM     78  O   UNL A   1      42.562  23.832  35.406  1.00  0.00    -0.237 OA
ATOM     79  O   UNL A   1      44.767  24.249  34.419  1.00  0.00    -0.744 OA
ENDBRANCH  73  76
ENDBRANCH  55  69
BRANCH  56  80
ATOM     80  C   UNL A   1      43.163  23.809  27.413  1.00  0.00     0.023 A 
ATOM     81  C   UNL A   1      42.130  22.894  27.699  1.00  0.00     0.012 A 
ATOM     82  C   UNL A   1      44.119  23.456  26.436  1.00  0.00     0.148 A 
ATOM     83  C   UNL A   1      42.027  21.681  27.006  1.00  0.00     0.002 A 
ATOM     84  C   UNL A   1      44.011  22.251  25.748  1.00  0.00     0.091 A 
ATOM     85  F   UNL A   1      45.074  24.342  26.125  1.00  0.00    -0.205 F 
ATOM     86  C   UNL A   1      42.959  21.365  26.021  1.00  0.00     0.022 A 
BRANCH  84  87
ATOM     87  S   UNL A   1      45.142  21.788  24.429  1.00  0.00     0.127 S 
ATOM     88  O   UNL A   1      45.033  22.932  23.524  1.00  0.00    -0.237 OA
ATOM     89  O   UNL A   1      46.413  21.691  25.142  1.00  0.00    -0.237 OA
ATOM     90  O   UNL A   1      44.626  20.538  23.886  1.00  0.00    -0.744 OA
ENDBRANCH  84  87
ENDBRANCH  56  80
BRANCH  68  91
ATOM     91  C   UNL A   1      44.981  29.701  28.541  1.00  0.00     0.023 A 
ATOM     92  C   UNL A   1      43.921  30.139  27.718  1.00  0.00     0.012 A 
ATOM     93  C   UNL A   1      46.274  30.191  28.303  1.00  0.00     0.148 A 
ATOM     94  C   UNL A   1      44.151  31.049  26.682  1.00  0.00     0.002 A 
ATOM     95  C   UNL A   1      46.489  31.138  27.312  1.00  0.00     0.091 A 
ATOM     96  F   UNL A   1      47.269  29.756  29.091  1.00  0.00    -0.205 F 
ATOM     97  C   UNL A   1      45.432  31.564  26.492  1.00  0.00     0.022 A 
BRANCH  95  98
ATOM     98  S   UNL A   1      48.077  31.950  27.130  1.00  0.00     0.127 S 
ATOM     99  O   UNL A   1      48.952  30.833  26.781  1.00  0.00    -0.237 OA
ATOM    100  O   UNL A   1      47.824  32.896  26.042  1.00  0.00    -0.237 OA
ATOM    101  O   UNL A   1      48.353  32.585  28.414  1.00  0.00    -0.744 OA
ENDBRANCH  95  98
ENDBRANCH  68  91
ENDBRANCH  42  43
ENDBRANCH  34  37
ENDBRANCH  32  33
ENDBRANCH   1  32
TORSDOF 17
ENDMDL
MODEL 3
REMARK VINA RESULT:     -13.3      3.387      8.148
REMARK SMILES COc1ccccc1[C@@H]1C[N@@H+](Cc2cn3cc(C)ccc3n2)C[C@H]1C(=O)NCCCNC(=O)c1ccc(-c2c3nc(c(-c4cccc(S(=O)(=O)[O-])c4F)c4ccc([nH]4)c(-c4cccc(S(=O)(=O)[O-])c4F)c4nc(c(-c5cccc(S(=O)(=O)[O-])c5F)c5ccc2[nH]5)C=C4)C=C3)cc1
REMARK SMILES IDX 29 1 28 2 27 3 25 4 26 5 24 7 9 8 10 9 11 10 23 11 8 13 3 14
REMARK SMILES IDX 4 15 5 16 7 17 6 18 2 19 1 20 12 21 13 22 14 23 22 24 15 25
REMARK SMILES IDX 21 26 16 27 20 28 17 29 19 30 18 31 30 32 31 33 32 34 33 36
REMARK SMILES IDX 34 37 35 38 96 39 36 40 95 41 37 42 38 43 39 44 89 45 40 46
REMARK SMILES IDX 94 47 88 48 90 49 41 50 93 51 87 52 86 53 42 55 74 56 54 57
REMARK SMILES IDX 73 58 55 59 58 60 72 61 91 62 56 63 57 64 71 66 92 67 59 68
REMARK SMILES IDX 43 69 44 70 52 71 45 72 47 73 53 74 46 75 48 76 49 77 50 78
REMARK SMILES IDX 51 79 75 80 76 81 84 82 77 83 79 84 85 85 78 86 80 87 81 88
REMARK SMILES IDX 82 89 83 90 60 91 61 92 69 93 62 94 64 95 70 96 63 97 65 98
REMARK SMILES IDX 66 99 67 100 68 101
REMARK H PARENT 27 6 11 12 31 35 90 54 58 65
REMARK Flexibility Score: inf
ROOT
ATOM      1  C   UNL A   1      38.623  21.564  25.659  1.00  0.00     0.042 C 
ENDROOT
BRANCH   1   2
ATOM      2  C   UNL A   1      37.856  22.899  25.504  1.00  0.00     0.117 C 
BRANCH   2   3
ATOM      3  N   UNL A   1      37.037  23.131  24.306  1.00  0.00    -0.356 N 
ATOM      4  C   UNL A   1      35.789  23.574  23.984  1.00  0.00     0.229 C 
ATOM      5  O   UNL A   1      35.593  23.632  22.758  1.00  0.00    -0.275 OA
ATOM      6  H   UNL A   1      37.541  22.899  23.494  1.00  0.00     0.163 HD
BRANCH   4   7
ATOM      7  C   UNL A   1      34.639  24.057  24.898  1.00  0.00     0.146 C 
ATOM      8  C   UNL A   1      33.474  24.833  24.202  1.00  0.00     0.096 C 
ATOM      9  C   UNL A   1      32.204  24.375  24.938  1.00  0.00     0.272 C 
ATOM     10  N   UNL A   1      32.483  22.999  25.379  1.00  0.00    -0.329 N 
ATOM     11  C   UNL A   1      33.903  23.041  25.766  1.00  0.00     0.276 C 
ATOM     12  H   UNL A   1      31.896  22.715  26.164  1.00  0.00     0.348 HD
BRANCH   8  13
ATOM     13  C   UNL A   1      33.486  26.295  23.790  1.00  0.00     0.004 A 
ATOM     14  C   UNL A   1      33.581  26.816  22.495  1.00  0.00     0.122 A 
ATOM     15  C   UNL A   1      33.748  28.200  22.296  1.00  0.00     0.047 A 
ATOM     16  C   UNL A   1      33.847  29.084  23.372  1.00  0.00     0.004 A 
ATOM     17  C   UNL A   1      33.594  27.226  24.861  1.00  0.00     0.008 A 
ATOM     18  C   UNL A   1      33.784  28.591  24.663  1.00  0.00     0.001 A 
BRANCH  14  19
ATOM     19  O   UNL A   1      33.704  26.059  21.361  1.00  0.00    -0.496 OA
ATOM     20  C   UNL A   1      32.456  25.652  20.817  1.00  0.00     0.278 C 
ENDBRANCH  14  19
ENDBRANCH   8  13
BRANCH  10  21
ATOM     21  C   UNL A   1      32.090  21.933  24.417  1.00  0.00     0.321 C 
BRANCH  21  22
ATOM     22  C   UNL A   1      32.710  20.566  24.575  1.00  0.00     0.114 A 
ATOM     23  C   UNL A   1      33.998  20.099  24.373  1.00  0.00     0.122 A 
ATOM     24  N   UNL A   1      31.923  19.509  24.935  1.00  0.00    -0.228 NA
ATOM     25  N   UNL A   1      33.985  18.758  24.720  1.00  0.00    -0.306 N 
ATOM     26  C   UNL A   1      32.707  18.487  25.166  1.00  0.00     0.137 A 
ATOM     27  C   UNL A   1      34.969  17.778  24.650  1.00  0.00     0.096 A 
ATOM     28  C   UNL A   1      32.439  17.216  25.738  1.00  0.00     0.048 A 
ATOM     29  C   UNL A   1      34.688  16.527  25.078  1.00  0.00    -0.034 A 
ATOM     30  C   UNL A   1      33.387  16.267  25.693  1.00  0.00     0.009 A 
ATOM     31  C   UNL A   1      35.639  15.383  24.984  1.00  0.00     0.046 C 
ENDBRANCH  21  22
ENDBRANCH  10  21
ENDBRANCH   4   7
ENDBRANCH   2   3
ENDBRANCH   1   2
BRANCH   1  32
ATOM     32  C   UNL A   1      39.809  21.612  26.600  1.00  0.00     0.118 C 
BRANCH  32  33
ATOM     33  N   UNL A   1      41.085  21.724  25.910  1.00  0.00    -0.352 N 
ATOM     34  C   UNL A   1      41.931  22.803  25.761  1.00  0.00     0.251 C 
ATOM     35  H   UNL A   1      41.396  20.894  25.479  1.00  0.00     0.163 HD
ATOM     36  O   UNL A   1      42.858  22.704  24.968  1.00  0.00    -0.269 OA
BRANCH  34  37
ATOM     37  C   UNL A   1      41.764  24.053  26.552  1.00  0.00     0.039 A 
ATOM     38  C   UNL A   1      40.957  25.077  26.035  1.00  0.00     0.014 A 
ATOM     39  C   UNL A   1      42.449  24.278  27.743  1.00  0.00     0.014 A 
ATOM     40  C   UNL A   1      40.885  26.307  26.693  1.00  0.00     0.010 A 
ATOM     41  C   UNL A   1      42.300  25.450  28.447  1.00  0.00     0.010 A 
ATOM     42  C   UNL A   1      41.587  26.497  27.890  1.00  0.00    -0.014 A 
BRANCH  42  43
ATOM     43  C   UNL A   1      41.485  27.743  28.644  1.00  0.00     0.031 A 
ATOM     44  C   UNL A   1      42.454  28.786  28.218  1.00  0.00     0.074 A 
ATOM     45  C   UNL A   1      40.455  28.055  29.462  1.00  0.00     0.049 A 
ATOM     46  N   UNL A   1      43.506  29.212  28.834  1.00  0.00    -0.248 NA
ATOM     47  C   UNL A   1      42.321  29.300  26.852  1.00  0.00     0.031 C 
ATOM     48  C   UNL A   1      39.217  27.307  29.723  1.00  0.00     0.029 A 
ATOM     49  N   UNL A   1      40.247  29.213  30.144  1.00  0.00    -0.354 N 
ATOM     50  C   UNL A   1      44.034  30.221  28.026  1.00  0.00     0.074 A 
ATOM     51  C   UNL A   1      43.407  30.065  26.741  1.00  0.00     0.031 C 
ATOM     52  C   UNL A   1      38.303  28.130  30.288  1.00  0.00     0.029 A 
ATOM     53  C   UNL A   1      38.945  29.392  30.600  1.00  0.00     0.049 A 
ATOM     54  H   UNL A   1      40.960  29.872  30.301  1.00  0.00     0.167 HD
ATOM     55  C   UNL A   1      44.751  31.254  28.551  1.00  0.00     0.034 A 
ATOM     56  C   UNL A   1      38.438  30.515  31.164  1.00  0.00     0.034 A 
ATOM     57  C   UNL A   1      45.122  30.981  29.917  1.00  0.00     0.049 A 
ATOM     58  C   UNL A   1      39.589  31.314  31.641  1.00  0.00     0.074 A 
ATOM     59  C   UNL A   1      45.834  29.983  30.552  1.00  0.00     0.029 A 
ATOM     60  N   UNL A   1      44.366  31.585  30.894  1.00  0.00    -0.354 N 
ATOM     61  N   UNL A   1      40.389  30.922  32.593  1.00  0.00    -0.248 NA
ATOM     62  C   UNL A   1      40.115  32.342  30.758  1.00  0.00     0.031 C 
ATOM     63  C   UNL A   1      45.079  29.705  31.730  1.00  0.00     0.029 A 
ATOM     64  C   UNL A   1      44.016  30.611  31.788  1.00  0.00     0.049 A 
ATOM     65  H   UNL A   1      44.123  32.538  30.941  1.00  0.00     0.167 HD
ATOM     66  C   UNL A   1      41.650  31.301  32.157  1.00  0.00     0.074 A 
ATOM     67  C   UNL A   1      41.409  32.260  31.080  1.00  0.00     0.031 C 
ATOM     68  C   UNL A   1      42.761  30.591  32.506  1.00  0.00     0.034 A 
BRANCH  55  69
ATOM     69  C   UNL A   1      44.815  32.667  28.003  1.00  0.00     0.023 A 
ATOM     70  C   UNL A   1      46.066  33.099  27.499  1.00  0.00     0.012 A 
ATOM     71  C   UNL A   1      43.836  33.663  28.208  1.00  0.00     0.148 A 
ATOM     72  C   UNL A   1      46.351  34.452  27.291  1.00  0.00     0.002 A 
ATOM     73  C   UNL A   1      44.101  35.000  27.931  1.00  0.00     0.091 A 
ATOM     74  F   UNL A   1      42.675  33.356  28.789  1.00  0.00    -0.205 F 
ATOM     75  C   UNL A   1      45.368  35.405  27.508  1.00  0.00     0.022 A 
BRANCH  73  76
ATOM     76  S   UNL A   1      42.851  36.275  28.151  1.00  0.00     0.127 S 
ATOM     77  O   UNL A   1      41.840  35.860  27.183  1.00  0.00    -0.237 OA
ATOM     78  O   UNL A   1      42.481  36.090  29.554  1.00  0.00    -0.237 OA
ATOM     79  O   UNL A   1      43.526  37.537  27.873  1.00  0.00    -0.744 OA
ENDBRANCH  73  76
ENDBRANCH  55  69
BRANCH  56  80
ATOM     80  C   UNL A   1      37.069  31.079  31.133  1.00  0.00     0.023 A 
ATOM     81  C   UNL A   1      36.499  31.587  32.318  1.00  0.00     0.012 A 
ATOM     82  C   UNL A   1      36.454  31.399  29.904  1.00  0.00     0.148 A 
ATOM     83  C   UNL A   1      35.375  32.423  32.278  1.00  0.00     0.002 A 
ATOM     84  C   UNL A   1      35.339  32.232  29.869  1.00  0.00     0.091 A 
ATOM     85  F   UNL A   1      37.020  30.961  28.771  1.00  0.00    -0.205 F 
ATOM     86  C   UNL A   1      34.803  32.756  31.054  1.00  0.00     0.022 A 
BRANCH  84  87
ATOM     87  S   UNL A   1      34.570  32.752  28.329  1.00  0.00     0.127 S 
ATOM     88  O   UNL A   1      35.710  33.302  27.595  1.00  0.00    -0.237 OA
ATOM     89  O   UNL A   1      34.058  31.488  27.806  1.00  0.00    -0.237 OA
ATOM     90  O   UNL A   1      33.561  33.735  28.702  1.00  0.00    -0.744 OA
ENDBRANCH  84  87
ENDBRANCH  56  80
BRANCH  68  91
ATOM     91  C   UNL A   1      42.634  29.519  33.559  1.00  0.00     0.023 A 
ATOM     92  C   UNL A   1      42.148  28.224  33.279  1.00  0.00     0.012 A 
ATOM     93  C   UNL A   1      43.240  29.763  34.801  1.00  0.00     0.148 A 
ATOM     94  C   UNL A   1      42.269  27.197  34.220  1.00  0.00     0.002 A 
ATOM     95  C   UNL A   1      43.410  28.729  35.709  1.00  0.00     0.091 A 
ATOM     96  F   UNL A   1      43.688  31.004  35.051  1.00  0.00    -0.205 F 
ATOM     97  C   UNL A   1      42.918  27.444  35.428  1.00  0.00     0.022 A 
BRANCH  95  98
ATOM     98  S   UNL A   1      44.377  28.953  37.203  1.00  0.00     0.127 S 
ATOM     99  O   UNL A   1      45.698  29.272  36.666  1.00  0.00    -0.237 OA
ATOM    100  O   UNL A   1      43.693  30.070  37.856  1.00  0.00    -0.237 OA
ATOM    101  O   UNL A   1      44.286  27.694  37.934  1.00  0.00    -0.744 OA
ENDBRANCH  95  98
ENDBRANCH  68  91
ENDBRANCH  42  43
ENDBRANCH  34  37
ENDBRANCH  32  33
ENDBRANCH   1  32
TORSDOF 17
ENDMDL
