MODEL 1
REMARK VINA RESULT:     -12.8      0.000      0.000
REMARK SMILES Cc1ccc(S(=O)(=O)Nc2ccccn2)cc1C(=O)NCCCNC(=O)c1ccc(-c2c3nc(c(-c4cccc(S(=O)(=O)[O-])c4F)c4ccc([nH]4)c(-c4cccc(S(=O)(=O)[O-])c4F)c4nc(c(-c5cccc(S(=O)(=O)[O-])c5F)c5ccc2[nH]5)C=C4)C=C3)cc1
REMARK SMILES IDX 22 1 21 2 20 3 18 4 19 5 17 7 1 8 2 9 3 10 4 11 16 12 5 13
REMARK SMILES IDX 6 14 7 15 8 16 9 17 10 19 11 20 15 21 12 22 14 23 13 24
REMARK SMILES IDX 23 25 24 26 25 27 26 29 27 30 28 31 89 32 29 33 88 34 30 35
REMARK SMILES IDX 31 36 32 37 82 38 33 39 87 40 81 41 83 42 34 43 86 44 80 45
REMARK SMILES IDX 79 46 35 48 67 49 47 50 66 51 48 52 51 53 65 54 84 55 49 56
REMARK SMILES IDX 50 57 64 59 85 60 52 61 36 62 37 63 45 64 38 65 40 66 46 67
REMARK SMILES IDX 39 68 41 69 42 70 43 71 44 72 68 73 69 74 77 75 70 76 72 77
REMARK SMILES IDX 78 78 71 79 73 80 74 81 75 82 76 83 53 84 54 85 62 86 55 87
REMARK SMILES IDX 57 88 63 89 56 90 58 91 59 92 60 93 61 94
REMARK H PARENT 20 6 9 18 24 28 83 47 51 58
REMARK Flexibility Score: inf
ROOT
ATOM      1  C   UNL A   1      38.123  20.977  25.312  1.00  0.00     0.042 C 
ENDROOT
BRANCH   1   2
ATOM      2  C   UNL A   1      36.646  20.742  25.029  1.00  0.00     0.118 C 
BRANCH   2   3
ATOM      3  N   UNL A   1      35.830  21.253  26.107  1.00  0.00    -0.352 N 
ATOM      4  C   UNL A   1      34.601  21.836  26.225  1.00  0.00     0.251 C 
ATOM      5  O   UNL A   1      34.287  22.064  27.400  1.00  0.00    -0.269 OA
ATOM      6  H   UNL A   1      36.273  21.155  26.979  1.00  0.00     0.163 HD
BRANCH   4   7
ATOM      7  C   UNL A   1      33.591  22.201  25.153  1.00  0.00     0.044 A 
ATOM      8  C   UNL A   1      33.010  19.930  24.026  1.00  0.00     0.045 C 
ATOM      9  C   UNL A   1      32.872  21.401  24.237  1.00  0.00    -0.038 A 
ATOM     10  C   UNL A   1      32.015  22.008  23.290  1.00  0.00     0.005 A 
ATOM     11  C   UNL A   1      32.028  23.374  23.078  1.00  0.00     0.022 A 
ATOM     12  C   UNL A   1      33.512  23.611  24.955  1.00  0.00     0.036 A 
ATOM     13  C   UNL A   1      32.853  24.172  23.859  1.00  0.00     0.088 A 
BRANCH  13  14
ATOM     14  S   UNL A   1      33.191  25.785  23.183  1.00  0.00     0.263 S 
ATOM     15  O   UNL A   1      34.073  25.561  22.057  1.00  0.00    -0.201 OA
ATOM     16  O   UNL A   1      31.893  26.407  22.983  1.00  0.00    -0.201 OA
BRANCH  14  17
ATOM     17  N   UNL A   1      33.972  26.748  24.268  1.00  0.00    -0.263 N 
ATOM     18  H   UNL A   1      34.953  26.797  24.203  1.00  0.00     0.182 HD
BRANCH  17  19
ATOM     19  C   UNL A   1      33.359  27.501  25.273  1.00  0.00     0.139 A 
ATOM     20  C   UNL A   1      32.653  27.018  26.360  1.00  0.00     0.048 A 
ATOM     21  N   UNL A   1      33.510  28.806  24.977  1.00  0.00    -0.239 NA
ATOM     22  C   UNL A   1      31.967  27.950  27.139  1.00  0.00     0.005 A 
ATOM     23  C   UNL A   1      32.842  29.682  25.756  1.00  0.00     0.113 A 
ATOM     24  C   UNL A   1      32.051  29.305  26.825  1.00  0.00     0.020 A 
ENDBRANCH  17  19
ENDBRANCH  14  17
ENDBRANCH  13  14
ENDBRANCH   4   7
ENDBRANCH   2   3
ENDBRANCH   1   2
BRANCH   1  25
ATOM     25  C   UNL A   1      38.502  22.378  25.751  1.00  0.00     0.118 C 
BRANCH  25  26
ATOM     26  N   UNL A   1      39.914  22.445  26.133  1.00  0.00    -0.352 N 
ATOM     27  C   UNL A   1      40.688  23.543  26.473  1.00  0.00     0.251 C 
ATOM     28  H   UNL A   1      40.383  21.580  26.151  1.00  0.00     0.163 HD
ATOM     29  O   UNL A   1      41.893  23.421  26.656  1.00  0.00    -0.269 OA
BRANCH  27  30
ATOM     30  C   UNL A   1      39.988  24.816  26.735  1.00  0.00     0.039 A 
ATOM     31  C   UNL A   1      40.615  25.951  26.218  1.00  0.00     0.014 A 
ATOM     32  C   UNL A   1      39.144  24.896  27.838  1.00  0.00     0.014 A 
ATOM     33  C   UNL A   1      40.686  27.086  27.010  1.00  0.00     0.010 A 
ATOM     34  C   UNL A   1      39.294  25.987  28.668  1.00  0.00     0.010 A 
ATOM     35  C   UNL A   1      40.148  27.030  28.292  1.00  0.00    -0.014 A 
BRANCH  35  36
ATOM     36  C   UNL A   1      40.325  28.085  29.271  1.00  0.00     0.031 A 
ATOM     37  C   UNL A   1      39.455  29.263  29.138  1.00  0.00     0.074 A 
ATOM     38  C   UNL A   1      41.205  27.976  30.292  1.00  0.00     0.049 A 
ATOM     39  N   UNL A   1      39.702  30.411  29.658  1.00  0.00    -0.248 NA
ATOM     40  C   UNL A   1      38.250  29.234  28.318  1.00  0.00     0.031 C 
ATOM     41  C   UNL A   1      41.265  28.810  31.487  1.00  0.00     0.029 A 
ATOM     42  N   UNL A   1      42.373  27.211  30.361  1.00  0.00    -0.354 N 
ATOM     43  C   UNL A   1      38.566  31.175  29.502  1.00  0.00     0.074 A 
ATOM     44  C   UNL A   1      37.762  30.452  28.551  1.00  0.00     0.031 C 
ATOM     45  C   UNL A   1      42.495  28.727  32.016  1.00  0.00     0.029 A 
ATOM     46  C   UNL A   1      43.313  27.993  31.068  1.00  0.00     0.049 A 
ATOM     47  H   UNL A   1      42.512  26.308  29.992  1.00  0.00     0.167 HD
ATOM     48  C   UNL A   1      38.385  32.236  30.336  1.00  0.00     0.034 A 
ATOM     49  C   UNL A   1      44.504  28.425  30.548  1.00  0.00     0.034 A 
ATOM     50  C   UNL A   1      39.606  32.479  31.133  1.00  0.00     0.049 A 
ATOM     51  C   UNL A   1      44.651  29.946  30.558  1.00  0.00     0.074 A 
ATOM     52  C   UNL A   1      39.989  32.167  32.428  1.00  0.00     0.029 A 
ATOM     53  N   UNL A   1      40.772  32.854  30.475  1.00  0.00    -0.354 N 
ATOM     54  N   UNL A   1      43.763  30.781  31.024  1.00  0.00    -0.248 NA
ATOM     55  C   UNL A   1      45.761  30.633  29.901  1.00  0.00     0.031 C 
ATOM     56  C   UNL A   1      41.403  32.325  32.528  1.00  0.00     0.029 A 
ATOM     57  C   UNL A   1      41.880  32.772  31.308  1.00  0.00     0.049 A 
ATOM     58  H   UNL A   1      40.807  33.144  29.535  1.00  0.00     0.167 HD
ATOM     59  C   UNL A   1      44.053  32.056  30.592  1.00  0.00     0.074 A 
ATOM     60  C   UNL A   1      45.323  31.901  29.896  1.00  0.00     0.031 C 
ATOM     61  C   UNL A   1      43.197  33.114  30.768  1.00  0.00     0.034 A 
BRANCH  48  62
ATOM     62  C   UNL A   1      37.031  32.863  30.661  1.00  0.00     0.023 A 
ATOM     63  C   UNL A   1      36.539  32.676  31.972  1.00  0.00     0.012 A 
ATOM     64  C   UNL A   1      36.155  33.540  29.776  1.00  0.00     0.148 A 
ATOM     65  C   UNL A   1      35.242  33.044  32.354  1.00  0.00     0.002 A 
ATOM     66  C   UNL A   1      34.843  33.865  30.138  1.00  0.00     0.091 A 
ATOM     67  F   UNL A   1      36.586  33.950  28.586  1.00  0.00    -0.205 F 
ATOM     68  C   UNL A   1      34.380  33.611  31.428  1.00  0.00     0.022 A 
BRANCH  66  69
ATOM     69  S   UNL A   1      33.657  34.570  28.972  1.00  0.00     0.127 S 
ATOM     70  O   UNL A   1      32.549  34.946  29.854  1.00  0.00    -0.237 OA
ATOM     71  O   UNL A   1      34.398  35.700  28.415  1.00  0.00    -0.237 OA
ATOM     72  O   UNL A   1      33.331  33.513  28.023  1.00  0.00    -0.744 OA
ENDBRANCH  66  69
ENDBRANCH  48  62
BRANCH  49  73
ATOM     73  C   UNL A   1      45.020  27.540  29.454  1.00  0.00     0.023 A 
ATOM     74  C   UNL A   1      45.246  26.182  29.779  1.00  0.00     0.012 A 
ATOM     75  C   UNL A   1      44.824  27.887  28.109  1.00  0.00     0.148 A 
ATOM     76  C   UNL A   1      45.001  25.185  28.834  1.00  0.00     0.002 A 
ATOM     77  C   UNL A   1      44.607  26.889  27.169  1.00  0.00     0.091 A 
ATOM     78  F   UNL A   1      44.774  29.177  27.759  1.00  0.00    -0.205 F 
ATOM     79  C   UNL A   1      44.612  25.539  27.545  1.00  0.00     0.022 A 
BRANCH  77  80
ATOM     80  S   UNL A   1      44.207  27.343  25.483  1.00  0.00     0.127 S 
ATOM     81  O   UNL A   1      43.718  26.078  24.946  1.00  0.00    -0.237 OA
ATOM     82  O   UNL A   1      43.182  28.371  25.660  1.00  0.00    -0.237 OA
ATOM     83  O   UNL A   1      45.465  27.839  24.945  1.00  0.00    -0.744 OA
ENDBRANCH  77  80
ENDBRANCH  49  73
BRANCH  61  84
ATOM     84  C   UNL A   1      43.491  34.566  30.379  1.00  0.00     0.023 A 
ATOM     85  C   UNL A   1      43.590  35.598  31.332  1.00  0.00     0.012 A 
ATOM     86  C   UNL A   1      43.596  34.976  29.021  1.00  0.00     0.148 A 
ATOM     87  C   UNL A   1      43.941  36.909  30.989  1.00  0.00     0.002 A 
ATOM     88  C   UNL A   1      43.920  36.287  28.674  1.00  0.00     0.091 A 
ATOM     89  F   UNL A   1      43.316  34.116  28.038  1.00  0.00    -0.205 F 
ATOM     90  C   UNL A   1      44.131  37.250  29.660  1.00  0.00     0.022 A 
BRANCH  88  91
ATOM     91  S   UNL A   1      44.044  36.827  26.963  1.00  0.00     0.127 S 
ATOM     92  O   UNL A   1      42.785  36.329  26.408  1.00  0.00    -0.237 OA
ATOM     93  O   UNL A   1      44.111  38.281  27.111  1.00  0.00    -0.237 OA
ATOM     94  O   UNL A   1      45.249  36.214  26.426  1.00  0.00    -0.744 OA
ENDBRANCH  88  91
ENDBRANCH  61  84
ENDBRANCH  35  36
ENDBRANCH  27  30
ENDBRANCH  25  26
ENDBRANCH   1  25
TORSDOF 16
ENDMDL
MODEL 2
REMARK VINA RESULT:     -12.8      4.348      9.928
REMARK SMILES Cc1ccc(S(=O)(=O)Nc2ccccn2)cc1C(=O)NCCCNC(=O)c1ccc(-c2c3nc(c(-c4cccc(S(=O)(=O)[O-])c4F)c4ccc([nH]4)c(-c4cccc(S(=O)(=O)[O-])c4F)c4nc(c(-c5cccc(S(=O)(=O)[O-])c5F)c5ccc2[nH]5)C=C4)C=C3)cc1
REMARK SMILES IDX 22 1 21 2 20 3 18 4 19 5 17 7 1 8 2 9 3 10 4 11 16 12 5 13
REMARK SMILES IDX 6 14 7 15 8 16 9 17 10 19 11 20 15 21 12 22 14 23 13 24
REMARK SMILES IDX 23 25 24 26 25 27 26 29 27 30 28 31 89 32 29 33 88 34 30 35
REMARK SMILES IDX 31 36 32 37 82 38 33 39 87 40 81 41 83 42 34 43 86 44 80 45
REMARK SMILES IDX 79 46 35 48 67 49 47 50 66 51 48 52 51 53 65 54 84 55 49 56
REMARK SMILES IDX 50 57 64 59 85 60 52 61 36 62 37 63 45 64 38 65 40 66 46 67
REMARK SMILES IDX 39 68 41 69 42 70 43 71 44 72 68 73 69 74 77 75 70 76 72 77
REMARK SMILES IDX 78 78 71 79 73 80 74 81 75 82 76 83 53 84 54 85 62 86 55 87
REMARK SMILES IDX 57 88 63 89 56 90 58 91 59 92 60 93 61 94
REMARK H PARENT 20 6 9 18 24 28 83 47 51 58
REMARK Flexibility Score: inf
ROOT
ATOM      1  C   UNL A   1      33.023  31.254  27.269  1.00  0.00     0.042 C 
ENDROOT
BRANCH   1   2
ATOM      2  C   UNL A   1      32.136  30.620  26.206  1.00  0.00     0.118 C 
BRANCH   2   3
ATOM      3  N   UNL A   1      32.934  30.066  25.136  1.00  0.00    -0.352 N 
ATOM      4  C   UNL A   1      32.796  29.067  24.216  1.00  0.00     0.251 C 
ATOM      5  O   UNL A   1      33.756  28.993  23.438  1.00  0.00    -0.269 OA
ATOM      6  H   UNL A   1      33.798  30.528  25.048  1.00  0.00     0.163 HD
BRANCH   4   7
ATOM      7  C   UNL A   1      31.654  28.090  24.005  1.00  0.00     0.044 A 
ATOM      8  C   UNL A   1      29.620  29.604  23.428  1.00  0.00     0.045 C 
ATOM      9  C   UNL A   1      30.308  28.295  23.628  1.00  0.00    -0.038 A 
ATOM     10  C   UNL A   1      29.421  27.197  23.552  1.00  0.00     0.005 A 
ATOM     11  C   UNL A   1      29.766  25.955  24.054  1.00  0.00     0.022 A 
ATOM     12  C   UNL A   1      31.994  26.774  24.437  1.00  0.00     0.036 A 
ATOM     13  C   UNL A   1      31.035  25.769  24.583  1.00  0.00     0.088 A 
BRANCH  13  14
ATOM     14  S   UNL A   1      31.200  24.351  25.649  1.00  0.00     0.263 S 
ATOM     15  O   UNL A   1      30.488  24.690  26.863  1.00  0.00    -0.201 OA
ATOM     16  O   UNL A   1      30.785  23.210  24.851  1.00  0.00    -0.201 OA
BRANCH  14  17
ATOM     17  N   UNL A   1      32.775  24.062  26.037  1.00  0.00    -0.263 N 
ATOM     18  H   UNL A   1      33.010  24.052  26.993  1.00  0.00     0.182 HD
BRANCH  17  19
ATOM     19  C   UNL A   1      33.806  23.829  25.124  1.00  0.00     0.139 A 
ATOM     20  C   UNL A   1      33.674  23.433  23.805  1.00  0.00     0.048 A 
ATOM     21  N   UNL A   1      34.982  23.993  25.759  1.00  0.00    -0.239 NA
ATOM     22  C   UNL A   1      34.841  23.079  23.127  1.00  0.00     0.005 A 
ATOM     23  C   UNL A   1      36.092  23.653  25.072  1.00  0.00     0.113 A 
ATOM     24  C   UNL A   1      36.071  23.178  23.774  1.00  0.00     0.020 A 
ENDBRANCH  17  19
ENDBRANCH  14  17
ENDBRANCH  13  14
ENDBRANCH   4   7
ENDBRANCH   2   3
ENDBRANCH   1   2
BRANCH   1  25
ATOM     25  C   UNL A   1      34.289  30.497  27.616  1.00  0.00     0.118 C 
BRANCH  25  26
ATOM     26  N   UNL A   1      35.372  31.419  27.971  1.00  0.00    -0.352 N 
ATOM     27  C   UNL A   1      36.678  31.148  28.347  1.00  0.00     0.251 C 
ATOM     28  H   UNL A   1      35.134  32.373  27.938  1.00  0.00     0.163 HD
ATOM     29  O   UNL A   1      37.416  32.050  28.721  1.00  0.00    -0.269 OA
BRANCH  27  30
ATOM     30  C   UNL A   1      37.172  29.771  28.149  1.00  0.00     0.039 A 
ATOM     31  C   UNL A   1      37.303  29.019  29.317  1.00  0.00     0.014 A 
ATOM     32  C   UNL A   1      37.940  29.497  27.022  1.00  0.00     0.014 A 
ATOM     33  C   UNL A   1      38.438  28.240  29.478  1.00  0.00     0.010 A 
ATOM     34  C   UNL A   1      39.116  28.801  27.216  1.00  0.00     0.010 A 
ATOM     35  C   UNL A   1      39.402  28.265  28.476  1.00  0.00    -0.014 A 
BRANCH  35  36
ATOM     36  C   UNL A   1      40.704  27.641  28.615  1.00  0.00     0.031 A 
ATOM     37  C   UNL A   1      40.756  26.179  28.462  1.00  0.00     0.074 A 
ATOM     38  C   UNL A   1      41.828  28.364  28.821  1.00  0.00     0.049 A 
ATOM     39  N   UNL A   1      41.709  25.436  28.898  1.00  0.00    -0.248 NA
ATOM     40  C   UNL A   1      39.661  25.436  27.851  1.00  0.00     0.031 C 
ATOM     41  C   UNL A   1      43.203  27.900  28.681  1.00  0.00     0.029 A 
ATOM     42  N   UNL A   1      41.960  29.625  29.410  1.00  0.00    -0.354 N 
ATOM     43  C   UNL A   1      41.510  24.178  28.373  1.00  0.00     0.074 A 
ATOM     44  C   UNL A   1      40.166  24.202  27.856  1.00  0.00     0.031 C 
ATOM     45  C   UNL A   1      44.010  28.702  29.394  1.00  0.00     0.029 A 
ATOM     46  C   UNL A   1      43.152  29.582  30.166  1.00  0.00     0.049 A 
ATOM     47  H   UNL A   1      41.346  30.389  29.315  1.00  0.00     0.167 HD
ATOM     48  C   UNL A   1      42.579  23.338  28.292  1.00  0.00     0.034 A 
ATOM     49  C   UNL A   1      43.210  29.755  31.524  1.00  0.00     0.034 A 
ATOM     50  C   UNL A   1      43.736  23.907  29.014  1.00  0.00     0.049 A 
ATOM     51  C   UNL A   1      43.820  28.561  32.258  1.00  0.00     0.074 A 
ATOM     52  C   UNL A   1      44.878  24.587  28.618  1.00  0.00     0.029 A 
ATOM     53  N   UNL A   1      43.646  24.091  30.389  1.00  0.00    -0.354 N 
ATOM     54  N   UNL A   1      44.270  27.478  31.685  1.00  0.00    -0.248 NA
ATOM     55  C   UNL A   1      43.828  28.455  33.716  1.00  0.00     0.031 C 
ATOM     56  C   UNL A   1      45.449  25.211  29.768  1.00  0.00     0.029 A 
ATOM     57  C   UNL A   1      44.683  24.880  30.871  1.00  0.00     0.049 A 
ATOM     58  H   UNL A   1      42.934  23.708  30.952  1.00  0.00     0.167 HD
ATOM     59  C   UNL A   1      44.443  26.492  32.629  1.00  0.00     0.074 A 
ATOM     60  C   UNL A   1      44.156  27.165  33.887  1.00  0.00     0.031 C 
ATOM     61  C   UNL A   1      44.728  25.189  32.301  1.00  0.00     0.034 A 
BRANCH  48  62
ATOM     62  C   UNL A   1      42.687  22.162  27.324  1.00  0.00     0.023 A 
ATOM     63  C   UNL A   1      41.782  21.092  27.517  1.00  0.00     0.012 A 
ATOM     64  C   UNL A   1      43.647  21.966  26.301  1.00  0.00     0.148 A 
ATOM     65  C   UNL A   1      41.882  19.882  26.818  1.00  0.00     0.002 A 
ATOM     66  C   UNL A   1      43.781  20.743  25.635  1.00  0.00     0.091 A 
ATOM     67  F   UNL A   1      44.413  22.976  25.896  1.00  0.00    -0.205 F 
ATOM     68  C   UNL A   1      42.901  19.694  25.897  1.00  0.00     0.022 A 
BRANCH  66  69
ATOM     69  S   UNL A   1      45.108  20.416  24.454  1.00  0.00     0.127 S 
ATOM     70  O   UNL A   1      45.106  18.953  24.389  1.00  0.00    -0.237 OA
ATOM     71  O   UNL A   1      44.621  21.077  23.245  1.00  0.00    -0.237 OA
ATOM     72  O   UNL A   1      46.322  20.986  25.027  1.00  0.00    -0.744 OA
ENDBRANCH  66  69
ENDBRANCH  48  62
BRANCH  49  73
ATOM     73  C   UNL A   1      42.078  30.578  32.059  1.00  0.00     0.023 A 
ATOM     74  C   UNL A   1      41.915  31.874  31.515  1.00  0.00     0.012 A 
ATOM     75  C   UNL A   1      40.977  29.960  32.669  1.00  0.00     0.148 A 
ATOM     76  C   UNL A   1      40.636  32.404  31.339  1.00  0.00     0.002 A 
ATOM     77  C   UNL A   1      39.711  30.506  32.510  1.00  0.00     0.091 A 
ATOM     78  F   UNL A   1      41.147  28.811  33.332  1.00  0.00    -0.205 F 
ATOM     79  C   UNL A   1      39.527  31.685  31.775  1.00  0.00     0.022 A 
BRANCH  77  80
ATOM     80  S   UNL A   1      38.289  29.631  33.162  1.00  0.00     0.127 S 
ATOM     81  O   UNL A   1      38.438  29.857  34.595  1.00  0.00    -0.237 OA
ATOM     82  O   UNL A   1      37.166  30.334  32.543  1.00  0.00    -0.237 OA
ATOM     83  O   UNL A   1      38.473  28.266  32.692  1.00  0.00    -0.744 OA
ENDBRANCH  77  80
ENDBRANCH  49  73
BRANCH  61  84
ATOM     84  C   UNL A   1      45.006  24.064  33.301  1.00  0.00     0.023 A 
ATOM     85  C   UNL A   1      43.994  23.206  33.773  1.00  0.00     0.012 A 
ATOM     86  C   UNL A   1      46.290  23.871  33.882  1.00  0.00     0.148 A 
ATOM     87  C   UNL A   1      44.259  22.123  34.622  1.00  0.00     0.002 A 
ATOM     88  C   UNL A   1      46.552  22.811  34.748  1.00  0.00     0.091 A 
ATOM     89  F   UNL A   1      47.266  24.756  33.657  1.00  0.00    -0.205 F 
ATOM     90  C   UNL A   1      45.545  21.910  35.091  1.00  0.00     0.022 A 
BRANCH  88  91
ATOM     91  S   UNL A   1      48.165  22.560  35.502  1.00  0.00     0.127 S 
ATOM     92  O   UNL A   1      47.918  21.380  36.332  1.00  0.00    -0.237 OA
ATOM     93  O   UNL A   1      49.010  22.315  34.333  1.00  0.00    -0.237 OA
ATOM     94  O   UNL A   1      48.472  23.781  36.230  1.00  0.00    -0.744 OA
ENDBRANCH  88  91
ENDBRANCH  61  84
ENDBRANCH  35  36
ENDBRANCH  27  30
ENDBRANCH  25  26
ENDBRANCH   1  25
TORSDOF 16
ENDMDL
MODEL 3
REMARK VINA RESULT:     -12.6      3.754      9.450
REMARK SMILES Cc1ccc(S(=O)(=O)Nc2ccccn2)cc1C(=O)NCCCNC(=O)c1ccc(-c2c3nc(c(-c4cccc(S(=O)(=O)[O-])c4F)c4ccc([nH]4)c(-c4cccc(S(=O)(=O)[O-])c4F)c4nc(c(-c5cccc(S(=O)(=O)[O-])c5F)c5ccc2[nH]5)C=C4)C=C3)cc1
REMARK SMILES IDX 22 1 21 2 20 3 18 4 19 5 17 7 1 8 2 9 3 10 4 11 16 12 5 13
REMARK SMILES IDX 6 14 7 15 8 16 9 17 10 19 11 20 15 21 12 22 14 23 13 24
REMARK SMILES IDX 23 25 24 26 25 27 26 29 27 30 28 31 89 32 29 33 88 34 30 35
REMARK SMILES IDX 31 36 32 37 82 38 33 39 87 40 81 41 83 42 34 43 86 44 80 45
REMARK SMILES IDX 79 46 35 48 67 49 47 50 66 51 48 52 51 53 65 54 84 55 49 56
REMARK SMILES IDX 50 57 64 59 85 60 52 61 36 62 37 63 45 64 38 65 40 66 46 67
REMARK SMILES IDX 39 68 41 69 42 70 43 71 44 72 68 73 69 74 77 75 70 76 72 77
REMARK SMILES IDX 78 78 71 79 73 80 74 81 75 82 76 83 53 84 54 85 62 86 55 87
REMARK SMILES IDX 57 88 63 89 56 90 58 91 59 92 60 93 61 94
REMARK H PARENT 20 6 9 18 24 28 83 47 51 58
REMARK Flexibility Score: inf
ROOT
ATOM      1  C   UNL A   1      32.369  31.156  26.834  1.00  0.00     0.042 C 
ENDROOT
BRANCH   1   2
ATOM      2  C   UNL A   1      31.812  30.382  25.648  1.00  0.00     0.118 C 
BRANCH   2   3
ATOM      3  N   UNL A   1      32.879  29.786  24.877  1.00  0.00    -0.352 N 
ATOM      4  C   UNL A   1      33.233  28.525  24.489  1.00  0.00     0.251 C 
ATOM      5  O   UNL A   1      34.236  28.508  23.764  1.00  0.00    -0.269 OA
ATOM      6  H   UNL A   1      33.513  30.462  24.547  1.00  0.00     0.163 HD
BRANCH   4   7
ATOM      7  C   UNL A   1      32.570  27.193  24.789  1.00  0.00     0.044 A 
ATOM      8  C   UNL A   1      31.554  27.510  27.163  1.00  0.00     0.045 C 
ATOM      9  C   UNL A   1      31.815  26.757  25.901  1.00  0.00    -0.038 A 
ATOM     10  C   UNL A   1      31.346  25.424  25.956  1.00  0.00     0.005 A 
ATOM     11  C   UNL A   1      31.792  24.466  25.065  1.00  0.00     0.022 A 
ATOM     12  C   UNL A   1      32.940  26.191  23.846  1.00  0.00     0.036 A 
ATOM     13  C   UNL A   1      32.668  24.837  24.055  1.00  0.00     0.088 A 
BRANCH  13  14
ATOM     14  S   UNL A   1      33.571  23.491  23.315  1.00  0.00     0.263 S 
ATOM     15  O   UNL A   1      32.597  22.740  22.551  1.00  0.00    -0.201 OA
ATOM     16  O   UNL A   1      34.710  24.101  22.651  1.00  0.00    -0.201 OA
BRANCH  14  17
ATOM     17  N   UNL A   1      34.215  22.491  24.456  1.00  0.00    -0.263 N 
ATOM     18  H   UNL A   1      33.665  21.731  24.752  1.00  0.00     0.182 HD
BRANCH  17  19
ATOM     19  C   UNL A   1      35.477  22.632  25.037  1.00  0.00     0.139 A 
ATOM     20  C   UNL A   1      35.921  23.685  25.816  1.00  0.00     0.048 A 
ATOM     21  N   UNL A   1      36.238  21.587  24.659  1.00  0.00    -0.239 NA
ATOM     22  C   UNL A   1      37.278  23.710  26.141  1.00  0.00     0.005 A 
ATOM     23  C   UNL A   1      37.542  21.636  24.998  1.00  0.00     0.113 A 
ATOM     24  C   UNL A   1      38.107  22.675  25.714  1.00  0.00     0.020 A 
ENDBRANCH  17  19
ENDBRANCH  14  17
ENDBRANCH  13  14
ENDBRANCH   4   7
ENDBRANCH   2   3
ENDBRANCH   1   2
BRANCH   1  25
ATOM     25  C   UNL A   1      33.476  30.473  27.613  1.00  0.00     0.118 C 
BRANCH  25  26
ATOM     26  N   UNL A   1      34.306  31.454  28.317  1.00  0.00    -0.352 N 
ATOM     27  C   UNL A   1      35.486  31.274  29.020  1.00  0.00     0.251 C 
ATOM     28  H   UNL A   1      33.973  32.380  28.286  1.00  0.00     0.163 HD
ATOM     29  O   UNL A   1      35.984  32.201  29.646  1.00  0.00    -0.269 OA
BRANCH  27  30
ATOM     30  C   UNL A   1      36.176  29.977  28.872  1.00  0.00     0.039 A 
ATOM     31  C   UNL A   1      36.665  29.431  30.059  1.00  0.00     0.014 A 
ATOM     32  C   UNL A   1      36.750  29.667  27.643  1.00  0.00     0.014 A 
ATOM     33  C   UNL A   1      37.932  28.870  30.057  1.00  0.00     0.010 A 
ATOM     34  C   UNL A   1      38.048  29.198  27.655  1.00  0.00     0.010 A 
ATOM     35  C   UNL A   1      38.665  28.901  28.875  1.00  0.00    -0.014 A 
BRANCH  35  36
ATOM     36  C   UNL A   1      40.061  28.515  28.799  1.00  0.00     0.031 A 
ATOM     37  C   UNL A   1      40.343  27.076  28.684  1.00  0.00     0.074 A 
ATOM     38  C   UNL A   1      41.057  29.428  28.778  1.00  0.00     0.049 A 
ATOM     39  N   UNL A   1      41.472  26.532  28.966  1.00  0.00    -0.248 NA
ATOM     40  C   UNL A   1      39.308  26.123  28.303  1.00  0.00     0.031 C 
ATOM     41  C   UNL A   1      42.448  29.195  28.409  1.00  0.00     0.029 A 
ATOM     42  N   UNL A   1      41.063  30.727  29.294  1.00  0.00    -0.354 N 
ATOM     43  C   UNL A   1      41.411  25.229  28.525  1.00  0.00     0.074 A 
ATOM     44  C   UNL A   1      40.016  24.994  28.256  1.00  0.00     0.031 C 
ATOM     45  C   UNL A   1      43.210  30.163  28.941  1.00  0.00     0.029 A 
ATOM     46  C   UNL A   1      42.355  30.932  29.826  1.00  0.00     0.049 A 
ATOM     47  H   UNL A   1      40.317  31.370  29.286  1.00  0.00     0.167 HD
ATOM     48  C   UNL A   1      42.582  24.577  28.281  1.00  0.00     0.034 A 
ATOM     49  C   UNL A   1      42.613  31.196  31.145  1.00  0.00     0.034 A 
ATOM     50  C   UNL A   1      43.727  25.376  28.766  1.00  0.00     0.049 A 
ATOM     51  C   UNL A   1      43.540  30.170  31.796  1.00  0.00     0.074 A 
ATOM     52  C   UNL A   1      44.646  26.213  28.152  1.00  0.00     0.029 A 
ATOM     53  N   UNL A   1      43.841  25.628  30.128  1.00  0.00    -0.354 N 
ATOM     54  N   UNL A   1      44.069  29.145  31.186  1.00  0.00    -0.248 NA
ATOM     55  C   UNL A   1      43.814  30.158  33.231  1.00  0.00     0.031 C 
ATOM     56  C   UNL A   1      45.286  26.994  29.160  1.00  0.00     0.029 A 
ATOM     57  C   UNL A   1      44.789  26.608  30.393  1.00  0.00     0.049 A 
ATOM     58  H   UNL A   1      43.315  25.166  30.821  1.00  0.00     0.167 HD
ATOM     59  C   UNL A   1      44.572  28.262  32.114  1.00  0.00     0.074 A 
ATOM     60  C   UNL A   1      44.389  28.955  33.381  1.00  0.00     0.031 C 
ATOM     61  C   UNL A   1      45.022  27.008  31.781  1.00  0.00     0.034 A 
BRANCH  48  62
ATOM     62  C   UNL A   1      42.729  23.378  27.347  1.00  0.00     0.023 A 
ATOM     63  C   UNL A   1      41.942  22.241  27.639  1.00  0.00     0.012 A 
ATOM     64  C   UNL A   1      43.631  23.228  26.264  1.00  0.00     0.148 A 
ATOM     65  C   UNL A   1      42.102  21.018  26.975  1.00  0.00     0.002 A 
ATOM     66  C   UNL A   1      43.829  21.996  25.630  1.00  0.00     0.091 A 
ATOM     67  F   UNL A   1      44.271  24.285  25.771  1.00  0.00    -0.205 F 
ATOM     68  C   UNL A   1      43.068  20.885  25.990  1.00  0.00     0.022 A 
BRANCH  66  69
ATOM     69  S   UNL A   1      45.095  21.743  24.368  1.00  0.00     0.127 S 
ATOM     70  O   UNL A   1      44.843  22.859  23.454  1.00  0.00    -0.237 OA
ATOM     71  O   UNL A   1      46.333  21.857  25.137  1.00  0.00    -0.237 OA
ATOM     72  O   UNL A   1      44.844  20.429  23.788  1.00  0.00    -0.744 OA
ENDBRANCH  66  69
ENDBRANCH  48  62
BRANCH  49  73
ATOM     73  C   UNL A   1      41.461  31.849  31.847  1.00  0.00     0.023 A 
ATOM     74  C   UNL A   1      40.986  33.067  31.305  1.00  0.00     0.012 A 
ATOM     75  C   UNL A   1      40.602  31.092  32.658  1.00  0.00     0.148 A 
ATOM     76  C   UNL A   1      39.623  33.366  31.342  1.00  0.00     0.002 A 
ATOM     77  C   UNL A   1      39.252  31.410  32.709  1.00  0.00     0.091 A 
ATOM     78  F   UNL A   1      41.078  30.027  33.312  1.00  0.00    -0.205 F 
ATOM     79  C   UNL A   1      38.745  32.498  31.985  1.00  0.00     0.022 A 
BRANCH  77  80
ATOM     80  S   UNL A   1      38.134  30.349  33.624  1.00  0.00     0.127 S 
ATOM     81  O   UNL A   1      36.835  30.810  33.146  1.00  0.00    -0.237 OA
ATOM     82  O   UNL A   1      38.516  29.012  33.172  1.00  0.00    -0.237 OA
ATOM     83  O   UNL A   1      38.453  30.624  35.017  1.00  0.00    -0.744 OA
ENDBRANCH  77  80
ENDBRANCH  49  73
BRANCH  61  84
ATOM     84  C   UNL A   1      45.661  26.010  32.750  1.00  0.00     0.023 A 
ATOM     85  C   UNL A   1      47.045  25.753  32.767  1.00  0.00     0.012 A 
ATOM     86  C   UNL A   1      44.881  25.214  33.635  1.00  0.00     0.148 A 
ATOM     87  C   UNL A   1      47.643  24.905  33.708  1.00  0.00     0.002 A 
ATOM     88  C   UNL A   1      45.471  24.348  34.555  1.00  0.00     0.091 A 
ATOM     89  F   UNL A   1      43.548  25.233  33.554  1.00  0.00    -0.205 F 
ATOM     90  C   UNL A   1      46.857  24.219  34.619  1.00  0.00     0.022 A 
BRANCH  88  91
ATOM     91  S   UNL A   1      44.502  23.325  35.672  1.00  0.00     0.127 S 
ATOM     92  O   UNL A   1      45.379  22.165  35.838  1.00  0.00    -0.237 OA
ATOM     93  O   UNL A   1      44.397  24.183  36.853  1.00  0.00    -0.237 OA
ATOM     94  O   UNL A   1      43.240  23.062  34.997  1.00  0.00    -0.744 OA
ENDBRANCH  88  91
ENDBRANCH  61  84
ENDBRANCH  35  36
ENDBRANCH  27  30
ENDBRANCH  25  26
ENDBRANCH   1  25
TORSDOF 16
ENDMDL
