MODEL 1
REMARK VINA RESULT:     -11.0      0.000      0.000
REMARK SMILES CC[N@@H+]1CCC[C@@H]1C[N@@H+](C)C[C@H]([NH3+])C(=O)NCCCNC(=O)c1ccc(-c2c3nc(c(-c4cccc(S(=O)(=O)[O-])c4F)c4ccc([nH]4)c(-c4cccc(S(=O)(=O)[O-])c4F)c4nc(c(-c5cccc(S(=O)(=O)[O-])c5F)c5ccc2[nH]5)C=C4)C=C3)cc1
REMARK SMILES IDX 17 1 16 2 14 3 15 4 12 6 11 7 9 8 10 9 8 11 7 12 3 13 4 14
REMARK SMILES IDX 5 16 6 17 2 18 1 19 13 20 18 24 19 25 20 26 21 27 22 29
REMARK SMILES IDX 23 30 24 31 85 32 25 33 84 34 26 35 27 36 28 37 78 38 29 39
REMARK SMILES IDX 83 40 77 41 79 42 30 43 82 44 76 45 75 46 31 48 63 49 43 50
REMARK SMILES IDX 62 51 44 52 47 53 61 54 80 55 45 56 46 57 60 59 81 60 48 61
REMARK SMILES IDX 32 62 33 63 41 64 34 65 36 66 42 67 35 68 37 69 38 70 39 71
REMARK SMILES IDX 40 72 64 73 65 74 73 75 66 76 68 77 74 78 67 79 69 80 70 81
REMARK SMILES IDX 71 82 72 83 49 84 50 85 58 86 51 87 53 88 59 89 52 90 54 91
REMARK SMILES IDX 55 92 56 93 57 94
REMARK H PARENT 16 5 9 10 3 15 13 21 13 22 13 23 20 28 79 47 47 58
REMARK Flexibility Score: inf
ROOT
ATOM      1  C   UNL A   1      32.505  27.764  22.933  1.00  0.00     0.118 C 
ENDROOT
BRANCH   1   2
ATOM      2  N   UNL A   1      33.016  27.073  21.769  1.00  0.00    -0.351 N 
ATOM      3  C   UNL A   1      32.904  25.748  21.437  1.00  0.00     0.284 C 
ATOM      4  O   UNL A   1      32.973  25.484  20.229  1.00  0.00    -0.268 OA
ATOM      5  H   UNL A   1      33.511  27.630  21.126  1.00  0.00     0.163 HD
BRANCH   3   6
ATOM      6  C   UNL A   1      32.800  24.598  22.476  1.00  0.00     0.326 C 
BRANCH   6   7
ATOM      7  C   UNL A   1      33.484  24.670  23.886  1.00  0.00     0.338 C 
BRANCH   7   8
ATOM      8  N   UNL A   1      32.904  24.273  25.180  1.00  0.00    -0.327 N 
ATOM      9  C   UNL A   1      32.663  25.462  26.015  1.00  0.00     0.333 C 
ATOM     10  H   UNL A   1      32.037  23.803  24.921  1.00  0.00     0.348 HD
BRANCH   8  11
ATOM     11  C   UNL A   1      33.650  23.277  25.963  1.00  0.00     0.327 C 
BRANCH  11  12
ATOM     12  C   UNL A   1      33.344  21.748  26.001  1.00  0.00     0.239 C 
ATOM     13  N   UNL A   1      34.446  20.812  25.698  1.00  0.00    -0.328 N 
ATOM     14  C   UNL A   1      33.996  19.736  24.809  1.00  0.00     0.262 C 
ATOM     15  H   UNL A   1      34.603  20.598  26.683  1.00  0.00     0.348 HD
ATOM     16  C   UNL A   1      32.714  20.227  24.185  1.00  0.00     0.068 C 
ATOM     17  C   UNL A   1      32.160  21.222  25.182  1.00  0.00     0.077 C 
BRANCH  13  18
ATOM     18  C   UNL A   1      35.857  21.124  25.515  1.00  0.00     0.259 C 
ATOM     19  C   UNL A   1      36.364  21.814  24.256  1.00  0.00     0.071 C 
ENDBRANCH  13  18
ENDBRANCH  11  12
ENDBRANCH   8  11
ENDBRANCH   7   8
ENDBRANCH   6   7
BRANCH   6  20
ATOM     20  N   UNL A   1      32.904  23.255  21.849  1.00  0.00    -0.343 N 
ATOM     21  H   UNL A   1      32.306  23.220  21.023  1.00  0.00     0.345 HD
ATOM     22  H   UNL A   1      32.605  22.545  22.517  1.00  0.00     0.345 HD
ATOM     23  H   UNL A   1      33.872  23.082  21.576  1.00  0.00     0.345 HD
ENDBRANCH   6  20
ENDBRANCH   3   6
ENDBRANCH   1   2
BRANCH   1  24
ATOM     24  C   UNL A   1      33.308  28.954  23.431  1.00  0.00     0.042 C 
BRANCH  24  25
ATOM     25  C   UNL A   1      33.516  28.996  24.945  1.00  0.00     0.118 C 
BRANCH  25  26
ATOM     26  N   UNL A   1      32.800  30.059  25.658  1.00  0.00    -0.352 N 
ATOM     27  C   UNL A   1      33.107  30.831  26.760  1.00  0.00     0.251 C 
ATOM     28  H   UNL A   1      31.918  30.263  25.272  1.00  0.00     0.163 HD
ATOM     29  O   UNL A   1      32.267  31.614  27.199  1.00  0.00    -0.269 OA
BRANCH  27  30
ATOM     30  C   UNL A   1      34.408  30.728  27.447  1.00  0.00     0.039 A 
ATOM     31  C   UNL A   1      35.207  31.868  27.622  1.00  0.00     0.014 A 
ATOM     32  C   UNL A   1      34.875  29.491  27.866  1.00  0.00     0.014 A 
ATOM     33  C   UNL A   1      36.436  31.764  28.286  1.00  0.00     0.010 A 
ATOM     34  C   UNL A   1      36.014  29.412  28.646  1.00  0.00     0.010 A 
ATOM     35  C   UNL A   1      36.829  30.537  28.837  1.00  0.00    -0.014 A 
BRANCH  35  36
ATOM     36  C   UNL A   1      38.098  30.330  29.578  1.00  0.00     0.031 A 
ATOM     37  C   UNL A   1      39.115  29.367  29.016  1.00  0.00     0.074 A 
ATOM     38  C   UNL A   1      38.244  30.835  30.818  1.00  0.00     0.049 A 
ATOM     39  N   UNL A   1      40.131  28.796  29.604  1.00  0.00    -0.248 NA
ATOM     40  C   UNL A   1      38.910  28.932  27.620  1.00  0.00     0.031 C 
ATOM     41  C   UNL A   1      37.290  31.715  31.497  1.00  0.00     0.029 A 
ATOM     42  N   UNL A   1      39.229  30.632  31.751  1.00  0.00    -0.354 N 
ATOM     43  C   UNL A   1      40.629  27.876  28.685  1.00  0.00     0.074 A 
ATOM     44  C   UNL A   1      39.779  27.937  27.519  1.00  0.00     0.031 C 
ATOM     45  C   UNL A   1      37.730  31.967  32.740  1.00  0.00     0.029 A 
ATOM     46  C   UNL A   1      38.969  31.232  32.963  1.00  0.00     0.049 A 
ATOM     47  H   UNL A   1      40.043  30.108  31.573  1.00  0.00     0.167 HD
ATOM     48  C   UNL A   1      41.714  27.074  28.793  1.00  0.00     0.034 A 
ATOM     49  C   UNL A   1      39.644  31.174  34.127  1.00  0.00     0.034 A 
ATOM     50  C   UNL A   1      42.596  27.092  29.927  1.00  0.00     0.049 A 
ATOM     51  C   UNL A   1      40.901  30.349  34.191  1.00  0.00     0.074 A 
ATOM     52  C   UNL A   1      43.793  26.422  30.099  1.00  0.00     0.029 A 
ATOM     53  N   UNL A   1      42.379  27.831  31.080  1.00  0.00    -0.354 N 
ATOM     54  N   UNL A   1      41.435  29.588  33.266  1.00  0.00    -0.248 NA
ATOM     55  C   UNL A   1      41.666  30.400  35.444  1.00  0.00     0.031 C 
ATOM     56  C   UNL A   1      44.288  26.738  31.369  1.00  0.00     0.029 A 
ATOM     57  C   UNL A   1      43.417  27.633  31.972  1.00  0.00     0.049 A 
ATOM     58  H   UNL A   1      41.599  28.412  31.241  1.00  0.00     0.167 HD
ATOM     59  C   UNL A   1      42.619  29.102  33.808  1.00  0.00     0.074 A 
ATOM     60  C   UNL A   1      42.731  29.671  35.137  1.00  0.00     0.031 C 
ATOM     61  C   UNL A   1      43.527  28.253  33.266  1.00  0.00     0.034 A 
BRANCH  48  62
ATOM     62  C   UNL A   1      42.037  26.159  27.638  1.00  0.00     0.023 A 
ATOM     63  C   UNL A   1      42.811  26.636  26.559  1.00  0.00     0.012 A 
ATOM     64  C   UNL A   1      41.613  24.814  27.636  1.00  0.00     0.148 A 
ATOM     65  C   UNL A   1      43.116  25.809  25.478  1.00  0.00     0.002 A 
ATOM     66  C   UNL A   1      41.967  23.981  26.582  1.00  0.00     0.091 A 
ATOM     67  F   UNL A   1      40.863  24.379  28.658  1.00  0.00    -0.205 F 
ATOM     68  C   UNL A   1      42.704  24.481  25.495  1.00  0.00     0.022 A 
BRANCH  66  69
ATOM     69  S   UNL A   1      41.563  22.231  26.544  1.00  0.00     0.127 S 
ATOM     70  O   UNL A   1      42.245  21.796  25.328  1.00  0.00    -0.237 OA
ATOM     71  O   UNL A   1      42.164  21.750  27.787  1.00  0.00    -0.237 OA
ATOM     72  O   UNL A   1      40.107  22.155  26.503  1.00  0.00    -0.744 OA
ENDBRANCH  66  69
ENDBRANCH  48  62
BRANCH  49  73
ATOM     73  C   UNL A   1      39.182  31.974  35.297  1.00  0.00     0.023 A 
ATOM     74  C   UNL A   1      38.279  31.394  36.211  1.00  0.00     0.012 A 
ATOM     75  C   UNL A   1      39.659  33.277  35.539  1.00  0.00     0.148 A 
ATOM     76  C   UNL A   1      37.833  32.107  37.324  1.00  0.00     0.002 A 
ATOM     77  C   UNL A   1      39.255  33.961  36.681  1.00  0.00     0.091 A 
ATOM     78  F   UNL A   1      40.514  33.814  34.658  1.00  0.00    -0.205 F 
ATOM     79  C   UNL A   1      38.328  33.386  37.564  1.00  0.00     0.022 A 
BRANCH  77  80
ATOM     80  S   UNL A   1      39.943  35.554  37.145  1.00  0.00     0.127 S 
ATOM     81  O   UNL A   1      39.234  35.836  38.391  1.00  0.00    -0.237 OA
ATOM     82  O   UNL A   1      41.363  35.235  37.302  1.00  0.00    -0.237 OA
ATOM     83  O   UNL A   1      39.650  36.448  36.033  1.00  0.00    -0.744 OA
ENDBRANCH  77  80
ENDBRANCH  49  73
BRANCH  61  84
ATOM     84  C   UNL A   1      44.746  27.925  34.085  1.00  0.00     0.023 A 
ATOM     85  C   UNL A   1      45.885  28.751  34.017  1.00  0.00     0.012 A 
ATOM     86  C   UNL A   1      44.727  26.839  34.983  1.00  0.00     0.148 A 
ATOM     87  C   UNL A   1      47.001  28.480  34.806  1.00  0.00     0.002 A 
ATOM     88  C   UNL A   1      45.822  26.609  35.805  1.00  0.00     0.091 A 
ATOM     89  F   UNL A   1      43.638  26.058  35.018  1.00  0.00    -0.205 F 
ATOM     90  C   UNL A   1      46.965  27.418  35.708  1.00  0.00     0.022 A 
BRANCH  88  91
ATOM     91  S   UNL A   1      45.823  25.332  37.067  1.00  0.00     0.127 S 
ATOM     92  O   UNL A   1      45.056  24.271  36.418  1.00  0.00    -0.237 OA
ATOM     93  O   UNL A   1      47.250  25.049  37.218  1.00  0.00    -0.237 OA
ATOM     94  O   UNL A   1      45.197  25.925  38.242  1.00  0.00    -0.744 OA
ENDBRANCH  88  91
ENDBRANCH  61  84
ENDBRANCH  35  36
ENDBRANCH  27  30
ENDBRANCH  25  26
ENDBRANCH  24  25
ENDBRANCH   1  24
TORSDOF 19
ENDMDL
MODEL 2
REMARK VINA RESULT:     -10.5      1.590      2.290
REMARK SMILES CC[N@@H+]1CCC[C@@H]1C[N@@H+](C)C[C@H]([NH3+])C(=O)NCCCNC(=O)c1ccc(-c2c3nc(c(-c4cccc(S(=O)(=O)[O-])c4F)c4ccc([nH]4)c(-c4cccc(S(=O)(=O)[O-])c4F)c4nc(c(-c5cccc(S(=O)(=O)[O-])c5F)c5ccc2[nH]5)C=C4)C=C3)cc1
REMARK SMILES IDX 17 1 16 2 14 3 15 4 12 6 11 7 9 8 10 9 8 11 7 12 3 13 4 14
REMARK SMILES IDX 5 16 6 17 2 18 1 19 13 20 18 24 19 25 20 26 21 27 22 29
REMARK SMILES IDX 23 30 24 31 85 32 25 33 84 34 26 35 27 36 28 37 78 38 29 39
REMARK SMILES IDX 83 40 77 41 79 42 30 43 82 44 76 45 75 46 31 48 63 49 43 50
REMARK SMILES IDX 62 51 44 52 47 53 61 54 80 55 45 56 46 57 60 59 81 60 48 61
REMARK SMILES IDX 32 62 33 63 41 64 34 65 36 66 42 67 35 68 37 69 38 70 39 71
REMARK SMILES IDX 40 72 64 73 65 74 73 75 66 76 68 77 74 78 67 79 69 80 70 81
REMARK SMILES IDX 71 82 72 83 49 84 50 85 58 86 51 87 53 88 59 89 52 90 54 91
REMARK SMILES IDX 55 92 56 93 57 94
REMARK H PARENT 16 5 9 10 3 15 13 21 13 22 13 23 20 28 79 47 47 58
REMARK Flexibility Score: inf
ROOT
ATOM      1  C   UNL A   1      32.631  26.553  24.615  1.00  0.00     0.118 C 
ENDROOT
BRANCH   1   2
ATOM      2  N   UNL A   1      33.371  25.632  23.780  1.00  0.00    -0.351 N 
ATOM      3  C   UNL A   1      32.944  24.471  23.190  1.00  0.00     0.284 C 
ATOM      4  O   UNL A   1      33.555  24.123  22.171  1.00  0.00    -0.268 OA
ATOM      5  H   UNL A   1      34.311  25.873  23.610  1.00  0.00     0.163 HD
BRANCH   3   6
ATOM      6  C   UNL A   1      31.837  23.554  23.780  1.00  0.00     0.326 C 
BRANCH   6   7
ATOM      7  C   UNL A   1      32.115  22.075  24.225  1.00  0.00     0.338 C 
BRANCH   7   8
ATOM      8  N   UNL A   1      32.978  21.089  23.555  1.00  0.00    -0.327 N 
ATOM      9  C   UNL A   1      32.156  20.071  22.878  1.00  0.00     0.333 C 
ATOM     10  H   UNL A   1      33.516  21.650  22.895  1.00  0.00     0.348 HD
BRANCH   8  11
ATOM     11  C   UNL A   1      33.988  20.419  24.387  1.00  0.00     0.327 C 
BRANCH  11  12
ATOM     12  C   UNL A   1      35.240  21.107  25.014  1.00  0.00     0.239 C 
ATOM     13  N   UNL A   1      35.127  21.630  26.390  1.00  0.00    -0.328 N 
ATOM     14  C   UNL A   1      35.738  22.958  26.503  1.00  0.00     0.262 C 
ATOM     15  H   UNL A   1      35.621  20.830  26.789  1.00  0.00     0.348 HD
ATOM     16  C   UNL A   1      35.853  23.479  25.092  1.00  0.00     0.068 C 
ATOM     17  C   UNL A   1      35.918  22.236  24.231  1.00  0.00     0.077 C 
BRANCH  13  18
ATOM     18  C   UNL A   1      34.027  21.449  27.327  1.00  0.00     0.259 C 
ATOM     19  C   UNL A   1      33.134  22.611  27.743  1.00  0.00     0.071 C 
ENDBRANCH  13  18
ENDBRANCH  11  12
ENDBRANCH   8  11
ENDBRANCH   7   8
ENDBRANCH   6   7
BRANCH   6  20
ATOM     20  N   UNL A   1      30.536  23.715  23.083  1.00  0.00    -0.343 N 
ATOM     21  H   UNL A   1      30.524  23.130  22.247  1.00  0.00     0.345 HD
ATOM     22  H   UNL A   1      30.411  24.691  22.817  1.00  0.00     0.345 HD
ATOM     23  H   UNL A   1      29.779  23.431  23.706  1.00  0.00     0.345 HD
ENDBRANCH   6  20
ENDBRANCH   3   6
ENDBRANCH   1   2
BRANCH   1  24
ATOM     24  C   UNL A   1      33.443  27.442  25.541  1.00  0.00     0.042 C 
BRANCH  24  25
ATOM     25  C   UNL A   1      33.675  28.862  25.022  1.00  0.00     0.118 C 
BRANCH  25  26
ATOM     26  N   UNL A   1      32.947  29.925  25.723  1.00  0.00    -0.352 N 
ATOM     27  C   UNL A   1      33.247  30.716  26.812  1.00  0.00     0.251 C 
ATOM     28  H   UNL A   1      32.061  30.111  25.336  1.00  0.00     0.163 HD
ATOM     29  O   UNL A   1      32.397  31.494  27.243  1.00  0.00    -0.269 OA
BRANCH  27  30
ATOM     30  C   UNL A   1      34.551  30.640  27.496  1.00  0.00     0.039 A 
ATOM     31  C   UNL A   1      35.349  31.787  27.626  1.00  0.00     0.014 A 
ATOM     32  C   UNL A   1      35.022  29.420  27.958  1.00  0.00     0.014 A 
ATOM     33  C   UNL A   1      36.581  31.710  28.288  1.00  0.00     0.010 A 
ATOM     34  C   UNL A   1      36.165  29.371  28.734  1.00  0.00     0.010 A 
ATOM     35  C   UNL A   1      36.979  30.504  28.880  1.00  0.00    -0.014 A 
BRANCH  35  36
ATOM     36  C   UNL A   1      38.252  30.326  29.623  1.00  0.00     0.031 A 
ATOM     37  C   UNL A   1      39.286  29.377  29.068  1.00  0.00     0.074 A 
ATOM     38  C   UNL A   1      38.390  30.846  30.858  1.00  0.00     0.049 A 
ATOM     39  N   UNL A   1      40.312  28.829  29.661  1.00  0.00    -0.248 NA
ATOM     40  C   UNL A   1      39.087  28.925  27.677  1.00  0.00     0.031 C 
ATOM     41  C   UNL A   1      37.420  31.714  31.530  1.00  0.00     0.029 A 
ATOM     42  N   UNL A   1      39.379  30.668  31.792  1.00  0.00    -0.354 N 
ATOM     43  C   UNL A   1      40.826  27.910  28.750  1.00  0.00     0.074 A 
ATOM     44  C   UNL A   1      39.974  27.945  27.584  1.00  0.00     0.031 C 
ATOM     45  C   UNL A   1      37.857  31.986  32.770  1.00  0.00     0.029 A 
ATOM     46  C   UNL A   1      39.109  31.274  32.998  1.00  0.00     0.049 A 
ATOM     47  H   UNL A   1      40.201  30.157  31.618  1.00  0.00     0.167 HD
ATOM     48  C   UNL A   1      41.925  27.128  28.864  1.00  0.00     0.034 A 
ATOM     49  C   UNL A   1      39.785  31.238  34.163  1.00  0.00     0.034 A 
ATOM     50  C   UNL A   1      42.807  27.172  29.997  1.00  0.00     0.049 A 
ATOM     51  C   UNL A   1      41.057  30.436  34.233  1.00  0.00     0.074 A 
ATOM     52  C   UNL A   1      44.016  26.525  30.174  1.00  0.00     0.029 A 
ATOM     53  N   UNL A   1      42.577  27.918  31.144  1.00  0.00    -0.354 N 
ATOM     54  N   UNL A   1      41.604  29.677  33.315  1.00  0.00    -0.248 NA
ATOM     55  C   UNL A   1      41.821  30.512  35.486  1.00  0.00     0.031 C 
ATOM     56  C   UNL A   1      44.506  26.861  31.441  1.00  0.00     0.029 A 
ATOM     57  C   UNL A   1      43.619  27.746  32.036  1.00  0.00     0.049 A 
ATOM     58  H   UNL A   1      41.788  28.486  31.300  1.00  0.00     0.167 HD
ATOM     59  C   UNL A   1      42.796  29.217  33.861  1.00  0.00     0.074 A 
ATOM     60  C   UNL A   1      42.898  29.800  35.184  1.00  0.00     0.031 C 
ATOM     61  C   UNL A   1      43.719  28.380  33.325  1.00  0.00     0.034 A 
BRANCH  48  62
ATOM     62  C   UNL A   1      42.264  26.209  27.717  1.00  0.00     0.023 A 
ATOM     63  C   UNL A   1      43.087  26.668  26.668  1.00  0.00     0.012 A 
ATOM     64  C   UNL A   1      41.805  24.876  27.696  1.00  0.00     0.148 A 
ATOM     65  C   UNL A   1      43.407  25.837  25.595  1.00  0.00     0.002 A 
ATOM     66  C   UNL A   1      42.173  24.037  26.650  1.00  0.00     0.091 A 
ATOM     67  F   UNL A   1      41.008  24.457  28.689  1.00  0.00    -0.205 F 
ATOM     68  C   UNL A   1      42.960  24.520  25.592  1.00  0.00     0.022 A 
BRANCH  66  69
ATOM     69  S   UNL A   1      41.724  22.298  26.591  1.00  0.00     0.127 S 
ATOM     70  O   UNL A   1      42.290  21.804  27.844  1.00  0.00    -0.237 OA
ATOM     71  O   UNL A   1      40.264  22.359  26.563  1.00  0.00    -0.237 OA
ATOM     72  O   UNL A   1      42.335  21.765  25.378  1.00  0.00    -0.744 OA
ENDBRANCH  66  69
ENDBRANCH  48  62
BRANCH  49  73
ATOM     73  C   UNL A   1      39.310  32.041  35.326  1.00  0.00     0.023 A 
ATOM     74  C   UNL A   1      38.413  31.455  36.242  1.00  0.00     0.012 A 
ATOM     75  C   UNL A   1      39.768  33.352  35.559  1.00  0.00     0.148 A 
ATOM     76  C   UNL A   1      37.955  32.170  37.349  1.00  0.00     0.002 A 
ATOM     77  C   UNL A   1      39.352  34.039  36.695  1.00  0.00     0.091 A 
ATOM     78  F   UNL A   1      40.617  33.894  34.675  1.00  0.00    -0.205 F 
ATOM     79  C   UNL A   1      38.432  33.457  37.580  1.00  0.00     0.022 A 
BRANCH  77  80
ATOM     80  S   UNL A   1      40.017  35.645  37.148  1.00  0.00     0.127 S 
ATOM     81  O   UNL A   1      39.646  36.460  35.994  1.00  0.00    -0.237 OA
ATOM     82  O   UNL A   1      39.277  35.941  38.376  1.00  0.00    -0.237 OA
ATOM     83  O   UNL A   1      41.445  35.438  37.345  1.00  0.00    -0.744 OA
ENDBRANCH  77  80
ENDBRANCH  49  73
BRANCH  61  84
ATOM     84  C   UNL A   1      44.944  28.080  34.146  1.00  0.00     0.023 A 
ATOM     85  C   UNL A   1      44.962  26.964  35.005  1.00  0.00     0.012 A 
ATOM     86  C   UNL A   1      46.106  28.865  34.001  1.00  0.00     0.148 A 
ATOM     87  C   UNL A   1      46.109  26.654  35.734  1.00  0.00     0.002 A 
ATOM     88  C   UNL A   1      47.260  28.517  34.689  1.00  0.00     0.091 A 
ATOM     89  F   UNL A   1      46.059  29.932  33.191  1.00  0.00    -0.205 F 
ATOM     90  C   UNL A   1      47.260  27.421  35.567  1.00  0.00     0.022 A 
BRANCH  88  91
ATOM     91  S   UNL A   1      48.815  29.383  34.455  1.00  0.00     0.127 S 
ATOM     92  O   UNL A   1      49.729  28.578  35.264  1.00  0.00    -0.237 OA
ATOM     93  O   UNL A   1      49.018  29.270  33.011  1.00  0.00    -0.237 OA
ATOM     94  O   UNL A   1      48.595  30.743  34.930  1.00  0.00    -0.744 OA
ENDBRANCH  88  91
ENDBRANCH  61  84
ENDBRANCH  35  36
ENDBRANCH  27  30
ENDBRANCH  25  26
ENDBRANCH  24  25
ENDBRANCH   1  24
TORSDOF 19
ENDMDL
MODEL 3
REMARK VINA RESULT:     -10.4      1.522      2.041
REMARK SMILES CC[N@@H+]1CCC[C@@H]1C[N@@H+](C)C[C@H]([NH3+])C(=O)NCCCNC(=O)c1ccc(-c2c3nc(c(-c4cccc(S(=O)(=O)[O-])c4F)c4ccc([nH]4)c(-c4cccc(S(=O)(=O)[O-])c4F)c4nc(c(-c5cccc(S(=O)(=O)[O-])c5F)c5ccc2[nH]5)C=C4)C=C3)cc1
REMARK SMILES IDX 17 1 16 2 14 3 15 4 12 6 11 7 9 8 10 9 8 11 7 12 3 13 4 14
REMARK SMILES IDX 5 16 6 17 2 18 1 19 13 20 18 24 19 25 20 26 21 27 22 29
REMARK SMILES IDX 23 30 24 31 85 32 25 33 84 34 26 35 27 36 28 37 78 38 29 39
REMARK SMILES IDX 83 40 77 41 79 42 30 43 82 44 76 45 75 46 31 48 63 49 43 50
REMARK SMILES IDX 62 51 44 52 47 53 61 54 80 55 45 56 46 57 60 59 81 60 48 61
REMARK SMILES IDX 32 62 33 63 41 64 34 65 36 66 42 67 35 68 37 69 38 70 39 71
REMARK SMILES IDX 40 72 64 73 65 74 73 75 66 76 68 77 74 78 67 79 69 80 70 81
REMARK SMILES IDX 71 82 72 83 49 84 50 85 58 86 51 87 53 88 59 89 52 90 54 91
REMARK SMILES IDX 55 92 56 93 57 94
REMARK H PARENT 16 5 9 10 3 15 13 21 13 22 13 23 20 28 79 47 47 58
REMARK Flexibility Score: inf
ROOT
ATOM      1  C   UNL A   1      33.110  26.658  25.016  1.00  0.00     0.118 C 
ENDROOT
BRANCH   1   2
ATOM      2  N   UNL A   1      33.835  25.505  24.528  1.00  0.00    -0.351 N 
ATOM      3  C   UNL A   1      33.454  24.583  23.588  1.00  0.00     0.284 C 
ATOM      4  O   UNL A   1      34.373  24.004  22.993  1.00  0.00    -0.268 OA
ATOM      5  H   UNL A   1      34.725  25.362  24.925  1.00  0.00     0.163 HD
BRANCH   3   6
ATOM      6  C   UNL A   1      31.979  24.175  23.319  1.00  0.00     0.326 C 
BRANCH   6   7
ATOM      7  C   UNL A   1      31.523  22.677  23.220  1.00  0.00     0.338 C 
BRANCH   7   8
ATOM      8  N   UNL A   1      32.340  21.477  23.467  1.00  0.00    -0.327 N 
ATOM      9  C   UNL A   1      32.154  20.503  22.377  1.00  0.00     0.333 C 
ATOM     10  H   UNL A   1      33.293  21.838  23.502  1.00  0.00     0.348 HD
BRANCH   8  11
ATOM     11  C   UNL A   1      32.148  20.799  24.757  1.00  0.00     0.327 C 
BRANCH  11  12
ATOM     12  C   UNL A   1      32.952  19.556  25.250  1.00  0.00     0.239 C 
ATOM     13  N   UNL A   1      34.424  19.592  25.137  1.00  0.00    -0.328 N 
ATOM     14  C   UNL A   1      34.947  18.321  24.627  1.00  0.00     0.262 C 
ATOM     15  H   UNL A   1      34.545  19.808  26.128  1.00  0.00     0.348 HD
ATOM     16  C   UNL A   1      33.773  17.619  23.993  1.00  0.00     0.068 C 
ATOM     17  C   UNL A   1      32.562  18.176  24.709  1.00  0.00     0.077 C 
BRANCH  13  18
ATOM     18  C   UNL A   1      35.262  20.723  24.763  1.00  0.00     0.259 C 
ATOM     19  C   UNL A   1      35.590  21.835  25.750  1.00  0.00     0.071 C 
ENDBRANCH  13  18
ENDBRANCH  11  12
ENDBRANCH   8  11
ENDBRANCH   7   8
ENDBRANCH   6   7
BRANCH   6  20
ATOM     20  N   UNL A   1      31.322  25.049  22.315  1.00  0.00    -0.343 N 
ATOM     21  H   UNL A   1      30.323  24.845  22.291  1.00  0.00     0.345 HD
ATOM     22  H   UNL A   1      31.728  24.874  21.395  1.00  0.00     0.345 HD
ATOM     23  H   UNL A   1      31.464  26.026  22.571  1.00  0.00     0.345 HD
ENDBRANCH   6  20
ENDBRANCH   3   6
ENDBRANCH   1   2
BRANCH   1  24
ATOM     24  C   UNL A   1      33.934  27.771  25.640  1.00  0.00     0.042 C 
BRANCH  24  25
ATOM     25  C   UNL A   1      33.767  29.138  24.975  1.00  0.00     0.118 C 
BRANCH  25  26
ATOM     26  N   UNL A   1      33.031  30.141  25.753  1.00  0.00    -0.352 N 
ATOM     27  C   UNL A   1      33.333  30.865  26.887  1.00  0.00     0.251 C 
ATOM     28  H   UNL A   1      32.136  30.335  25.392  1.00  0.00     0.163 HD
ATOM     29  O   UNL A   1      32.477  31.599  27.380  1.00  0.00    -0.269 OA
BRANCH  27  30
ATOM     30  C   UNL A   1      34.648  30.770  27.547  1.00  0.00     0.039 A 
ATOM     31  C   UNL A   1      35.483  31.895  27.627  1.00  0.00     0.014 A 
ATOM     32  C   UNL A   1      35.093  29.550  28.035  1.00  0.00     0.014 A 
ATOM     33  C   UNL A   1      36.725  31.800  28.265  1.00  0.00     0.010 A 
ATOM     34  C   UNL A   1      36.250  29.489  28.789  1.00  0.00     0.010 A 
ATOM     35  C   UNL A   1      37.100  30.600  28.886  1.00  0.00    -0.014 A 
BRANCH  35  36
ATOM     36  C   UNL A   1      38.382  30.405  29.608  1.00  0.00     0.031 A 
ATOM     37  C   UNL A   1      39.390  29.435  29.041  1.00  0.00     0.074 A 
ATOM     38  C   UNL A   1      38.549  30.929  30.837  1.00  0.00     0.049 A 
ATOM     39  N   UNL A   1      40.417  28.874  29.619  1.00  0.00    -0.248 NA
ATOM     40  C   UNL A   1      39.161  28.979  27.656  1.00  0.00     0.031 C 
ATOM     41  C   UNL A   1      37.606  31.817  31.520  1.00  0.00     0.029 A 
ATOM     42  N   UNL A   1      39.551  30.740  31.756  1.00  0.00    -0.354 N 
ATOM     43  C   UNL A   1      40.900  27.941  28.706  1.00  0.00     0.074 A 
ATOM     44  C   UNL A   1      40.029  27.984  27.554  1.00  0.00     0.031 C 
ATOM     45  C   UNL A   1      38.068  32.088  32.751  1.00  0.00     0.029 A 
ATOM     46  C   UNL A   1      39.312  31.358  32.962  1.00  0.00     0.049 A 
ATOM     47  H   UNL A   1      40.362  30.214  31.571  1.00  0.00     0.167 HD
ATOM     48  C   UNL A   1      41.988  27.142  28.806  1.00  0.00     0.034 A 
ATOM     49  C   UNL A   1      40.007  31.317  34.116  1.00  0.00     0.034 A 
ATOM     50  C   UNL A   1      42.890  27.177  29.923  1.00  0.00     0.049 A 
ATOM     51  C   UNL A   1      41.266  30.494  34.169  1.00  0.00     0.074 A 
ATOM     52  C   UNL A   1      44.090  26.511  30.084  1.00  0.00     0.029 A 
ATOM     53  N   UNL A   1      42.692  27.933  31.070  1.00  0.00    -0.354 N 
ATOM     54  N   UNL A   1      41.785  29.721  33.246  1.00  0.00    -0.248 NA
ATOM     55  C   UNL A   1      42.054  30.564  35.408  1.00  0.00     0.031 C 
ATOM     56  C   UNL A   1      44.607  26.846  31.340  1.00  0.00     0.029 A 
ATOM     57  C   UNL A   1      43.746  27.749  31.945  1.00  0.00     0.049 A 
ATOM     58  H   UNL A   1      41.915  28.515  31.236  1.00  0.00     0.167 HD
ATOM     59  C   UNL A   1      42.979  29.244  33.774  1.00  0.00     0.074 A 
ATOM     60  C   UNL A   1      43.113  29.832  35.092  1.00  0.00     0.031 C 
ATOM     61  C   UNL A   1      43.878  28.388  33.228  1.00  0.00     0.034 A 
BRANCH  48  62
ATOM     62  C   UNL A   1      42.291  26.210  27.658  1.00  0.00     0.023 A 
ATOM     63  C   UNL A   1      43.078  26.660  26.577  1.00  0.00     0.012 A 
ATOM     64  C   UNL A   1      41.836  24.876  27.667  1.00  0.00     0.148 A 
ATOM     65  C   UNL A   1      43.365  25.818  25.504  1.00  0.00     0.002 A 
ATOM     66  C   UNL A   1      42.172  24.026  26.619  1.00  0.00     0.091 A 
ATOM     67  F   UNL A   1      41.073  24.467  28.691  1.00  0.00    -0.205 F 
ATOM     68  C   UNL A   1      42.923  24.500  25.530  1.00  0.00     0.022 A 
BRANCH  66  69
ATOM     69  S   UNL A   1      41.727  22.286  26.595  1.00  0.00     0.127 S 
ATOM     70  O   UNL A   1      40.271  22.354  26.513  1.00  0.00    -0.237 OA
ATOM     71  O   UNL A   1      42.387  21.817  25.377  1.00  0.00    -0.237 OA
ATOM     72  O   UNL A   1      42.256  21.717  27.830  1.00  0.00    -0.744 OA
ENDBRANCH  66  69
ENDBRANCH  48  62
BRANCH  49  73
ATOM     73  C   UNL A   1      39.566  32.133  35.282  1.00  0.00     0.023 A 
ATOM     74  C   UNL A   1      39.855  33.512  35.302  1.00  0.00     0.012 A 
ATOM     75  C   UNL A   1      38.828  31.573  36.343  1.00  0.00     0.148 A 
ATOM     76  C   UNL A   1      39.449  34.311  36.372  1.00  0.00     0.002 A 
ATOM     77  C   UNL A   1      38.377  32.385  37.378  1.00  0.00     0.091 A 
ATOM     78  F   UNL A   1      38.566  30.259  36.309  1.00  0.00    -0.205 F 
ATOM     79  C   UNL A   1      38.702  33.750  37.403  1.00  0.00     0.022 A 
BRANCH  77  80
ATOM     80  S   UNL A   1      37.293  31.780  38.677  1.00  0.00     0.127 S 
ATOM     81  O   UNL A   1      36.163  32.700  38.577  1.00  0.00    -0.237 OA
ATOM     82  O   UNL A   1      37.018  30.415  38.228  1.00  0.00    -0.237 OA
ATOM     83  O   UNL A   1      38.070  31.861  39.905  1.00  0.00    -0.744 OA
ENDBRANCH  77  80
ENDBRANCH  49  73
BRANCH  61  84
ATOM     84  C   UNL A   1      45.112  28.073  34.030  1.00  0.00     0.023 A 
ATOM     85  C   UNL A   1      46.250  28.897  33.926  1.00  0.00     0.012 A 
ATOM     86  C   UNL A   1      45.109  27.003  34.947  1.00  0.00     0.148 A 
ATOM     87  C   UNL A   1      47.380  28.638  34.700  1.00  0.00     0.002 A 
ATOM     88  C   UNL A   1      46.219  26.785  35.752  1.00  0.00     0.091 A 
ATOM     89  F   UNL A   1      44.021  26.223  35.015  1.00  0.00    -0.205 F 
ATOM     90  C   UNL A   1      47.361  27.593  35.620  1.00  0.00     0.022 A 
BRANCH  88  91
ATOM     91  S   UNL A   1      46.243  25.530  37.036  1.00  0.00     0.127 S 
ATOM     92  O   UNL A   1      45.155  25.973  37.905  1.00  0.00    -0.237 OA
ATOM     93  O   UNL A   1      45.963  24.310  36.279  1.00  0.00    -0.237 OA
ATOM     94  O   UNL A   1      47.574  25.583  37.626  1.00  0.00    -0.744 OA
ENDBRANCH  88  91
ENDBRANCH  61  84
ENDBRANCH  35  36
ENDBRANCH  27  30
ENDBRANCH  25  26
ENDBRANCH  24  25
ENDBRANCH   1  24
TORSDOF 19
ENDMDL
