MODEL 1
REMARK VINA RESULT:     -11.9      0.000      0.000
REMARK SMILES O=C1C[N@@H+](Cc2ccc(C(=O)NCCCNC(=O)c3ccc(-c4c5nc(c(-c6cccc(S(=O)(=O)[O-])c6F)c6ccc([nH]6)c(-c6cccc(S(=O)(=O)[O-])c6F)c6nc(c(-c7cccc(S(=O)(=O)[O-])c7F)c7ccc4[nH]7)C=C6)C=C5)cc3)cc2)CCN1
REMARK SMILES IDX 14 1 13 2 12 3 10 4 11 5 9 7 6 8 7 9 83 10 8 11 82 12 5 13
REMARK SMILES IDX 4 14 1 15 2 16 3 17 86 18 85 19 84 21 15 23 16 24 17 25
REMARK SMILES IDX 18 27 19 28 20 29 81 30 21 31 80 32 22 33 23 34 24 35 74 36
REMARK SMILES IDX 25 37 79 38 73 39 75 40 26 41 78 42 72 43 71 44 27 46 59 47
REMARK SMILES IDX 39 48 58 49 40 50 43 51 57 52 76 53 41 54 42 55 56 57 77 58
REMARK SMILES IDX 44 59 28 60 29 61 37 62 30 63 32 64 38 65 31 66 33 67 34 68
REMARK SMILES IDX 35 69 36 70 60 71 61 72 69 73 62 74 64 75 70 76 63 77 65 78
REMARK SMILES IDX 66 79 67 80 68 81 45 82 46 83 54 84 47 85 49 86 55 87 48 88
REMARK SMILES IDX 50 89 51 90 52 91 53 92
REMARK H PARENT 12 6 86 20 4 22 16 26 75 45 43 56
REMARK Flexibility Score: inf
ROOT
ATOM      1  C   UNL A   1      32.698  28.942  25.329  1.00  0.00     0.042 C 
ENDROOT
BRANCH   1   2
ATOM      2  C   UNL A   1      33.094  28.911  23.855  1.00  0.00     0.118 C 
BRANCH   2   3
ATOM      3  N   UNL A   1      31.948  29.103  22.979  1.00  0.00    -0.352 N 
ATOM      4  C   UNL A   1      30.941  28.238  22.623  1.00  0.00     0.251 C 
ATOM      5  O   UNL A   1      29.989  28.657  21.971  1.00  0.00    -0.269 OA
ATOM      6  H   UNL A   1      31.885  29.999  22.576  1.00  0.00     0.163 HD
BRANCH   4   7
ATOM      7  C   UNL A   1      30.949  26.833  23.089  1.00  0.00     0.039 A 
ATOM      8  C   UNL A   1      31.127  24.277  24.218  1.00  0.00     0.006 A 
ATOM      9  C   UNL A   1      30.315  25.256  24.807  1.00  0.00     0.010 A 
ATOM     10  C   UNL A   1      31.741  24.554  22.989  1.00  0.00     0.010 A 
ATOM     11  C   UNL A   1      30.226  26.529  24.246  1.00  0.00     0.014 A 
ATOM     12  C   UNL A   1      31.647  25.826  22.422  1.00  0.00     0.014 A 
BRANCH   8  13
ATOM     13  C   UNL A   1      31.372  22.958  24.909  1.00  0.00     0.299 C 
BRANCH  13  14
ATOM     14  N   UNL A   1      32.644  22.289  24.623  1.00  0.00    -0.322 N 
ATOM     15  O   UNL A   1      32.108  18.689  24.946  1.00  0.00    -0.269 OA
ATOM     16  C   UNL A   1      32.572  19.809  25.161  1.00  0.00     0.275 C 
ATOM     17  C   UNL A   1      32.536  20.916  24.105  1.00  0.00     0.363 C 
ATOM     18  N   UNL A   1      33.253  20.046  26.323  1.00  0.00    -0.346 N 
ATOM     19  C   UNL A   1      33.672  21.360  26.753  1.00  0.00     0.177 C 
ATOM     20  H   UNL A   1      33.471  19.277  26.898  1.00  0.00     0.163 HD
ATOM     21  C   UNL A   1      33.696  22.414  25.635  1.00  0.00     0.284 C 
ATOM     22  H   UNL A   1      32.970  22.860  23.843  1.00  0.00     0.348 HD
ENDBRANCH  13  14
ENDBRANCH   8  13
ENDBRANCH   4   7
ENDBRANCH   2   3
ENDBRANCH   1   2
BRANCH   1  23
ATOM     23  C   UNL A   1      33.859  29.230  26.275  1.00  0.00     0.118 C 
BRANCH  23  24
ATOM     24  N   UNL A   1      33.779  30.560  26.863  1.00  0.00    -0.352 N 
ATOM     25  C   UNL A   1      34.560  31.148  27.827  1.00  0.00     0.251 C 
ATOM     26  H   UNL A   1      33.052  31.125  26.514  1.00  0.00     0.163 HD
ATOM     27  O   UNL A   1      34.198  32.214  28.319  1.00  0.00    -0.269 OA
BRANCH  25  28
ATOM     28  C   UNL A   1      35.815  30.509  28.290  1.00  0.00     0.039 A 
ATOM     29  C   UNL A   1      36.976  30.689  27.533  1.00  0.00     0.014 A 
ATOM     30  C   UNL A   1      35.850  29.709  29.436  1.00  0.00     0.014 A 
ATOM     31  C   UNL A   1      38.179  30.113  27.952  1.00  0.00     0.010 A 
ATOM     32  C   UNL A   1      37.065  29.201  29.894  1.00  0.00     0.010 A 
ATOM     33  C   UNL A   1      38.242  29.389  29.153  1.00  0.00    -0.014 A 
BRANCH  33  34
ATOM     34  C   UNL A   1      39.532  28.848  29.657  1.00  0.00     0.031 A 
ATOM     35  C   UNL A   1      40.265  29.526  30.783  1.00  0.00     0.074 A 
ATOM     36  C   UNL A   1      40.092  27.792  29.036  1.00  0.00     0.049 A 
ATOM     37  N   UNL A   1      41.412  29.211  31.326  1.00  0.00    -0.248 NA
ATOM     38  C   UNL A   1      39.645  30.732  31.354  1.00  0.00     0.031 C 
ATOM     39  C   UNL A   1      39.533  27.107  27.870  1.00  0.00     0.029 A 
ATOM     40  N   UNL A   1      41.272  27.132  29.275  1.00  0.00    -0.354 N 
ATOM     41  C   UNL A   1      41.673  30.198  32.269  1.00  0.00     0.074 A 
ATOM     42  C   UNL A   1      40.575  31.139  32.205  1.00  0.00     0.031 C 
ATOM     43  C   UNL A   1      40.369  26.126  27.492  1.00  0.00     0.029 A 
ATOM     44  C   UNL A   1      41.536  26.131  28.369  1.00  0.00     0.049 A 
ATOM     45  H   UNL A   1      41.872  27.353  30.024  1.00  0.00     0.167 HD
ATOM     46  C   UNL A   1      42.717  30.301  33.127  1.00  0.00     0.034 A 
ATOM     47  C   UNL A   1      42.600  25.314  28.247  1.00  0.00     0.034 A 
ATOM     48  C   UNL A   1      43.786  29.341  33.216  1.00  0.00     0.049 A 
ATOM     49  C   UNL A   1      43.715  25.404  29.251  1.00  0.00     0.074 A 
ATOM     50  C   UNL A   1      44.821  29.290  34.133  1.00  0.00     0.029 A 
ATOM     51  N   UNL A   1      43.970  28.277  32.346  1.00  0.00    -0.354 N 
ATOM     52  N   UNL A   1      43.847  26.228  30.262  1.00  0.00    -0.248 NA
ATOM     53  C   UNL A   1      44.807  24.429  29.124  1.00  0.00     0.031 C 
ATOM     54  C   UNL A   1      45.650  28.215  33.795  1.00  0.00     0.029 A 
ATOM     55  C   UNL A   1      45.113  27.576  32.690  1.00  0.00     0.049 A 
ATOM     56  H   UNL A   1      43.374  28.053  31.595  1.00  0.00     0.167 HD
ATOM     57  C   UNL A   1      45.021  25.857  30.907  1.00  0.00     0.074 A 
ATOM     58  C   UNL A   1      45.548  24.716  30.186  1.00  0.00     0.031 C 
ATOM     59  C   UNL A   1      45.614  26.420  31.990  1.00  0.00     0.034 A 
BRANCH  46  60
ATOM     60  C   UNL A   1      42.736  31.480  34.067  1.00  0.00     0.023 A 
ATOM     61  C   UNL A   1      43.311  32.700  33.652  1.00  0.00     0.012 A 
ATOM     62  C   UNL A   1      42.147  31.396  35.344  1.00  0.00     0.148 A 
ATOM     63  C   UNL A   1      43.338  33.801  34.506  1.00  0.00     0.002 A 
ATOM     64  C   UNL A   1      42.135  32.513  36.172  1.00  0.00     0.091 A 
ATOM     65  F   UNL A   1      41.624  30.224  35.732  1.00  0.00    -0.205 F 
ATOM     66  C   UNL A   1      42.742  33.711  35.761  1.00  0.00     0.022 A 
BRANCH  64  67
ATOM     67  S   UNL A   1      41.319  32.519  37.772  1.00  0.00     0.127 S 
ATOM     68  O   UNL A   1      41.412  33.929  38.146  1.00  0.00    -0.237 OA
ATOM     69  O   UNL A   1      39.969  32.067  37.432  1.00  0.00    -0.237 OA
ATOM     70  O   UNL A   1      42.072  31.595  38.609  1.00  0.00    -0.744 OA
ENDBRANCH  64  67
ENDBRANCH  46  60
BRANCH  47  71
ATOM     71  C   UNL A   1      42.622  24.302  27.153  1.00  0.00     0.023 A 
ATOM     72  C   UNL A   1      43.340  24.569  25.972  1.00  0.00     0.012 A 
ATOM     73  C   UNL A   1      41.993  23.051  27.309  1.00  0.00     0.148 A 
ATOM     74  C   UNL A   1      43.413  23.617  24.955  1.00  0.00     0.002 A 
ATOM     75  C   UNL A   1      42.120  22.085  26.319  1.00  0.00     0.091 A 
ATOM     76  F   UNL A   1      41.309  22.822  28.439  1.00  0.00    -0.205 F 
ATOM     77  C   UNL A   1      42.814  22.371  25.133  1.00  0.00     0.022 A 
BRANCH  75  78
ATOM     78  S   UNL A   1      41.512  20.407  26.524  1.00  0.00     0.127 S 
ATOM     79  O   UNL A   1      42.047  20.053  27.835  1.00  0.00    -0.237 OA
ATOM     80  O   UNL A   1      40.064  20.607  26.480  1.00  0.00    -0.237 OA
ATOM     81  O   UNL A   1      42.048  19.651  25.397  1.00  0.00    -0.744 OA
ENDBRANCH  75  78
ENDBRANCH  47  71
BRANCH  59  82
ATOM     82  C   UNL A   1      46.898  25.802  32.482  1.00  0.00     0.023 A 
ATOM     83  C   UNL A   1      48.133  26.255  31.979  1.00  0.00     0.012 A 
ATOM     84  C   UNL A   1      46.882  24.821  33.493  1.00  0.00     0.148 A 
ATOM     85  C   UNL A   1      49.331  25.717  32.449  1.00  0.00     0.002 A 
ATOM     86  C   UNL A   1      48.081  24.326  33.993  1.00  0.00     0.091 A 
ATOM     87  F   UNL A   1      45.697  24.387  33.947  1.00  0.00    -0.205 F 
ATOM     88  C   UNL A   1      49.306  24.763  33.463  1.00  0.00     0.022 A 
BRANCH  86  89
ATOM     89  S   UNL A   1      48.147  23.167  35.364  1.00  0.00     0.127 S 
ATOM     90  O   UNL A   1      47.488  23.923  36.427  1.00  0.00    -0.237 OA
ATOM     91  O   UNL A   1      47.374  22.035  34.851  1.00  0.00    -0.237 OA
ATOM     92  O   UNL A   1      49.559  22.883  35.581  1.00  0.00    -0.744 OA
ENDBRANCH  86  89
ENDBRANCH  59  82
ENDBRANCH  33  34
ENDBRANCH  25  28
ENDBRANCH  23  24
ENDBRANCH   1  23
TORSDOF 15
ENDMDL
MODEL 2
REMARK VINA RESULT:     -11.9      3.196      8.556
REMARK SMILES O=C1C[N@@H+](Cc2ccc(C(=O)NCCCNC(=O)c3ccc(-c4c5nc(c(-c6cccc(S(=O)(=O)[O-])c6F)c6ccc([nH]6)c(-c6cccc(S(=O)(=O)[O-])c6F)c6nc(c(-c7cccc(S(=O)(=O)[O-])c7F)c7ccc4[nH]7)C=C6)C=C5)cc3)cc2)CCN1
REMARK SMILES IDX 14 1 13 2 12 3 10 4 11 5 9 7 6 8 7 9 83 10 8 11 82 12 5 13
REMARK SMILES IDX 4 14 1 15 2 16 3 17 86 18 85 19 84 21 15 23 16 24 17 25
REMARK SMILES IDX 18 27 19 28 20 29 81 30 21 31 80 32 22 33 23 34 24 35 74 36
REMARK SMILES IDX 25 37 79 38 73 39 75 40 26 41 78 42 72 43 71 44 27 46 59 47
REMARK SMILES IDX 39 48 58 49 40 50 43 51 57 52 76 53 41 54 42 55 56 57 77 58
REMARK SMILES IDX 44 59 28 60 29 61 37 62 30 63 32 64 38 65 31 66 33 67 34 68
REMARK SMILES IDX 35 69 36 70 60 71 61 72 69 73 62 74 64 75 70 76 63 77 65 78
REMARK SMILES IDX 66 79 67 80 68 81 45 82 46 83 54 84 47 85 49 86 55 87 48 88
REMARK SMILES IDX 50 89 51 90 52 91 53 92
REMARK H PARENT 12 6 86 20 4 22 16 26 75 45 43 56
REMARK Flexibility Score: inf
ROOT
ATOM      1  C   UNL A   1      31.474  31.604  26.474  1.00  0.00     0.042 C 
ENDROOT
BRANCH   1   2
ATOM      2  C   UNL A   1      31.724  30.233  25.850  1.00  0.00     0.118 C 
BRANCH   2   3
ATOM      3  N   UNL A   1      31.224  30.158  24.485  1.00  0.00    -0.352 N 
ATOM      4  C   UNL A   1      30.972  29.071  23.685  1.00  0.00     0.251 C 
ATOM      5  O   UNL A   1      30.417  29.234  22.601  1.00  0.00    -0.269 OA
ATOM      6  H   UNL A   1      31.037  31.030  24.068  1.00  0.00     0.163 HD
BRANCH   4   7
ATOM      7  C   UNL A   1      31.281  27.700  24.149  1.00  0.00     0.039 A 
ATOM      8  C   UNL A   1      31.787  25.205  25.317  1.00  0.00     0.006 A 
ATOM      9  C   UNL A   1      30.472  25.673  25.190  1.00  0.00     0.010 A 
ATOM     10  C   UNL A   1      32.829  25.941  24.734  1.00  0.00     0.010 A 
ATOM     11  C   UNL A   1      30.219  26.916  24.611  1.00  0.00     0.014 A 
ATOM     12  C   UNL A   1      32.576  27.181  24.146  1.00  0.00     0.014 A 
BRANCH   8  13
ATOM     13  C   UNL A   1      32.088  23.950  26.099  1.00  0.00     0.299 C 
BRANCH  13  14
ATOM     14  N   UNL A   1      33.253  23.170  25.672  1.00  0.00    -0.322 N 
ATOM     15  O   UNL A   1      32.145  19.737  25.096  1.00  0.00    -0.269 OA
ATOM     16  C   UNL A   1      32.767  20.680  25.585  1.00  0.00     0.275 C 
ATOM     17  C   UNL A   1      32.959  21.999  24.832  1.00  0.00     0.363 C 
ATOM     18  N   UNL A   1      33.417  20.516  26.776  1.00  0.00    -0.346 N 
ATOM     19  C   UNL A   1      34.013  21.601  27.521  1.00  0.00     0.177 C 
ATOM     20  H   UNL A   1      33.482  19.607  27.148  1.00  0.00     0.163 HD
ATOM     21  C   UNL A   1      34.259  22.874  26.695  1.00  0.00     0.284 C 
ATOM     22  H   UNL A   1      33.704  23.851  25.060  1.00  0.00     0.348 HD
ENDBRANCH  13  14
ENDBRANCH   8  13
ENDBRANCH   4   7
ENDBRANCH   2   3
ENDBRANCH   1   2
BRANCH   1  23
ATOM     23  C   UNL A   1      32.669  32.160  27.242  1.00  0.00     0.118 C 
BRANCH  23  24
ATOM     24  N   UNL A   1      32.527  33.578  27.541  1.00  0.00    -0.352 N 
ATOM     25  C   UNL A   1      33.177  34.355  28.468  1.00  0.00     0.251 C 
ATOM     26  H   UNL A   1      31.862  34.053  26.992  1.00  0.00     0.163 HD
ATOM     27  O   UNL A   1      32.765  35.492  28.686  1.00  0.00    -0.269 OA
BRANCH  25  28
ATOM     28  C   UNL A   1      34.348  33.838  29.214  1.00  0.00     0.039 A 
ATOM     29  C   UNL A   1      34.136  32.897  30.226  1.00  0.00     0.014 A 
ATOM     30  C   UNL A   1      35.643  34.297  28.954  1.00  0.00     0.014 A 
ATOM     31  C   UNL A   1      35.222  32.379  30.937  1.00  0.00     0.010 A 
ATOM     32  C   UNL A   1      36.730  33.723  29.609  1.00  0.00     0.010 A 
ATOM     33  C   UNL A   1      36.534  32.764  30.615  1.00  0.00    -0.014 A 
BRANCH  33  34
ATOM     34  C   UNL A   1      37.703  32.153  31.300  1.00  0.00     0.031 A 
ATOM     35  C   UNL A   1      38.468  31.026  30.662  1.00  0.00     0.074 A 
ATOM     36  C   UNL A   1      38.022  32.557  32.546  1.00  0.00     0.049 A 
ATOM     37  N   UNL A   1      39.491  30.358  31.129  1.00  0.00    -0.248 NA
ATOM     38  C   UNL A   1      38.008  30.569  29.342  1.00  0.00     0.031 C 
ATOM     39  C   UNL A   1      37.297  33.570  33.314  1.00  0.00     0.029 A 
ATOM     40  N   UNL A   1      39.014  32.140  33.398  1.00  0.00    -0.354 N 
ATOM     41  C   UNL A   1      39.771  29.377  30.185  1.00  0.00     0.074 A 
ATOM     42  C   UNL A   1      38.791  29.520  29.129  1.00  0.00     0.031 C 
ATOM     43  C   UNL A   1      37.866  33.694  34.524  1.00  0.00     0.029 A 
ATOM     44  C   UNL A   1      38.975  32.751  34.629  1.00  0.00     0.049 A 
ATOM     45  H   UNL A   1      39.690  31.468  33.151  1.00  0.00     0.167 HD
ATOM     46  C   UNL A   1      40.764  28.455  30.183  1.00  0.00     0.034 A 
ATOM     47  C   UNL A   1      39.735  32.568  35.726  1.00  0.00     0.034 A 
ATOM     48  C   UNL A   1      41.762  28.343  31.214  1.00  0.00     0.049 A 
ATOM     49  C   UNL A   1      40.873  31.588  35.676  1.00  0.00     0.074 A 
ATOM     50  C   UNL A   1      42.880  27.527  31.245  1.00  0.00     0.029 A 
ATOM     51  N   UNL A   1      41.752  29.050  32.407  1.00  0.00    -0.354 N 
ATOM     52  N   UNL A   1      41.240  30.803  34.693  1.00  0.00    -0.248 NA
ATOM     53  C   UNL A   1      41.726  31.495  36.869  1.00  0.00     0.031 C 
ATOM     54  C   UNL A   1      43.525  27.717  32.471  1.00  0.00     0.029 A 
ATOM     55  C   UNL A   1      42.830  28.675  33.190  1.00  0.00     0.049 A 
ATOM     56  H   UNL A   1      41.077  29.721  32.660  1.00  0.00     0.167 HD
ATOM     57  C   UNL A   1      42.380  30.142  35.136  1.00  0.00     0.074 A 
ATOM     58  C   UNL A   1      42.657  30.639  36.468  1.00  0.00     0.031 C 
ATOM     59  C   UNL A   1      43.121  29.199  34.501  1.00  0.00     0.034 A 
BRANCH  46  60
ATOM     60  C   UNL A   1      40.845  27.515  29.007  1.00  0.00     0.023 A 
ATOM     61  C   UNL A   1      39.985  26.399  28.940  1.00  0.00     0.012 A 
ATOM     62  C   UNL A   1      41.738  27.760  27.946  1.00  0.00     0.148 A 
ATOM     63  C   UNL A   1      40.043  25.519  27.861  1.00  0.00     0.002 A 
ATOM     64  C   UNL A   1      41.757  26.904  26.850  1.00  0.00     0.091 A 
ATOM     65  F   UNL A   1      42.564  28.812  28.033  1.00  0.00    -0.205 F 
ATOM     66  C   UNL A   1      40.921  25.776  26.812  1.00  0.00     0.022 A 
BRANCH  64  67
ATOM     67  S   UNL A   1      42.795  27.199  25.413  1.00  0.00     0.127 S 
ATOM     68  O   UNL A   1      44.100  27.424  26.032  1.00  0.00    -0.237 OA
ATOM     69  O   UNL A   1      42.676  25.936  24.682  1.00  0.00    -0.237 OA
ATOM     70  O   UNL A   1      42.216  28.348  24.731  1.00  0.00    -0.744 OA
ENDBRANCH  64  67
ENDBRANCH  46  60
BRANCH  47  71
ATOM     71  C   UNL A   1      39.467  33.383  36.945  1.00  0.00     0.023 A 
ATOM     72  C   UNL A   1      39.902  34.721  36.999  1.00  0.00     0.012 A 
ATOM     73  C   UNL A   1      38.723  32.856  38.020  1.00  0.00     0.148 A 
ATOM     74  C   UNL A   1      39.620  35.515  38.111  1.00  0.00     0.002 A 
ATOM     75  C   UNL A   1      38.394  33.670  39.097  1.00  0.00     0.091 A 
ATOM     76  F   UNL A   1      38.326  31.578  37.950  1.00  0.00    -0.205 F 
ATOM     77  C   UNL A   1      38.856  34.994  39.153  1.00  0.00     0.022 A 
BRANCH  75  78
ATOM     78  S   UNL A   1      37.293  33.133  40.411  1.00  0.00     0.127 S 
ATOM     79  O   UNL A   1      38.029  32.008  40.979  1.00  0.00    -0.237 OA
ATOM     80  O   UNL A   1      37.234  34.325  41.257  1.00  0.00    -0.237 OA
ATOM     81  O   UNL A   1      36.032  32.799  39.758  1.00  0.00    -0.744 OA
ENDBRANCH  75  78
ENDBRANCH  47  71
BRANCH  59  82
ATOM     82  C   UNL A   1      44.321  28.648  35.228  1.00  0.00     0.023 A 
ATOM     83  C   UNL A   1      45.596  29.200  34.996  1.00  0.00     0.012 A 
ATOM     84  C   UNL A   1      44.175  27.630  36.190  1.00  0.00     0.148 A 
ATOM     85  C   UNL A   1      46.712  28.725  35.685  1.00  0.00     0.002 A 
ATOM     86  C   UNL A   1      45.282  27.196  36.909  1.00  0.00     0.091 A 
ATOM     87  F   UNL A   1      42.957  27.101  36.384  1.00  0.00    -0.205 F 
ATOM     88  C   UNL A   1      46.553  27.732  36.649  1.00  0.00     0.022 A 
BRANCH  86  89
ATOM     89  S   UNL A   1      45.156  25.990  38.236  1.00  0.00     0.127 S 
ATOM     90  O   UNL A   1      46.542  25.904  38.694  1.00  0.00    -0.237 OA
ATOM     91  O   UNL A   1      44.245  26.651  39.171  1.00  0.00    -0.237 OA
ATOM     92  O   UNL A   1      44.622  24.779  37.627  1.00  0.00    -0.744 OA
ENDBRANCH  86  89
ENDBRANCH  59  82
ENDBRANCH  33  34
ENDBRANCH  25  28
ENDBRANCH  23  24
ENDBRANCH   1  23
TORSDOF 15
ENDMDL
MODEL 3
REMARK VINA RESULT:     -11.7      1.630      2.021
REMARK SMILES O=C1C[N@@H+](Cc2ccc(C(=O)NCCCNC(=O)c3ccc(-c4c5nc(c(-c6cccc(S(=O)(=O)[O-])c6F)c6ccc([nH]6)c(-c6cccc(S(=O)(=O)[O-])c6F)c6nc(c(-c7cccc(S(=O)(=O)[O-])c7F)c7ccc4[nH]7)C=C6)C=C5)cc3)cc2)CCN1
REMARK SMILES IDX 14 1 13 2 12 3 10 4 11 5 9 7 6 8 7 9 83 10 8 11 82 12 5 13
REMARK SMILES IDX 4 14 1 15 2 16 3 17 86 18 85 19 84 21 15 23 16 24 17 25
REMARK SMILES IDX 18 27 19 28 20 29 81 30 21 31 80 32 22 33 23 34 24 35 74 36
REMARK SMILES IDX 25 37 79 38 73 39 75 40 26 41 78 42 72 43 71 44 27 46 59 47
REMARK SMILES IDX 39 48 58 49 40 50 43 51 57 52 76 53 41 54 42 55 56 57 77 58
REMARK SMILES IDX 44 59 28 60 29 61 37 62 30 63 32 64 38 65 31 66 33 67 34 68
REMARK SMILES IDX 35 69 36 70 60 71 61 72 69 73 62 74 64 75 70 76 63 77 65 78
REMARK SMILES IDX 66 79 67 80 68 81 45 82 46 83 54 84 47 85 49 86 55 87 48 88
REMARK SMILES IDX 50 89 51 90 52 91 53 92
REMARK H PARENT 12 6 86 20 4 22 16 26 75 45 43 56
REMARK Flexibility Score: inf
ROOT
ATOM      1  C   UNL A   1      33.179  29.220  24.996  1.00  0.00     0.042 C 
ENDROOT
BRANCH   1   2
ATOM      2  C   UNL A   1      31.654  29.242  25.064  1.00  0.00     0.118 C 
BRANCH   2   3
ATOM      3  N   UNL A   1      31.059  29.628  23.794  1.00  0.00    -0.352 N 
ATOM      4  C   UNL A   1      30.588  28.859  22.757  1.00  0.00     0.251 C 
ATOM      5  O   UNL A   1      29.995  29.398  21.827  1.00  0.00    -0.269 OA
ATOM      6  H   UNL A   1      30.982  30.600  23.655  1.00  0.00     0.163 HD
BRANCH   4   7
ATOM      7  C   UNL A   1      30.711  27.385  22.791  1.00  0.00     0.039 A 
ATOM      8  C   UNL A   1      31.009  24.625  23.160  1.00  0.00     0.006 A 
ATOM      9  C   UNL A   1      29.901  25.295  23.696  1.00  0.00     0.010 A 
ATOM     10  C   UNL A   1      31.891  25.329  22.329  1.00  0.00     0.010 A 
ATOM     11  C   UNL A   1      29.752  26.669  23.514  1.00  0.00     0.014 A 
ATOM     12  C   UNL A   1      31.739  26.703  22.139  1.00  0.00     0.014 A 
BRANCH   8  13
ATOM     13  C   UNL A   1      31.275  23.179  23.498  1.00  0.00     0.299 C 
BRANCH  13  14
ATOM     14  N   UNL A   1      31.982  22.914  24.754  1.00  0.00    -0.322 N 
ATOM     15  O   UNL A   1      29.575  23.252  27.482  1.00  0.00    -0.269 OA
ATOM     16  C   UNL A   1      30.572  23.467  26.791  1.00  0.00     0.275 C 
ATOM     17  C   UNL A   1      31.151  22.403  25.855  1.00  0.00     0.363 C 
ATOM     18  N   UNL A   1      31.264  24.635  26.948  1.00  0.00    -0.346 N 
ATOM     19  C   UNL A   1      32.325  25.063  26.066  1.00  0.00     0.177 C 
ATOM     20  H   UNL A   1      31.025  25.218  27.704  1.00  0.00     0.163 HD
ATOM     21  C   UNL A   1      32.926  23.938  25.208  1.00  0.00     0.284 C 
ATOM     22  H   UNL A   1      32.572  22.134  24.461  1.00  0.00     0.348 HD
ENDBRANCH  13  14
ENDBRANCH   8  13
ENDBRANCH   4   7
ENDBRANCH   2   3
ENDBRANCH   1   2
BRANCH   1  23
ATOM     23  C   UNL A   1      33.860  29.282  26.360  1.00  0.00     0.118 C 
BRANCH  23  24
ATOM     24  N   UNL A   1      33.777  30.605  26.962  1.00  0.00    -0.352 N 
ATOM     25  C   UNL A   1      34.560  31.187  27.928  1.00  0.00     0.251 C 
ATOM     26  H   UNL A   1      33.046  31.171  26.623  1.00  0.00     0.163 HD
ATOM     27  O   UNL A   1      34.196  32.247  28.433  1.00  0.00    -0.269 OA
BRANCH  25  28
ATOM     28  C   UNL A   1      35.820  30.549  28.379  1.00  0.00     0.039 A 
ATOM     29  C   UNL A   1      36.986  30.777  27.642  1.00  0.00     0.014 A 
ATOM     30  C   UNL A   1      35.856  29.703  29.491  1.00  0.00     0.014 A 
ATOM     31  C   UNL A   1      38.193  30.203  28.051  1.00  0.00     0.010 A 
ATOM     32  C   UNL A   1      37.073  29.195  29.941  1.00  0.00     0.010 A 
ATOM     33  C   UNL A   1      38.255  29.431  29.222  1.00  0.00    -0.014 A 
BRANCH  33  34
ATOM     34  C   UNL A   1      39.548  28.890  29.717  1.00  0.00     0.031 A 
ATOM     35  C   UNL A   1      40.286  29.564  30.842  1.00  0.00     0.074 A 
ATOM     36  C   UNL A   1      40.106  27.835  29.090  1.00  0.00     0.049 A 
ATOM     37  N   UNL A   1      41.436  29.248  31.378  1.00  0.00    -0.248 NA
ATOM     38  C   UNL A   1      39.668  30.768  31.420  1.00  0.00     0.031 C 
ATOM     39  C   UNL A   1      39.541  27.154  27.924  1.00  0.00     0.029 A 
ATOM     40  N   UNL A   1      41.287  27.175  29.321  1.00  0.00    -0.354 N 
ATOM     41  C   UNL A   1      41.701  30.232  32.323  1.00  0.00     0.074 A 
ATOM     42  C   UNL A   1      40.602  31.173  32.268  1.00  0.00     0.031 C 
ATOM     43  C   UNL A   1      40.376  26.175  27.540  1.00  0.00     0.029 A 
ATOM     44  C   UNL A   1      41.547  26.178  28.411  1.00  0.00     0.049 A 
ATOM     45  H   UNL A   1      41.891  27.395  30.068  1.00  0.00     0.167 HD
ATOM     46  C   UNL A   1      42.750  30.333  33.176  1.00  0.00     0.034 A 
ATOM     47  C   UNL A   1      42.611  25.362  28.280  1.00  0.00     0.034 A 
ATOM     48  C   UNL A   1      43.819  29.374  33.257  1.00  0.00     0.049 A 
ATOM     49  C   UNL A   1      43.731  25.450  29.279  1.00  0.00     0.074 A 
ATOM     50  C   UNL A   1      44.859  29.320  34.168  1.00  0.00     0.029 A 
ATOM     51  N   UNL A   1      43.999  28.313  32.382  1.00  0.00    -0.354 N 
ATOM     52  N   UNL A   1      43.868  26.270  30.292  1.00  0.00    -0.248 NA
ATOM     53  C   UNL A   1      44.823  24.475  29.144  1.00  0.00     0.031 C 
ATOM     54  C   UNL A   1      45.687  28.247  33.823  1.00  0.00     0.029 A 
ATOM     55  C   UNL A   1      45.145  27.611  32.718  1.00  0.00     0.049 A 
ATOM     56  H   UNL A   1      43.400  28.091  31.633  1.00  0.00     0.167 HD
ATOM     57  C   UNL A   1      45.045  25.898  30.930  1.00  0.00     0.074 A 
ATOM     58  C   UNL A   1      45.569  24.760  30.203  1.00  0.00     0.031 C 
ATOM     59  C   UNL A   1      45.644  26.457  32.012  1.00  0.00     0.034 A 
BRANCH  46  60
ATOM     60  C   UNL A   1      42.773  31.509  34.120  1.00  0.00     0.023 A 
ATOM     61  C   UNL A   1      43.348  32.729  33.708  1.00  0.00     0.012 A 
ATOM     62  C   UNL A   1      42.186  31.422  35.398  1.00  0.00     0.148 A 
ATOM     63  C   UNL A   1      43.379  33.827  34.566  1.00  0.00     0.002 A 
ATOM     64  C   UNL A   1      42.177  32.536  36.229  1.00  0.00     0.091 A 
ATOM     65  F   UNL A   1      41.662  30.250  35.783  1.00  0.00    -0.205 F 
ATOM     66  C   UNL A   1      42.786  33.735  35.821  1.00  0.00     0.022 A 
BRANCH  64  67
ATOM     67  S   UNL A   1      41.364  32.538  37.832  1.00  0.00     0.127 S 
ATOM     68  O   UNL A   1      40.023  32.072  37.483  1.00  0.00    -0.237 OA
ATOM     69  O   UNL A   1      42.167  31.575  38.587  1.00  0.00    -0.237 OA
ATOM     70  O   UNL A   1      41.447  33.908  38.320  1.00  0.00    -0.744 OA
ENDBRANCH  64  67
ENDBRANCH  46  60
BRANCH  47  71
ATOM     71  C   UNL A   1      42.629  24.354  27.183  1.00  0.00     0.023 A 
ATOM     72  C   UNL A   1      43.344  24.623  26.001  1.00  0.00     0.012 A 
ATOM     73  C   UNL A   1      41.997  23.103  27.336  1.00  0.00     0.148 A 
ATOM     74  C   UNL A   1      43.413  23.674  24.981  1.00  0.00     0.002 A 
ATOM     75  C   UNL A   1      42.120  22.140  26.343  1.00  0.00     0.091 A 
ATOM     76  F   UNL A   1      41.316  22.872  28.468  1.00  0.00    -0.205 F 
ATOM     77  C   UNL A   1      42.812  22.429  25.156  1.00  0.00     0.022 A 
BRANCH  75  78
ATOM     78  S   UNL A   1      41.509  20.463  26.544  1.00  0.00     0.127 S 
ATOM     79  O   UNL A   1      42.098  19.789  25.390  1.00  0.00    -0.237 OA
ATOM     80  O   UNL A   1      42.083  20.089  27.837  1.00  0.00    -0.237 OA
ATOM     81  O   UNL A   1      40.055  20.568  26.541  1.00  0.00    -0.744 OA
ENDBRANCH  75  78
ENDBRANCH  47  71
BRANCH  59  82
ATOM     82  C   UNL A   1      46.930  25.839  32.496  1.00  0.00     0.023 A 
ATOM     83  C   UNL A   1      46.914  24.958  33.595  1.00  0.00     0.012 A 
ATOM     84  C   UNL A   1      48.142  26.077  31.820  1.00  0.00     0.148 A 
ATOM     85  C   UNL A   1      48.090  24.351  34.035  1.00  0.00     0.002 A 
ATOM     86  C   UNL A   1      49.301  25.429  32.232  1.00  0.00     0.091 A 
ATOM     87  F   UNL A   1      48.142  26.933  30.788  1.00  0.00    -0.205 F 
ATOM     88  C   UNL A   1      49.280  24.577  33.347  1.00  0.00     0.022 A 
BRANCH  86  89
ATOM     89  S   UNL A   1      50.857  25.586  31.347  1.00  0.00     0.127 S 
ATOM     90  O   UNL A   1      51.170  27.000  31.542  1.00  0.00    -0.237 OA
ATOM     91  O   UNL A   1      51.725  24.662  32.080  1.00  0.00    -0.237 OA
ATOM     92  O   UNL A   1      50.579  25.190  29.974  1.00  0.00    -0.744 OA
ENDBRANCH  86  89
ENDBRANCH  59  82
ENDBRANCH  33  34
ENDBRANCH  25  28
ENDBRANCH  23  24
ENDBRANCH   1  23
TORSDOF 15
ENDMDL
