MODEL 1
REMARK VINA RESULT:     -10.3      0.000      0.000
REMARK SMILES CC[NH2+][C@]1(C(=O)NCCCNC(=O)c2ccc(-c3c4nc(c(-c5cccc(S(=O)(=O)[O-])c5F)c5ccc([nH]5)c(-c5cccc(S(=O)(=O)[O-])c5F)c5nc(c(-c6cccc(S(=O)(=O)[O-])c6F)c6ccc3[nH]6)C=C5)C=C4)cc2)CC[C@H](OCC)C1
REMARK SMILES IDX 9 1 8 2 7 3 5 4 6 5 4 7 77 8 83 9 78 10 79 11 3 12 2 15 1 16
REMARK SMILES IDX 80 17 81 18 82 19 10 20 11 21 12 22 13 24 14 25 15 26 76 27
REMARK SMILES IDX 16 28 75 29 17 30 18 31 19 32 69 33 20 34 74 35 68 36 70 37
REMARK SMILES IDX 21 38 73 39 67 40 66 41 22 43 54 44 34 45 53 46 35 47 38 48
REMARK SMILES IDX 52 49 71 50 36 51 37 52 51 54 72 55 39 56 23 57 24 58 32 59
REMARK SMILES IDX 25 60 27 61 33 62 26 63 28 64 29 65 30 66 31 67 55 68 56 69
REMARK SMILES IDX 64 70 57 71 59 72 65 73 58 74 60 75 61 76 62 77 63 78 40 79
REMARK SMILES IDX 41 80 49 81 42 82 44 83 50 84 43 85 45 86 46 87 47 88 48 89
REMARK H PARENT 7 6 3 13 3 14 11 23 70 42 38 53
REMARK Flexibility Score: inf
ROOT
ATOM      1  C   UNL A   1      31.425  29.185  25.143  1.00  0.00     0.042 C 
ENDROOT
BRANCH   1   2
ATOM      2  C   UNL A   1      31.629  27.755  24.645  1.00  0.00     0.118 C 
BRANCH   2   3
ATOM      3  N   UNL A   1      31.137  26.770  25.586  1.00  0.00    -0.351 N 
ATOM      4  C   UNL A   1      31.507  25.510  25.934  1.00  0.00     0.281 C 
ATOM      5  O   UNL A   1      30.837  25.070  26.879  1.00  0.00    -0.268 OA
ATOM      6  H   UNL A   1      30.354  27.088  26.092  1.00  0.00     0.163 HD
BRANCH   4   7
ATOM      7  C   UNL A   1      32.747  24.743  25.341  1.00  0.00     0.178 C 
ATOM      8  C   UNL A   1      34.083  25.510  25.364  1.00  0.00     0.082 C 
ATOM      9  C   UNL A   1      33.055  23.501  26.205  1.00  0.00     0.111 C 
ATOM     10  C   UNL A   1      35.164  24.443  25.363  1.00  0.00     0.039 C 
ATOM     11  C   UNL A   1      34.579  23.299  26.187  1.00  0.00     0.125 C 
BRANCH   7  12
ATOM     12  N   UNL A   1      32.587  24.381  23.896  1.00  0.00    -0.334 N 
ATOM     13  H   UNL A   1      32.135  25.170  23.435  1.00  0.00     0.347 HD
ATOM     14  H   UNL A   1      33.533  24.165  23.583  1.00  0.00     0.347 HD
BRANCH  12  15
ATOM     15  C   UNL A   1      31.816  23.188  23.566  1.00  0.00     0.257 C 
ATOM     16  C   UNL A   1      32.556  22.387  22.501  1.00  0.00     0.071 C 
ENDBRANCH  12  15
ENDBRANCH   7  12
BRANCH  11  17
ATOM     17  O   UNL A   1      34.953  22.075  25.564  1.00  0.00    -0.378 OA
BRANCH  17  18
ATOM     18  C   UNL A   1      35.820  22.205  24.442  1.00  0.00     0.157 C 
ATOM     19  C   UNL A   1      37.122  21.450  24.647  1.00  0.00     0.035 C 
ENDBRANCH  17  18
ENDBRANCH  11  17
ENDBRANCH   4   7
ENDBRANCH   2   3
ENDBRANCH   1   2
BRANCH   1  20
ATOM     20  C   UNL A   1      32.656  29.796  25.799  1.00  0.00     0.118 C 
BRANCH  20  21
ATOM     21  N   UNL A   1      32.455  31.189  26.168  1.00  0.00    -0.352 N 
ATOM     22  C   UNL A   1      33.077  31.945  27.131  1.00  0.00     0.251 C 
ATOM     23  H   UNL A   1      31.767  31.663  25.648  1.00  0.00     0.163 HD
ATOM     24  O   UNL A   1      32.605  33.037  27.435  1.00  0.00    -0.269 OA
BRANCH  22  25
ATOM     25  C   UNL A   1      34.299  31.452  27.810  1.00  0.00     0.039 A 
ATOM     26  C   UNL A   1      35.366  32.333  28.007  1.00  0.00     0.014 A 
ATOM     27  C   UNL A   1      34.414  30.120  28.215  1.00  0.00     0.014 A 
ATOM     28  C   UNL A   1      36.523  31.892  28.656  1.00  0.00     0.010 A 
ATOM     29  C   UNL A   1      35.528  29.705  28.939  1.00  0.00     0.010 A 
ATOM     30  C   UNL A   1      36.603  30.580  29.151  1.00  0.00    -0.014 A 
BRANCH  30  31
ATOM     31  C   UNL A   1      37.804  30.098  29.881  1.00  0.00     0.031 A 
ATOM     32  C   UNL A   1      38.088  30.582  31.278  1.00  0.00     0.074 A 
ATOM     33  C   UNL A   1      38.685  29.292  29.256  1.00  0.00     0.049 A 
ATOM     34  N   UNL A   1      39.107  30.315  32.053  1.00  0.00    -0.248 NA
ATOM     35  C   UNL A   1      37.116  31.516  31.870  1.00  0.00     0.031 C 
ATOM     36  C   UNL A   1      38.566  28.817  27.877  1.00  0.00     0.029 A 
ATOM     37  N   UNL A   1      39.869  28.751  29.693  1.00  0.00    -0.354 N 
ATOM     38  C   UNL A   1      38.921  31.076  33.202  1.00  0.00     0.074 A 
ATOM     39  C   UNL A   1      37.712  31.845  33.007  1.00  0.00     0.031 C 
ATOM     40  C   UNL A   1      39.624  28.045  27.584  1.00  0.00     0.029 A 
ATOM     41  C   UNL A   1      40.512  27.994  28.741  1.00  0.00     0.049 A 
ATOM     42  H   UNL A   1      40.224  28.891  30.600  1.00  0.00     0.167 HD
ATOM     43  C   UNL A   1      39.668  31.109  34.331  1.00  0.00     0.034 A 
ATOM     44  C   UNL A   1      41.685  27.331  28.796  1.00  0.00     0.034 A 
ATOM     45  C   UNL A   1      40.841  30.304  34.542  1.00  0.00     0.049 A 
ATOM     46  C   UNL A   1      42.474  27.345  30.076  1.00  0.00     0.074 A 
ATOM     47  C   UNL A   1      41.611  30.186  35.685  1.00  0.00     0.029 A 
ATOM     48  N   UNL A   1      41.419  29.484  33.584  1.00  0.00    -0.354 N 
ATOM     49  N   UNL A   1      42.194  27.939  31.211  1.00  0.00    -0.248 NA
ATOM     50  C   UNL A   1      43.722  26.569  30.095  1.00  0.00     0.031 C 
ATOM     51  C   UNL A   1      42.668  29.309  35.411  1.00  0.00     0.029 A 
ATOM     52  C   UNL A   1      42.542  28.865  34.104  1.00  0.00     0.049 A 
ATOM     53  H   UNL A   1      41.080  29.361  32.668  1.00  0.00     0.167 HD
ATOM     54  C   UNL A   1      43.210  27.581  32.090  1.00  0.00     0.074 A 
ATOM     55  C   UNL A   1      44.103  26.704  31.360  1.00  0.00     0.031 C 
ATOM     56  C   UNL A   1      43.395  27.955  33.380  1.00  0.00     0.034 A 
BRANCH  43  57
ATOM     57  C   UNL A   1      39.201  32.009  35.447  1.00  0.00     0.023 A 
ATOM     58  C   UNL A   1      38.239  31.537  36.365  1.00  0.00     0.012 A 
ATOM     59  C   UNL A   1      39.729  33.305  35.609  1.00  0.00     0.148 A 
ATOM     60  C   UNL A   1      37.775  32.355  37.394  1.00  0.00     0.002 A 
ATOM     61  C   UNL A   1      39.296  34.097  36.667  1.00  0.00     0.091 A 
ATOM     62  F   UNL A   1      40.626  33.748  34.717  1.00  0.00    -0.205 F 
ATOM     63  C   UNL A   1      38.310  33.631  37.551  1.00  0.00     0.022 A 
BRANCH  61  64
ATOM     64  S   UNL A   1      39.985  35.724  36.995  1.00  0.00     0.127 S 
ATOM     65  O   UNL A   1      41.405  35.418  37.156  1.00  0.00    -0.237 OA
ATOM     66  O   UNL A   1      39.654  36.454  35.771  1.00  0.00    -0.237 OA
ATOM     67  O   UNL A   1      39.303  36.208  38.187  1.00  0.00    -0.744 OA
ENDBRANCH  61  64
ENDBRANCH  43  57
BRANCH  44  68
ATOM     68  C   UNL A   1      42.129  26.523  27.625  1.00  0.00     0.023 A 
ATOM     69  C   UNL A   1      42.980  27.115  26.670  1.00  0.00     0.012 A 
ATOM     70  C   UNL A   1      41.768  25.170  27.480  1.00  0.00     0.148 A 
ATOM     71  C   UNL A   1      43.446  26.379  25.580  1.00  0.00     0.002 A 
ATOM     72  C   UNL A   1      42.279  24.429  26.420  1.00  0.00     0.091 A 
ATOM     73  F   UNL A   1      40.954  24.630  28.397  1.00  0.00    -0.205 F 
ATOM     74  C   UNL A   1      43.104  25.035  25.461  1.00  0.00     0.022 A 
BRANCH  72  75
ATOM     75  S   UNL A   1      42.004  22.661  26.254  1.00  0.00     0.127 S 
ATOM     76  O   UNL A   1      42.618  22.146  27.474  1.00  0.00    -0.237 OA
ATOM     77  O   UNL A   1      40.543  22.588  26.220  1.00  0.00    -0.237 OA
ATOM     78  O   UNL A   1      42.654  22.276  25.009  1.00  0.00    -0.744 OA
ENDBRANCH  72  75
ENDBRANCH  44  68
BRANCH  56  79
ATOM     79  C   UNL A   1      44.593  27.400  34.105  1.00  0.00     0.023 A 
ATOM     80  C   UNL A   1      45.810  28.110  34.091  1.00  0.00     0.012 A 
ATOM     81  C   UNL A   1      44.491  26.217  34.862  1.00  0.00     0.148 A 
ATOM     82  C   UNL A   1      46.916  27.635  34.795  1.00  0.00     0.002 A 
ATOM     83  C   UNL A   1      45.583  25.775  35.601  1.00  0.00     0.091 A 
ATOM     84  F   UNL A   1      43.331  25.544  34.848  1.00  0.00    -0.205 F 
ATOM     85  C   UNL A   1      46.799  26.475  35.558  1.00  0.00     0.022 A 
BRANCH  83  86
ATOM     86  S   UNL A   1      45.494  24.347  36.687  1.00  0.00     0.127 S 
ATOM     87  O   UNL A   1      44.966  23.321  35.790  1.00  0.00    -0.237 OA
ATOM     88  O   UNL A   1      46.893  24.160  37.071  1.00  0.00    -0.237 OA
ATOM     89  O   UNL A   1      44.616  24.732  37.784  1.00  0.00    -0.744 OA
ENDBRANCH  83  86
ENDBRANCH  56  79
ENDBRANCH  30  31
ENDBRANCH  22  25
ENDBRANCH  20  21
ENDBRANCH   1  20
TORSDOF 17
ENDMDL
MODEL 2
REMARK VINA RESULT:     -10.3      2.436      8.268
REMARK SMILES CC[NH2+][C@]1(C(=O)NCCCNC(=O)c2ccc(-c3c4nc(c(-c5cccc(S(=O)(=O)[O-])c5F)c5ccc([nH]5)c(-c5cccc(S(=O)(=O)[O-])c5F)c5nc(c(-c6cccc(S(=O)(=O)[O-])c6F)c6ccc3[nH]6)C=C5)C=C4)cc2)CC[C@H](OCC)C1
REMARK SMILES IDX 9 1 8 2 7 3 5 4 6 5 4 7 77 8 83 9 78 10 79 11 3 12 2 15 1 16
REMARK SMILES IDX 80 17 81 18 82 19 10 20 11 21 12 22 13 24 14 25 15 26 76 27
REMARK SMILES IDX 16 28 75 29 17 30 18 31 19 32 69 33 20 34 74 35 68 36 70 37
REMARK SMILES IDX 21 38 73 39 67 40 66 41 22 43 54 44 34 45 53 46 35 47 38 48
REMARK SMILES IDX 52 49 71 50 36 51 37 52 51 54 72 55 39 56 23 57 24 58 32 59
REMARK SMILES IDX 25 60 27 61 33 62 26 63 28 64 29 65 30 66 31 67 55 68 56 69
REMARK SMILES IDX 64 70 57 71 59 72 65 73 58 74 60 75 61 76 62 77 63 78 40 79
REMARK SMILES IDX 41 80 49 81 42 82 44 83 50 84 43 85 45 86 46 87 47 88 48 89
REMARK H PARENT 7 6 3 13 3 14 11 23 70 42 38 53
REMARK Flexibility Score: inf
ROOT
ATOM      1  C   UNL A   1      31.430  32.122  26.524  1.00  0.00     0.042 C 
ENDROOT
BRANCH   1   2
ATOM      2  C   UNL A   1      31.470  30.624  26.224  1.00  0.00     0.118 C 
BRANCH   2   3
ATOM      3  N   UNL A   1      31.084  30.328  24.859  1.00  0.00    -0.351 N 
ATOM      4  C   UNL A   1      31.270  29.276  24.018  1.00  0.00     0.281 C 
ATOM      5  O   UNL A   1      30.667  29.422  22.947  1.00  0.00    -0.268 OA
ATOM      6  H   UNL A   1      30.566  31.055  24.445  1.00  0.00     0.163 HD
BRANCH   4   7
ATOM      7  C   UNL A   1      32.015  27.943  24.401  1.00  0.00     0.178 C 
ATOM      8  C   UNL A   1      33.434  28.110  24.976  1.00  0.00     0.082 C 
ATOM      9  C   UNL A   1      31.265  27.237  25.551  1.00  0.00     0.111 C 
ATOM     10  C   UNL A   1      33.681  26.868  25.815  1.00  0.00     0.039 C 
ATOM     11  C   UNL A   1      32.319  26.534  26.421  1.00  0.00     0.125 C 
BRANCH   7  12
ATOM     12  N   UNL A   1      32.225  27.024  23.236  1.00  0.00    -0.334 N 
ATOM     13  H   UNL A   1      32.305  27.606  22.402  1.00  0.00     0.347 HD
ATOM     14  H   UNL A   1      33.055  26.487  23.485  1.00  0.00     0.347 HD
BRANCH  12  15
ATOM     15  C   UNL A   1      31.209  26.014  22.964  1.00  0.00     0.257 C 
ATOM     16  C   UNL A   1      31.884  24.664  22.747  1.00  0.00     0.071 C 
ENDBRANCH  12  15
ENDBRANCH   7  12
BRANCH  11  17
ATOM     17  O   UNL A   1      32.171  25.118  26.409  1.00  0.00    -0.378 OA
BRANCH  17  18
ATOM     18  C   UNL A   1      33.355  24.386  26.113  1.00  0.00     0.157 C 
ATOM     19  C   UNL A   1      33.402  23.066  26.865  1.00  0.00     0.035 C 
ENDBRANCH  17  18
ENDBRANCH  11  17
ENDBRANCH   4   7
ENDBRANCH   2   3
ENDBRANCH   1   2
BRANCH   1  20
ATOM     20  C   UNL A   1      32.720  32.671  27.117  1.00  0.00     0.118 C 
BRANCH  20  21
ATOM     21  N   UNL A   1      32.561  34.020  27.640  1.00  0.00    -0.352 N 
ATOM     22  C   UNL A   1      33.171  34.628  28.710  1.00  0.00     0.251 C 
ATOM     23  H   UNL A   1      31.918  34.583  27.152  1.00  0.00     0.163 HD
ATOM     24  O   UNL A   1      32.731  35.698  29.122  1.00  0.00    -0.269 OA
BRANCH  22  25
ATOM     25  C   UNL A   1      34.338  34.002  29.374  1.00  0.00     0.039 A 
ATOM     26  C   UNL A   1      35.623  34.431  29.029  1.00  0.00     0.014 A 
ATOM     27  C   UNL A   1      34.176  32.969  30.301  1.00  0.00     0.014 A 
ATOM     28  C   UNL A   1      36.739  33.862  29.652  1.00  0.00     0.010 A 
ATOM     29  C   UNL A   1      35.280  32.467  30.985  1.00  0.00     0.010 A 
ATOM     30  C   UNL A   1      36.574  32.893  30.654  1.00  0.00    -0.014 A 
BRANCH  30  31
ATOM     31  C   UNL A   1      37.740  32.303  31.361  1.00  0.00     0.031 A 
ATOM     32  C   UNL A   1      38.511  31.169  30.738  1.00  0.00     0.074 A 
ATOM     33  C   UNL A   1      38.054  32.728  32.601  1.00  0.00     0.049 A 
ATOM     34  N   UNL A   1      39.521  30.493  31.221  1.00  0.00    -0.248 NA
ATOM     35  C   UNL A   1      38.067  30.711  29.412  1.00  0.00     0.031 C 
ATOM     36  C   UNL A   1      37.337  33.764  33.346  1.00  0.00     0.029 A 
ATOM     37  N   UNL A   1      39.043  32.324  33.462  1.00  0.00    -0.354 N 
ATOM     38  C   UNL A   1      39.805  29.510  30.281  1.00  0.00     0.074 A 
ATOM     39  C   UNL A   1      38.836  29.651  29.218  1.00  0.00     0.031 C 
ATOM     40  C   UNL A   1      37.916  33.923  34.547  1.00  0.00     0.029 A 
ATOM     41  C   UNL A   1      39.025  32.983  34.670  1.00  0.00     0.049 A 
ATOM     42  H   UNL A   1      39.702  31.628  33.238  1.00  0.00     0.167 HD
ATOM     43  C   UNL A   1      40.802  28.591  30.285  1.00  0.00     0.034 A 
ATOM     44  C   UNL A   1      39.815  32.847  35.753  1.00  0.00     0.034 A 
ATOM     45  C   UNL A   1      41.794  28.488  31.320  1.00  0.00     0.049 A 
ATOM     46  C   UNL A   1      40.944  31.853  35.715  1.00  0.00     0.074 A 
ATOM     47  C   UNL A   1      42.903  27.662  31.370  1.00  0.00     0.029 A 
ATOM     48  N   UNL A   1      41.794  29.229  32.492  1.00  0.00    -0.354 N 
ATOM     49  N   UNL A   1      41.299  31.044  34.746  1.00  0.00    -0.248 NA
ATOM     50  C   UNL A   1      41.802  31.776  36.906  1.00  0.00     0.031 C 
ATOM     51  C   UNL A   1      43.563  27.891  32.584  1.00  0.00     0.029 A 
ATOM     52  C   UNL A   1      42.876  28.874  33.279  1.00  0.00     0.049 A 
ATOM     53  H   UNL A   1      41.122  29.908  32.730  1.00  0.00     0.167 HD
ATOM     54  C   UNL A   1      42.441  30.390  35.194  1.00  0.00     0.074 A 
ATOM     55  C   UNL A   1      42.728  30.909  36.515  1.00  0.00     0.031 C 
ATOM     56  C   UNL A   1      43.177  29.435  34.572  1.00  0.00     0.034 A 
BRANCH  43  57
ATOM     57  C   UNL A   1      40.895  27.663  29.100  1.00  0.00     0.023 A 
ATOM     58  C   UNL A   1      40.096  26.501  29.062  1.00  0.00     0.012 A 
ATOM     59  C   UNL A   1      41.745  27.949  28.014  1.00  0.00     0.148 A 
ATOM     60  C   UNL A   1      40.177  25.616  27.988  1.00  0.00     0.002 A 
ATOM     61  C   UNL A   1      41.785  27.087  26.925  1.00  0.00     0.091 A 
ATOM     62  F   UNL A   1      42.515  29.046  28.073  1.00  0.00    -0.205 F 
ATOM     63  C   UNL A   1      41.013  25.913  26.916  1.00  0.00     0.022 A 
BRANCH  61  64
ATOM     64  S   UNL A   1      42.773  27.426  25.463  1.00  0.00     0.127 S 
ATOM     65  O   UNL A   1      42.544  26.223  24.665  1.00  0.00    -0.237 OA
ATOM     66  O   UNL A   1      42.141  28.636  24.935  1.00  0.00    -0.237 OA
ATOM     67  O   UNL A   1      44.134  27.617  25.942  1.00  0.00    -0.744 OA
ENDBRANCH  61  64
ENDBRANCH  43  57
BRANCH  44  68
ATOM     68  C   UNL A   1      39.617  33.743  36.927  1.00  0.00     0.023 A 
ATOM     69  C   UNL A   1      39.995  35.096  36.825  1.00  0.00     0.012 A 
ATOM     70  C   UNL A   1      39.010  33.286  38.113  1.00  0.00     0.148 A 
ATOM     71  C   UNL A   1      39.792  35.974  37.890  1.00  0.00     0.002 A 
ATOM     72  C   UNL A   1      38.762  34.178  39.149  1.00  0.00     0.091 A 
ATOM     73  F   UNL A   1      38.664  31.994  38.190  1.00  0.00    -0.205 F 
ATOM     74  C   UNL A   1      39.166  35.518  39.047  1.00  0.00     0.022 A 
BRANCH  72  75
ATOM     75  S   UNL A   1      37.845  33.717  40.625  1.00  0.00     0.127 S 
ATOM     76  O   UNL A   1      36.632  33.140  40.055  1.00  0.00    -0.237 OA
ATOM     77  O   UNL A   1      38.752  32.755  41.252  1.00  0.00    -0.237 OA
ATOM     78  O   UNL A   1      37.664  34.952  41.378  1.00  0.00    -0.744 OA
ENDBRANCH  72  75
ENDBRANCH  44  68
BRANCH  56  79
ATOM     79  C   UNL A   1      44.385  28.902  35.297  1.00  0.00     0.023 A 
ATOM     80  C   UNL A   1      45.641  29.511  35.104  1.00  0.00     0.012 A 
ATOM     81  C   UNL A   1      44.261  27.852  36.228  1.00  0.00     0.148 A 
ATOM     82  C   UNL A   1      46.761  29.062  35.804  1.00  0.00     0.002 A 
ATOM     83  C   UNL A   1      45.371  27.442  36.957  1.00  0.00     0.091 A 
ATOM     84  F   UNL A   1      43.062  27.273  36.384  1.00  0.00    -0.205 F 
ATOM     85  C   UNL A   1      46.624  28.037  36.737  1.00  0.00     0.022 A 
BRANCH  83  86
ATOM     86  S   UNL A   1      45.267  26.197  38.247  1.00  0.00     0.127 S 
ATOM     87  O   UNL A   1      44.260  26.771  39.137  1.00  0.00    -0.237 OA
ATOM     88  O   UNL A   1      44.824  25.016  37.505  1.00  0.00    -0.237 OA
ATOM     89  O   UNL A   1      46.608  26.087  38.806  1.00  0.00    -0.744 OA
ENDBRANCH  83  86
ENDBRANCH  56  79
ENDBRANCH  30  31
ENDBRANCH  22  25
ENDBRANCH  20  21
ENDBRANCH   1  20
TORSDOF 17
ENDMDL
MODEL 3
REMARK VINA RESULT:     -10.2      3.415      6.235
REMARK SMILES CC[NH2+][C@]1(C(=O)NCCCNC(=O)c2ccc(-c3c4nc(c(-c5cccc(S(=O)(=O)[O-])c5F)c5ccc([nH]5)c(-c5cccc(S(=O)(=O)[O-])c5F)c5nc(c(-c6cccc(S(=O)(=O)[O-])c6F)c6ccc3[nH]6)C=C5)C=C4)cc2)CC[C@H](OCC)C1
REMARK SMILES IDX 9 1 8 2 7 3 5 4 6 5 4 7 77 8 83 9 78 10 79 11 3 12 2 15 1 16
REMARK SMILES IDX 80 17 81 18 82 19 10 20 11 21 12 22 13 24 14 25 15 26 76 27
REMARK SMILES IDX 16 28 75 29 17 30 18 31 19 32 69 33 20 34 74 35 68 36 70 37
REMARK SMILES IDX 21 38 73 39 67 40 66 41 22 43 54 44 34 45 53 46 35 47 38 48
REMARK SMILES IDX 52 49 71 50 36 51 37 52 51 54 72 55 39 56 23 57 24 58 32 59
REMARK SMILES IDX 25 60 27 61 33 62 26 63 28 64 29 65 30 66 31 67 55 68 56 69
REMARK SMILES IDX 64 70 57 71 59 72 65 73 58 74 60 75 61 76 62 77 63 78 40 79
REMARK SMILES IDX 41 80 49 81 42 82 44 83 50 84 43 85 45 86 46 87 47 88 48 89
REMARK H PARENT 7 6 3 13 3 14 11 23 70 42 38 53
REMARK Flexibility Score: inf
ROOT
ATOM      1  C   UNL A   1      34.129  34.001  29.150  1.00  0.00     0.042 C 
ENDROOT
BRANCH   1   2
ATOM      2  C   UNL A   1      34.440  33.510  30.564  1.00  0.00     0.118 C 
BRANCH   2   3
ATOM      3  N   UNL A   1      34.605  34.602  31.500  1.00  0.00    -0.351 N 
ATOM      4  C   UNL A   1      35.469  34.873  32.514  1.00  0.00     0.281 C 
ATOM      5  O   UNL A   1      35.289  36.000  32.994  1.00  0.00    -0.268 OA
ATOM      6  H   UNL A   1      33.938  35.315  31.373  1.00  0.00     0.163 HD
BRANCH   4   7
ATOM      7  C   UNL A   1      36.677  33.953  32.932  1.00  0.00     0.178 C 
ATOM      8  C   UNL A   1      37.878  34.673  33.573  1.00  0.00     0.082 C 
ATOM      9  C   UNL A   1      36.231  32.981  34.047  1.00  0.00     0.111 C 
ATOM     10  C   UNL A   1      38.573  33.625  34.424  1.00  0.00     0.039 C 
ATOM     11  C   UNL A   1      37.442  32.754  34.965  1.00  0.00     0.125 C 
BRANCH   7  12
ATOM     12  N   UNL A   1      37.293  33.221  31.780  1.00  0.00    -0.334 N 
ATOM     13  H   UNL A   1      37.782  32.411  32.162  1.00  0.00     0.347 HD
ATOM     14  H   UNL A   1      36.509  33.016  31.162  1.00  0.00     0.347 HD
BRANCH  12  15
ATOM     15  C   UNL A   1      38.241  33.939  30.935  1.00  0.00     0.257 C 
ATOM     16  C   UNL A   1      38.102  33.455  29.496  1.00  0.00     0.071 C 
ENDBRANCH  12  15
ENDBRANCH   7  12
BRANCH  11  17
ATOM     17  O   UNL A   1      37.886  31.401  34.948  1.00  0.00    -0.378 OA
BRANCH  17  18
ATOM     18  C   UNL A   1      38.141  30.829  36.226  1.00  0.00     0.157 C 
ATOM     19  C   UNL A   1      37.780  31.783  37.352  1.00  0.00     0.035 C 
ENDBRANCH  17  18
ENDBRANCH  11  17
ENDBRANCH   4   7
ENDBRANCH   2   3
ENDBRANCH   1   2
BRANCH   1  20
ATOM     20  C   UNL A   1      34.793  33.186  28.049  1.00  0.00     0.118 C 
BRANCH  20  21
ATOM     21  N   UNL A   1      33.995  32.036  27.651  1.00  0.00    -0.352 N 
ATOM     22  C   UNL A   1      34.348  30.714  27.541  1.00  0.00     0.251 C 
ATOM     23  H   UNL A   1      33.058  32.238  27.426  1.00  0.00     0.163 HD
ATOM     24  O   UNL A   1      33.587  29.936  26.972  1.00  0.00    -0.269 OA
BRANCH  22  25
ATOM     25  C   UNL A   1      35.635  30.225  28.088  1.00  0.00     0.039 A 
ATOM     26  C   UNL A   1      35.678  29.765  29.408  1.00  0.00     0.014 A 
ATOM     27  C   UNL A   1      36.805  30.254  27.325  1.00  0.00     0.014 A 
ATOM     28  C   UNL A   1      36.880  29.289  29.941  1.00  0.00     0.010 A 
ATOM     29  C   UNL A   1      37.978  29.697  27.825  1.00  0.00     0.010 A 
ATOM     30  C   UNL A   1      38.034  29.226  29.144  1.00  0.00    -0.014 A 
BRANCH  30  31
ATOM     31  C   UNL A   1      39.313  28.685  29.673  1.00  0.00     0.031 A 
ATOM     32  C   UNL A   1      39.966  29.316  30.874  1.00  0.00     0.074 A 
ATOM     33  C   UNL A   1      39.933  27.680  29.022  1.00  0.00     0.049 A 
ATOM     34  N   UNL A   1      41.102  29.019  31.449  1.00  0.00    -0.248 NA
ATOM     35  C   UNL A   1      39.265  30.454  31.492  1.00  0.00     0.031 C 
ATOM     36  C   UNL A   1      39.444  27.036  27.801  1.00  0.00     0.029 A 
ATOM     37  N   UNL A   1      41.120  27.042  29.282  1.00  0.00    -0.354 N 
ATOM     38  C   UNL A   1      41.272  29.953  32.464  1.00  0.00     0.074 A 
ATOM     39  C   UNL A   1      40.141  30.852  32.402  1.00  0.00     0.031 C 
ATOM     40  C   UNL A   1      40.316  26.087  27.425  1.00  0.00     0.029 A 
ATOM     41  C   UNL A   1      41.438  26.074  28.359  1.00  0.00     0.049 A 
ATOM     42  H   UNL A   1      41.689  27.257  30.055  1.00  0.00     0.167 HD
ATOM     43  C   UNL A   1      42.261  30.038  33.386  1.00  0.00     0.034 A 
ATOM     44  C   UNL A   1      42.512  25.264  28.275  1.00  0.00     0.034 A 
ATOM     45  C   UNL A   1      43.357  29.111  33.476  1.00  0.00     0.049 A 
ATOM     46  C   UNL A   1      43.575  25.345  29.336  1.00  0.00     0.074 A 
ATOM     47  C   UNL A   1      44.354  29.047  34.432  1.00  0.00     0.029 A 
ATOM     48  N   UNL A   1      43.604  28.090  32.571  1.00  0.00    -0.354 N 
ATOM     49  N   UNL A   1      43.633  26.128  30.387  1.00  0.00    -0.248 NA
ATOM     50  C   UNL A   1      44.702  24.409  29.221  1.00  0.00     0.031 C 
ATOM     51  C   UNL A   1      45.217  27.998  34.093  1.00  0.00     0.029 A 
ATOM     52  C   UNL A   1      44.743  27.395  32.938  1.00  0.00     0.049 A 
ATOM     53  H   UNL A   1      43.049  27.888  31.783  1.00  0.00     0.167 HD
ATOM     54  C   UNL A   1      44.781  25.756  31.077  1.00  0.00     0.074 A 
ATOM     55  C   UNL A   1      45.379  24.666  30.334  1.00  0.00     0.031 C 
ATOM     56  C   UNL A   1      45.300  26.280  32.215  1.00  0.00     0.034 A 
BRANCH  43  57
ATOM     57  C   UNL A   1      42.166  31.145  34.406  1.00  0.00     0.023 A 
ATOM     58  C   UNL A   1      41.634  30.870  35.683  1.00  0.00     0.012 A 
ATOM     59  C   UNL A   1      42.627  32.444  34.117  1.00  0.00     0.148 A 
ATOM     60  C   UNL A   1      41.517  31.879  36.638  1.00  0.00     0.002 A 
ATOM     61  C   UNL A   1      42.552  33.434  35.091  1.00  0.00     0.091 A 
ATOM     62  F   UNL A   1      43.111  32.696  32.892  1.00  0.00    -0.205 F 
ATOM     63  C   UNL A   1      41.984  33.158  36.345  1.00  0.00     0.022 A 
BRANCH  61  64
ATOM     64  S   UNL A   1      43.199  35.090  34.833  1.00  0.00     0.127 S 
ATOM     65  O   UNL A   1      42.731  35.781  36.033  1.00  0.00    -0.237 OA
ATOM     66  O   UNL A   1      44.643  34.856  34.791  1.00  0.00    -0.237 OA
ATOM     67  O   UNL A   1      42.626  35.547  33.576  1.00  0.00    -0.744 OA
ENDBRANCH  61  64
ENDBRANCH  43  57
BRANCH  44  68
ATOM     68  C   UNL A   1      42.582  24.243  27.191  1.00  0.00     0.023 A 
ATOM     69  C   UNL A   1      43.275  24.552  26.005  1.00  0.00     0.012 A 
ATOM     70  C   UNL A   1      42.024  22.959  27.347  1.00  0.00     0.148 A 
ATOM     71  C   UNL A   1      43.393  23.609  24.983  1.00  0.00     0.002 A 
ATOM     72  C   UNL A   1      42.190  22.008  26.347  1.00  0.00     0.091 A 
ATOM     73  F   UNL A   1      41.364  22.689  28.482  1.00  0.00    -0.205 F 
ATOM     74  C   UNL A   1      42.860  22.335  25.159  1.00  0.00     0.022 A 
BRANCH  72  75
ATOM     75  S   UNL A   1      41.655  20.303  26.535  1.00  0.00     0.127 S 
ATOM     76  O   UNL A   1      40.204  20.434  26.459  1.00  0.00    -0.237 OA
ATOM     77  O   UNL A   1      42.281  19.664  25.376  1.00  0.00    -0.237 OA
ATOM     78  O   UNL A   1      42.183  19.863  27.821  1.00  0.00    -0.744 OA
ENDBRANCH  72  75
ENDBRANCH  44  68
BRANCH  56  79
ATOM     79  C   UNL A   1      46.567  25.666  32.752  1.00  0.00     0.023 A 
ATOM     80  C   UNL A   1      47.817  26.157  32.326  1.00  0.00     0.012 A 
ATOM     81  C   UNL A   1      46.519  24.658  33.735  1.00  0.00     0.148 A 
ATOM     82  C   UNL A   1      49.000  25.634  32.848  1.00  0.00     0.002 A 
ATOM     83  C   UNL A   1      47.700  24.175  34.285  1.00  0.00     0.091 A 
ATOM     84  F   UNL A   1      45.320  24.189  34.113  1.00  0.00    -0.205 F 
ATOM     85  C   UNL A   1      48.941  24.652  33.835  1.00  0.00     0.022 A 
BRANCH  83  86
ATOM     86  S   UNL A   1      47.716  22.981  35.628  1.00  0.00     0.127 S 
ATOM     87  O   UNL A   1      46.566  22.143  35.297  1.00  0.00    -0.237 OA
ATOM     88  O   UNL A   1      49.015  22.331  35.451  1.00  0.00    -0.237 OA
ATOM     89  O   UNL A   1      47.594  23.757  36.855  1.00  0.00    -0.744 OA
ENDBRANCH  83  86
ENDBRANCH  56  79
ENDBRANCH  30  31
ENDBRANCH  22  25
ENDBRANCH  20  21
ENDBRANCH   1  20
TORSDOF 17
ENDMDL
