MODEL 1
REMARK VINA RESULT:     -11.5      0.000      0.000
REMARK SMILES C[C@](O)(C(=O)NCCCNC(=O)c1ccc(-c2c3nc(c(-c4cccc(S(=O)(=O)[O-])c4F)c4ccc([nH]4)c(-c4cccc(S(=O)(=O)[O-])c4F)c4nc(c(-c5cccc(S(=O)(=O)[O-])c5F)c5ccc2[nH]5)C=C4)C=C3)cc1)c1ccc(O)cc1
REMARK SMILES IDX 8 1 7 2 6 3 4 4 5 5 2 7 1 8 76 9 77 10 82 11 78 12 81 13
REMARK SMILES IDX 79 14 80 15 3 17 9 19 10 20 11 21 12 23 13 24 14 25 75 26
REMARK SMILES IDX 15 27 74 28 16 29 17 30 18 31 68 32 19 33 73 34 67 35 69 36
REMARK SMILES IDX 20 37 72 38 66 39 65 40 21 42 53 43 33 44 52 45 34 46 37 47
REMARK SMILES IDX 51 48 70 49 35 50 36 51 50 53 71 54 38 55 22 56 23 57 31 58
REMARK SMILES IDX 24 59 26 60 32 61 25 62 27 63 28 64 29 65 30 66 54 67 55 68
REMARK SMILES IDX 63 69 56 70 58 71 64 72 57 73 59 74 60 75 61 76 62 77 39 78
REMARK SMILES IDX 40 79 48 80 41 81 43 82 49 83 42 84 44 85 45 86 46 87 47 88
REMARK H PARENT 6 6 80 16 3 18 10 22 69 41 37 52
REMARK Flexibility Score: inf
ROOT
ATOM      1  C   UNL A   1      31.782  29.191  25.856  1.00  0.00     0.042 C 
ENDROOT
BRANCH   1   2
ATOM      2  C   UNL A   1      31.372  29.374  24.400  1.00  0.00     0.117 C 
BRANCH   2   3
ATOM      3  N   UNL A   1      32.512  29.313  23.503  1.00  0.00    -0.353 N 
ATOM      4  C   UNL A   1      32.957  28.304  22.695  1.00  0.00     0.256 C 
ATOM      5  O   UNL A   1      34.072  28.485  22.196  1.00  0.00    -0.271 OA
ATOM      6  H   UNL A   1      33.053  30.136  23.470  1.00  0.00     0.163 HD
BRANCH   4   7
ATOM      7  C   UNL A   1      32.081  27.024  22.447  1.00  0.00     0.165 C 
ATOM      8  C   UNL A   1      32.782  26.085  21.452  1.00  0.00     0.058 C 
BRANCH   7   9
ATOM      9  C   UNL A   1      31.758  26.197  23.706  1.00  0.00    -0.007 A 
ATOM     10  C   UNL A   1      32.810  25.654  24.476  1.00  0.00     0.011 A 
ATOM     11  C   UNL A   1      30.451  26.046  24.201  1.00  0.00     0.011 A 
ATOM     12  C   UNL A   1      32.560  24.958  25.660  1.00  0.00     0.046 A 
ATOM     13  C   UNL A   1      30.196  25.332  25.377  1.00  0.00     0.046 A 
ATOM     14  C   UNL A   1      31.255  24.792  26.095  1.00  0.00     0.115 A 
BRANCH  14  15
ATOM     15  O   UNL A   1      31.048  24.098  27.250  1.00  0.00    -0.508 OA
ATOM     16  H   UNL A   1      31.689  24.123  27.933  1.00  0.00     0.293 HD
ENDBRANCH  14  15
ENDBRANCH   7   9
BRANCH   7  17
ATOM     17  O   UNL A   1      30.841  27.466  21.873  1.00  0.00    -0.376 OA
ATOM     18  H   UNL A   1      30.116  27.286  22.492  1.00  0.00     0.212 HD
ENDBRANCH   7  17
ENDBRANCH   4   7
ENDBRANCH   2   3
ENDBRANCH   1   2
BRANCH   1  19
ATOM     19  C   UNL A   1      33.116  29.829  26.224  1.00  0.00     0.118 C 
BRANCH  19  20
ATOM     20  N   UNL A   1      32.996  31.235  26.582  1.00  0.00    -0.352 N 
ATOM     21  C   UNL A   1      33.724  31.986  27.468  1.00  0.00     0.251 C 
ATOM     22  H   UNL A   1      32.281  31.722  26.113  1.00  0.00     0.163 HD
ATOM     23  O   UNL A   1      33.340  33.125  27.741  1.00  0.00    -0.269 OA
BRANCH  21  24
ATOM     24  C   UNL A   1      34.945  31.446  28.104  1.00  0.00     0.039 A 
ATOM     25  C   UNL A   1      36.090  32.247  28.149  1.00  0.00     0.014 A 
ATOM     26  C   UNL A   1      34.985  30.149  28.623  1.00  0.00     0.014 A 
ATOM     27  C   UNL A   1      37.255  31.762  28.748  1.00  0.00     0.010 A 
ATOM     28  C   UNL A   1      36.116  29.703  29.302  1.00  0.00     0.010 A 
ATOM     29  C   UNL A   1      37.273  30.494  29.351  1.00  0.00    -0.014 A 
BRANCH  29  30
ATOM     30  C   UNL A   1      38.499  29.977  30.012  1.00  0.00     0.031 A 
ATOM     31  C   UNL A   1      38.886  30.462  31.385  1.00  0.00     0.074 A 
ATOM     32  C   UNL A   1      39.296  29.111  29.356  1.00  0.00     0.049 A 
ATOM     33  N   UNL A   1      39.914  30.123  32.120  1.00  0.00    -0.248 NA
ATOM     34  C   UNL A   1      38.024  31.483  32.004  1.00  0.00     0.031 C 
ATOM     35  C   UNL A   1      39.083  28.633  27.987  1.00  0.00     0.029 A 
ATOM     36  N   UNL A   1      40.457  28.491  29.745  1.00  0.00    -0.354 N 
ATOM     37  C   UNL A   1      39.842  30.908  33.265  1.00  0.00     0.074 A 
ATOM     38  C   UNL A   1      38.694  31.773  33.110  1.00  0.00     0.031 C 
ATOM     39  C   UNL A   1      40.069  27.784  27.659  1.00  0.00     0.029 A 
ATOM     40  C   UNL A   1      40.996  27.672  28.781  1.00  0.00     0.049 A 
ATOM     41  H   UNL A   1      40.866  28.621  30.632  1.00  0.00     0.167 HD
ATOM     42  C   UNL A   1      40.635  30.890  34.363  1.00  0.00     0.034 A 
ATOM     43  C   UNL A   1      42.109  26.912  28.801  1.00  0.00     0.034 A 
ATOM     44  C   UNL A   1      41.747  29.996  34.535  1.00  0.00     0.049 A 
ATOM     45  C   UNL A   1      42.932  26.856  30.059  1.00  0.00     0.074 A 
ATOM     46  C   UNL A   1      42.563  29.839  35.642  1.00  0.00     0.029 A 
ATOM     47  N   UNL A   1      42.204  29.107  33.574  1.00  0.00    -0.354 N 
ATOM     48  N   UNL A   1      42.752  27.487  31.193  1.00  0.00    -0.248 NA
ATOM     49  C   UNL A   1      44.084  25.944  30.056  1.00  0.00     0.031 C 
ATOM     50  C   UNL A   1      43.525  28.867  35.342  1.00  0.00     0.029 A 
ATOM     51  C   UNL A   1      43.288  28.398  34.060  1.00  0.00     0.049 A 
ATOM     52  H   UNL A   1      41.813  28.996  32.677  1.00  0.00     0.167 HD
ATOM     53  C   UNL A   1      43.740  27.018  32.052  1.00  0.00     0.074 A 
ATOM     54  C   UNL A   1      44.501  26.034  31.311  1.00  0.00     0.031 C 
ATOM     55  C   UNL A   1      44.002  27.380  33.332  1.00  0.00     0.034 A 
BRANCH  42  56
ATOM     56  C   UNL A   1      40.289  31.829  35.491  1.00  0.00     0.023 A 
ATOM     57  C   UNL A   1      41.052  33.000  35.680  1.00  0.00     0.012 A 
ATOM     58  C   UNL A   1      39.185  31.583  36.330  1.00  0.00     0.148 A 
ATOM     59  C   UNL A   1      40.747  33.890  36.708  1.00  0.00     0.002 A 
ATOM     60  C   UNL A   1      38.858  32.501  37.323  1.00  0.00     0.091 A 
ATOM     61  F   UNL A   1      38.483  30.456  36.151  1.00  0.00    -0.205 F 
ATOM     62  C   UNL A   1      39.645  33.646  37.522  1.00  0.00     0.022 A 
BRANCH  60  63
ATOM     63  S   UNL A   1      37.408  32.320  38.370  1.00  0.00     0.127 S 
ATOM     64  O   UNL A   1      36.405  33.072  37.616  1.00  0.00    -0.237 OA
ATOM     65  O   UNL A   1      37.209  30.870  38.370  1.00  0.00    -0.237 OA
ATOM     66  O   UNL A   1      37.773  32.883  39.661  1.00  0.00    -0.744 OA
ENDBRANCH  60  63
ENDBRANCH  42  56
BRANCH  43  67
ATOM     67  C   UNL A   1      42.457  26.071  27.620  1.00  0.00     0.023 A 
ATOM     68  C   UNL A   1      43.251  26.615  26.591  1.00  0.00     0.012 A 
ATOM     69  C   UNL A   1      42.025  24.734  27.520  1.00  0.00     0.148 A 
ATOM     70  C   UNL A   1      43.578  25.857  25.467  1.00  0.00     0.002 A 
ATOM     71  C   UNL A   1      42.402  23.967  26.423  1.00  0.00     0.091 A 
ATOM     72  F   UNL A   1      41.263  24.237  28.503  1.00  0.00    -0.205 F 
ATOM     73  C   UNL A   1      43.162  24.531  25.387  1.00  0.00     0.022 A 
BRANCH  71  74
ATOM     74  S   UNL A   1      42.023  22.215  26.301  1.00  0.00     0.127 S 
ATOM     75  O   UNL A   1      42.529  21.710  27.576  1.00  0.00    -0.237 OA
ATOM     76  O   UNL A   1      40.563  22.231  26.182  1.00  0.00    -0.237 OA
ATOM     77  O   UNL A   1      42.716  21.745  25.113  1.00  0.00    -0.744 OA
ENDBRANCH  71  74
ENDBRANCH  43  67
BRANCH  55  78
ATOM     78  C   UNL A   1      45.129  26.671  34.037  1.00  0.00     0.023 A 
ATOM     79  C   UNL A   1      46.445  27.167  33.944  1.00  0.00     0.012 A 
ATOM     80  C   UNL A   1      44.875  25.538  34.836  1.00  0.00     0.148 A 
ATOM     81  C   UNL A   1      47.495  26.520  34.593  1.00  0.00     0.002 A 
ATOM     82  C   UNL A   1      45.918  24.930  35.523  1.00  0.00     0.091 A 
ATOM     83  F   UNL A   1      43.621  25.066  34.899  1.00  0.00    -0.205 F 
ATOM     84  C   UNL A   1      47.231  25.409  35.391  1.00  0.00     0.022 A 
BRANCH  82  85
ATOM     85  S   UNL A   1      45.647  23.557  36.649  1.00  0.00     0.127 S 
ATOM     86  O   UNL A   1      44.916  22.616  35.802  1.00  0.00    -0.237 OA
ATOM     87  O   UNL A   1      47.013  23.147  36.980  1.00  0.00    -0.237 OA
ATOM     88  O   UNL A   1      44.898  24.107  37.771  1.00  0.00    -0.744 OA
ENDBRANCH  82  85
ENDBRANCH  55  78
ENDBRANCH  29  30
ENDBRANCH  21  24
ENDBRANCH  19  20
ENDBRANCH   1  19
TORSDOF 16
ENDMDL
MODEL 2
REMARK VINA RESULT:     -11.5      2.264      3.085
REMARK SMILES C[C@](O)(C(=O)NCCCNC(=O)c1ccc(-c2c3nc(c(-c4cccc(S(=O)(=O)[O-])c4F)c4ccc([nH]4)c(-c4cccc(S(=O)(=O)[O-])c4F)c4nc(c(-c5cccc(S(=O)(=O)[O-])c5F)c5ccc2[nH]5)C=C4)C=C3)cc1)c1ccc(O)cc1
REMARK SMILES IDX 8 1 7 2 6 3 4 4 5 5 2 7 1 8 76 9 77 10 82 11 78 12 81 13
REMARK SMILES IDX 79 14 80 15 3 17 9 19 10 20 11 21 12 23 13 24 14 25 75 26
REMARK SMILES IDX 15 27 74 28 16 29 17 30 18 31 68 32 19 33 73 34 67 35 69 36
REMARK SMILES IDX 20 37 72 38 66 39 65 40 21 42 53 43 33 44 52 45 34 46 37 47
REMARK SMILES IDX 51 48 70 49 35 50 36 51 50 53 71 54 38 55 22 56 23 57 31 58
REMARK SMILES IDX 24 59 26 60 32 61 25 62 27 63 28 64 29 65 30 66 54 67 55 68
REMARK SMILES IDX 63 69 56 70 58 71 64 72 57 73 59 74 60 75 61 76 62 77 39 78
REMARK SMILES IDX 40 79 48 80 41 81 43 82 49 83 42 84 44 85 45 86 46 87 47 88
REMARK H PARENT 6 6 80 16 3 18 10 22 69 41 37 52
REMARK Flexibility Score: inf
ROOT
ATOM      1  C   UNL A   1      33.875  28.040  25.109  1.00  0.00     0.042 C 
ENDROOT
BRANCH   1   2
ATOM      2  C   UNL A   1      32.767  27.144  24.570  1.00  0.00     0.117 C 
BRANCH   2   3
ATOM      3  N   UNL A   1      32.937  26.857  23.158  1.00  0.00    -0.353 N 
ATOM      4  C   UNL A   1      33.288  25.700  22.519  1.00  0.00     0.256 C 
ATOM      5  O   UNL A   1      33.542  25.820  21.317  1.00  0.00    -0.271 OA
ATOM      6  H   UNL A   1      32.772  27.623  22.560  1.00  0.00     0.163 HD
BRANCH   4   7
ATOM      7  C   UNL A   1      33.349  24.337  23.297  1.00  0.00     0.165 C 
ATOM      8  C   UNL A   1      32.897  23.184  22.387  1.00  0.00     0.058 C 
BRANCH   7   9
ATOM      9  C   UNL A   1      34.735  23.962  23.855  1.00  0.00    -0.007 A 
ATOM     10  C   UNL A   1      35.115  24.405  25.141  1.00  0.00     0.011 A 
ATOM     11  C   UNL A   1      35.613  23.092  23.187  1.00  0.00     0.011 A 
ATOM     12  C   UNL A   1      36.334  24.029  25.709  1.00  0.00     0.046 A 
ATOM     13  C   UNL A   1      36.844  22.730  23.745  1.00  0.00     0.046 A 
ATOM     14  C   UNL A   1      37.194  23.204  25.002  1.00  0.00     0.115 A 
BRANCH  14  15
ATOM     15  O   UNL A   1      38.379  22.865  25.583  1.00  0.00    -0.508 OA
ATOM     16  H   UNL A   1      38.722  23.383  26.285  1.00  0.00     0.293 HD
ENDBRANCH  14  15
ENDBRANCH   7   9
BRANCH   7  17
ATOM     17  O   UNL A   1      32.437  24.440  24.402  1.00  0.00    -0.376 OA
ATOM     18  H   UNL A   1      31.782  23.726  24.348  1.00  0.00     0.212 HD
ENDBRANCH   7  17
ENDBRANCH   4   7
ENDBRANCH   2   3
ENDBRANCH   1   2
BRANCH   1  19
ATOM     19  C   UNL A   1      33.818  28.284  26.611  1.00  0.00     0.118 C 
BRANCH  19  20
ATOM     20  N   UNL A   1      33.645  29.689  26.954  1.00  0.00    -0.352 N 
ATOM     21  C   UNL A   1      34.442  30.523  27.696  1.00  0.00     0.251 C 
ATOM     22  H   UNL A   1      32.827  30.105  26.597  1.00  0.00     0.163 HD
ATOM     23  O   UNL A   1      34.016  31.637  28.003  1.00  0.00    -0.269 OA
BRANCH  21  24
ATOM     24  C   UNL A   1      35.787  30.098  28.138  1.00  0.00     0.039 A 
ATOM     25  C   UNL A   1      35.937  29.571  29.425  1.00  0.00     0.014 A 
ATOM     26  C   UNL A   1      36.907  30.247  27.316  1.00  0.00     0.014 A 
ATOM     27  C   UNL A   1      37.196  29.158  29.866  1.00  0.00     0.010 A 
ATOM     28  C   UNL A   1      38.143  29.750  27.722  1.00  0.00     0.010 A 
ATOM     29  C   UNL A   1      38.308  29.223  29.011  1.00  0.00    -0.014 A 
BRANCH  29  30
ATOM     30  C   UNL A   1      39.648  28.765  29.461  1.00  0.00     0.031 A 
ATOM     31  C   UNL A   1      40.361  29.480  30.580  1.00  0.00     0.074 A 
ATOM     32  C   UNL A   1      40.249  27.738  28.828  1.00  0.00     0.049 A 
ATOM     33  N   UNL A   1      41.529  29.223  31.109  1.00  0.00    -0.248 NA
ATOM     34  C   UNL A   1      39.690  30.655  31.160  1.00  0.00     0.031 C 
ATOM     35  C   UNL A   1      39.706  27.020  27.673  1.00  0.00     0.029 A 
ATOM     36  N   UNL A   1      41.458  27.131  29.057  1.00  0.00    -0.354 N 
ATOM     37  C   UNL A   1      41.747  30.218  32.056  1.00  0.00     0.074 A 
ATOM     38  C   UNL A   1      40.611  31.110  31.998  1.00  0.00     0.031 C 
ATOM     39  C   UNL A   1      40.569  26.061  27.305  1.00  0.00     0.029 A 
ATOM     40  C   UNL A   1      41.736  26.107  28.181  1.00  0.00     0.049 A 
ATOM     41  H   UNL A   1      42.070  27.402  29.779  1.00  0.00     0.167 HD
ATOM     42  C   UNL A   1      42.780  30.360  32.921  1.00  0.00     0.034 A 
ATOM     43  C   UNL A   1      42.807  25.294  28.097  1.00  0.00     0.034 A 
ATOM     44  C   UNL A   1      43.886  29.446  33.009  1.00  0.00     0.049 A 
ATOM     45  C   UNL A   1      43.908  25.429  29.115  1.00  0.00     0.074 A 
ATOM     46  C   UNL A   1      44.940  29.453  33.905  1.00  0.00     0.029 A 
ATOM     47  N   UNL A   1      44.083  28.361  32.170  1.00  0.00    -0.354 N 
ATOM     48  N   UNL A   1      44.016  26.278  30.107  1.00  0.00    -0.248 NA
ATOM     49  C   UNL A   1      45.009  24.461  29.031  1.00  0.00     0.031 C 
ATOM     50  C   UNL A   1      45.785  28.381  33.595  1.00  0.00     0.029 A 
ATOM     51  C   UNL A   1      45.240  27.689  32.526  1.00  0.00     0.049 A 
ATOM     52  H   UNL A   1      43.486  28.104  31.429  1.00  0.00     0.167 HD
ATOM     53  C   UNL A   1      45.172  25.921  30.791  1.00  0.00     0.074 A 
ATOM     54  C   UNL A   1      45.717  24.764  30.111  1.00  0.00     0.031 C 
ATOM     55  C   UNL A   1      45.740  26.505  31.875  1.00  0.00     0.034 A 
BRANCH  42  56
ATOM     56  C   UNL A   1      42.731  31.521  33.883  1.00  0.00     0.023 A 
ATOM     57  C   UNL A   1      43.269  32.767  33.499  1.00  0.00     0.012 A 
ATOM     58  C   UNL A   1      42.112  31.397  35.141  1.00  0.00     0.148 A 
ATOM     59  C   UNL A   1      43.227  33.858  34.365  1.00  0.00     0.002 A 
ATOM     60  C   UNL A   1      42.031  32.503  35.981  1.00  0.00     0.091 A 
ATOM     61  F   UNL A   1      41.624  30.201  35.500  1.00  0.00    -0.205 F 
ATOM     62  C   UNL A   1      42.600  33.729  35.599  1.00  0.00     0.022 A 
BRANCH  60  63
ATOM     63  S   UNL A   1      41.170  32.463  37.558  1.00  0.00     0.127 S 
ATOM     64  O   UNL A   1      42.038  31.585  38.344  1.00  0.00    -0.237 OA
ATOM     65  O   UNL A   1      41.202  33.870  37.960  1.00  0.00    -0.237 OA
ATOM     66  O   UNL A   1      39.842  31.941  37.276  1.00  0.00    -0.744 OA
ENDBRANCH  60  63
ENDBRANCH  42  56
BRANCH  43  67
ATOM     67  C   UNL A   1      42.848  24.219  27.064  1.00  0.00     0.023 A 
ATOM     68  C   UNL A   1      43.586  24.422  25.882  1.00  0.00     0.012 A 
ATOM     69  C   UNL A   1      42.178  22.996  27.255  1.00  0.00     0.148 A 
ATOM     70  C   UNL A   1      43.628  23.442  24.891  1.00  0.00     0.002 A 
ATOM     71  C   UNL A   1      42.271  22.001  26.288  1.00  0.00     0.091 A 
ATOM     72  F   UNL A   1      41.474  22.825  28.381  1.00  0.00    -0.205 F 
ATOM     73  C   UNL A   1      42.978  22.228  25.098  1.00  0.00     0.022 A 
BRANCH  71  74
ATOM     74  S   UNL A   1      41.577  20.360  26.528  1.00  0.00     0.127 S 
ATOM     75  O   UNL A   1      40.141  20.633  26.476  1.00  0.00    -0.237 OA
ATOM     76  O   UNL A   1      42.108  19.637  25.371  1.00  0.00    -0.237 OA
ATOM     77  O   UNL A   1      42.089  19.901  27.809  1.00  0.00    -0.744 OA
ENDBRANCH  71  74
ENDBRANCH  43  67
BRANCH  55  78
ATOM     78  C   UNL A   1      46.991  25.874  32.429  1.00  0.00     0.023 A 
ATOM     79  C   UNL A   1      48.256  26.278  31.957  1.00  0.00     0.012 A 
ATOM     80  C   UNL A   1      46.913  24.912  33.457  1.00  0.00     0.148 A 
ATOM     81  C   UNL A   1      49.419  25.702  32.464  1.00  0.00     0.002 A 
ATOM     82  C   UNL A   1      48.079  24.381  33.994  1.00  0.00     0.091 A 
ATOM     83  F   UNL A   1      45.702  24.524  33.882  1.00  0.00    -0.205 F 
ATOM     84  C   UNL A   1      49.333  24.762  33.489  1.00  0.00     0.022 A 
BRANCH  82  85
ATOM     85  S   UNL A   1      48.057  23.242  35.383  1.00  0.00     0.127 S 
ATOM     86  O   UNL A   1      47.337  24.016  36.392  1.00  0.00    -0.237 OA
ATOM     87  O   UNL A   1      47.316  22.102  34.842  1.00  0.00    -0.237 OA
ATOM     88  O   UNL A   1      49.455  22.959  35.685  1.00  0.00    -0.744 OA
ENDBRANCH  82  85
ENDBRANCH  55  78
ENDBRANCH  29  30
ENDBRANCH  21  24
ENDBRANCH  19  20
ENDBRANCH   1  19
TORSDOF 16
ENDMDL
MODEL 3
REMARK VINA RESULT:     -11.5      1.687      2.548
REMARK SMILES C[C@](O)(C(=O)NCCCNC(=O)c1ccc(-c2c3nc(c(-c4cccc(S(=O)(=O)[O-])c4F)c4ccc([nH]4)c(-c4cccc(S(=O)(=O)[O-])c4F)c4nc(c(-c5cccc(S(=O)(=O)[O-])c5F)c5ccc2[nH]5)C=C4)C=C3)cc1)c1ccc(O)cc1
REMARK SMILES IDX 8 1 7 2 6 3 4 4 5 5 2 7 1 8 76 9 77 10 82 11 78 12 81 13
REMARK SMILES IDX 79 14 80 15 3 17 9 19 10 20 11 21 12 23 13 24 14 25 75 26
REMARK SMILES IDX 15 27 74 28 16 29 17 30 18 31 68 32 19 33 73 34 67 35 69 36
REMARK SMILES IDX 20 37 72 38 66 39 65 40 21 42 53 43 33 44 52 45 34 46 37 47
REMARK SMILES IDX 51 48 70 49 35 50 36 51 50 53 71 54 38 55 22 56 23 57 31 58
REMARK SMILES IDX 24 59 26 60 32 61 25 62 27 63 28 64 29 65 30 66 54 67 55 68
REMARK SMILES IDX 63 69 56 70 58 71 64 72 57 73 59 74 60 75 61 76 62 77 39 78
REMARK SMILES IDX 40 79 48 80 41 81 43 82 49 83 42 84 44 85 45 86 46 87 47 88
REMARK H PARENT 6 6 80 16 3 18 10 22 69 41 37 52
REMARK Flexibility Score: inf
ROOT
ATOM      1  C   UNL A   1      31.804  28.897  26.545  1.00  0.00     0.042 C 
ENDROOT
BRANCH   1   2
ATOM      2  C   UNL A   1      32.363  27.492  26.726  1.00  0.00     0.117 C 
BRANCH   2   3
ATOM      3  N   UNL A   1      31.312  26.505  26.890  1.00  0.00    -0.353 N 
ATOM      4  C   UNL A   1      30.602  25.796  25.959  1.00  0.00     0.256 C 
ATOM      5  O   UNL A   1      29.633  25.173  26.402  1.00  0.00    -0.271 OA
ATOM      6  H   UNL A   1      31.070  26.313  27.825  1.00  0.00     0.163 HD
BRANCH   4   7
ATOM      7  C   UNL A   1      31.026  25.803  24.447  1.00  0.00     0.165 C 
ATOM      8  C   UNL A   1      30.309  24.673  23.689  1.00  0.00     0.058 C 
BRANCH   7   9
ATOM      9  C   UNL A   1      30.738  27.114  23.691  1.00  0.00    -0.007 A 
ATOM     10  C   UNL A   1      31.796  27.804  23.060  1.00  0.00     0.011 A 
ATOM     11  C   UNL A   1      29.437  27.609  23.496  1.00  0.00     0.011 A 
ATOM     12  C   UNL A   1      31.565  28.957  22.307  1.00  0.00     0.046 A 
ATOM     13  C   UNL A   1      29.205  28.775  22.759  1.00  0.00     0.046 A 
ATOM     14  C   UNL A   1      30.274  29.440  22.173  1.00  0.00     0.115 A 
BRANCH  14  15
ATOM     15  O   UNL A   1      30.087  30.574  21.439  1.00  0.00    -0.508 OA
ATOM     16  H   UNL A   1      30.676  31.297  21.535  1.00  0.00     0.293 HD
ENDBRANCH  14  15
ENDBRANCH   7   9
BRANCH   7  17
ATOM     17  O   UNL A   1      32.442  25.564  24.403  1.00  0.00    -0.376 OA
ATOM     18  H   UNL A   1      32.610  24.695  24.007  1.00  0.00     0.212 HD
ENDBRANCH   7  17
ENDBRANCH   4   7
ENDBRANCH   2   3
ENDBRANCH   1   2
BRANCH   1  19
ATOM     19  C   UNL A   1      32.765  29.882  25.892  1.00  0.00     0.118 C 
BRANCH  19  20
ATOM     20  N   UNL A   1      32.526  31.262  26.291  1.00  0.00    -0.352 N 
ATOM     21  C   UNL A   1      33.163  32.034  27.227  1.00  0.00     0.251 C 
ATOM     22  H   UNL A   1      31.791  31.710  25.812  1.00  0.00     0.163 HD
ATOM     23  O   UNL A   1      32.684  33.130  27.523  1.00  0.00    -0.269 OA
BRANCH  21  24
ATOM     24  C   UNL A   1      34.399  31.565  27.890  1.00  0.00     0.039 A 
ATOM     25  C   UNL A   1      35.478  32.448  28.004  1.00  0.00     0.014 A 
ATOM     26  C   UNL A   1      34.521  30.257  28.366  1.00  0.00     0.014 A 
ATOM     27  C   UNL A   1      36.655  32.032  28.629  1.00  0.00     0.010 A 
ATOM     28  C   UNL A   1      35.660  29.874  29.071  1.00  0.00     0.010 A 
ATOM     29  C   UNL A   1      36.750  30.747  29.189  1.00  0.00    -0.014 A 
BRANCH  29  30
ATOM     30  C   UNL A   1      37.989  30.301  29.877  1.00  0.00     0.031 A 
ATOM     31  C   UNL A   1      38.309  30.795  31.264  1.00  0.00     0.074 A 
ATOM     32  C   UNL A   1      38.855  29.493  29.235  1.00  0.00     0.049 A 
ATOM     33  N   UNL A   1      39.337  30.513  32.023  1.00  0.00    -0.248 NA
ATOM     34  C   UNL A   1      37.369  31.753  31.870  1.00  0.00     0.031 C 
ATOM     35  C   UNL A   1      38.707  29.018  27.857  1.00  0.00     0.029 A 
ATOM     36  N   UNL A   1      40.042  28.943  29.649  1.00  0.00    -0.354 N 
ATOM     37  C   UNL A   1      39.186  31.281  33.172  1.00  0.00     0.074 A 
ATOM     38  C   UNL A   1      37.991  32.074  32.995  1.00  0.00     0.031 C 
ATOM     39  C   UNL A   1      39.753  28.235  27.547  1.00  0.00     0.029 A 
ATOM     40  C   UNL A   1      40.656  28.170  28.692  1.00  0.00     0.049 A 
ATOM     41  H   UNL A   1      40.419  29.089  30.547  1.00  0.00     0.167 HD
ATOM     42  C   UNL A   1      39.951  31.300  34.290  1.00  0.00     0.034 A 
ATOM     43  C   UNL A   1      41.813  27.480  28.734  1.00  0.00     0.034 A 
ATOM     44  C   UNL A   1      41.113  30.475  34.484  1.00  0.00     0.049 A 
ATOM     45  C   UNL A   1      42.606  27.462  30.013  1.00  0.00     0.074 A 
ATOM     46  C   UNL A   1      41.908  30.358  35.610  1.00  0.00     0.029 A 
ATOM     47  N   UNL A   1      41.648  29.627  33.528  1.00  0.00    -0.354 N 
ATOM     48  N   UNL A   1      42.357  28.070  31.147  1.00  0.00    -0.248 NA
ATOM     49  C   UNL A   1      43.812  26.625  30.032  1.00  0.00     0.031 C 
ATOM     50  C   UNL A   1      42.936  29.452  35.327  1.00  0.00     0.029 A 
ATOM     51  C   UNL A   1      42.762  28.982  34.036  1.00  0.00     0.049 A 
ATOM     52  H   UNL A   1      41.288  29.501  32.619  1.00  0.00     0.167 HD
ATOM     53  C   UNL A   1      43.350  27.654  32.027  1.00  0.00     0.074 A 
ATOM     54  C   UNL A   1      44.191  26.727  31.299  1.00  0.00     0.031 C 
ATOM     55  C   UNL A   1      43.557  28.018  33.318  1.00  0.00     0.034 A 
BRANCH  42  56
ATOM     56  C   UNL A   1      39.518  32.204  35.418  1.00  0.00     0.023 A 
ATOM     57  C   UNL A   1      38.683  31.696  36.435  1.00  0.00     0.012 A 
ATOM     58  C   UNL A   1      39.975  33.533  35.501  1.00  0.00     0.148 A 
ATOM     59  C   UNL A   1      38.277  32.506  37.494  1.00  0.00     0.002 A 
ATOM     60  C   UNL A   1      39.605  34.322  36.586  1.00  0.00     0.091 A 
ATOM     61  F   UNL A   1      40.751  34.007  34.516  1.00  0.00    -0.205 F 
ATOM     62  C   UNL A   1      38.746  33.814  37.575  1.00  0.00     0.022 A 
BRANCH  60  63
ATOM     63  S   UNL A   1      40.222  35.992  36.826  1.00  0.00     0.127 S 
ATOM     64  O   UNL A   1      41.657  35.755  36.984  1.00  0.00    -0.237 OA
ATOM     65  O   UNL A   1      39.847  36.641  35.568  1.00  0.00    -0.237 OA
ATOM     66  O   UNL A   1      39.539  36.507  38.003  1.00  0.00    -0.744 OA
ENDBRANCH  60  63
ENDBRANCH  42  56
BRANCH  43  67
ATOM     67  C   UNL A   1      42.243  26.675  27.555  1.00  0.00     0.023 A 
ATOM     68  C   UNL A   1      42.995  27.288  26.534  1.00  0.00     0.012 A 
ATOM     69  C   UNL A   1      41.931  25.306  27.450  1.00  0.00     0.148 A 
ATOM     70  C   UNL A   1      43.396  26.564  25.412  1.00  0.00     0.002 A 
ATOM     71  C   UNL A   1      42.383  24.576  26.356  1.00  0.00     0.091 A 
ATOM     72  F   UNL A   1      41.207  24.742  28.427  1.00  0.00    -0.205 F 
ATOM     73  C   UNL A   1      43.099  25.207  25.327  1.00  0.00     0.022 A 
BRANCH  71  74
ATOM     74  S   UNL A   1      42.159  22.798  26.229  1.00  0.00     0.127 S 
ATOM     75  O   UNL A   1      42.775  22.511  24.935  1.00  0.00    -0.237 OA
ATOM     76  O   UNL A   1      42.913  22.316  27.389  1.00  0.00    -0.237 OA
ATOM     77  O   UNL A   1      40.725  22.575  26.312  1.00  0.00    -0.744 OA
ENDBRANCH  71  74
ENDBRANCH  43  67
BRANCH  55  78
ATOM     78  C   UNL A   1      44.708  27.374  34.045  1.00  0.00     0.023 A 
ATOM     79  C   UNL A   1      45.994  27.945  33.981  1.00  0.00     0.012 A 
ATOM     80  C   UNL A   1      44.502  26.226  34.837  1.00  0.00     0.148 A 
ATOM     81  C   UNL A   1      47.066  27.358  34.652  1.00  0.00     0.002 A 
ATOM     82  C   UNL A   1      45.564  25.677  35.545  1.00  0.00     0.091 A 
ATOM     83  F   UNL A   1      43.277  25.683  34.873  1.00  0.00    -0.205 F 
ATOM     84  C   UNL A   1      46.850  26.232  35.442  1.00  0.00     0.022 A 
BRANCH  82  85
ATOM     85  S   UNL A   1      45.349  24.288  36.663  1.00  0.00     0.127 S 
ATOM     86  O   UNL A   1      44.939  23.226  35.746  1.00  0.00    -0.237 OA
ATOM     87  O   UNL A   1      46.691  24.126  37.225  1.00  0.00    -0.237 OA
ATOM     88  O   UNL A   1      44.342  24.709  37.629  1.00  0.00    -0.744 OA
ENDBRANCH  82  85
ENDBRANCH  55  78
ENDBRANCH  29  30
ENDBRANCH  21  24
ENDBRANCH  19  20
ENDBRANCH   1  19
TORSDOF 16
ENDMDL
