MODEL 1
REMARK VINA RESULT:     -10.1      0.000      0.000
REMARK SMILES C[NH+](C)Cc1noc(CCCCC(=O)NCCCNC(=O)c2ccc(-c3c4nc(c(-c5cccc(S(=O)(=O)[O-])c5F)c5ccc([nH]5)c(-c5cccc(S(=O)(=O)[O-])c5F)c5nc(c(-c6cccc(S(=O)(=O)[O-])c6F)c6ccc3[nH]6)C=C5)C=C4)cc2)n1
REMARK SMILES IDX 13 1 14 2 15 3 12 5 11 6 10 7 9 8 8 9 5 10 6 11 85 12 7 13
REMARK SMILES IDX 4 14 2 15 1 16 3 17 16 19 17 20 18 21 19 22 20 23 21 25
REMARK SMILES IDX 22 26 23 27 84 28 24 29 83 30 25 31 26 32 27 33 77 34 28 35
REMARK SMILES IDX 82 36 76 37 78 38 29 39 81 40 75 41 74 42 30 44 62 45 42 46
REMARK SMILES IDX 61 47 43 48 46 49 60 50 79 51 44 52 45 53 59 55 80 56 47 57
REMARK SMILES IDX 31 58 32 59 40 60 33 61 35 62 41 63 34 64 36 65 37 66 38 67
REMARK SMILES IDX 39 68 63 69 64 70 72 71 65 72 67 73 73 74 66 75 68 76 69 77
REMARK SMILES IDX 70 78 71 79 48 80 49 81 57 82 50 83 52 84 58 85 51 86 53 87
REMARK SMILES IDX 54 88 55 89 56 90
REMARK H PARENT 15 4 2 18 19 24 78 43 46 54
REMARK Flexibility Score: inf
ROOT
ATOM      1  C   UNL A   1      37.326  23.167  25.753  1.00  0.00     0.219 C 
ATOM      2  O   UNL A   1      38.046  24.113  26.079  1.00  0.00    -0.275 OA
ATOM      3  N   UNL A   1      37.892  22.143  25.058  1.00  0.00    -0.356 N 
ATOM      4  H   UNL A   1      38.858  22.239  24.899  1.00  0.00     0.163 HD
ENDROOT
BRANCH   1   5
ATOM      5  C   UNL A   1      35.865  23.134  26.159  1.00  0.00     0.100 C 
BRANCH   5   6
ATOM      6  C   UNL A   1      34.916  23.876  25.213  1.00  0.00     0.010 C 
BRANCH   6   7
ATOM      7  C   UNL A   1      33.424  23.557  25.332  1.00  0.00     0.010 C 
BRANCH   7   8
ATOM      8  C   UNL A   1      32.758  23.025  24.066  1.00  0.00     0.100 C 
BRANCH   8   9
ATOM      9  C   UNL A   1      32.717  21.555  24.001  1.00  0.00     0.226 A 
ATOM     10  C   UNL A   1      32.738  19.501  24.378  1.00  0.00     0.226 A 
ATOM     11  N   UNL A   1      32.200  19.585  23.148  1.00  0.00    -0.056 NA
ATOM     12  N   UNL A   1      33.068  20.709  24.932  1.00  0.00    -0.191 NA
ATOM     13  O   UNL A   1      32.181  20.963  22.897  1.00  0.00    -0.339 OA
BRANCH  10  14
ATOM     14  C   UNL A   1      32.957  18.194  25.077  1.00  0.00     0.344 C 
BRANCH  14  15
ATOM     15  N   UNL A   1      32.900  16.978  24.232  1.00  0.00    -0.333 N 
ATOM     16  C   UNL A   1      34.020  16.880  23.293  1.00  0.00     0.332 C 
ATOM     17  C   UNL A   1      32.759  15.750  25.010  1.00  0.00     0.332 C 
ATOM     18  H   UNL A   1      32.050  17.081  23.677  1.00  0.00     0.348 HD
ENDBRANCH  14  15
ENDBRANCH  10  14
ENDBRANCH   8   9
ENDBRANCH   7   8
ENDBRANCH   6   7
ENDBRANCH   5   6
ENDBRANCH   1   5
BRANCH   3  19
ATOM     19  C   UNL A   1      37.306  20.932  24.512  1.00  0.00     0.117 C 
BRANCH  19  20
ATOM     20  C   UNL A   1      38.158  19.706  24.827  1.00  0.00     0.042 C 
BRANCH  20  21
ATOM     21  C   UNL A   1      38.918  19.797  26.139  1.00  0.00     0.118 C 
BRANCH  21  22
ATOM     22  N   UNL A   1      40.150  19.024  26.121  1.00  0.00    -0.352 N 
ATOM     23  C   UNL A   1      41.458  19.444  26.139  1.00  0.00     0.251 C 
ATOM     24  H   UNL A   1      40.027  18.048  26.091  1.00  0.00     0.163 HD
ATOM     25  O   UNL A   1      42.346  18.619  25.938  1.00  0.00    -0.269 OA
BRANCH  23  26
ATOM     26  C   UNL A   1      41.809  20.867  26.374  1.00  0.00     0.039 A 
ATOM     27  C   UNL A   1      42.241  21.248  27.648  1.00  0.00     0.014 A 
ATOM     28  C   UNL A   1      41.684  21.835  25.373  1.00  0.00     0.014 A 
ATOM     29  C   UNL A   1      42.590  22.577  27.901  1.00  0.00     0.010 A 
ATOM     30  C   UNL A   1      42.130  23.137  25.598  1.00  0.00     0.010 A 
ATOM     31  C   UNL A   1      42.569  23.529  26.868  1.00  0.00    -0.014 A 
BRANCH  31  32
ATOM     32  C   UNL A   1      42.999  24.932  27.110  1.00  0.00     0.031 A 
ATOM     33  C   UNL A   1      42.081  25.907  27.802  1.00  0.00     0.074 A 
ATOM     34  C   UNL A   1      44.195  25.349  26.650  1.00  0.00     0.049 A 
ATOM     35  N   UNL A   1      42.287  27.166  28.097  1.00  0.00    -0.248 NA
ATOM     36  C   UNL A   1      40.748  25.416  28.190  1.00  0.00     0.031 C 
ATOM     37  C   UNL A   1      45.137  24.530  25.884  1.00  0.00     0.029 A 
ATOM     38  N   UNL A   1      44.818  26.568  26.743  1.00  0.00    -0.354 N 
ATOM     39  C   UNL A   1      41.105  27.623  28.669  1.00  0.00     0.074 A 
ATOM     40  C   UNL A   1      40.171  26.519  28.642  1.00  0.00     0.031 C 
ATOM     41  C   UNL A   1      46.224  25.261  25.595  1.00  0.00     0.029 A 
ATOM     42  C   UNL A   1      46.047  26.608  26.127  1.00  0.00     0.049 A 
ATOM     43  H   UNL A   1      44.423  27.340  27.207  1.00  0.00     0.167 HD
ATOM     44  C   UNL A   1      40.830  28.838  29.200  1.00  0.00     0.034 A 
ATOM     45  C   UNL A   1      46.934  27.616  26.003  1.00  0.00     0.034 A 
ATOM     46  C   UNL A   1      41.775  29.920  29.264  1.00  0.00     0.049 A 
ATOM     47  C   UNL A   1      46.625  28.941  26.645  1.00  0.00     0.074 A 
ATOM     48  C   UNL A   1      41.630  31.157  29.865  1.00  0.00     0.029 A 
ATOM     49  N   UNL A   1      43.041  29.899  28.696  1.00  0.00    -0.354 N 
ATOM     50  N   UNL A   1      45.568  29.299  27.332  1.00  0.00    -0.248 NA
ATOM     51  C   UNL A   1      47.649  29.988  26.527  1.00  0.00     0.031 C 
ATOM     52  C   UNL A   1      42.796  31.895  29.636  1.00  0.00     0.029 A 
ATOM     53  C   UNL A   1      43.681  31.106  28.920  1.00  0.00     0.049 A 
ATOM     54  H   UNL A   1      43.427  29.137  28.206  1.00  0.00     0.167 HD
ATOM     55  C   UNL A   1      45.810  30.601  27.753  1.00  0.00     0.074 A 
ATOM     56  C   UNL A   1      47.127  30.957  27.267  1.00  0.00     0.031 C 
ATOM     57  C   UNL A   1      45.008  31.434  28.464  1.00  0.00     0.034 A 
BRANCH  44  58
ATOM     58  C   UNL A   1      39.463  29.046  29.803  1.00  0.00     0.023 A 
ATOM     59  C   UNL A   1      39.209  28.614  31.122  1.00  0.00     0.012 A 
ATOM     60  C   UNL A   1      38.446  29.709  29.088  1.00  0.00     0.148 A 
ATOM     61  C   UNL A   1      37.955  28.800  31.704  1.00  0.00     0.002 A 
ATOM     62  C   UNL A   1      37.215  29.934  29.693  1.00  0.00     0.091 A 
ATOM     63  F   UNL A   1      38.696  30.095  27.829  1.00  0.00    -0.205 F 
ATOM     64  C   UNL A   1      36.963  29.469  30.994  1.00  0.00     0.022 A 
BRANCH  62  65
ATOM     65  S   UNL A   1      35.895  30.857  28.894  1.00  0.00     0.127 S 
ATOM     66  O   UNL A   1      35.184  29.796  28.180  1.00  0.00    -0.237 OA
ATOM     67  O   UNL A   1      35.172  31.412  30.038  1.00  0.00    -0.237 OA
ATOM     68  O   UNL A   1      36.552  31.847  28.051  1.00  0.00    -0.744 OA
ENDBRANCH  62  65
ENDBRANCH  44  58
BRANCH  45  69
ATOM     69  C   UNL A   1      48.228  27.384  25.301  1.00  0.00     0.023 A 
ATOM     70  C   UNL A   1      49.347  26.947  26.037  1.00  0.00     0.012 A 
ATOM     71  C   UNL A   1      48.347  27.555  23.909  1.00  0.00     0.148 A 
ATOM     72  C   UNL A   1      50.568  26.715  25.404  1.00  0.00     0.002 A 
ATOM     73  C   UNL A   1      49.550  27.266  23.276  1.00  0.00     0.091 A 
ATOM     74  F   UNL A   1      47.273  27.981  23.229  1.00  0.00    -0.205 F 
ATOM     75  C   UNL A   1      50.667  26.864  24.024  1.00  0.00     0.022 A 
BRANCH  73  76
ATOM     76  S   UNL A   1      49.730  27.296  21.489  1.00  0.00     0.127 S 
ATOM     77  O   UNL A   1      49.571  28.718  21.196  1.00  0.00    -0.237 OA
ATOM     78  O   UNL A   1      51.087  26.778  21.315  1.00  0.00    -0.237 OA
ATOM     79  O   UNL A   1      48.684  26.423  20.973  1.00  0.00    -0.744 OA
ENDBRANCH  73  76
ENDBRANCH  45  69
BRANCH  57  80
ATOM     80  C   UNL A   1      45.541  32.807  28.780  1.00  0.00     0.023 A 
ATOM     81  C   UNL A   1      46.265  33.022  29.970  1.00  0.00     0.012 A 
ATOM     82  C   UNL A   1      45.375  33.871  27.871  1.00  0.00     0.148 A 
ATOM     83  C   UNL A   1      46.779  34.283  30.270  1.00  0.00     0.002 A 
ATOM     84  C   UNL A   1      45.934  35.111  28.152  1.00  0.00     0.091 A 
ATOM     85  F   UNL A   1      44.668  33.652  26.752  1.00  0.00    -0.205 F 
ATOM     86  C   UNL A   1      46.623  35.323  29.357  1.00  0.00     0.022 A 
BRANCH  84  87
ATOM     87  S   UNL A   1      45.870  36.481  26.991  1.00  0.00     0.127 S 
ATOM     88  O   UNL A   1      44.433  36.733  26.909  1.00  0.00    -0.237 OA
ATOM     89  O   UNL A   1      46.633  37.516  27.689  1.00  0.00    -0.237 OA
ATOM     90  O   UNL A   1      46.491  35.996  25.766  1.00  0.00    -0.744 OA
ENDBRANCH  84  87
ENDBRANCH  57  80
ENDBRANCH  31  32
ENDBRANCH  23  26
ENDBRANCH  21  22
ENDBRANCH  20  21
ENDBRANCH  19  20
ENDBRANCH   3  19
TORSDOF 19
ENDMDL
MODEL 2
REMARK VINA RESULT:     -10.0      5.554      8.568
REMARK SMILES C[NH+](C)Cc1noc(CCCCC(=O)NCCCNC(=O)c2ccc(-c3c4nc(c(-c5cccc(S(=O)(=O)[O-])c5F)c5ccc([nH]5)c(-c5cccc(S(=O)(=O)[O-])c5F)c5nc(c(-c6cccc(S(=O)(=O)[O-])c6F)c6ccc3[nH]6)C=C5)C=C4)cc2)n1
REMARK SMILES IDX 13 1 14 2 15 3 12 5 11 6 10 7 9 8 8 9 5 10 6 11 85 12 7 13
REMARK SMILES IDX 4 14 2 15 1 16 3 17 16 19 17 20 18 21 19 22 20 23 21 25
REMARK SMILES IDX 22 26 23 27 84 28 24 29 83 30 25 31 26 32 27 33 77 34 28 35
REMARK SMILES IDX 82 36 76 37 78 38 29 39 81 40 75 41 74 42 30 44 62 45 42 46
REMARK SMILES IDX 61 47 43 48 46 49 60 50 79 51 44 52 45 53 59 55 80 56 47 57
REMARK SMILES IDX 31 58 32 59 40 60 33 61 35 62 41 63 34 64 36 65 37 66 38 67
REMARK SMILES IDX 39 68 63 69 64 70 72 71 65 72 67 73 73 74 66 75 68 76 69 77
REMARK SMILES IDX 70 78 71 79 48 80 49 81 57 82 50 83 52 84 58 85 51 86 53 87
REMARK SMILES IDX 54 88 55 89 56 90
REMARK H PARENT 15 4 2 18 19 24 78 43 46 54
REMARK Flexibility Score: inf
ROOT
ATOM      1  C   UNL A   1      32.196  25.025  24.396  1.00  0.00     0.219 C 
ATOM      2  O   UNL A   1      31.554  23.999  24.629  1.00  0.00    -0.275 OA
ATOM      3  N   UNL A   1      31.508  26.188  24.239  1.00  0.00    -0.356 N 
ATOM      4  H   UNL A   1      30.535  26.108  24.357  1.00  0.00     0.163 HD
ENDROOT
BRANCH   1   5
ATOM      5  C   UNL A   1      33.711  24.990  24.333  1.00  0.00     0.100 C 
BRANCH   5   6
ATOM      6  C   UNL A   1      34.411  24.889  25.692  1.00  0.00     0.010 C 
BRANCH   6   7
ATOM      7  C   UNL A   1      34.414  23.518  26.373  1.00  0.00     0.010 C 
BRANCH   7   8
ATOM      8  C   UNL A   1      35.401  22.501  25.807  1.00  0.00     0.100 C 
BRANCH   8   9
ATOM      9  C   UNL A   1      34.747  21.347  25.166  1.00  0.00     0.226 A 
ATOM     10  C   UNL A   1      34.148  19.462  24.496  1.00  0.00     0.226 A 
ATOM     11  N   UNL A   1      33.112  20.253  24.164  1.00  0.00    -0.056 NA
ATOM     12  N   UNL A   1      35.177  20.115  25.120  1.00  0.00    -0.191 NA
ATOM     13  O   UNL A   1      33.512  21.516  24.618  1.00  0.00    -0.339 OA
BRANCH  10  14
ATOM     14  C   UNL A   1      34.171  17.992  24.204  1.00  0.00     0.344 C 
BRANCH  14  15
ATOM     15  N   UNL A   1      34.036  17.088  25.370  1.00  0.00    -0.333 N 
ATOM     16  C   UNL A   1      32.642  16.850  25.751  1.00  0.00     0.332 C 
ATOM     17  C   UNL A   1      34.755  15.829  25.199  1.00  0.00     0.332 C 
ATOM     18  H   UNL A   1      34.479  17.584  26.143  1.00  0.00     0.348 HD
ENDBRANCH  14  15
ENDBRANCH  10  14
ENDBRANCH   8   9
ENDBRANCH   7   8
ENDBRANCH   6   7
ENDBRANCH   5   6
ENDBRANCH   1   5
BRANCH   3  19
ATOM     19  C   UNL A   1      31.971  27.528  23.925  1.00  0.00     0.117 C 
BRANCH  19  20
ATOM     20  C   UNL A   1      31.951  28.430  25.155  1.00  0.00     0.042 C 
BRANCH  20  21
ATOM     21  C   UNL A   1      33.084  29.441  25.203  1.00  0.00     0.118 C 
BRANCH  21  22
ATOM     22  N   UNL A   1      32.669  30.713  25.772  1.00  0.00    -0.352 N 
ATOM     23  C   UNL A   1      33.154  31.394  26.863  1.00  0.00     0.251 C 
ATOM     24  H   UNL A   1      31.925  31.155  25.303  1.00  0.00     0.163 HD
ATOM     25  O   UNL A   1      32.533  32.372  27.271  1.00  0.00    -0.269 OA
BRANCH  23  26
ATOM     26  C   UNL A   1      34.390  30.957  27.559  1.00  0.00     0.039 A 
ATOM     27  C   UNL A   1      35.417  31.888  27.745  1.00  0.00     0.014 A 
ATOM     28  C   UNL A   1      34.567  29.642  27.996  1.00  0.00     0.014 A 
ATOM     29  C   UNL A   1      36.589  31.514  28.407  1.00  0.00     0.010 A 
ATOM     30  C   UNL A   1      35.692  29.298  28.745  1.00  0.00     0.010 A 
ATOM     31  C   UNL A   1      36.725  30.223  28.943  1.00  0.00    -0.014 A 
BRANCH  31  32
ATOM     32  C   UNL A   1      37.942  29.832  29.703  1.00  0.00     0.031 A 
ATOM     33  C   UNL A   1      38.198  30.389  31.080  1.00  0.00     0.074 A 
ATOM     34  C   UNL A   1      38.853  29.022  29.128  1.00  0.00     0.049 A 
ATOM     35  N   UNL A   1      39.203  30.160  31.887  1.00  0.00    -0.248 NA
ATOM     36  C   UNL A   1      37.215  31.348  31.611  1.00  0.00     0.031 C 
ATOM     37  C   UNL A   1      38.769  28.490  27.766  1.00  0.00     0.029 A 
ATOM     38  N   UNL A   1      40.035  28.517  29.607  1.00  0.00    -0.354 N 
ATOM     39  C   UNL A   1      38.991  30.968  32.999  1.00  0.00     0.074 A 
ATOM     40  C   UNL A   1      37.785  31.725  32.745  1.00  0.00     0.031 C 
ATOM     41  C   UNL A   1      39.841  27.718  27.526  1.00  0.00     0.029 A 
ATOM     42  C   UNL A   1      40.703  27.723  28.703  1.00  0.00     0.049 A 
ATOM     43  H   UNL A   1      40.373  28.704  30.512  1.00  0.00     0.167 HD
ATOM     44  C   UNL A   1      39.713  31.050  34.142  1.00  0.00     0.034 A 
ATOM     45  C   UNL A   1      41.878  27.072  28.809  1.00  0.00     0.034 A 
ATOM     46  C   UNL A   1      40.888  30.265  34.409  1.00  0.00     0.049 A 
ATOM     47  C   UNL A   1      42.636  27.140  30.106  1.00  0.00     0.074 A 
ATOM     48  C   UNL A   1      41.636  30.202  35.570  1.00  0.00     0.029 A 
ATOM     49  N   UNL A   1      41.493  29.413  33.498  1.00  0.00    -0.354 N 
ATOM     50  N   UNL A   1      42.327  27.777  31.209  1.00  0.00    -0.248 NA
ATOM     51  C   UNL A   1      43.883  26.367  30.187  1.00  0.00     0.031 C 
ATOM     52  C   UNL A   1      42.711  29.334  35.352  1.00  0.00     0.029 A 
ATOM     53  C   UNL A   1      42.614  28.830  34.065  1.00  0.00     0.049 A 
ATOM     54  H   UNL A   1      41.172  29.246  32.582  1.00  0.00     0.167 HD
ATOM     55  C   UNL A   1      43.325  27.461  32.124  1.00  0.00     0.074 A 
ATOM     56  C   UNL A   1      44.230  26.551  31.453  1.00  0.00     0.031 C 
ATOM     57  C   UNL A   1      43.486  27.896  33.399  1.00  0.00     0.034 A 
BRANCH  44  58
ATOM     58  C   UNL A   1      39.221  31.990  35.215  1.00  0.00     0.023 A 
ATOM     59  C   UNL A   1      38.224  31.559  36.116  1.00  0.00     0.012 A 
ATOM     60  C   UNL A   1      39.775  33.276  35.366  1.00  0.00     0.148 A 
ATOM     61  C   UNL A   1      37.757  32.406  37.120  1.00  0.00     0.002 A 
ATOM     62  C   UNL A   1      39.339  34.097  36.400  1.00  0.00     0.091 A 
ATOM     63  F   UNL A   1      40.707  33.678  34.490  1.00  0.00    -0.205 F 
ATOM     64  C   UNL A   1      38.321  33.669  37.268  1.00  0.00     0.022 A 
BRANCH  62  65
ATOM     65  S   UNL A   1      40.058  35.711  36.727  1.00  0.00     0.127 S 
ATOM     66  O   UNL A   1      39.670  36.455  35.529  1.00  0.00    -0.237 OA
ATOM     67  O   UNL A   1      39.360  36.116  37.947  1.00  0.00    -0.237 OA
ATOM     68  O   UNL A   1      41.487  35.487  36.890  1.00  0.00    -0.744 OA
ENDBRANCH  62  65
ENDBRANCH  44  58
BRANCH  45  69
ATOM     69  C   UNL A   1      42.371  26.241  27.673  1.00  0.00     0.023 A 
ATOM     70  C   UNL A   1      43.298  26.789  26.765  1.00  0.00     0.012 A 
ATOM     71  C   UNL A   1      41.959  24.905  27.511  1.00  0.00     0.148 A 
ATOM     72  C   UNL A   1      43.781  26.032  25.698  1.00  0.00     0.002 A 
ATOM     73  C   UNL A   1      42.488  24.138  26.480  1.00  0.00     0.091 A 
ATOM     74  F   UNL A   1      41.069  24.405  28.380  1.00  0.00    -0.205 F 
ATOM     75  C   UNL A   1      43.386  24.704  25.561  1.00  0.00     0.022 A 
BRANCH  73  76
ATOM     76  S   UNL A   1      42.143  22.383  26.309  1.00  0.00     0.127 S 
ATOM     77  O   UNL A   1      40.697  22.380  26.113  1.00  0.00    -0.237 OA
ATOM     78  O   UNL A   1      42.929  22.036  25.125  1.00  0.00    -0.237 OA
ATOM     79  O   UNL A   1      42.616  21.767  27.543  1.00  0.00    -0.744 OA
ENDBRANCH  73  76
ENDBRANCH  45  69
BRANCH  57  80
ATOM     80  C   UNL A   1      44.676  27.378  34.164  1.00  0.00     0.023 A 
ATOM     81  C   UNL A   1      45.896  28.081  34.124  1.00  0.00     0.012 A 
ATOM     82  C   UNL A   1      44.569  26.225  34.967  1.00  0.00     0.148 A 
ATOM     83  C   UNL A   1      47.003  27.624  34.839  1.00  0.00     0.002 A 
ATOM     84  C   UNL A   1      45.660  25.805  35.719  1.00  0.00     0.091 A 
ATOM     85  F   UNL A   1      43.405  25.559  34.979  1.00  0.00    -0.205 F 
ATOM     86  C   UNL A   1      46.881  26.494  35.643  1.00  0.00     0.022 A 
BRANCH  84  87
ATOM     87  S   UNL A   1      45.567  24.419  36.858  1.00  0.00     0.127 S 
ATOM     88  O   UNL A   1      46.927  24.382  37.392  1.00  0.00    -0.237 OA
ATOM     89  O   UNL A   1      44.550  24.866  37.809  1.00  0.00    -0.237 OA
ATOM     90  O   UNL A   1      45.178  23.267  36.055  1.00  0.00    -0.744 OA
ENDBRANCH  84  87
ENDBRANCH  57  80
ENDBRANCH  31  32
ENDBRANCH  23  26
ENDBRANCH  21  22
ENDBRANCH  20  21
ENDBRANCH  19  20
ENDBRANCH   3  19
TORSDOF 19
ENDMDL
MODEL 3
REMARK VINA RESULT:      -9.8      6.199      9.596
REMARK SMILES C[NH+](C)Cc1noc(CCCCC(=O)NCCCNC(=O)c2ccc(-c3c4nc(c(-c5cccc(S(=O)(=O)[O-])c5F)c5ccc([nH]5)c(-c5cccc(S(=O)(=O)[O-])c5F)c5nc(c(-c6cccc(S(=O)(=O)[O-])c6F)c6ccc3[nH]6)C=C5)C=C4)cc2)n1
REMARK SMILES IDX 13 1 14 2 15 3 12 5 11 6 10 7 9 8 8 9 5 10 6 11 85 12 7 13
REMARK SMILES IDX 4 14 2 15 1 16 3 17 16 19 17 20 18 21 19 22 20 23 21 25
REMARK SMILES IDX 22 26 23 27 84 28 24 29 83 30 25 31 26 32 27 33 77 34 28 35
REMARK SMILES IDX 82 36 76 37 78 38 29 39 81 40 75 41 74 42 30 44 62 45 42 46
REMARK SMILES IDX 61 47 43 48 46 49 60 50 79 51 44 52 45 53 59 55 80 56 47 57
REMARK SMILES IDX 31 58 32 59 40 60 33 61 35 62 41 63 34 64 36 65 37 66 38 67
REMARK SMILES IDX 39 68 63 69 64 70 72 71 65 72 67 73 73 74 66 75 68 76 69 77
REMARK SMILES IDX 70 78 71 79 48 80 49 81 57 82 50 83 52 84 58 85 51 86 53 87
REMARK SMILES IDX 54 88 55 89 56 90
REMARK H PARENT 15 4 2 18 19 24 78 43 46 54
REMARK Flexibility Score: inf
ROOT
ATOM      1  C   UNL A   1      31.611  25.347  26.514  1.00  0.00     0.219 C 
ATOM      2  O   UNL A   1      31.259  24.399  27.218  1.00  0.00    -0.275 OA
ATOM      3  N   UNL A   1      31.171  26.591  26.848  1.00  0.00    -0.356 N 
ATOM      4  H   UNL A   1      30.619  26.625  27.662  1.00  0.00     0.163 HD
ENDROOT
BRANCH   1   5
ATOM      5  C   UNL A   1      32.545  25.131  25.339  1.00  0.00     0.100 C 
BRANCH   5   6
ATOM      6  C   UNL A   1      31.878  24.566  24.080  1.00  0.00     0.010 C 
BRANCH   6   7
ATOM      7  C   UNL A   1      31.293  25.575  23.090  1.00  0.00     0.010 C 
BRANCH   7   8
ATOM      8  C   UNL A   1      29.927  26.147  23.459  1.00  0.00     0.100 C 
BRANCH   8   9
ATOM      9  C   UNL A   1      29.742  27.543  23.027  1.00  0.00     0.226 A 
ATOM     10  C   UNL A   1      29.230  29.556  22.819  1.00  0.00     0.226 A 
ATOM     11  N   UNL A   1      30.210  29.391  21.913  1.00  0.00    -0.056 NA
ATOM     12  N   UNL A   1      28.919  28.425  23.526  1.00  0.00    -0.191 NA
ATOM     13  O   UNL A   1      30.556  28.041  22.056  1.00  0.00    -0.339 OA
BRANCH  10  14
ATOM     14  C   UNL A   1      28.538  30.869  23.031  1.00  0.00     0.344 C 
BRANCH  14  15
ATOM     15  N   UNL A   1      28.997  31.998  22.189  1.00  0.00    -0.333 N 
ATOM     16  C   UNL A   1      28.213  32.151  20.960  1.00  0.00     0.332 C 
ATOM     17  C   UNL A   1      29.075  33.259  22.921  1.00  0.00     0.332 C 
ATOM     18  H   UNL A   1      29.947  31.752  21.911  1.00  0.00     0.348 HD
ENDBRANCH  14  15
ENDBRANCH  10  14
ENDBRANCH   8   9
ENDBRANCH   7   8
ENDBRANCH   6   7
ENDBRANCH   5   6
ENDBRANCH   1   5
BRANCH   3  19
ATOM     19  C   UNL A   1      31.380  27.875  26.204  1.00  0.00     0.117 C 
BRANCH  19  20
ATOM     20  C   UNL A   1      32.835  28.064  25.789  1.00  0.00     0.042 C 
BRANCH  20  21
ATOM     21  C   UNL A   1      33.742  28.555  26.905  1.00  0.00     0.118 C 
BRANCH  21  22
ATOM     22  N   UNL A   1      33.700  30.000  27.059  1.00  0.00    -0.352 N 
ATOM     23  C   UNL A   1      34.566  30.846  27.709  1.00  0.00     0.251 C 
ATOM     24  H   UNL A   1      32.931  30.441  26.630  1.00  0.00     0.163 HD
ATOM     25  O   UNL A   1      34.240  32.020  27.863  1.00  0.00    -0.269 OA
BRANCH  23  26
ATOM     26  C   UNL A   1      35.865  30.362  28.240  1.00  0.00     0.039 A 
ATOM     27  C   UNL A   1      35.877  29.686  29.463  1.00  0.00     0.014 A 
ATOM     28  C   UNL A   1      37.070  30.594  27.571  1.00  0.00     0.014 A 
ATOM     29  C   UNL A   1      37.080  29.205  29.986  1.00  0.00     0.010 A 
ATOM     30  C   UNL A   1      38.253  30.026  28.042  1.00  0.00     0.010 A 
ATOM     31  C   UNL A   1      38.277  29.343  29.264  1.00  0.00    -0.014 A 
BRANCH  31  32
ATOM     32  C   UNL A   1      39.553  28.781  29.781  1.00  0.00     0.031 A 
ATOM     33  C   UNL A   1      40.215  29.373  30.999  1.00  0.00     0.074 A 
ATOM     34  C   UNL A   1      40.152  27.773  29.116  1.00  0.00     0.049 A 
ATOM     35  N   UNL A   1      41.326  29.013  31.589  1.00  0.00    -0.248 NA
ATOM     36  C   UNL A   1      39.561  30.537  31.620  1.00  0.00     0.031 C 
ATOM     37  C   UNL A   1      39.663  27.173  27.873  1.00  0.00     0.029 A 
ATOM     38  N   UNL A   1      41.310  27.086  29.381  1.00  0.00    -0.354 N 
ATOM     39  C   UNL A   1      41.522  29.923  32.623  1.00  0.00     0.074 A 
ATOM     40  C   UNL A   1      40.437  30.877  32.554  1.00  0.00     0.031 C 
ATOM     41  C   UNL A   1      40.502  26.196  27.494  1.00  0.00     0.029 A 
ATOM     42  C   UNL A   1      41.603  26.118  28.448  1.00  0.00     0.049 A 
ATOM     43  H   UNL A   1      41.877  27.268  30.164  1.00  0.00     0.167 HD
ATOM     44  C   UNL A   1      42.494  29.945  33.566  1.00  0.00     0.034 A 
ATOM     45  C   UNL A   1      42.642  25.262  28.368  1.00  0.00     0.034 A 
ATOM     46  C   UNL A   1      43.547  28.970  33.658  1.00  0.00     0.049 A 
ATOM     47  C   UNL A   1      43.682  25.275  29.455  1.00  0.00     0.074 A 
ATOM     48  C   UNL A   1      44.524  28.847  34.629  1.00  0.00     0.029 A 
ATOM     49  N   UNL A   1      43.768  27.956  32.738  1.00  0.00    -0.354 N 
ATOM     50  N   UNL A   1      43.753  26.035  30.520  1.00  0.00    -0.248 NA
ATOM     51  C   UNL A   1      44.763  24.286  29.349  1.00  0.00     0.031 C 
ATOM     52  C   UNL A   1      45.354  27.776  34.280  1.00  0.00     0.029 A 
ATOM     53  C   UNL A   1      44.874  27.211  33.110  1.00  0.00     0.049 A 
ATOM     54  H   UNL A   1      43.219  27.791  31.938  1.00  0.00     0.167 HD
ATOM     55  C   UNL A   1      44.868  25.599  31.226  1.00  0.00     0.074 A 
ATOM     56  C   UNL A   1      45.423  24.488  30.481  1.00  0.00     0.031 C 
ATOM     57  C   UNL A   1      45.395  26.083  32.379  1.00  0.00     0.034 A 
BRANCH  44  58
ATOM     58  C   UNL A   1      42.433  31.035  34.608  1.00  0.00     0.023 A 
ATOM     59  C   UNL A   1      41.753  30.802  35.822  1.00  0.00     0.012 A 
ATOM     60  C   UNL A   1      43.088  32.266  34.412  1.00  0.00     0.148 A 
ATOM     61  C   UNL A   1      41.688  31.789  36.804  1.00  0.00     0.002 A 
ATOM     62  C   UNL A   1      43.060  33.228  35.415  1.00  0.00     0.091 A 
ATOM     63  F   UNL A   1      43.713  32.480  33.245  1.00  0.00    -0.205 F 
ATOM     64  C   UNL A   1      42.350  32.997  36.605  1.00  0.00     0.022 A 
BRANCH  62  65
ATOM     65  S   UNL A   1      43.948  34.786  35.291  1.00  0.00     0.127 S 
ATOM     66  O   UNL A   1      45.322  34.327  35.090  1.00  0.00    -0.237 OA
ATOM     67  O   UNL A   1      43.331  35.398  34.114  1.00  0.00    -0.237 OA
ATOM     68  O   UNL A   1      43.699  35.488  36.542  1.00  0.00    -0.744 OA
ENDBRANCH  62  65
ENDBRANCH  44  58
BRANCH  45  69
ATOM     69  C   UNL A   1      42.707  24.276  27.253  1.00  0.00     0.023 A 
ATOM     70  C   UNL A   1      43.422  24.598  26.083  1.00  0.00     0.012 A 
ATOM     71  C   UNL A   1      42.099  23.010  27.359  1.00  0.00     0.148 A 
ATOM     72  C   UNL A   1      43.506  23.690  25.028  1.00  0.00     0.002 A 
ATOM     73  C   UNL A   1      42.235  22.088  26.328  1.00  0.00     0.091 A 
ATOM     74  F   UNL A   1      41.415  22.727  28.476  1.00  0.00    -0.205 F 
ATOM     75  C   UNL A   1      42.922  22.433  25.153  1.00  0.00     0.022 A 
BRANCH  73  76
ATOM     76  S   UNL A   1      41.636  20.400  26.459  1.00  0.00     0.127 S 
ATOM     77  O   UNL A   1      42.135  20.007  27.773  1.00  0.00    -0.237 OA
ATOM     78  O   UNL A   1      40.187  20.588  26.379  1.00  0.00    -0.237 OA
ATOM     79  O   UNL A   1      42.212  19.689  25.325  1.00  0.00    -0.744 OA
ENDBRANCH  73  76
ENDBRANCH  45  69
BRANCH  57  80
ATOM     80  C   UNL A   1      46.624  25.402  32.920  1.00  0.00     0.023 A 
ATOM     81  C   UNL A   1      47.902  25.828  32.507  1.00  0.00     0.012 A 
ATOM     82  C   UNL A   1      46.515  24.378  33.882  1.00  0.00     0.148 A 
ATOM     83  C   UNL A   1      49.051  25.218  33.010  1.00  0.00     0.002 A 
ATOM     84  C   UNL A   1      47.664  23.811  34.419  1.00  0.00     0.091 A 
ATOM     85  F   UNL A   1      45.290  23.974  34.251  1.00  0.00    -0.205 F 
ATOM     86  C   UNL A   1      48.932  24.219  33.973  1.00  0.00     0.022 A 
BRANCH  84  87
ATOM     87  S   UNL A   1      47.611  22.588  35.734  1.00  0.00     0.127 S 
ATOM     88  O   UNL A   1      46.689  21.598  35.181  1.00  0.00    -0.237 OA
ATOM     89  O   UNL A   1      49.004  22.151  35.809  1.00  0.00    -0.237 OA
ATOM     90  O   UNL A   1      47.135  23.294  36.917  1.00  0.00    -0.744 OA
ENDBRANCH  84  87
ENDBRANCH  57  80
ENDBRANCH  31  32
ENDBRANCH  23  26
ENDBRANCH  21  22
ENDBRANCH  20  21
ENDBRANCH  19  20
ENDBRANCH   3  19
TORSDOF 19
ENDMDL
