MODEL 1
REMARK VINA RESULT:     -11.5      0.000      0.000
REMARK SMILES COc1ccc(C(=O)N[C@@H](C(=O)NCCCNC(=O)c2ccc(-c3c4nc(c(-c5cccc(S(=O)(=O)[O-])c5F)c5ccc([nH]5)c(-c5cccc(S(=O)(=O)[O-])c5F)c5nc(c(-c6cccc(S(=O)(=O)[O-])c6F)c6ccc3[nH]6)C=C5)C=C4)cc2)C(C)C)cc1O
REMARK SMILES IDX 15 1 14 2 13 3 11 4 12 5 10 7 9 8 7 9 8 10 6 12 3 13 4 14
REMARK SMILES IDX 87 15 5 16 86 17 2 18 1 19 88 20 83 22 84 23 85 24 16 25
REMARK SMILES IDX 17 26 18 27 19 29 20 30 21 31 82 32 22 33 81 34 23 35 24 36
REMARK SMILES IDX 25 37 75 38 26 39 80 40 74 41 76 42 27 43 79 44 73 45 72 46
REMARK SMILES IDX 28 48 60 49 40 50 59 51 41 52 44 53 58 54 77 55 42 56 43 57
REMARK SMILES IDX 57 59 78 60 45 61 29 62 30 63 38 64 31 65 33 66 39 67 32 68
REMARK SMILES IDX 34 69 35 70 36 71 37 72 61 73 62 74 70 75 63 76 65 77 71 78
REMARK SMILES IDX 64 79 66 80 67 81 68 82 69 83 46 84 47 85 55 86 48 87 50 88
REMARK SMILES IDX 56 89 49 90 51 91 52 92 53 93 54 94
REMARK H PARENT 13 6 9 11 88 21 17 28 76 47 44 58
REMARK Flexibility Score: inf
ROOT
ATOM      1  C   UNL A   1      32.037  28.017  26.060  1.00  0.00     0.042 C 
ENDROOT
BRANCH   1   2
ATOM      2  C   UNL A   1      32.680  26.640  25.986  1.00  0.00     0.117 C 
BRANCH   2   3
ATOM      3  N   UNL A   1      31.914  25.652  26.724  1.00  0.00    -0.354 N 
ATOM      4  C   UNL A   1      32.058  24.291  26.741  1.00  0.00     0.242 C 
ATOM      5  O   UNL A   1      31.266  23.636  27.418  1.00  0.00    -0.273 OA
ATOM      6  H   UNL A   1      31.190  26.010  27.287  1.00  0.00     0.163 HD
BRANCH   4   7
ATOM      7  C   UNL A   1      33.245  23.655  25.975  1.00  0.00     0.174 C 
BRANCH   7   8
ATOM      8  N   UNL A   1      32.740  22.791  24.906  1.00  0.00    -0.340 N 
ATOM      9  C   UNL A   1      32.215  23.024  23.661  1.00  0.00     0.252 C 
ATOM     10  O   UNL A   1      31.959  22.039  22.969  1.00  0.00    -0.269 OA
ATOM     11  H   UNL A   1      32.785  21.833  25.130  1.00  0.00     0.164 HD
BRANCH   9  12
ATOM     12  C   UNL A   1      31.881  24.374  23.116  1.00  0.00     0.043 A 
ATOM     13  C   UNL A   1      31.097  26.975  22.266  1.00  0.00     0.160 A 
ATOM     14  C   UNL A   1      30.231  26.164  23.005  1.00  0.00     0.051 A 
ATOM     15  C   UNL A   1      32.344  26.451  21.929  1.00  0.00     0.158 A 
ATOM     16  C   UNL A   1      30.615  24.888  23.432  1.00  0.00     0.018 A 
ATOM     17  C   UNL A   1      32.714  25.157  22.320  1.00  0.00     0.064 A 
BRANCH  13  18
ATOM     18  O   UNL A   1      30.560  28.194  21.970  1.00  0.00    -0.493 OA
ATOM     19  C   UNL A   1      30.348  29.143  22.999  1.00  0.00     0.278 C 
ENDBRANCH  13  18
BRANCH  15  20
ATOM     20  O   UNL A   1      33.298  27.112  21.208  1.00  0.00    -0.504 OA
ATOM     21  H   UNL A   1      33.142  27.988  20.916  1.00  0.00     0.293 HD
ENDBRANCH  15  20
ENDBRANCH   9  12
ENDBRANCH   7   8
BRANCH   7  22
ATOM     22  C   UNL A   1      34.182  22.864  26.931  1.00  0.00     0.015 C 
ATOM     23  C   UNL A   1      33.789  21.391  27.113  1.00  0.00     0.010 C 
ATOM     24  C   UNL A   1      35.627  22.933  26.427  1.00  0.00     0.010 C 
ENDBRANCH   7  22
ENDBRANCH   4   7
ENDBRANCH   2   3
ENDBRANCH   1   2
BRANCH   1  25
ATOM     25  C   UNL A   1      33.022  29.139  25.762  1.00  0.00     0.118 C 
BRANCH  25  26
ATOM     26  N   UNL A   1      32.496  30.452  26.123  1.00  0.00    -0.352 N 
ATOM     27  C   UNL A   1      33.019  31.372  27.003  1.00  0.00     0.251 C 
ATOM     28  H   UNL A   1      31.657  30.713  25.680  1.00  0.00     0.163 HD
ATOM     29  O   UNL A   1      32.380  32.366  27.311  1.00  0.00    -0.269 OA
BRANCH  27  30
ATOM     30  C   UNL A   1      34.354  31.122  27.586  1.00  0.00     0.039 A 
ATOM     31  C   UNL A   1      35.259  32.183  27.695  1.00  0.00     0.014 A 
ATOM     32  C   UNL A   1      34.688  29.850  28.053  1.00  0.00     0.014 A 
ATOM     33  C   UNL A   1      36.483  31.979  28.335  1.00  0.00     0.010 A 
ATOM     34  C   UNL A   1      35.875  29.668  28.750  1.00  0.00     0.010 A 
ATOM     35  C   UNL A   1      36.786  30.728  28.892  1.00  0.00    -0.014 A 
BRANCH  35  36
ATOM     36  C   UNL A   1      38.049  30.471  29.626  1.00  0.00     0.031 A 
ATOM     37  C   UNL A   1      39.058  29.524  29.040  1.00  0.00     0.074 A 
ATOM     38  C   UNL A   1      38.217  30.965  30.868  1.00  0.00     0.049 A 
ATOM     39  N   UNL A   1      40.123  29.005  29.592  1.00  0.00    -0.248 NA
ATOM     40  C   UNL A   1      38.810  29.065  27.662  1.00  0.00     0.031 C 
ATOM     41  C   UNL A   1      37.273  31.837  31.568  1.00  0.00     0.029 A 
ATOM     42  N   UNL A   1      39.221  30.760  31.781  1.00  0.00    -0.354 N 
ATOM     43  C   UNL A   1      40.634  28.113  28.657  1.00  0.00     0.074 A 
ATOM     44  C   UNL A   1      39.753  28.148  27.510  1.00  0.00     0.031 C 
ATOM     45  C   UNL A   1      37.734  32.079  32.805  1.00  0.00     0.029 A 
ATOM     46  C   UNL A   1      38.984  31.352  33.000  1.00  0.00     0.049 A 
ATOM     47  H   UNL A   1      40.033  30.239  31.583  1.00  0.00     0.167 HD
ATOM     48  C   UNL A   1      41.749  27.350  28.737  1.00  0.00     0.034 A 
ATOM     49  C   UNL A   1      39.686  31.297  34.150  1.00  0.00     0.034 A 
ATOM     50  C   UNL A   1      42.655  27.375  29.853  1.00  0.00     0.049 A 
ATOM     51  C   UNL A   1      40.962  30.502  34.189  1.00  0.00     0.074 A 
ATOM     52  C   UNL A   1      43.865  26.721  29.992  1.00  0.00     0.029 A 
ATOM     53  N   UNL A   1      42.450  28.096  31.018  1.00  0.00    -0.354 N 
ATOM     54  N   UNL A   1      41.509  29.776  33.244  1.00  0.00    -0.248 NA
ATOM     55  C   UNL A   1      41.737  30.544  35.438  1.00  0.00     0.031 C 
ATOM     56  C   UNL A   1      44.390  27.042  31.248  1.00  0.00     0.029 A 
ATOM     57  C   UNL A   1      43.513  27.908  31.882  1.00  0.00     0.049 A 
ATOM     58  H   UNL A   1      41.664  28.659  31.204  1.00  0.00     0.167 HD
ATOM     59  C   UNL A   1      42.710  29.310  33.766  1.00  0.00     0.074 A 
ATOM     60  C   UNL A   1      42.814  29.841  35.110  1.00  0.00     0.031 C 
ATOM     61  C   UNL A   1      43.635  28.505  33.188  1.00  0.00     0.034 A 
BRANCH  48  62
ATOM     62  C   UNL A   1      42.076  26.466  27.563  1.00  0.00     0.023 A 
ATOM     63  C   UNL A   1      42.764  27.006  26.457  1.00  0.00     0.012 A 
ATOM     64  C   UNL A   1      41.737  25.099  27.565  1.00  0.00     0.148 A 
ATOM     65  C   UNL A   1      43.073  26.212  25.354  1.00  0.00     0.002 A 
ATOM     66  C   UNL A   1      42.089  24.303  26.481  1.00  0.00     0.091 A 
ATOM     67  F   UNL A   1      41.060  24.607  28.612  1.00  0.00    -0.205 F 
ATOM     68  C   UNL A   1      42.744  24.860  25.371  1.00  0.00     0.022 A 
BRANCH  66  69
ATOM     69  S   UNL A   1      41.778  22.534  26.450  1.00  0.00     0.127 S 
ATOM     70  O   UNL A   1      40.317  22.490  26.431  1.00  0.00    -0.237 OA
ATOM     71  O   UNL A   1      42.415  22.126  25.198  1.00  0.00    -0.237 OA
ATOM     72  O   UNL A   1      42.411  22.000  27.649  1.00  0.00    -0.744 OA
ENDBRANCH  66  69
ENDBRANCH  48  62
BRANCH  49  73
ATOM     73  C   UNL A   1      39.227  32.082  35.330  1.00  0.00     0.023 A 
ATOM     74  C   UNL A   1      38.346  31.482  36.250  1.00  0.00     0.012 A 
ATOM     75  C   UNL A   1      39.698  33.385  35.578  1.00  0.00     0.148 A 
ATOM     76  C   UNL A   1      37.923  32.173  37.386  1.00  0.00     0.002 A 
ATOM     77  C   UNL A   1      39.311  34.050  36.737  1.00  0.00     0.091 A 
ATOM     78  F   UNL A   1      40.530  33.940  34.686  1.00  0.00    -0.205 F 
ATOM     79  C   UNL A   1      38.413  33.452  37.635  1.00  0.00     0.022 A 
BRANCH  77  80
ATOM     80  S   UNL A   1      39.986  35.648  37.207  1.00  0.00     0.127 S 
ATOM     81  O   UNL A   1      39.598  36.482  36.072  1.00  0.00    -0.237 OA
ATOM     82  O   UNL A   1      39.262  35.925  38.450  1.00  0.00    -0.237 OA
ATOM     83  O   UNL A   1      41.416  35.437  37.376  1.00  0.00    -0.744 OA
ENDBRANCH  77  80
ENDBRANCH  49  73
BRANCH  61  84
ATOM     84  C   UNL A   1      44.880  28.184  33.971  1.00  0.00     0.023 A 
ATOM     85  C   UNL A   1      45.997  29.036  33.888  1.00  0.00     0.012 A 
ATOM     86  C   UNL A   1      44.891  27.107  34.879  1.00  0.00     0.148 A 
ATOM     87  C   UNL A   1      47.116  28.812  34.689  1.00  0.00     0.002 A 
ATOM     88  C   UNL A   1      45.992  26.916  35.705  1.00  0.00     0.091 A 
ATOM     89  F   UNL A   1      43.822  26.299  34.926  1.00  0.00    -0.205 F 
ATOM     90  C   UNL A   1      47.108  27.762  35.606  1.00  0.00     0.022 A 
BRANCH  88  91
ATOM     91  S   UNL A   1      46.028  25.654  36.983  1.00  0.00     0.127 S 
ATOM     92  O   UNL A   1      45.141  26.228  37.994  1.00  0.00    -0.237 OA
ATOM     93  O   UNL A   1      45.483  24.489  36.286  1.00  0.00    -0.237 OA
ATOM     94  O   UNL A   1      47.424  25.522  37.379  1.00  0.00    -0.744 OA
ENDBRANCH  88  91
ENDBRANCH  61  84
ENDBRANCH  35  36
ENDBRANCH  27  30
ENDBRANCH  25  26
ENDBRANCH   1  25
TORSDOF 18
ENDMDL
MODEL 2
REMARK VINA RESULT:     -11.4      5.967      9.075
REMARK SMILES COc1ccc(C(=O)N[C@@H](C(=O)NCCCNC(=O)c2ccc(-c3c4nc(c(-c5cccc(S(=O)(=O)[O-])c5F)c5ccc([nH]5)c(-c5cccc(S(=O)(=O)[O-])c5F)c5nc(c(-c6cccc(S(=O)(=O)[O-])c6F)c6ccc3[nH]6)C=C5)C=C4)cc2)C(C)C)cc1O
REMARK SMILES IDX 15 1 14 2 13 3 11 4 12 5 10 7 9 8 7 9 8 10 6 12 3 13 4 14
REMARK SMILES IDX 87 15 5 16 86 17 2 18 1 19 88 20 83 22 84 23 85 24 16 25
REMARK SMILES IDX 17 26 18 27 19 29 20 30 21 31 82 32 22 33 81 34 23 35 24 36
REMARK SMILES IDX 25 37 75 38 26 39 80 40 74 41 76 42 27 43 79 44 73 45 72 46
REMARK SMILES IDX 28 48 60 49 40 50 59 51 41 52 44 53 58 54 77 55 42 56 43 57
REMARK SMILES IDX 57 59 78 60 45 61 29 62 30 63 38 64 31 65 33 66 39 67 32 68
REMARK SMILES IDX 34 69 35 70 36 71 37 72 61 73 62 74 70 75 63 76 65 77 71 78
REMARK SMILES IDX 64 79 66 80 67 81 68 82 69 83 46 84 47 85 55 86 48 87 50 88
REMARK SMILES IDX 56 89 49 90 51 91 52 92 53 93 54 94
REMARK H PARENT 13 6 9 11 88 21 17 28 76 47 44 58
REMARK Flexibility Score: inf
ROOT
ATOM      1  C   UNL A   1      38.490  19.931  25.016  1.00  0.00     0.042 C 
ENDROOT
BRANCH   1   2
ATOM      2  C   UNL A   1      37.283  20.844  25.185  1.00  0.00     0.117 C 
BRANCH   2   3
ATOM      3  N   UNL A   1      37.185  21.806  24.103  1.00  0.00    -0.354 N 
ATOM      4  C   UNL A   1      36.146  22.638  23.785  1.00  0.00     0.242 C 
ATOM      5  O   UNL A   1      36.265  23.356  22.792  1.00  0.00    -0.273 OA
ATOM      6  H   UNL A   1      37.974  21.867  23.517  1.00  0.00     0.163 HD
BRANCH   4   7
ATOM      7  C   UNL A   1      34.914  22.689  24.724  1.00  0.00     0.174 C 
BRANCH   7   8
ATOM      8  N   UNL A   1      33.698  22.896  23.935  1.00  0.00    -0.340 N 
ATOM      9  C   UNL A   1      32.659  22.086  23.556  1.00  0.00     0.252 C 
ATOM     10  O   UNL A   1      31.731  22.616  22.946  1.00  0.00    -0.269 OA
ATOM     11  H   UNL A   1      33.606  23.819  23.603  1.00  0.00     0.164 HD
BRANCH   9  12
ATOM     12  C   UNL A   1      32.605  20.610  23.777  1.00  0.00     0.043 A 
ATOM     13  C   UNL A   1      32.442  17.844  24.428  1.00  0.00     0.160 A 
ATOM     14  C   UNL A   1      32.794  18.793  25.391  1.00  0.00     0.051 A 
ATOM     15  C   UNL A   1      32.208  18.294  23.129  1.00  0.00     0.158 A 
ATOM     16  C   UNL A   1      32.867  20.155  25.078  1.00  0.00     0.018 A 
ATOM     17  C   UNL A   1      32.323  19.653  22.805  1.00  0.00     0.064 A 
BRANCH  13  18
ATOM     18  O   UNL A   1      32.390  16.575  24.927  1.00  0.00    -0.493 OA
ATOM     19  C   UNL A   1      33.533  16.008  25.542  1.00  0.00     0.278 C 
ENDBRANCH  13  18
BRANCH  15  20
ATOM     20  O   UNL A   1      31.863  17.495  22.077  1.00  0.00    -0.504 OA
ATOM     21  H   UNL A   1      32.356  17.529  21.281  1.00  0.00     0.293 HD
ENDBRANCH  15  20
ENDBRANCH   9  12
ENDBRANCH   7   8
BRANCH   7  22
ATOM     22  C   UNL A   1      35.069  23.794  25.806  1.00  0.00     0.015 C 
ATOM     23  C   UNL A   1      34.437  25.139  25.420  1.00  0.00     0.010 C 
ATOM     24  C   UNL A   1      34.458  23.322  27.130  1.00  0.00     0.010 C 
ENDBRANCH   7  22
ENDBRANCH   4   7
ENDBRANCH   2   3
ENDBRANCH   1   2
BRANCH   1  25
ATOM     25  C   UNL A   1      39.597  20.237  26.015  1.00  0.00     0.118 C 
BRANCH  25  26
ATOM     26  N   UNL A   1      40.647  19.222  26.008  1.00  0.00    -0.352 N 
ATOM     27  C   UNL A   1      42.012  19.401  26.011  1.00  0.00     0.251 C 
ATOM     28  H   UNL A   1      40.338  18.288  26.000  1.00  0.00     0.163 HD
ATOM     29  O   UNL A   1      42.761  18.449  25.854  1.00  0.00    -0.269 OA
BRANCH  27  30
ATOM     30  C   UNL A   1      42.552  20.765  26.183  1.00  0.00     0.039 A 
ATOM     31  C   UNL A   1      42.857  21.525  25.050  1.00  0.00     0.014 A 
ATOM     32  C   UNL A   1      42.720  21.296  27.463  1.00  0.00     0.014 A 
ATOM     33  C   UNL A   1      43.273  22.850  25.202  1.00  0.00     0.010 A 
ATOM     34  C   UNL A   1      43.066  22.633  27.609  1.00  0.00     0.010 A 
ATOM     35  C   UNL A   1      43.351  23.420  26.481  1.00  0.00    -0.014 A 
BRANCH  35  36
ATOM     36  C   UNL A   1      43.738  24.835  26.696  1.00  0.00     0.031 A 
ATOM     37  C   UNL A   1      45.172  25.241  26.503  1.00  0.00     0.074 A 
ATOM     38  C   UNL A   1      42.844  25.707  27.200  1.00  0.00     0.049 A 
ATOM     39  N   UNL A   1      45.765  26.360  26.823  1.00  0.00    -0.248 NA
ATOM     40  C   UNL A   1      46.069  24.233  25.911  1.00  0.00     0.031 C 
ATOM     41  C   UNL A   1      41.443  25.409  27.495  1.00  0.00     0.029 A 
ATOM     42  N   UNL A   1      42.999  27.011  27.603  1.00  0.00    -0.354 N 
ATOM     43  C   UNL A   1      47.111  26.170  26.533  1.00  0.00     0.074 A 
ATOM     44  C   UNL A   1      47.250  24.821  26.027  1.00  0.00     0.031 C 
ATOM     45  C   UNL A   1      40.869  26.490  28.047  1.00  0.00     0.029 A 
ATOM     46  C   UNL A   1      41.869  27.545  28.178  1.00  0.00     0.049 A 
ATOM     47  H   UNL A   1      43.838  27.515  27.491  1.00  0.00     0.167 HD
ATOM     48  C   UNL A   1      48.135  27.046  26.656  1.00  0.00     0.034 A 
ATOM     49  C   UNL A   1      41.669  28.743  28.763  1.00  0.00     0.034 A 
ATOM     50  C   UNL A   1      47.975  28.406  27.094  1.00  0.00     0.049 A 
ATOM     51  C   UNL A   1      42.805  29.728  28.818  1.00  0.00     0.074 A 
ATOM     52  C   UNL A   1      48.927  29.407  27.155  1.00  0.00     0.029 A 
ATOM     53  N   UNL A   1      46.783  28.955  27.540  1.00  0.00    -0.354 N 
ATOM     54  N   UNL A   1      44.041  29.582  28.406  1.00  0.00    -0.248 NA
ATOM     55  C   UNL A   1      42.515  31.052  29.387  1.00  0.00     0.031 C 
ATOM     56  C   UNL A   1      48.310  30.562  27.648  1.00  0.00     0.029 A 
ATOM     57  C   UNL A   1      46.972  30.282  27.876  1.00  0.00     0.049 A 
ATOM     58  H   UNL A   1      45.928  28.471  27.608  1.00  0.00     0.167 HD
ATOM     59  C   UNL A   1      44.664  30.806  28.623  1.00  0.00     0.074 A 
ATOM     60  C   UNL A   1      43.667  31.684  29.200  1.00  0.00     0.031 C 
ATOM     61  C   UNL A   1      45.948  31.163  28.379  1.00  0.00     0.034 A 
BRANCH  48  62
ATOM     62  C   UNL A   1      49.509  26.574  26.259  1.00  0.00     0.023 A 
ATOM     63  C   UNL A   1      50.204  25.676  27.094  1.00  0.00     0.012 A 
ATOM     64  C   UNL A   1      50.098  26.989  25.048  1.00  0.00     0.148 A 
ATOM     65  C   UNL A   1      51.480  25.230  26.753  1.00  0.00     0.002 A 
ATOM     66  C   UNL A   1      51.351  26.504  24.694  1.00  0.00     0.091 A 
ATOM     67  F   UNL A   1      49.436  27.865  24.279  1.00  0.00    -0.205 F 
ATOM     68  C   UNL A   1      52.048  25.636  25.550  1.00  0.00     0.022 A 
BRANCH  66  69
ATOM     69  S   UNL A   1      52.128  26.910  23.125  1.00  0.00     0.127 S 
ATOM     70  O   UNL A   1      52.553  28.290  23.353  1.00  0.00    -0.237 OA
ATOM     71  O   UNL A   1      53.221  25.940  23.056  1.00  0.00    -0.237 OA
ATOM     72  O   UNL A   1      51.095  26.725  22.114  1.00  0.00    -0.744 OA
ENDBRANCH  66  69
ENDBRANCH  48  62
BRANCH  49  73
ATOM     73  C   UNL A   1      40.315  29.097  29.273  1.00  0.00     0.023 A 
ATOM     74  C   UNL A   1      39.354  29.597  28.374  1.00  0.00     0.012 A 
ATOM     75  C   UNL A   1      39.955  28.887  30.619  1.00  0.00     0.148 A 
ATOM     76  C   UNL A   1      38.064  29.905  28.808  1.00  0.00     0.002 A 
ATOM     77  C   UNL A   1      38.654  29.149  31.035  1.00  0.00     0.091 A 
ATOM     78  F   UNL A   1      40.887  28.416  31.459  1.00  0.00    -0.205 F 
ATOM     79  C   UNL A   1      37.711  29.672  30.135  1.00  0.00     0.022 A 
BRANCH  77  80
ATOM     80  S   UNL A   1      38.070  28.765  32.690  1.00  0.00     0.127 S 
ATOM     81  O   UNL A   1      38.963  29.574  33.517  1.00  0.00    -0.237 OA
ATOM     82  O   UNL A   1      36.685  29.235  32.636  1.00  0.00    -0.237 OA
ATOM     83  O   UNL A   1      38.212  27.323  32.831  1.00  0.00    -0.744 OA
ENDBRANCH  77  80
ENDBRANCH  49  73
BRANCH  61  84
ATOM     84  C   UNL A   1      46.355  32.582  28.675  1.00  0.00     0.023 A 
ATOM     85  C   UNL A   1      46.804  32.927  29.964  1.00  0.00     0.012 A 
ATOM     86  C   UNL A   1      46.406  33.538  27.641  1.00  0.00     0.148 A 
ATOM     87  C   UNL A   1      47.285  34.210  30.223  1.00  0.00     0.002 A 
ATOM     88  C   UNL A   1      46.928  34.800  27.895  1.00  0.00     0.091 A 
ATOM     89  F   UNL A   1      45.955  33.190  26.427  1.00  0.00    -0.205 F 
ATOM     90  C   UNL A   1      47.361  35.140  29.188  1.00  0.00     0.022 A 
BRANCH  88  91
ATOM     91  S   UNL A   1      47.156  36.026  26.603  1.00  0.00     0.127 S 
ATOM     92  O   UNL A   1      45.782  36.470  26.369  1.00  0.00    -0.237 OA
ATOM     93  O   UNL A   1      48.012  37.014  27.258  1.00  0.00    -0.237 OA
ATOM     94  O   UNL A   1      47.783  35.326  25.490  1.00  0.00    -0.744 OA
ENDBRANCH  88  91
ENDBRANCH  61  84
ENDBRANCH  35  36
ENDBRANCH  27  30
ENDBRANCH  25  26
ENDBRANCH   1  25
TORSDOF 18
ENDMDL
MODEL 3
REMARK VINA RESULT:     -11.4      5.659     10.450
REMARK SMILES COc1ccc(C(=O)N[C@@H](C(=O)NCCCNC(=O)c2ccc(-c3c4nc(c(-c5cccc(S(=O)(=O)[O-])c5F)c5ccc([nH]5)c(-c5cccc(S(=O)(=O)[O-])c5F)c5nc(c(-c6cccc(S(=O)(=O)[O-])c6F)c6ccc3[nH]6)C=C5)C=C4)cc2)C(C)C)cc1O
REMARK SMILES IDX 15 1 14 2 13 3 11 4 12 5 10 7 9 8 7 9 8 10 6 12 3 13 4 14
REMARK SMILES IDX 87 15 5 16 86 17 2 18 1 19 88 20 83 22 84 23 85 24 16 25
REMARK SMILES IDX 17 26 18 27 19 29 20 30 21 31 82 32 22 33 81 34 23 35 24 36
REMARK SMILES IDX 25 37 75 38 26 39 80 40 74 41 76 42 27 43 79 44 73 45 72 46
REMARK SMILES IDX 28 48 60 49 40 50 59 51 41 52 44 53 58 54 77 55 42 56 43 57
REMARK SMILES IDX 57 59 78 60 45 61 29 62 30 63 38 64 31 65 33 66 39 67 32 68
REMARK SMILES IDX 34 69 35 70 36 71 37 72 61 73 62 74 70 75 63 76 65 77 71 78
REMARK SMILES IDX 64 79 66 80 67 81 68 82 69 83 46 84 47 85 55 86 48 87 50 88
REMARK SMILES IDX 56 89 49 90 51 91 52 92 53 93 54 94
REMARK H PARENT 13 6 9 11 88 21 17 28 76 47 44 58
REMARK Flexibility Score: inf
ROOT
ATOM      1  C   UNL A   1      37.367  20.847  24.669  1.00  0.00     0.042 C 
ENDROOT
BRANCH   1   2
ATOM      2  C   UNL A   1      36.076  21.597  24.969  1.00  0.00     0.117 C 
BRANCH   2   3
ATOM      3  N   UNL A   1      35.892  22.723  24.073  1.00  0.00    -0.354 N 
ATOM      4  C   UNL A   1      34.730  23.226  23.553  1.00  0.00     0.242 C 
ATOM      5  O   UNL A   1      34.809  24.177  22.776  1.00  0.00    -0.273 OA
ATOM      6  H   UNL A   1      36.716  23.187  23.800  1.00  0.00     0.163 HD
BRANCH   4   7
ATOM      7  C   UNL A   1      33.380  22.628  24.024  1.00  0.00     0.174 C 
BRANCH   7   8
ATOM      8  N   UNL A   1      32.683  22.021  22.887  1.00  0.00    -0.340 N 
ATOM      9  C   UNL A   1      32.224  20.758  22.616  1.00  0.00     0.252 C 
ATOM     10  O   UNL A   1      31.593  20.606  21.570  1.00  0.00    -0.269 OA
ATOM     11  H   UNL A   1      32.508  22.658  22.157  1.00  0.00     0.164 HD
BRANCH   9  12
ATOM     12  C   UNL A   1      32.484  19.555  23.462  1.00  0.00     0.043 A 
ATOM     13  C   UNL A   1      33.113  17.178  24.895  1.00  0.00     0.160 A 
ATOM     14  C   UNL A   1      33.051  17.186  23.498  1.00  0.00     0.051 A 
ATOM     15  C   UNL A   1      32.822  18.367  25.563  1.00  0.00     0.158 A 
ATOM     16  C   UNL A   1      32.750  18.354  22.790  1.00  0.00     0.018 A 
ATOM     17  C   UNL A   1      32.478  19.527  24.855  1.00  0.00     0.064 A 
BRANCH  13  18
ATOM     18  O   UNL A   1      33.454  15.959  25.405  1.00  0.00    -0.493 OA
ATOM     19  C   UNL A   1      32.500  14.913  25.437  1.00  0.00     0.278 C 
ENDBRANCH  13  18
BRANCH  15  20
ATOM     20  O   UNL A   1      32.833  18.522  26.920  1.00  0.00    -0.504 OA
ATOM     21  H   UNL A   1      32.118  18.951  27.348  1.00  0.00     0.293 HD
ENDBRANCH  15  20
ENDBRANCH   9  12
ENDBRANCH   7   8
BRANCH   7  22
ATOM     22  C   UNL A   1      32.490  23.701  24.711  1.00  0.00     0.015 C 
ATOM     23  C   UNL A   1      31.215  23.138  25.352  1.00  0.00     0.010 C 
ATOM     24  C   UNL A   1      33.297  24.444  25.782  1.00  0.00     0.010 C 
ENDBRANCH   7  22
ENDBRANCH   4   7
ENDBRANCH   2   3
ENDBRANCH   1   2
BRANCH   1  25
ATOM     25  C   UNL A   1      38.425  21.052  25.743  1.00  0.00     0.118 C 
BRANCH  25  26
ATOM     26  N   UNL A   1      39.324  19.908  25.864  1.00  0.00    -0.352 N 
ATOM     27  C   UNL A   1      40.673  19.903  26.135  1.00  0.00     0.251 C 
ATOM     28  H   UNL A   1      38.911  19.024  25.734  1.00  0.00     0.163 HD
ATOM     29  O   UNL A   1      41.317  18.867  26.056  1.00  0.00    -0.269 OA
BRANCH  27  30
ATOM     30  C   UNL A   1      41.333  21.174  26.497  1.00  0.00     0.039 A 
ATOM     31  C   UNL A   1      41.850  21.987  25.484  1.00  0.00     0.014 A 
ATOM     32  C   UNL A   1      41.404  21.571  27.833  1.00  0.00     0.014 A 
ATOM     33  C   UNL A   1      42.385  23.235  25.809  1.00  0.00     0.010 A 
ATOM     34  C   UNL A   1      41.871  22.840  28.146  1.00  0.00     0.010 A 
ATOM     35  C   UNL A   1      42.371  23.682  27.139  1.00  0.00    -0.014 A 
BRANCH  35  36
ATOM     36  C   UNL A   1      42.880  25.018  27.532  1.00  0.00     0.031 A 
ATOM     37  C   UNL A   1      41.941  26.003  28.169  1.00  0.00     0.074 A 
ATOM     38  C   UNL A   1      44.127  25.391  27.184  1.00  0.00     0.049 A 
ATOM     39  N   UNL A   1      42.113  27.275  28.407  1.00  0.00    -0.248 NA
ATOM     40  C   UNL A   1      40.611  25.494  28.549  1.00  0.00     0.031 C 
ATOM     41  C   UNL A   1      45.105  24.545  26.499  1.00  0.00     0.029 A 
ATOM     42  N   UNL A   1      44.766  26.600  27.316  1.00  0.00    -0.354 N 
ATOM     43  C   UNL A   1      40.899  27.733  28.902  1.00  0.00     0.074 A 
ATOM     44  C   UNL A   1      39.992  26.607  28.914  1.00  0.00     0.031 C 
ATOM     45  C   UNL A   1      46.213  25.263  26.255  1.00  0.00     0.029 A 
ATOM     46  C   UNL A   1      46.011  26.628  26.732  1.00  0.00     0.049 A 
ATOM     47  H   UNL A   1      44.371  27.371  27.782  1.00  0.00     0.167 HD
ATOM     48  C   UNL A   1      40.574  28.976  29.329  1.00  0.00     0.034 A 
ATOM     49  C   UNL A   1      46.883  27.645  26.581  1.00  0.00     0.034 A 
ATOM     50  C   UNL A   1      41.502  30.072  29.378  1.00  0.00     0.049 A 
ATOM     51  C   UNL A   1      46.528  28.999  27.133  1.00  0.00     0.074 A 
ATOM     52  C   UNL A   1      41.307  31.342  29.889  1.00  0.00     0.029 A 
ATOM     53  N   UNL A   1      42.803  30.024  28.903  1.00  0.00    -0.354 N 
ATOM     54  N   UNL A   1      45.425  29.381  27.731  1.00  0.00    -0.248 NA
ATOM     55  C   UNL A   1      47.546  30.054  27.022  1.00  0.00     0.031 C 
ATOM     56  C   UNL A   1      42.492  32.067  29.715  1.00  0.00     0.029 A 
ATOM     57  C   UNL A   1      43.427  31.241  29.111  1.00  0.00     0.049 A 
ATOM     58  H   UNL A   1      43.223  29.240  28.480  1.00  0.00     0.167 HD
ATOM     59  C   UNL A   1      45.631  30.703  28.106  1.00  0.00     0.074 A 
ATOM     60  C   UNL A   1      46.967  31.056  27.672  1.00  0.00     0.031 C 
ATOM     61  C   UNL A   1      44.784  31.550  28.739  1.00  0.00     0.034 A 
BRANCH  48  62
ATOM     62  C   UNL A   1      39.170  29.199  29.828  1.00  0.00     0.023 A 
ATOM     63  C   UNL A   1      38.861  28.931  31.177  1.00  0.00     0.012 A 
ATOM     64  C   UNL A   1      38.168  29.704  28.976  1.00  0.00     0.148 A 
ATOM     65  C   UNL A   1      37.568  29.121  31.662  1.00  0.00     0.002 A 
ATOM     66  C   UNL A   1      36.893  29.934  29.479  1.00  0.00     0.091 A 
ATOM     67  F   UNL A   1      38.471  29.928  27.690  1.00  0.00    -0.205 F 
ATOM     68  C   UNL A   1      36.588  29.631  30.816  1.00  0.00     0.022 A 
BRANCH  66  69
ATOM     69  S   UNL A   1      35.587  30.664  28.483  1.00  0.00     0.127 S 
ATOM     70  O   UNL A   1      34.757  31.301  29.505  1.00  0.00    -0.237 OA
ATOM     71  O   UNL A   1      36.327  31.597  27.632  1.00  0.00    -0.237 OA
ATOM     72  O   UNL A   1      34.970  29.556  27.767  1.00  0.00    -0.744 OA
ENDBRANCH  66  69
ENDBRANCH  48  62
BRANCH  49  73
ATOM     73  C   UNL A   1      48.205  27.393  25.943  1.00  0.00     0.023 A 
ATOM     74  C   UNL A   1      49.273  26.934  26.737  1.00  0.00     0.012 A 
ATOM     75  C   UNL A   1      48.396  27.547  24.556  1.00  0.00     0.148 A 
ATOM     76  C   UNL A   1      50.515  26.653  26.168  1.00  0.00     0.002 A 
ATOM     77  C   UNL A   1      49.622  27.219  23.987  1.00  0.00     0.091 A 
ATOM     78  F   UNL A   1      47.369  27.993  23.819  1.00  0.00    -0.205 F 
ATOM     79  C   UNL A   1      50.687  26.785  24.792  1.00  0.00     0.022 A 
BRANCH  77  80
ATOM     80  S   UNL A   1      49.902  27.237  22.212  1.00  0.00     0.127 S 
ATOM     81  O   UNL A   1      48.874  26.313  21.738  1.00  0.00    -0.237 OA
ATOM     82  O   UNL A   1      49.663  28.644  21.885  1.00  0.00    -0.237 OA
ATOM     83  O   UNL A   1      51.278  26.800  22.027  1.00  0.00    -0.744 OA
ENDBRANCH  77  80
ENDBRANCH  49  73
BRANCH  61  84
ATOM     84  C   UNL A   1      45.281  32.934  29.065  1.00  0.00     0.023 A 
ATOM     85  C   UNL A   1      45.956  33.166  30.278  1.00  0.00     0.012 A 
ATOM     86  C   UNL A   1      45.185  33.967  28.112  1.00  0.00     0.148 A 
ATOM     87  C   UNL A   1      46.516  34.416  30.545  1.00  0.00     0.002 A 
ATOM     88  C   UNL A   1      45.784  35.195  28.366  1.00  0.00     0.091 A 
ATOM     89  F   UNL A   1      44.522  33.726  26.972  1.00  0.00    -0.205 F 
ATOM     90  C   UNL A   1      46.443  35.423  29.586  1.00  0.00     0.022 A 
BRANCH  88  91
ATOM     91  S   UNL A   1      45.826  36.515  27.149  1.00  0.00     0.127 S 
ATOM     92  O   UNL A   1      44.409  36.855  27.029  1.00  0.00    -0.237 OA
ATOM     93  O   UNL A   1      46.641  37.529  27.818  1.00  0.00    -0.237 OA
ATOM     94  O   UNL A   1      46.434  35.943  25.955  1.00  0.00    -0.744 OA
ENDBRANCH  88  91
ENDBRANCH  61  84
ENDBRANCH  35  36
ENDBRANCH  27  30
ENDBRANCH  25  26
ENDBRANCH   1  25
TORSDOF 18
ENDMDL
