MODEL 1
REMARK VINA RESULT:     -12.7      0.000      0.000
REMARK SMILES O=C(NCCCNC(=O)[C@H]1C[C@](O)(c2ccccc2Cl)[C@@H](c2ccccc2Cl)O1)c1ccc(-c2c3nc(c(-c4cccc(S(=O)(=O)[O-])c4F)c4ccc([nH]4)c(-c4cccc(S(=O)(=O)[O-])c4F)c4nc(c(-c5cccc(S(=O)(=O)[O-])c5F)c5ccc2[nH]5)C=C4)C=C3)cc1
REMARK SMILES IDX 4 1 3 2 1 3 2 4 30 6 31 7 92 8 32 9 91 10 33 11 34 12 35 13
REMARK SMILES IDX 85 14 36 15 90 16 84 17 86 18 37 19 89 20 83 21 82 22 38 24
REMARK SMILES IDX 70 25 50 26 69 27 51 28 54 29 68 30 87 31 52 32 53 33 67 35
REMARK SMILES IDX 88 36 55 37 39 38 40 39 48 40 41 41 43 42 49 43 42 44 44 45
REMARK SMILES IDX 45 46 46 47 47 48 71 49 72 50 80 51 73 52 75 53 81 54 74 55
REMARK SMILES IDX 76 56 77 57 78 58 79 59 56 60 57 61 65 62 58 63 60 64 66 65
REMARK SMILES IDX 59 66 61 67 62 68 63 69 64 70 5 71 6 72 7 73 8 74 9 76 10 77
REMARK SMILES IDX 11 78 29 79 12 80 21 81 14 82 15 83 19 84 16 85 18 86 20 87
REMARK SMILES IDX 17 88 13 89 22 91 23 92 27 93 24 94 26 95 28 96 25 97
REMARK H PARENT 3 5 86 23 54 34 7 75 13 90
REMARK Flexibility Score: inf
ROOT
ATOM      1  C   UNL A   1      32.298  32.360  27.302  1.00  0.00     0.118 C 
ENDROOT
BRANCH   1   2
ATOM      2  N   UNL A   1      32.494  33.772  27.602  1.00  0.00    -0.352 N 
ATOM      3  O   UNL A   1      33.282  35.600  28.635  1.00  0.00    -0.269 OA
ATOM      4  C   UNL A   1      33.431  34.409  28.382  1.00  0.00     0.251 C 
ATOM      5  H   UNL A   1      31.844  34.374  27.174  1.00  0.00     0.163 HD
BRANCH   4   6
ATOM      6  C   UNL A   1      34.596  33.673  28.924  1.00  0.00     0.039 A 
ATOM      7  C   UNL A   1      35.890  33.937  28.471  1.00  0.00     0.014 A 
ATOM      8  C   UNL A   1      34.397  32.743  29.950  1.00  0.00     0.014 A 
ATOM      9  C   UNL A   1      36.960  33.180  28.934  1.00  0.00     0.010 A 
ATOM     10  C   UNL A   1      35.488  32.046  30.483  1.00  0.00     0.010 A 
ATOM     11  C   UNL A   1      36.777  32.245  29.964  1.00  0.00    -0.014 A 
BRANCH  11  12
ATOM     12  C   UNL A   1      37.961  31.581  30.566  1.00  0.00     0.031 A 
ATOM     13  C   UNL A   1      38.721  30.512  29.832  1.00  0.00     0.074 A 
ATOM     14  C   UNL A   1      38.325  31.936  31.815  1.00  0.00     0.049 A 
ATOM     15  N   UNL A   1      39.760  29.826  30.233  1.00  0.00    -0.248 NA
ATOM     16  C   UNL A   1      38.259  30.160  28.480  1.00  0.00     0.031 C 
ATOM     17  C   UNL A   1      37.629  32.927  32.642  1.00  0.00     0.029 A 
ATOM     18  N   UNL A   1      39.347  31.497  32.617  1.00  0.00    -0.354 N 
ATOM     19  C   UNL A   1      40.048  28.931  29.210  1.00  0.00     0.074 A 
ATOM     20  C   UNL A   1      39.080  29.166  28.162  1.00  0.00     0.031 C 
ATOM     21  C   UNL A   1      38.242  33.019  33.830  1.00  0.00     0.029 A 
ATOM     22  C   UNL A   1      39.333  32.053  33.875  1.00  0.00     0.049 A 
ATOM     23  H   UNL A   1      40.025  30.847  32.321  1.00  0.00     0.167 HD
ATOM     24  C   UNL A   1      41.033  28.002  29.155  1.00  0.00     0.034 A 
ATOM     25  C   UNL A   1      40.082  31.789  34.962  1.00  0.00     0.034 A 
ATOM     26  C   UNL A   1      42.014  27.802  30.190  1.00  0.00     0.049 A 
ATOM     27  C   UNL A   1      41.166  30.756  34.862  1.00  0.00     0.074 A 
ATOM     28  C   UNL A   1      43.115  26.963  30.175  1.00  0.00     0.029 A 
ATOM     29  N   UNL A   1      41.998  28.417  31.431  1.00  0.00    -0.354 N 
ATOM     30  N   UNL A   1      41.533  30.047  33.823  1.00  0.00    -0.248 NA
ATOM     31  C   UNL A   1      41.955  30.501  36.074  1.00  0.00     0.031 C 
ATOM     32  C   UNL A   1      43.738  27.038  31.424  1.00  0.00     0.029 A 
ATOM     33  C   UNL A   1      43.047  27.949  32.205  1.00  0.00     0.049 A 
ATOM     34  H   UNL A   1      41.338  29.088  31.720  1.00  0.00     0.167 HD
ATOM     35  C   UNL A   1      42.605  29.274  34.251  1.00  0.00     0.074 A 
ATOM     36  C   UNL A   1      42.851  29.629  35.633  1.00  0.00     0.031 C 
ATOM     37  C   UNL A   1      43.307  28.339  33.566  1.00  0.00     0.034 A 
BRANCH  24  38
ATOM     38  C   UNL A   1      41.130  27.128  27.931  1.00  0.00     0.023 A 
ATOM     39  C   UNL A   1      41.744  27.620  26.764  1.00  0.00     0.012 A 
ATOM     40  C   UNL A   1      40.721  25.780  27.984  1.00  0.00     0.148 A 
ATOM     41  C   UNL A   1      41.935  26.788  25.659  1.00  0.00     0.002 A 
ATOM     42  C   UNL A   1      40.952  24.947  26.896  1.00  0.00     0.091 A 
ATOM     43  F   UNL A   1      40.125  25.338  29.100  1.00  0.00    -0.205 F 
ATOM     44  C   UNL A   1      41.552  25.451  25.730  1.00  0.00     0.022 A 
BRANCH  42  45
ATOM     45  S   UNL A   1      40.569  23.192  26.917  1.00  0.00     0.127 S 
ATOM     46  O   UNL A   1      41.122  22.785  28.208  1.00  0.00    -0.237 OA
ATOM     47  O   UNL A   1      39.108  23.195  26.854  1.00  0.00    -0.237 OA
ATOM     48  O   UNL A   1      41.228  22.621  25.751  1.00  0.00    -0.744 OA
ENDBRANCH  42  45
ENDBRANCH  24  38
BRANCH  25  49
ATOM     49  C   UNL A   1      39.821  32.512  36.239  1.00  0.00     0.023 A 
ATOM     50  C   UNL A   1      40.591  33.640  36.574  1.00  0.00     0.012 A 
ATOM     51  C   UNL A   1      38.794  32.095  37.110  1.00  0.00     0.148 A 
ATOM     52  C   UNL A   1      40.367  34.320  37.773  1.00  0.00     0.002 A 
ATOM     53  C   UNL A   1      38.535  32.815  38.269  1.00  0.00     0.091 A 
ATOM     54  F   UNL A   1      38.082  31.008  36.782  1.00  0.00    -0.205 F 
ATOM     55  C   UNL A   1      39.334  33.915  38.613  1.00  0.00     0.022 A 
BRANCH  53  56
ATOM     56  S   UNL A   1      37.132  32.446  39.329  1.00  0.00     0.127 S 
ATOM     57  O   UNL A   1      37.382  31.050  39.680  1.00  0.00    -0.237 OA
ATOM     58  O   UNL A   1      37.318  33.400  40.423  1.00  0.00    -0.237 OA
ATOM     59  O   UNL A   1      35.952  32.698  38.513  1.00  0.00    -0.744 OA
ENDBRANCH  53  56
ENDBRANCH  25  49
BRANCH  37  60
ATOM     60  C   UNL A   1      44.423  27.639  34.293  1.00  0.00     0.023 A 
ATOM     61  C   UNL A   1      45.707  28.218  34.327  1.00  0.00     0.012 A 
ATOM     62  C   UNL A   1      44.181  26.450  35.009  1.00  0.00     0.148 A 
ATOM     63  C   UNL A   1      46.740  27.611  35.038  1.00  0.00     0.002 A 
ATOM     64  C   UNL A   1      45.202  25.877  35.758  1.00  0.00     0.091 A 
ATOM     65  F   UNL A   1      42.955  25.909  34.952  1.00  0.00    -0.205 F 
ATOM     66  C   UNL A   1      46.484  26.449  35.763  1.00  0.00     0.022 A 
BRANCH  64  67
ATOM     67  S   UNL A   1      44.947  24.436  36.798  1.00  0.00     0.127 S 
ATOM     68  O   UNL A   1      46.278  24.244  37.374  1.00  0.00    -0.237 OA
ATOM     69  O   UNL A   1      43.937  24.913  37.743  1.00  0.00    -0.237 OA
ATOM     70  O   UNL A   1      44.496  23.371  35.912  1.00  0.00    -0.744 OA
ENDBRANCH  64  67
ENDBRANCH  37  60
ENDBRANCH  11  12
ENDBRANCH   4   6
ENDBRANCH   1   2
BRANCH   1  71
ATOM     71  C   UNL A   1      33.583  31.647  26.892  1.00  0.00     0.042 C 
BRANCH  71  72
ATOM     72  C   UNL A   1      33.685  30.198  27.345  1.00  0.00     0.117 C 
BRANCH  72  73
ATOM     73  N   UNL A   1      32.413  29.523  27.486  1.00  0.00    -0.354 N 
ATOM     74  C   UNL A   1      32.097  28.228  27.196  1.00  0.00     0.249 C 
ATOM     75  H   UNL A   1      31.676  30.072  27.841  1.00  0.00     0.163 HD
ATOM     76  O   UNL A   1      31.081  27.765  27.721  1.00  0.00    -0.272 OA
BRANCH  74  77
ATOM     77  C   UNL A   1      32.974  27.414  26.216  1.00  0.00     0.211 C 
ATOM     78  C   UNL A   1      32.666  25.921  26.261  1.00  0.00     0.085 C 
ATOM     79  O   UNL A   1      32.735  27.881  24.884  1.00  0.00    -0.357 OA
ATOM     80  C   UNL A   1      32.542  25.473  24.801  1.00  0.00     0.124 C 
ATOM     81  C   UNL A   1      32.210  26.808  24.070  1.00  0.00     0.187 C 
BRANCH  80  82
ATOM     82  C   UNL A   1      33.771  24.618  24.414  1.00  0.00     0.005 A 
ATOM     83  C   UNL A   1      34.787  24.526  25.411  1.00  0.00     0.008 A 
ATOM     84  C   UNL A   1      34.010  23.887  23.236  1.00  0.00     0.047 A 
ATOM     85  C   UNL A   1      35.920  23.718  25.280  1.00  0.00     0.001 A 
ATOM     86  C   UNL A   1      35.132  23.038  23.127  1.00  0.00     0.021 A 
ATOM     87  Cl  UNL A   1      33.075  23.978  21.789  1.00  0.00    -0.084 Cl
ATOM     88  C   UNL A   1      36.077  22.947  24.143  1.00  0.00     0.002 A 
ENDBRANCH  80  82
BRANCH  80  89
ATOM     89  O   UNL A   1      31.444  24.540  24.682  1.00  0.00    -0.382 OA
ATOM     90  H   UNL A   1      31.795  23.639  24.596  1.00  0.00     0.212 HD
ENDBRANCH  80  89
BRANCH  81  91
ATOM     91  C   UNL A   1      30.754  27.142  23.729  1.00  0.00     0.003 A 
ATOM     92  C   UNL A   1      29.695  26.348  24.209  1.00  0.00     0.008 A 
ATOM     93  C   UNL A   1      30.408  28.278  22.969  1.00  0.00     0.046 A 
ATOM     94  C   UNL A   1      28.358  26.683  23.980  1.00  0.00     0.000 A 
ATOM     95  C   UNL A   1      29.066  28.616  22.745  1.00  0.00     0.021 A 
ATOM     96  Cl  UNL A   1      31.583  29.330  22.253  1.00  0.00    -0.084 Cl
ATOM     97  C   UNL A   1      28.042  27.824  23.257  1.00  0.00     0.002 A 
ENDBRANCH  81  91
ENDBRANCH  74  77
ENDBRANCH  72  73
ENDBRANCH  71  72
ENDBRANCH   1  71
TORSDOF 16
ENDMDL
MODEL 2
REMARK VINA RESULT:     -12.7      0.933      3.094
REMARK SMILES O=C(NCCCNC(=O)[C@H]1C[C@](O)(c2ccccc2Cl)[C@@H](c2ccccc2Cl)O1)c1ccc(-c2c3nc(c(-c4cccc(S(=O)(=O)[O-])c4F)c4ccc([nH]4)c(-c4cccc(S(=O)(=O)[O-])c4F)c4nc(c(-c5cccc(S(=O)(=O)[O-])c5F)c5ccc2[nH]5)C=C4)C=C3)cc1
REMARK SMILES IDX 4 1 3 2 1 3 2 4 30 6 31 7 92 8 32 9 91 10 33 11 34 12 35 13
REMARK SMILES IDX 85 14 36 15 90 16 84 17 86 18 37 19 89 20 83 21 82 22 38 24
REMARK SMILES IDX 70 25 50 26 69 27 51 28 54 29 68 30 87 31 52 32 53 33 67 35
REMARK SMILES IDX 88 36 55 37 39 38 40 39 48 40 41 41 43 42 49 43 42 44 44 45
REMARK SMILES IDX 45 46 46 47 47 48 71 49 72 50 80 51 73 52 75 53 81 54 74 55
REMARK SMILES IDX 76 56 77 57 78 58 79 59 56 60 57 61 65 62 58 63 60 64 66 65
REMARK SMILES IDX 59 66 61 67 62 68 63 69 64 70 5 71 6 72 7 73 8 74 9 76 10 77
REMARK SMILES IDX 11 78 29 79 12 80 21 81 14 82 15 83 19 84 16 85 18 86 20 87
REMARK SMILES IDX 17 88 13 89 22 91 23 92 27 93 24 94 26 95 28 96 25 97
REMARK H PARENT 3 5 86 23 54 34 7 75 13 90
REMARK Flexibility Score: inf
ROOT
ATOM      1  C   UNL A   1      32.384  31.949  27.196  1.00  0.00     0.118 C 
ENDROOT
BRANCH   1   2
ATOM      2  N   UNL A   1      32.413  33.382  27.457  1.00  0.00    -0.352 N 
ATOM      3  O   UNL A   1      32.937  35.312  28.472  1.00  0.00    -0.269 OA
ATOM      4  C   UNL A   1      33.225  34.137  28.271  1.00  0.00     0.251 C 
ATOM      5  H   UNL A   1      31.734  33.900  26.966  1.00  0.00     0.163 HD
BRANCH   4   6
ATOM      6  C   UNL A   1      34.420  33.543  28.913  1.00  0.00     0.039 A 
ATOM      7  C   UNL A   1      34.294  32.604  29.939  1.00  0.00     0.014 A 
ATOM      8  C   UNL A   1      35.690  33.884  28.437  1.00  0.00     0.014 A 
ATOM      9  C   UNL A   1      35.427  32.118  30.583  1.00  0.00     0.010 A 
ATOM     10  C   UNL A   1      36.830  33.323  29.024  1.00  0.00     0.010 A 
ATOM     11  C   UNL A   1      36.708  32.450  30.116  1.00  0.00    -0.014 A 
BRANCH  11  12
ATOM     12  C   UNL A   1      37.895  31.778  30.702  1.00  0.00     0.031 A 
ATOM     13  C   UNL A   1      38.653  30.722  29.949  1.00  0.00     0.074 A 
ATOM     14  C   UNL A   1      38.265  32.115  31.955  1.00  0.00     0.049 A 
ATOM     15  N   UNL A   1      39.695  30.030  30.335  1.00  0.00    -0.248 NA
ATOM     16  C   UNL A   1      38.185  30.390  28.594  1.00  0.00     0.031 C 
ATOM     17  C   UNL A   1      37.573  33.093  32.800  1.00  0.00     0.029 A 
ATOM     18  N   UNL A   1      39.292  31.665  32.745  1.00  0.00    -0.354 N 
ATOM     19  C   UNL A   1      39.978  29.151  29.297  1.00  0.00     0.074 A 
ATOM     20  C   UNL A   1      39.005  29.401  28.257  1.00  0.00     0.031 C 
ATOM     21  C   UNL A   1      38.191  33.168  33.987  1.00  0.00     0.029 A 
ATOM     22  C   UNL A   1      39.283  32.202  34.012  1.00  0.00     0.049 A 
ATOM     23  H   UNL A   1      39.969  31.020  32.437  1.00  0.00     0.167 HD
ATOM     24  C   UNL A   1      40.964  28.224  29.223  1.00  0.00     0.034 A 
ATOM     25  C   UNL A   1      40.037  31.922  35.091  1.00  0.00     0.034 A 
ATOM     26  C   UNL A   1      41.950  28.009  30.251  1.00  0.00     0.049 A 
ATOM     27  C   UNL A   1      41.122  30.892  34.971  1.00  0.00     0.074 A 
ATOM     28  C   UNL A   1      43.052  27.172  30.218  1.00  0.00     0.029 A 
ATOM     29  N   UNL A   1      41.939  28.606  31.501  1.00  0.00    -0.354 N 
ATOM     30  N   UNL A   1      41.484  30.198  33.919  1.00  0.00    -0.248 NA
ATOM     31  C   UNL A   1      41.916  30.619  36.176  1.00  0.00     0.031 C 
ATOM     32  C   UNL A   1      43.680  27.228  31.465  1.00  0.00     0.029 A 
ATOM     33  C   UNL A   1      42.992  28.127  32.263  1.00  0.00     0.049 A 
ATOM     34  H   UNL A   1      41.280  29.272  31.803  1.00  0.00     0.167 HD
ATOM     35  C   UNL A   1      42.558  29.421  34.330  1.00  0.00     0.074 A 
ATOM     36  C   UNL A   1      42.811  29.754  35.717  1.00  0.00     0.031 C 
ATOM     37  C   UNL A   1      43.259  28.497  33.628  1.00  0.00     0.034 A 
BRANCH  24  38
ATOM     38  C   UNL A   1      41.056  27.369  27.986  1.00  0.00     0.023 A 
ATOM     39  C   UNL A   1      41.684  27.871  26.830  1.00  0.00     0.012 A 
ATOM     40  C   UNL A   1      40.628  26.026  28.015  1.00  0.00     0.148 A 
ATOM     41  C   UNL A   1      41.870  27.054  25.714  1.00  0.00     0.002 A 
ATOM     42  C   UNL A   1      40.853  25.208  26.915  1.00  0.00     0.091 A 
ATOM     43  F   UNL A   1      40.018  25.574  29.120  1.00  0.00    -0.205 F 
ATOM     44  C   UNL A   1      41.467  25.722  25.761  1.00  0.00     0.022 A 
BRANCH  42  45
ATOM     45  S   UNL A   1      40.445  23.458  26.904  1.00  0.00     0.127 S 
ATOM     46  O   UNL A   1      39.009  23.493  26.626  1.00  0.00    -0.237 OA
ATOM     47  O   UNL A   1      41.266  22.958  25.803  1.00  0.00    -0.237 OA
ATOM     48  O   UNL A   1      40.811  22.950  28.218  1.00  0.00    -0.744 OA
ENDBRANCH  42  45
ENDBRANCH  24  38
BRANCH  25  49
ATOM     49  C   UNL A   1      39.781  32.625  36.380  1.00  0.00     0.023 A 
ATOM     50  C   UNL A   1      40.531  33.768  36.714  1.00  0.00     0.012 A 
ATOM     51  C   UNL A   1      38.779  32.176  37.265  1.00  0.00     0.148 A 
ATOM     52  C   UNL A   1      40.312  34.430  37.924  1.00  0.00     0.002 A 
ATOM     53  C   UNL A   1      38.524  32.877  38.436  1.00  0.00     0.091 A 
ATOM     54  F   UNL A   1      38.088  31.075  36.936  1.00  0.00    -0.205 F 
ATOM     55  C   UNL A   1      39.302  33.992  38.777  1.00  0.00     0.022 A 
BRANCH  53  56
ATOM     56  S   UNL A   1      37.149  32.464  39.514  1.00  0.00     0.127 S 
ATOM     57  O   UNL A   1      37.252  33.498  40.540  1.00  0.00    -0.237 OA
ATOM     58  O   UNL A   1      36.003  32.602  38.614  1.00  0.00    -0.237 OA
ATOM     59  O   UNL A   1      37.397  31.099  39.957  1.00  0.00    -0.744 OA
ENDBRANCH  53  56
ENDBRANCH  25  49
BRANCH  37  60
ATOM     60  C   UNL A   1      44.378  27.786  34.340  1.00  0.00     0.023 A 
ATOM     61  C   UNL A   1      45.669  28.351  34.350  1.00  0.00     0.012 A 
ATOM     62  C   UNL A   1      44.135  26.603  35.064  1.00  0.00     0.148 A 
ATOM     63  C   UNL A   1      46.706  27.735  35.047  1.00  0.00     0.002 A 
ATOM     64  C   UNL A   1      45.161  26.021  35.798  1.00  0.00     0.091 A 
ATOM     65  F   UNL A   1      42.902  26.075  35.028  1.00  0.00    -0.205 F 
ATOM     66  C   UNL A   1      46.449  26.578  35.780  1.00  0.00     0.022 A 
BRANCH  64  67
ATOM     67  S   UNL A   1      44.907  24.586  36.847  1.00  0.00     0.127 S 
ATOM     68  O   UNL A   1      46.253  24.360  37.374  1.00  0.00    -0.237 OA
ATOM     69  O   UNL A   1      43.944  25.088  37.827  1.00  0.00    -0.237 OA
ATOM     70  O   UNL A   1      44.397  23.534  35.978  1.00  0.00    -0.744 OA
ENDBRANCH  64  67
ENDBRANCH  37  60
ENDBRANCH  11  12
ENDBRANCH   4   6
ENDBRANCH   1   2
BRANCH   1  71
ATOM     71  C   UNL A   1      33.770  31.345  26.997  1.00  0.00     0.042 C 
BRANCH  71  72
ATOM     72  C   UNL A   1      33.826  29.827  27.077  1.00  0.00     0.117 C 
BRANCH  72  73
ATOM     73  N   UNL A   1      34.438  29.188  25.931  1.00  0.00    -0.354 N 
ATOM     74  C   UNL A   1      33.852  28.781  24.768  1.00  0.00     0.249 C 
ATOM     75  H   UNL A   1      35.406  29.026  26.000  1.00  0.00     0.163 HD
ATOM     76  O   UNL A   1      34.593  28.601  23.798  1.00  0.00    -0.272 OA
BRANCH  74  77
ATOM     77  C   UNL A   1      32.328  28.528  24.711  1.00  0.00     0.211 C 
ATOM     78  C   UNL A   1      31.771  28.641  23.295  1.00  0.00     0.085 C 
ATOM     79  O   UNL A   1      32.059  27.206  25.193  1.00  0.00    -0.357 OA
ATOM     80  C   UNL A   1      30.877  27.414  23.096  1.00  0.00     0.124 C 
ATOM     81  C   UNL A   1      31.435  26.417  24.154  1.00  0.00     0.187 C 
BRANCH  80  82
ATOM     82  C   UNL A   1      29.392  27.848  23.091  1.00  0.00     0.005 A 
ATOM     83  C   UNL A   1      28.489  26.935  23.714  1.00  0.00     0.008 A 
ATOM     84  C   UNL A   1      28.813  29.031  22.596  1.00  0.00     0.047 A 
ATOM     85  C   UNL A   1      27.129  27.204  23.894  1.00  0.00     0.001 A 
ATOM     86  C   UNL A   1      27.449  29.317  22.820  1.00  0.00     0.021 A 
ATOM     87  Cl  UNL A   1      29.609  30.205  21.615  1.00  0.00    -0.084 Cl
ATOM     88  C   UNL A   1      26.614  28.415  23.471  1.00  0.00     0.002 A 
ENDBRANCH  80  82
BRANCH  80  89
ATOM     89  O   UNL A   1      31.069  26.898  21.758  1.00  0.00    -0.382 OA
ATOM     90  H   UNL A   1      31.926  27.199  21.417  1.00  0.00     0.212 HD
ENDBRANCH  80  89
BRANCH  81  91
ATOM     91  C   UNL A   1      32.428  25.333  23.723  1.00  0.00     0.003 A 
ATOM     92  C   UNL A   1      33.818  25.547  23.803  1.00  0.00     0.008 A 
ATOM     93  C   UNL A   1      32.000  24.064  23.281  1.00  0.00     0.046 A 
ATOM     94  C   UNL A   1      34.738  24.542  23.495  1.00  0.00     0.000 A 
ATOM     95  C   UNL A   1      32.926  23.055  22.978  1.00  0.00     0.021 A 
ATOM     96  Cl  UNL A   1      30.332  23.650  23.068  1.00  0.00    -0.084 Cl
ATOM     97  C   UNL A   1      34.293  23.291  23.093  1.00  0.00     0.002 A 
ENDBRANCH  81  91
ENDBRANCH  74  77
ENDBRANCH  72  73
ENDBRANCH  71  72
ENDBRANCH   1  71
TORSDOF 16
ENDMDL
MODEL 3
REMARK VINA RESULT:     -12.6      5.736     10.755
REMARK SMILES O=C(NCCCNC(=O)[C@H]1C[C@](O)(c2ccccc2Cl)[C@@H](c2ccccc2Cl)O1)c1ccc(-c2c3nc(c(-c4cccc(S(=O)(=O)[O-])c4F)c4ccc([nH]4)c(-c4cccc(S(=O)(=O)[O-])c4F)c4nc(c(-c5cccc(S(=O)(=O)[O-])c5F)c5ccc2[nH]5)C=C4)C=C3)cc1
REMARK SMILES IDX 4 1 3 2 1 3 2 4 30 6 31 7 92 8 32 9 91 10 33 11 34 12 35 13
REMARK SMILES IDX 85 14 36 15 90 16 84 17 86 18 37 19 89 20 83 21 82 22 38 24
REMARK SMILES IDX 70 25 50 26 69 27 51 28 54 29 68 30 87 31 52 32 53 33 67 35
REMARK SMILES IDX 88 36 55 37 39 38 40 39 48 40 41 41 43 42 49 43 42 44 44 45
REMARK SMILES IDX 45 46 46 47 47 48 71 49 72 50 80 51 73 52 75 53 81 54 74 55
REMARK SMILES IDX 76 56 77 57 78 58 79 59 56 60 57 61 65 62 58 63 60 64 66 65
REMARK SMILES IDX 59 66 61 67 62 68 63 69 64 70 5 71 6 72 7 73 8 74 9 76 10 77
REMARK SMILES IDX 11 78 29 79 12 80 21 81 14 82 15 83 19 84 16 85 18 86 20 87
REMARK SMILES IDX 17 88 13 89 22 91 23 92 27 93 24 94 26 95 28 96 25 97
REMARK H PARENT 3 5 86 23 54 34 7 75 13 90
REMARK Flexibility Score: inf
ROOT
ATOM      1  C   UNL A   1      38.768  20.145  25.194  1.00  0.00     0.118 C 
ENDROOT
BRANCH   1   2
ATOM      2  N   UNL A   1      39.821  19.295  25.735  1.00  0.00    -0.352 N 
ATOM      3  O   UNL A   1      41.843  18.708  26.507  1.00  0.00    -0.269 OA
ATOM      4  C   UNL A   1      41.040  19.609  26.290  1.00  0.00     0.251 C 
ATOM      5  H   UNL A   1      39.628  18.331  25.696  1.00  0.00     0.163 HD
BRANCH   4   6
ATOM      6  C   UNL A   1      41.391  21.012  26.608  1.00  0.00     0.039 A 
ATOM      7  C   UNL A   1      41.350  21.484  27.921  1.00  0.00     0.014 A 
ATOM      8  C   UNL A   1      41.830  21.855  25.582  1.00  0.00     0.014 A 
ATOM      9  C   UNL A   1      41.605  22.824  28.190  1.00  0.00     0.010 A 
ATOM     10  C   UNL A   1      42.178  23.180  25.866  1.00  0.00     0.010 A 
ATOM     11  C   UNL A   1      42.048  23.682  27.171  1.00  0.00    -0.014 A 
BRANCH  11  12
ATOM     12  C   UNL A   1      42.487  25.058  27.515  1.00  0.00     0.031 A 
ATOM     13  C   UNL A   1      41.553  26.045  28.157  1.00  0.00     0.074 A 
ATOM     14  C   UNL A   1      43.748  25.421  27.204  1.00  0.00     0.049 A 
ATOM     15  N   UNL A   1      41.784  27.287  28.496  1.00  0.00    -0.248 NA
ATOM     16  C   UNL A   1      40.186  25.589  28.451  1.00  0.00     0.031 C 
ATOM     17  C   UNL A   1      44.729  24.561  26.534  1.00  0.00     0.029 A 
ATOM     18  N   UNL A   1      44.419  26.603  27.387  1.00  0.00    -0.354 N 
ATOM     19  C   UNL A   1      40.584  27.777  28.998  1.00  0.00     0.074 A 
ATOM     20  C   UNL A   1      39.627  26.695  28.929  1.00  0.00     0.031 C 
ATOM     21  C   UNL A   1      45.870  25.242  26.361  1.00  0.00     0.029 A 
ATOM     22  C   UNL A   1      45.686  26.603  26.849  1.00  0.00     0.049 A 
ATOM     23  H   UNL A   1      44.032  27.378  27.856  1.00  0.00     0.167 HD
ATOM     24  C   UNL A   1      40.313  29.016  29.475  1.00  0.00     0.034 A 
ATOM     25  C   UNL A   1      46.587  27.595  26.721  1.00  0.00     0.034 A 
ATOM     26  C   UNL A   1      41.284  30.075  29.572  1.00  0.00     0.049 A 
ATOM     27  C   UNL A   1      46.252  28.953  27.263  1.00  0.00     0.074 A 
ATOM     28  C   UNL A   1      41.131  31.326  30.143  1.00  0.00     0.029 A 
ATOM     29  N   UNL A   1      42.571  30.023  29.063  1.00  0.00    -0.354 N 
ATOM     30  N   UNL A   1      45.173  29.344  27.895  1.00  0.00    -0.248 NA
ATOM     31  C   UNL A   1      47.266  30.003  27.097  1.00  0.00     0.031 C 
ATOM     32  C   UNL A   1      42.311  32.047  29.938  1.00  0.00     0.029 A 
ATOM     33  C   UNL A   1      43.211  31.233  29.271  1.00  0.00     0.049 A 
ATOM     34  H   UNL A   1      42.971  29.241  28.617  1.00  0.00     0.167 HD
ATOM     35  C   UNL A   1      45.383  30.678  28.216  1.00  0.00     0.074 A 
ATOM     36  C   UNL A   1      46.708  31.019  27.741  1.00  0.00     0.031 C 
ATOM     37  C   UNL A   1      44.545  31.548  28.831  1.00  0.00     0.034 A 
BRANCH  24  38
ATOM     38  C   UNL A   1      38.915  29.313  29.952  1.00  0.00     0.023 A 
ATOM     39  C   UNL A   1      38.534  28.977  31.265  1.00  0.00     0.012 A 
ATOM     40  C   UNL A   1      38.022  30.037  29.135  1.00  0.00     0.148 A 
ATOM     41  C   UNL A   1      37.279  29.341  31.754  1.00  0.00     0.002 A 
ATOM     42  C   UNL A   1      36.790  30.430  29.643  1.00  0.00     0.091 A 
ATOM     43  F   UNL A   1      38.399  30.332  27.883  1.00  0.00    -0.205 F 
ATOM     44  C   UNL A   1      36.414  30.077  30.949  1.00  0.00     0.022 A 
BRANCH  42  45
ATOM     45  S   UNL A   1      35.637  31.450  28.715  1.00  0.00     0.127 S 
ATOM     46  O   UNL A   1      36.506  32.535  28.259  1.00  0.00    -0.237 OA
ATOM     47  O   UNL A   1      35.199  30.537  27.660  1.00  0.00    -0.237 OA
ATOM     48  O   UNL A   1      34.597  31.841  29.655  1.00  0.00    -0.744 OA
ENDBRANCH  42  45
ENDBRANCH  24  38
BRANCH  25  49
ATOM     49  C   UNL A   1      47.886  27.335  26.039  1.00  0.00     0.023 A 
ATOM     50  C   UNL A   1      48.991  26.888  26.787  1.00  0.00     0.012 A 
ATOM     51  C   UNL A   1      48.023  27.508  24.647  1.00  0.00     0.148 A 
ATOM     52  C   UNL A   1      50.218  26.652  26.166  1.00  0.00     0.002 A 
ATOM     53  C   UNL A   1      49.229  27.211  24.027  1.00  0.00     0.091 A 
ATOM     54  F   UNL A   1      46.964  27.952  23.954  1.00  0.00    -0.205 F 
ATOM     55  C   UNL A   1      50.334  26.802  24.786  1.00  0.00     0.022 A 
BRANCH  53  56
ATOM     56  S   UNL A   1      49.415  27.239  22.240  1.00  0.00     0.127 S 
ATOM     57  O   UNL A   1      48.960  28.588  21.913  1.00  0.00    -0.237 OA
ATOM     58  O   UNL A   1      50.854  27.018  22.081  1.00  0.00    -0.237 OA
ATOM     59  O   UNL A   1      48.587  26.148  21.745  1.00  0.00    -0.744 OA
ENDBRANCH  53  56
ENDBRANCH  25  49
BRANCH  37  60
ATOM     60  C   UNL A   1      45.037  32.955  29.040  1.00  0.00     0.023 A 
ATOM     61  C   UNL A   1      45.787  33.269  30.191  1.00  0.00     0.012 A 
ATOM     62  C   UNL A   1      44.827  33.945  28.061  1.00  0.00     0.148 A 
ATOM     63  C   UNL A   1      46.294  34.552  30.378  1.00  0.00     0.002 A 
ATOM     64  C   UNL A   1      45.379  35.209  28.229  1.00  0.00     0.091 A 
ATOM     65  F   UNL A   1      44.098  33.629  26.980  1.00  0.00    -0.205 F 
ATOM     66  C   UNL A   1      46.102  35.518  29.392  1.00  0.00     0.022 A 
BRANCH  64  67
ATOM     67  S   UNL A   1      45.265  36.489  26.974  1.00  0.00     0.127 S 
ATOM     68  O   UNL A   1      46.002  35.885  25.865  1.00  0.00    -0.237 OA
ATOM     69  O   UNL A   1      43.821  36.589  26.766  1.00  0.00    -0.237 OA
ATOM     70  O   UNL A   1      45.879  37.678  27.552  1.00  0.00    -0.744 OA
ENDBRANCH  64  67
ENDBRANCH  37  60
ENDBRANCH  11  12
ENDBRANCH   4   6
ENDBRANCH   1   2
BRANCH   1  71
ATOM     71  C   UNL A   1      38.262  21.185  26.188  1.00  0.00     0.042 C 
BRANCH  71  72
ATOM     72  C   UNL A   1      38.161  22.600  25.640  1.00  0.00     0.117 C 
BRANCH  72  73
ATOM     73  N   UNL A   1      37.047  23.366  26.159  1.00  0.00    -0.354 N 
ATOM     74  C   UNL A   1      35.716  23.074  26.110  1.00  0.00     0.249 C 
ATOM     75  H   UNL A   1      37.283  24.209  26.609  1.00  0.00     0.163 HD
ATOM     76  O   UNL A   1      34.982  23.657  26.913  1.00  0.00    -0.272 OA
BRANCH  74  77
ATOM     77  C   UNL A   1      35.175  22.079  25.057  1.00  0.00     0.211 C 
ATOM     78  C   UNL A   1      34.288  21.002  25.674  1.00  0.00     0.085 C 
ATOM     79  O   UNL A   1      34.397  22.801  24.095  1.00  0.00    -0.357 OA
ATOM     80  C   UNL A   1      33.042  20.924  24.788  1.00  0.00     0.124 C 
ATOM     81  C   UNL A   1      33.034  22.322  24.099  1.00  0.00     0.187 C 
BRANCH  80  82
ATOM     82  C   UNL A   1      33.069  19.614  23.967  1.00  0.00     0.005 A 
ATOM     83  C   UNL A   1      33.800  18.540  24.558  1.00  0.00     0.008 A 
ATOM     84  C   UNL A   1      32.443  19.319  22.741  1.00  0.00     0.047 A 
ATOM     85  C   UNL A   1      33.850  17.255  24.012  1.00  0.00     0.001 A 
ATOM     86  C   UNL A   1      32.460  18.008  22.218  1.00  0.00     0.021 A 
ATOM     87  Cl  UNL A   1      31.681  20.464  21.701  1.00  0.00    -0.084 Cl
ATOM     88  C   UNL A   1      33.151  16.980  22.851  1.00  0.00     0.002 A 
ENDBRANCH  80  82
BRANCH  80  89
ATOM     89  O   UNL A   1      31.873  20.761  25.624  1.00  0.00    -0.382 OA
ATOM     90  H   UNL A   1      31.776  21.537  26.198  1.00  0.00     0.212 HD
ENDBRANCH  80  89
BRANCH  81  91
ATOM     91  C   UNL A   1      32.143  23.435  24.658  1.00  0.00     0.003 A 
ATOM     92  C   UNL A   1      31.620  23.362  25.964  1.00  0.00     0.008 A 
ATOM     93  C   UNL A   1      31.850  24.599  23.917  1.00  0.00     0.046 A 
ATOM     94  C   UNL A   1      30.876  24.404  26.521  1.00  0.00     0.000 A 
ATOM     95  C   UNL A   1      31.109  25.647  24.481  1.00  0.00     0.021 A 
ATOM     96  Cl  UNL A   1      32.363  24.830  22.279  1.00  0.00    -0.084 Cl
ATOM     97  C   UNL A   1      30.629  25.553  25.784  1.00  0.00     0.002 A 
ENDBRANCH  81  91
ENDBRANCH  74  77
ENDBRANCH  72  73
ENDBRANCH  71  72
ENDBRANCH   1  71
TORSDOF 16
ENDMDL
