MODEL 1
REMARK VINA RESULT:     -11.1      0.000      0.000
REMARK SMILES [NH3+]CCOCC(=O)N[C@H](C(=O)NCCCNC(=O)c1ccc(-c2c3nc(c(-c4cccc(S(=O)(=O)[O-])c4F)c4ccc([nH]4)c(-c4cccc(S(=O)(=O)[O-])c4F)c4nc(c(-c5cccc(S(=O)(=O)[O-])c5F)c5ccc2[nH]5)C=C4)C=C3)cc1)c1ccccc1
REMARK SMILES IDX 10 1 11 2 12 3 9 5 8 6 6 7 7 8 5 10 4 11 3 12 2 13 1 14
REMARK SMILES IDX 82 18 83 19 87 20 84 21 86 22 85 23 13 24 14 25 15 26 16 27
REMARK SMILES IDX 17 28 18 30 19 31 20 32 81 33 21 34 80 35 22 36 23 37 24 38
REMARK SMILES IDX 74 39 25 40 79 41 73 42 75 43 26 44 78 45 72 46 71 47 27 49
REMARK SMILES IDX 59 50 39 51 58 52 40 53 43 54 57 55 76 56 41 57 42 58 56 60
REMARK SMILES IDX 77 61 44 62 28 63 29 64 37 65 30 66 32 67 38 68 31 69 33 70
REMARK SMILES IDX 34 71 35 72 36 73 60 74 61 75 69 76 62 77 64 78 70 79 63 80
REMARK SMILES IDX 65 81 66 82 67 83 68 84 45 85 46 86 54 87 47 88 49 89 55 90
REMARK SMILES IDX 48 91 50 92 51 93 52 94 53 95
REMARK H PARENT 12 4 8 9 1 15 1 16 1 17 16 29 75 48 43 59
REMARK Flexibility Score: inf
ROOT
ATOM      1  C   UNL A   1      32.597  23.836  26.890  1.00  0.00     0.247 C 
ATOM      2  O   UNL A   1      31.618  23.522  27.572  1.00  0.00    -0.272 OA
ATOM      3  N   UNL A   1      33.712  23.056  27.054  1.00  0.00    -0.354 N 
ATOM      4  H   UNL A   1      33.620  22.345  27.729  1.00  0.00     0.163 HD
ENDROOT
BRANCH   1   5
ATOM      5  C   UNL A   1      32.569  24.922  25.784  1.00  0.00     0.202 C 
BRANCH   5   6
ATOM      6  N   UNL A   1      31.449  24.565  24.897  1.00  0.00    -0.339 N 
ATOM      7  C   UNL A   1      31.354  23.641  23.901  1.00  0.00     0.246 C 
ATOM      8  O   UNL A   1      30.394  23.737  23.126  1.00  0.00    -0.272 OA
ATOM      9  H   UNL A   1      30.626  25.083  25.051  1.00  0.00     0.164 HD
BRANCH   7  10
ATOM     10  C   UNL A   1      32.348  22.478  23.746  1.00  0.00     0.260 C 
BRANCH  10  11
ATOM     11  O   UNL A   1      31.888  21.150  23.829  1.00  0.00    -0.366 OA
BRANCH  11  12
ATOM     12  C   UNL A   1      32.911  20.160  23.899  1.00  0.00     0.222 C 
BRANCH  12  13
ATOM     13  C   UNL A   1      32.587  19.031  24.892  1.00  0.00     0.287 C 
BRANCH  13  14
ATOM     14  N   UNL A   1      32.894  19.325  26.297  1.00  0.00    -0.356 N 
ATOM     15  H   UNL A   1      33.314  18.504  26.732  1.00  0.00     0.344 HD
ATOM     16  H   UNL A   1      32.034  19.569  26.789  1.00  0.00     0.344 HD
ATOM     17  H   UNL A   1      33.547  20.107  26.347  1.00  0.00     0.344 HD
ENDBRANCH  13  14
ENDBRANCH  12  13
ENDBRANCH  11  12
ENDBRANCH  10  11
ENDBRANCH   7  10
ENDBRANCH   5   6
BRANCH   5  18
ATOM     18  C   UNL A   1      32.597  26.378  26.212  1.00  0.00    -0.016 A 
ATOM     19  C   UNL A   1      31.429  26.970  26.738  1.00  0.00     0.006 A 
ATOM     20  C   UNL A   1      33.742  27.179  26.097  1.00  0.00     0.006 A 
ATOM     21  C   UNL A   1      31.454  28.262  27.267  1.00  0.00     0.000 A 
ATOM     22  C   UNL A   1      33.758  28.480  26.602  1.00  0.00     0.000 A 
ATOM     23  C   UNL A   1      32.626  29.010  27.215  1.00  0.00     0.000 A 
ENDBRANCH   5  18
ENDBRANCH   1   5
BRANCH   3  24
ATOM     24  C   UNL A   1      35.007  23.103  26.398  1.00  0.00     0.117 C 
BRANCH  24  25
ATOM     25  C   UNL A   1      35.568  21.707  26.146  1.00  0.00     0.042 C 
BRANCH  25  26
ATOM     26  C   UNL A   1      36.728  21.672  25.151  1.00  0.00     0.118 C 
BRANCH  26  27
ATOM     27  N   UNL A   1      37.693  20.618  25.442  1.00  0.00    -0.352 N 
ATOM     28  C   UNL A   1      38.982  20.697  25.909  1.00  0.00     0.251 C 
ATOM     29  H   UNL A   1      37.369  19.702  25.278  1.00  0.00     0.163 HD
ATOM     30  O   UNL A   1      39.685  19.687  25.913  1.00  0.00    -0.269 OA
BRANCH  28  31
ATOM     31  C   UNL A   1      39.534  21.983  26.387  1.00  0.00     0.039 A 
ATOM     32  C   UNL A   1      40.552  21.967  27.346  1.00  0.00     0.014 A 
ATOM     33  C   UNL A   1      39.047  23.200  25.905  1.00  0.00     0.014 A 
ATOM     34  C   UNL A   1      41.133  23.169  27.761  1.00  0.00     0.010 A 
ATOM     35  C   UNL A   1      39.680  24.389  26.259  1.00  0.00     0.010 A 
ATOM     36  C   UNL A   1      40.732  24.386  27.188  1.00  0.00    -0.014 A 
BRANCH  36  37
ATOM     37  C   UNL A   1      41.427  25.660  27.511  1.00  0.00     0.031 A 
ATOM     38  C   UNL A   1      40.728  26.740  28.290  1.00  0.00     0.074 A 
ATOM     39  C   UNL A   1      42.659  25.882  27.013  1.00  0.00     0.049 A 
ATOM     40  N   UNL A   1      41.160  27.930  28.618  1.00  0.00    -0.248 NA
ATOM     41  C   UNL A   1      39.356  26.455  28.737  1.00  0.00     0.031 C 
ATOM     42  C   UNL A   1      43.419  24.943  26.185  1.00  0.00     0.029 A 
ATOM     43  N   UNL A   1      43.481  26.977  27.110  1.00  0.00    -0.354 N 
ATOM     44  C   UNL A   1      40.103  28.550  29.274  1.00  0.00     0.074 A 
ATOM     45  C   UNL A   1      38.999  27.615  29.266  1.00  0.00     0.031 C 
ATOM     46  C   UNL A   1      44.601  25.492  25.866  1.00  0.00     0.029 A 
ATOM     47  C   UNL A   1      44.669  26.837  26.430  1.00  0.00     0.049 A 
ATOM     48  H   UNL A   1      43.244  27.787  27.618  1.00  0.00     0.167 HD
ATOM     49  C   UNL A   1      40.061  29.775  29.851  1.00  0.00     0.034 A 
ATOM     50  C   UNL A   1      45.696  27.694  26.271  1.00  0.00     0.034 A 
ATOM     51  C   UNL A   1      41.170  30.693  29.875  1.00  0.00     0.049 A 
ATOM     52  C   UNL A   1      45.627  29.048  26.920  1.00  0.00     0.074 A 
ATOM     53  C   UNL A   1      41.260  31.917  30.513  1.00  0.00     0.029 A 
ATOM     54  N   UNL A   1      42.373  30.500  29.212  1.00  0.00    -0.354 N 
ATOM     55  N   UNL A   1      44.682  29.555  27.674  1.00  0.00    -0.248 NA
ATOM     56  C   UNL A   1      46.779  29.939  26.719  1.00  0.00     0.031 C 
ATOM     57  C   UNL A   1      42.501  32.483  30.199  1.00  0.00     0.029 A 
ATOM     58  C   UNL A   1      43.202  31.593  29.401  1.00  0.00     0.049 A 
ATOM     59  H   UNL A   1      42.604  29.701  28.684  1.00  0.00     0.167 HD
ATOM     60  C   UNL A   1      45.140  30.808  28.068  1.00  0.00     0.074 A 
ATOM     61  C   UNL A   1      46.453  30.975  27.481  1.00  0.00     0.031 C 
ATOM     62  C   UNL A   1      44.523  31.738  28.841  1.00  0.00     0.034 A 
BRANCH  49  63
ATOM     63  C   UNL A   1      38.773  30.181  30.524  1.00  0.00     0.023 A 
ATOM     64  C   UNL A   1      38.543  29.831  31.871  1.00  0.00     0.012 A 
ATOM     65  C   UNL A   1      37.797  30.925  29.831  1.00  0.00     0.148 A 
ATOM     66  C   UNL A   1      37.342  30.160  32.499  1.00  0.00     0.002 A 
ATOM     67  C   UNL A   1      36.624  31.295  30.480  1.00  0.00     0.091 A 
ATOM     68  F   UNL A   1      38.019  31.235  28.546  1.00  0.00    -0.205 F 
ATOM     69  C   UNL A   1      36.387  30.899  31.806  1.00  0.00     0.022 A 
BRANCH  67  70
ATOM     70  S   UNL A   1      35.371  32.318  29.698  1.00  0.00     0.127 S 
ATOM     71  O   UNL A   1      34.447  32.552  30.806  1.00  0.00    -0.237 OA
ATOM     72  O   UNL A   1      36.142  33.492  29.289  1.00  0.00    -0.237 OA
ATOM     73  O   UNL A   1      34.843  31.527  28.594  1.00  0.00    -0.744 OA
ENDBRANCH  67  70
ENDBRANCH  49  63
BRANCH  50  74
ATOM     74  C   UNL A   1      46.912  27.260  25.527  1.00  0.00     0.023 A 
ATOM     75  C   UNL A   1      47.779  26.323  26.120  1.00  0.00     0.012 A 
ATOM     76  C   UNL A   1      47.186  27.724  24.225  1.00  0.00     0.148 A 
ATOM     77  C   UNL A   1      48.910  25.871  25.441  1.00  0.00     0.002 A 
ATOM     78  C   UNL A   1      48.285  27.230  23.534  1.00  0.00     0.091 A 
ATOM     79  F   UNL A   1      46.348  28.618  23.681  1.00  0.00    -0.205 F 
ATOM     80  C   UNL A   1      49.158  26.316  24.145  1.00  0.00     0.022 A 
BRANCH  78  81
ATOM     81  S   UNL A   1      48.616  27.643  21.817  1.00  0.00     0.127 S 
ATOM     82  O   UNL A   1      49.289  26.436  21.344  1.00  0.00    -0.237 OA
ATOM     83  O   UNL A   1      47.265  27.842  21.292  1.00  0.00    -0.237 OA
ATOM     84  O   UNL A   1      49.435  28.846  21.848  1.00  0.00    -0.744 OA
ENDBRANCH  78  81
ENDBRANCH  50  74
BRANCH  62  85
ATOM     85  C   UNL A   1      45.269  33.015  29.127  1.00  0.00     0.023 A 
ATOM     86  C   UNL A   1      46.092  33.112  30.267  1.00  0.00     0.012 A 
ATOM     87  C   UNL A   1      45.210  34.098  28.226  1.00  0.00     0.148 A 
ATOM     88  C   UNL A   1      46.819  34.275  30.522  1.00  0.00     0.002 A 
ATOM     89  C   UNL A   1      45.979  35.232  28.458  1.00  0.00     0.091 A 
ATOM     90  F   UNL A   1      44.408  33.995  27.156  1.00  0.00    -0.205 F 
ATOM     91  C   UNL A   1      46.773  35.329  29.612  1.00  0.00     0.022 A 
BRANCH  89  92
ATOM     92  S   UNL A   1      46.060  36.598  27.295  1.00  0.00     0.127 S 
ATOM     93  O   UNL A   1      44.684  37.091  27.317  1.00  0.00    -0.237 OA
ATOM     94  O   UNL A   1      47.037  37.485  27.927  1.00  0.00    -0.237 OA
ATOM     95  O   UNL A   1      46.495  36.025  26.028  1.00  0.00    -0.744 OA
ENDBRANCH  89  92
ENDBRANCH  62  85
ENDBRANCH  36  37
ENDBRANCH  28  31
ENDBRANCH  26  27
ENDBRANCH  25  26
ENDBRANCH  24  25
ENDBRANCH   3  24
TORSDOF 20
ENDMDL
MODEL 2
REMARK VINA RESULT:     -10.9      1.341      2.329
REMARK SMILES [NH3+]CCOCC(=O)N[C@H](C(=O)NCCCNC(=O)c1ccc(-c2c3nc(c(-c4cccc(S(=O)(=O)[O-])c4F)c4ccc([nH]4)c(-c4cccc(S(=O)(=O)[O-])c4F)c4nc(c(-c5cccc(S(=O)(=O)[O-])c5F)c5ccc2[nH]5)C=C4)C=C3)cc1)c1ccccc1
REMARK SMILES IDX 10 1 11 2 12 3 9 5 8 6 6 7 7 8 5 10 4 11 3 12 2 13 1 14
REMARK SMILES IDX 82 18 83 19 87 20 84 21 86 22 85 23 13 24 14 25 15 26 16 27
REMARK SMILES IDX 17 28 18 30 19 31 20 32 81 33 21 34 80 35 22 36 23 37 24 38
REMARK SMILES IDX 74 39 25 40 79 41 73 42 75 43 26 44 78 45 72 46 71 47 27 49
REMARK SMILES IDX 59 50 39 51 58 52 40 53 43 54 57 55 76 56 41 57 42 58 56 60
REMARK SMILES IDX 77 61 44 62 28 63 29 64 37 65 30 66 32 67 38 68 31 69 33 70
REMARK SMILES IDX 34 71 35 72 36 73 60 74 61 75 69 76 62 77 64 78 70 79 63 80
REMARK SMILES IDX 65 81 66 82 67 83 68 84 45 85 46 86 54 87 47 88 49 89 55 90
REMARK SMILES IDX 48 91 50 92 51 93 52 94 53 95
REMARK H PARENT 12 4 8 9 1 15 1 16 1 17 16 29 75 48 43 59
REMARK Flexibility Score: inf
ROOT
ATOM      1  C   UNL A   1      31.776  24.177  26.530  1.00  0.00     0.247 C 
ATOM      2  O   UNL A   1      30.855  23.777  27.246  1.00  0.00    -0.272 OA
ATOM      3  N   UNL A   1      32.878  23.365  26.466  1.00  0.00    -0.354 N 
ATOM      4  H   UNL A   1      32.827  22.559  27.031  1.00  0.00     0.163 HD
ENDROOT
BRANCH   1   5
ATOM      5  C   UNL A   1      31.680  25.422  25.611  1.00  0.00     0.202 C 
BRANCH   5   6
ATOM      6  N   UNL A   1      30.273  25.497  25.182  1.00  0.00    -0.339 N 
ATOM      7  C   UNL A   1      29.684  26.168  24.154  1.00  0.00     0.246 C 
ATOM      8  O   UNL A   1      28.452  26.288  24.184  1.00  0.00    -0.272 OA
ATOM      9  H   UNL A   1      29.650  24.970  25.733  1.00  0.00     0.164 HD
BRANCH   7  10
ATOM     10  C   UNL A   1      30.476  26.720  22.957  1.00  0.00     0.260 C 
BRANCH  10  11
ATOM     11  O   UNL A   1      31.265  27.876  23.114  1.00  0.00    -0.366 OA
BRANCH  11  12
ATOM     12  C   UNL A   1      30.537  29.075  23.361  1.00  0.00     0.222 C 
BRANCH  12  13
ATOM     13  C   UNL A   1      29.409  29.315  22.343  1.00  0.00     0.287 C 
BRANCH  13  14
ATOM     14  N   UNL A   1      28.048  29.149  22.865  1.00  0.00    -0.356 N 
ATOM     15  H   UNL A   1      27.568  30.049  22.854  1.00  0.00     0.344 HD
ATOM     16  H   UNL A   1      28.090  28.797  23.821  1.00  0.00     0.344 HD
ATOM     17  H   UNL A   1      27.538  28.485  22.281  1.00  0.00     0.344 HD
ENDBRANCH  13  14
ENDBRANCH  12  13
ENDBRANCH  11  12
ENDBRANCH  10  11
ENDBRANCH   7  10
ENDBRANCH   5   6
BRANCH   5  18
ATOM     18  C   UNL A   1      32.256  26.731  26.119  1.00  0.00    -0.016 A 
ATOM     19  C   UNL A   1      31.411  27.659  26.762  1.00  0.00     0.006 A 
ATOM     20  C   UNL A   1      33.608  27.072  25.966  1.00  0.00     0.006 A 
ATOM     21  C   UNL A   1      31.930  28.809  27.361  1.00  0.00     0.000 A 
ATOM     22  C   UNL A   1      34.120  28.236  26.542  1.00  0.00     0.000 A 
ATOM     23  C   UNL A   1      33.290  29.087  27.266  1.00  0.00     0.000 A 
ENDBRANCH   5  18
ENDBRANCH   1   5
BRANCH   3  24
ATOM     24  C   UNL A   1      34.108  23.492  25.705  1.00  0.00     0.117 C 
BRANCH  24  25
ATOM     25  C   UNL A   1      34.990  22.256  25.838  1.00  0.00     0.042 C 
BRANCH  25  26
ATOM     26  C   UNL A   1      36.291  22.330  25.038  1.00  0.00     0.118 C 
BRANCH  26  27
ATOM     27  N   UNL A   1      37.174  21.195  25.285  1.00  0.00    -0.352 N 
ATOM     28  C   UNL A   1      38.457  21.157  25.772  1.00  0.00     0.251 C 
ATOM     29  H   UNL A   1      36.788  20.315  25.068  1.00  0.00     0.163 HD
ATOM     30  O   UNL A   1      39.087  20.100  25.731  1.00  0.00    -0.269 OA
BRANCH  28  31
ATOM     31  C   UNL A   1      39.092  22.372  26.325  1.00  0.00     0.039 A 
ATOM     32  C   UNL A   1      40.221  22.235  27.139  1.00  0.00     0.014 A 
ATOM     33  C   UNL A   1      38.573  23.641  26.058  1.00  0.00     0.014 A 
ATOM     34  C   UNL A   1      40.874  23.375  27.617  1.00  0.00     0.010 A 
ATOM     35  C   UNL A   1      39.270  24.775  26.468  1.00  0.00     0.010 A 
ATOM     36  C   UNL A   1      40.430  24.655  27.248  1.00  0.00    -0.014 A 
BRANCH  36  37
ATOM     37  C   UNL A   1      41.186  25.876  27.630  1.00  0.00     0.031 A 
ATOM     38  C   UNL A   1      40.537  26.955  28.452  1.00  0.00     0.074 A 
ATOM     39  C   UNL A   1      42.432  26.057  27.148  1.00  0.00     0.049 A 
ATOM     40  N   UNL A   1      41.026  28.107  28.834  1.00  0.00    -0.248 NA
ATOM     41  C   UNL A   1      39.149  26.721  28.879  1.00  0.00     0.031 C 
ATOM     42  C   UNL A   1      43.148  25.117  26.283  1.00  0.00     0.029 A 
ATOM     43  N   UNL A   1      43.307  27.104  27.296  1.00  0.00    -0.354 N 
ATOM     44  C   UNL A   1      39.998  28.751  29.511  1.00  0.00     0.074 A 
ATOM     45  C   UNL A   1      38.848  27.875  29.457  1.00  0.00     0.031 C 
ATOM     46  C   UNL A   1      44.359  25.619  25.994  1.00  0.00     0.029 A 
ATOM     47  C   UNL A   1      44.490  26.932  26.617  1.00  0.00     0.049 A 
ATOM     48  H   UNL A   1      43.107  27.902  27.838  1.00  0.00     0.167 HD
ATOM     49  C   UNL A   1      40.014  29.951  30.141  1.00  0.00     0.034 A 
ATOM     50  C   UNL A   1      45.561  27.743  26.499  1.00  0.00     0.034 A 
ATOM     51  C   UNL A   1      41.167  30.809  30.209  1.00  0.00     0.049 A 
ATOM     52  C   UNL A   1      45.556  29.070  27.207  1.00  0.00     0.074 A 
ATOM     53  C   UNL A   1      41.315  31.998  30.901  1.00  0.00     0.029 A 
ATOM     54  N   UNL A   1      42.363  30.583  29.545  1.00  0.00    -0.354 N 
ATOM     55  N   UNL A   1      44.632  29.591  27.978  1.00  0.00    -0.248 NA
ATOM     56  C   UNL A   1      46.753  29.908  27.050  1.00  0.00     0.031 C 
ATOM     57  C   UNL A   1      42.585  32.514  30.618  1.00  0.00     0.029 A 
ATOM     58  C   UNL A   1      43.245  31.624  29.785  1.00  0.00     0.049 A 
ATOM     59  H   UNL A   1      42.557  29.798  28.984  1.00  0.00     0.167 HD
ATOM     60  C   UNL A   1      45.150  30.801  28.428  1.00  0.00     0.074 A 
ATOM     61  C   UNL A   1      46.475  30.925  27.855  1.00  0.00     0.031 C 
ATOM     62  C   UNL A   1      44.576  31.726  29.238  1.00  0.00     0.034 A 
BRANCH  49  63
ATOM     63  C   UNL A   1      38.743  30.392  30.824  1.00  0.00     0.023 A 
ATOM     64  C   UNL A   1      38.535  30.086  32.186  1.00  0.00     0.012 A 
ATOM     65  C   UNL A   1      37.762  31.124  30.127  1.00  0.00     0.148 A 
ATOM     66  C   UNL A   1      37.350  30.449  32.826  1.00  0.00     0.002 A 
ATOM     67  C   UNL A   1      36.606  31.528  30.786  1.00  0.00     0.091 A 
ATOM     68  F   UNL A   1      37.963  31.392  28.829  1.00  0.00    -0.205 F 
ATOM     69  C   UNL A   1      36.390  31.177  32.128  1.00  0.00     0.022 A 
BRANCH  67  70
ATOM     70  S   UNL A   1      35.349  32.540  29.996  1.00  0.00     0.127 S 
ATOM     71  O   UNL A   1      34.347  32.646  31.054  1.00  0.00    -0.237 OA
ATOM     72  O   UNL A   1      36.078  33.778  29.720  1.00  0.00    -0.237 OA
ATOM     73  O   UNL A   1      34.936  31.806  28.808  1.00  0.00    -0.744 OA
ENDBRANCH  67  70
ENDBRANCH  49  63
BRANCH  50  74
ATOM     74  C   UNL A   1      46.758  27.281  25.743  1.00  0.00     0.023 A 
ATOM     75  C   UNL A   1      47.618  26.335  26.334  1.00  0.00     0.012 A 
ATOM     76  C   UNL A   1      47.021  27.725  24.432  1.00  0.00     0.148 A 
ATOM     77  C   UNL A   1      48.731  25.857  25.644  1.00  0.00     0.002 A 
ATOM     78  C   UNL A   1      48.102  27.205  23.731  1.00  0.00     0.091 A 
ATOM     79  F   UNL A   1      46.190  28.627  23.891  1.00  0.00    -0.205 F 
ATOM     80  C   UNL A   1      48.968  26.283  24.340  1.00  0.00     0.022 A 
BRANCH  78  81
ATOM     81  S   UNL A   1      48.415  27.593  22.005  1.00  0.00     0.127 S 
ATOM     82  O   UNL A   1      48.672  26.270  21.443  1.00  0.00    -0.237 OA
ATOM     83  O   UNL A   1      47.146  28.199  21.601  1.00  0.00    -0.237 OA
ATOM     84  O   UNL A   1      49.548  28.507  22.002  1.00  0.00    -0.744 OA
ENDBRANCH  78  81
ENDBRANCH  50  74
BRANCH  62  85
ATOM     85  C   UNL A   1      45.384  32.950  29.584  1.00  0.00     0.023 A 
ATOM     86  C   UNL A   1      46.267  32.927  30.682  1.00  0.00     0.012 A 
ATOM     87  C   UNL A   1      45.320  34.103  28.774  1.00  0.00     0.148 A 
ATOM     88  C   UNL A   1      47.049  34.041  30.987  1.00  0.00     0.002 A 
ATOM     89  C   UNL A   1      46.142  35.188  29.053  1.00  0.00     0.091 A 
ATOM     90  F   UNL A   1      44.461  34.114  27.744  1.00  0.00    -0.205 F 
ATOM     91  C   UNL A   1      46.997  35.165  30.167  1.00  0.00     0.022 A 
BRANCH  89  92
ATOM     92  S   UNL A   1      46.216  36.640  27.998  1.00  0.00     0.127 S 
ATOM     93  O   UNL A   1      47.285  37.413  28.630  1.00  0.00    -0.237 OA
ATOM     94  O   UNL A   1      46.566  36.061  26.701  1.00  0.00    -0.237 OA
ATOM     95  O   UNL A   1      44.893  37.247  28.053  1.00  0.00    -0.744 OA
ENDBRANCH  89  92
ENDBRANCH  62  85
ENDBRANCH  36  37
ENDBRANCH  28  31
ENDBRANCH  26  27
ENDBRANCH  25  26
ENDBRANCH  24  25
ENDBRANCH   3  24
TORSDOF 20
ENDMDL
MODEL 3
REMARK VINA RESULT:     -10.9      1.866      7.901
REMARK SMILES [NH3+]CCOCC(=O)N[C@H](C(=O)NCCCNC(=O)c1ccc(-c2c3nc(c(-c4cccc(S(=O)(=O)[O-])c4F)c4ccc([nH]4)c(-c4cccc(S(=O)(=O)[O-])c4F)c4nc(c(-c5cccc(S(=O)(=O)[O-])c5F)c5ccc2[nH]5)C=C4)C=C3)cc1)c1ccccc1
REMARK SMILES IDX 10 1 11 2 12 3 9 5 8 6 6 7 7 8 5 10 4 11 3 12 2 13 1 14
REMARK SMILES IDX 82 18 83 19 87 20 84 21 86 22 85 23 13 24 14 25 15 26 16 27
REMARK SMILES IDX 17 28 18 30 19 31 20 32 81 33 21 34 80 35 22 36 23 37 24 38
REMARK SMILES IDX 74 39 25 40 79 41 73 42 75 43 26 44 78 45 72 46 71 47 27 49
REMARK SMILES IDX 59 50 39 51 58 52 40 53 43 54 57 55 76 56 41 57 42 58 56 60
REMARK SMILES IDX 77 61 44 62 28 63 29 64 37 65 30 66 32 67 38 68 31 69 33 70
REMARK SMILES IDX 34 71 35 72 36 73 60 74 61 75 69 76 62 77 64 78 70 79 63 80
REMARK SMILES IDX 65 81 66 82 67 83 68 84 45 85 46 86 54 87 47 88 49 89 55 90
REMARK SMILES IDX 48 91 50 92 51 93 52 94 53 95
REMARK H PARENT 12 4 8 9 1 15 1 16 1 17 16 29 75 48 43 59
REMARK Flexibility Score: inf
ROOT
ATOM      1  C   UNL A   1      33.487  22.861  27.091  1.00  0.00     0.247 C 
ATOM      2  O   UNL A   1      32.648  22.573  27.947  1.00  0.00    -0.272 OA
ATOM      3  N   UNL A   1      34.726  22.302  27.260  1.00  0.00    -0.354 N 
ATOM      4  H   UNL A   1      34.822  21.753  28.072  1.00  0.00     0.163 HD
ENDROOT
BRANCH   1   5
ATOM      5  C   UNL A   1      33.168  23.658  25.800  1.00  0.00     0.202 C 
BRANCH   5   6
ATOM      6  N   UNL A   1      32.517  22.703  24.888  1.00  0.00    -0.339 N 
ATOM      7  C   UNL A   1      32.656  22.507  23.548  1.00  0.00     0.246 C 
ATOM      8  O   UNL A   1      31.788  21.832  22.978  1.00  0.00    -0.272 OA
ATOM      9  H   UNL A   1      31.868  22.102  25.321  1.00  0.00     0.164 HD
BRANCH   7  10
ATOM     10  C   UNL A   1      33.858  23.037  22.749  1.00  0.00     0.260 C 
BRANCH  10  11
ATOM     11  O   UNL A   1      33.688  24.120  21.866  1.00  0.00    -0.366 OA
BRANCH  11  12
ATOM     12  C   UNL A   1      32.925  25.207  22.383  1.00  0.00     0.222 C 
BRANCH  12  13
ATOM     13  C   UNL A   1      32.028  25.869  21.324  1.00  0.00     0.287 C 
BRANCH  13  14
ATOM     14  N   UNL A   1      32.384  25.577  19.930  1.00  0.00    -0.356 N 
ATOM     15  H   UNL A   1      31.534  25.499  19.371  1.00  0.00     0.344 HD
ATOM     16  H   UNL A   1      32.901  24.699  19.888  1.00  0.00     0.344 HD
ATOM     17  H   UNL A   1      32.965  26.331  19.562  1.00  0.00     0.344 HD
ENDBRANCH  13  14
ENDBRANCH  12  13
ENDBRANCH  11  12
ENDBRANCH  10  11
ENDBRANCH   7  10
ENDBRANCH   5   6
BRANCH   5  18
ATOM     18  C   UNL A   1      32.449  24.988  25.942  1.00  0.00    -0.016 A 
ATOM     19  C   UNL A   1      33.200  26.165  26.141  1.00  0.00     0.006 A 
ATOM     20  C   UNL A   1      31.052  25.102  25.895  1.00  0.00     0.006 A 
ATOM     21  C   UNL A   1      32.584  27.419  26.138  1.00  0.00     0.000 A 
ATOM     22  C   UNL A   1      30.436  26.354  25.921  1.00  0.00     0.000 A 
ATOM     23  C   UNL A   1      31.203  27.513  26.010  1.00  0.00     0.000 A 
ENDBRANCH   5  18
ENDBRANCH   1   5
BRANCH   3  24
ATOM     24  C   UNL A   1      35.923  22.383  26.440  1.00  0.00     0.117 C 
BRANCH  24  25
ATOM     25  C   UNL A   1      36.098  21.146  25.565  1.00  0.00     0.042 C 
BRANCH  25  26
ATOM     26  C   UNL A   1      37.427  21.099  24.811  1.00  0.00     0.118 C 
BRANCH  26  27
ATOM     27  N   UNL A   1      38.366  20.136  25.378  1.00  0.00    -0.352 N 
ATOM     28  C   UNL A   1      39.544  20.336  26.054  1.00  0.00     0.251 C 
ATOM     29  H   UNL A   1      38.114  19.192  25.255  1.00  0.00     0.163 HD
ATOM     30  O   UNL A   1      40.276  19.374  26.287  1.00  0.00    -0.269 OA
BRANCH  28  31
ATOM     31  C   UNL A   1      39.947  21.691  26.485  1.00  0.00     0.039 A 
ATOM     32  C   UNL A   1      40.911  21.823  27.490  1.00  0.00     0.014 A 
ATOM     33  C   UNL A   1      39.373  22.830  25.915  1.00  0.00     0.014 A 
ATOM     34  C   UNL A   1      41.354  23.095  27.864  1.00  0.00     0.010 A 
ATOM     35  C   UNL A   1      39.871  24.091  26.231  1.00  0.00     0.010 A 
ATOM     36  C   UNL A   1      40.870  24.237  27.206  1.00  0.00    -0.014 A 
BRANCH  36  37
ATOM     37  C   UNL A   1      41.423  25.587  27.491  1.00  0.00     0.031 A 
ATOM     38  C   UNL A   1      42.838  25.932  27.115  1.00  0.00     0.074 A 
ATOM     39  C   UNL A   1      40.678  26.472  28.181  1.00  0.00     0.049 A 
ATOM     40  N   UNL A   1      43.501  27.038  27.330  1.00  0.00    -0.248 NA
ATOM     41  C   UNL A   1      43.617  24.889  26.430  1.00  0.00     0.031 C 
ATOM     42  C   UNL A   1      39.316  26.235  28.664  1.00  0.00     0.029 A 
ATOM     43  N   UNL A   1      40.967  27.740  28.618  1.00  0.00    -0.354 N 
ATOM     44  C   UNL A   1      44.784  26.814  26.844  1.00  0.00     0.074 A 
ATOM     45  C   UNL A   1      44.813  25.452  26.355  1.00  0.00     0.031 C 
ATOM     46  C   UNL A   1      38.881  27.327  29.312  1.00  0.00     0.029 A 
ATOM     47  C   UNL A   1      39.945  28.326  29.328  1.00  0.00     0.049 A 
ATOM     48  H   UNL A   1      41.826  28.189  28.441  1.00  0.00     0.167 HD
ATOM     49  C   UNL A   1      45.835  27.667  26.789  1.00  0.00     0.034 A 
ATOM     50  C   UNL A   1      39.872  29.528  29.932  1.00  0.00     0.034 A 
ATOM     51  C   UNL A   1      45.793  29.027  27.259  1.00  0.00     0.049 A 
ATOM     52  C   UNL A   1      41.050  30.458  29.857  1.00  0.00     0.074 A 
ATOM     53  C   UNL A   1      46.772  30.001  27.163  1.00  0.00     0.029 A 
ATOM     54  N   UNL A   1      44.726  29.600  27.934  1.00  0.00    -0.354 N 
ATOM     55  N   UNL A   1      42.200  30.287  29.251  1.00  0.00    -0.248 NA
ATOM     56  C   UNL A   1      40.910  31.760  30.527  1.00  0.00     0.031 C 
ATOM     57  C   UNL A   1      46.313  31.148  27.821  1.00  0.00     0.029 A 
ATOM     58  C   UNL A   1      45.031  30.904  28.288  1.00  0.00     0.049 A 
ATOM     59  H   UNL A   1      43.876  29.146  28.134  1.00  0.00     0.167 HD
ATOM     60  C   UNL A   1      42.907  31.471  29.435  1.00  0.00     0.074 A 
ATOM     61  C   UNL A   1      42.048  32.356  30.195  1.00  0.00     0.031 C 
ATOM     62  C   UNL A   1      44.158  31.791  29.016  1.00  0.00     0.034 A 
BRANCH  49  63
ATOM     63  C   UNL A   1      47.114  27.153  26.177  1.00  0.00     0.023 A 
ATOM     64  C   UNL A   1      47.377  27.374  24.808  1.00  0.00     0.012 A 
ATOM     65  C   UNL A   1      48.066  26.467  26.957  1.00  0.00     0.148 A 
ATOM     66  C   UNL A   1      48.534  26.871  24.214  1.00  0.00     0.002 A 
ATOM     67  C   UNL A   1      49.242  26.014  26.368  1.00  0.00     0.091 A 
ATOM     68  F   UNL A   1      47.796  26.246  28.251  1.00  0.00    -0.205 F 
ATOM     69  C   UNL A   1      49.469  26.199  24.995  1.00  0.00     0.022 A 
BRANCH  67  70
ATOM     70  S   UNL A   1      50.544  25.211  27.310  1.00  0.00     0.127 S 
ATOM     71  O   UNL A   1      51.486  24.842  26.255  1.00  0.00    -0.237 OA
ATOM     72  O   UNL A   1      51.002  26.289  28.186  1.00  0.00    -0.237 OA
ATOM     73  O   UNL A   1      49.908  24.099  28.002  1.00  0.00    -0.744 OA
ENDBRANCH  67  70
ENDBRANCH  49  63
BRANCH  50  74
ATOM     74  C   UNL A   1      38.602  29.948  30.590  1.00  0.00     0.023 A 
ATOM     75  C   UNL A   1      38.360  29.559  31.921  1.00  0.00     0.012 A 
ATOM     76  C   UNL A   1      37.665  30.767  29.931  1.00  0.00     0.148 A 
ATOM     77  C   UNL A   1      37.198  29.958  32.579  1.00  0.00     0.002 A 
ATOM     78  C   UNL A   1      36.534  31.205  30.609  1.00  0.00     0.091 A 
ATOM     79  F   UNL A   1      37.915  31.123  28.663  1.00  0.00    -0.205 F 
ATOM     80  C   UNL A   1      36.290  30.789  31.928  1.00  0.00     0.022 A 
BRANCH  78  81
ATOM     81  S   UNL A   1      35.373  32.379  29.902  1.00  0.00     0.127 S 
ATOM     82  O   UNL A   1      36.252  33.491  29.546  1.00  0.00    -0.237 OA
ATOM     83  O   UNL A   1      34.841  31.625  28.766  1.00  0.00    -0.237 OA
ATOM     84  O   UNL A   1      34.402  32.659  30.950  1.00  0.00    -0.744 OA
ENDBRANCH  78  81
ENDBRANCH  50  74
BRANCH  62  85
ATOM     85  C   UNL A   1      44.672  33.170  29.341  1.00  0.00     0.023 A 
ATOM     86  C   UNL A   1      45.345  33.403  30.558  1.00  0.00     0.012 A 
ATOM     87  C   UNL A   1      44.552  34.219  28.407  1.00  0.00     0.148 A 
ATOM     88  C   UNL A   1      45.861  34.666  30.852  1.00  0.00     0.002 A 
ATOM     89  C   UNL A   1      45.115  35.459  28.685  1.00  0.00     0.091 A 
ATOM     90  F   UNL A   1      43.893  33.983  27.263  1.00  0.00    -0.205 F 
ATOM     91  C   UNL A   1      45.757  35.688  29.913  1.00  0.00     0.022 A 
BRANCH  89  92
ATOM     92  S   UNL A   1      45.119  36.806  27.497  1.00  0.00     0.127 S 
ATOM     93  O   UNL A   1      45.698  36.163  26.319  1.00  0.00    -0.237 OA
ATOM     94  O   UNL A   1      43.695  37.121  27.383  1.00  0.00    -0.237 OA
ATOM     95  O   UNL A   1      45.927  37.864  28.089  1.00  0.00    -0.744 OA
ENDBRANCH  89  92
ENDBRANCH  62  85
ENDBRANCH  36  37
ENDBRANCH  28  31
ENDBRANCH  26  27
ENDBRANCH  25  26
ENDBRANCH  24  25
ENDBRANCH   3  24
TORSDOF 20
ENDMDL
