MODEL 1
REMARK VINA RESULT:      -8.5      0.000      0.000
REMARK SMILES CC1CC[NH+]([C@H](c2ccc(F)cc2)c2ccc([C@@H](C)C(=O)NCCCNC(=O)c3ccc(-c4c5nc(c(-c6cccc(S(=O)(=O)[O-])c6F)c6ccc([nH]6)c(-c6cccc(S(=O)(=O)[O-])c6F)c6nc(c(-c7cccc(S(=O)(=O)[O-])c7F)c7ccc4[nH]7)C=C6)C=C5)cc3)cc2-c2ccc(C(F)(F)F)cc2)CC1
REMARK SMILES IDX 24 1 23 2 22 3 20 4 21 5 18 7 19 8 17 9 14 10 15 11 93 12
REMARK SMILES IDX 16 13 92 14 6 15 5 16 1 17 2 18 3 19 105 20 4 21 104 22 7 24
REMARK SMILES IDX 8 25 13 26 9 27 12 28 10 29 11 30 94 31 95 32 103 33 96 34
REMARK SMILES IDX 102 35 97 36 98 37 99 38 100 39 101 40 25 41 26 42 27 43
REMARK SMILES IDX 28 45 29 46 30 47 91 48 31 49 90 50 32 51 33 52 34 53 84 54
REMARK SMILES IDX 35 55 89 56 83 57 85 58 36 59 88 60 82 61 81 62 37 64 69 65
REMARK SMILES IDX 49 66 68 67 50 68 53 69 67 70 86 71 51 72 52 73 66 75 87 76
REMARK SMILES IDX 54 77 38 78 39 79 47 80 40 81 42 82 48 83 41 84 43 85 44 86
REMARK SMILES IDX 45 87 46 88 70 89 71 90 79 91 72 92 74 93 80 94 73 95 75 96
REMARK SMILES IDX 76 97 77 98 78 99 55 100 56 101 64 102 57 103 59 104 65 105
REMARK SMILES IDX 58 106 60 107 61 108 62 109 63 110
REMARK H PARENT 22 6 5 23 26 44 85 63 53 74
REMARK Flexibility Score: inf
ROOT
ATOM      1  C   UNL A   1      44.998  23.160  34.866  1.00  0.00     0.042 C 
ENDROOT
BRANCH   1   2
ATOM      2  C   UNL A   1      45.965  23.842  33.896  1.00  0.00     0.117 C 
BRANCH   2   3
ATOM      3  N   UNL A   1      46.209  25.234  34.230  1.00  0.00    -0.356 N 
ATOM      4  C   UNL A   1      46.780  26.268  33.551  1.00  0.00     0.227 C 
ATOM      5  O   UNL A   1      46.826  27.347  34.159  1.00  0.00    -0.274 OA
ATOM      6  H   UNL A   1      45.901  25.481  35.131  1.00  0.00     0.163 HD
BRANCH   4   7
ATOM      7  C   UNL A   1      47.336  26.186  32.115  1.00  0.00     0.105 C 
ATOM      8  C   UNL A   1      48.591  27.022  31.878  1.00  0.00     0.023 C 
BRANCH   7   9
ATOM      9  C   UNL A   1      46.265  26.314  31.048  1.00  0.00    -0.035 A 
ATOM     10  C   UNL A   1      44.521  26.351  28.773  1.00  0.00     0.022 A 
ATOM     11  C   UNL A   1      44.525  25.308  29.714  1.00  0.00     0.011 A 
ATOM     12  C   UNL A   1      45.304  27.492  29.097  1.00  0.00    -0.009 A 
ATOM     13  C   UNL A   1      45.307  25.333  30.863  1.00  0.00     0.005 A 
ATOM     14  C   UNL A   1      46.220  27.414  30.180  1.00  0.00     0.013 A 
BRANCH  10  15
ATOM     15  C   UNL A   1      43.635  26.258  27.493  1.00  0.00     0.247 C 
BRANCH  15  16
ATOM     16  N   UNL A   1      42.227  26.735  27.599  1.00  0.00    -0.325 N 
ATOM     17  C   UNL A   1      39.139  29.730  28.502  1.00  0.00     0.008 C 
ATOM     18  C   UNL A   1      40.385  28.888  28.277  1.00  0.00    -0.003 C 
ATOM     19  C   UNL A   1      40.544  28.495  26.811  1.00  0.00     0.065 C 
ATOM     20  C   UNL A   1      40.343  27.591  29.075  1.00  0.00     0.065 C 
ATOM     21  C   UNL A   1      41.825  27.690  26.565  1.00  0.00     0.263 C 
ATOM     22  C   UNL A   1      41.678  26.856  28.949  1.00  0.00     0.263 C 
ATOM     23  H   UNL A   1      41.661  25.933  27.318  1.00  0.00     0.348 HD
ENDBRANCH  15  16
BRANCH  15  24
ATOM     24  C   UNL A   1      43.694  24.883  26.797  1.00  0.00     0.014 A 
ATOM     25  C   UNL A   1      42.583  24.019  26.746  1.00  0.00     0.013 A 
ATOM     26  C   UNL A   1      44.892  24.468  26.183  1.00  0.00     0.013 A 
ATOM     27  C   UNL A   1      42.669  22.781  26.104  1.00  0.00     0.040 A 
ATOM     28  C   UNL A   1      44.986  23.216  25.572  1.00  0.00     0.040 A 
ATOM     29  C   UNL A   1      43.873  22.387  25.534  1.00  0.00     0.123 A 
ATOM     30  F   UNL A   1      43.964  21.186  24.945  1.00  0.00    -0.207 F 
ENDBRANCH  15  24
ENDBRANCH  10  15
BRANCH  12  31
ATOM     31  C   UNL A   1      45.164  28.794  28.413  1.00  0.00    -0.018 A 
ATOM     32  C   UNL A   1      46.116  29.251  27.490  1.00  0.00     0.009 A 
ATOM     33  C   UNL A   1      44.078  29.634  28.713  1.00  0.00     0.009 A 
ATOM     34  C   UNL A   1      45.967  30.494  26.864  1.00  0.00     0.014 A 
ATOM     35  C   UNL A   1      43.919  30.869  28.080  1.00  0.00     0.014 A 
ATOM     36  C   UNL A   1      44.861  31.311  27.143  1.00  0.00     0.056 A 
BRANCH  36  37
ATOM     37  C   UNL A   1      44.708  32.646  26.461  1.00  0.00     0.416 C 
ATOM     38  F   UNL A   1      44.484  32.518  25.121  1.00  0.00    -0.166 F 
ATOM     39  F   UNL A   1      43.666  33.377  26.943  1.00  0.00    -0.166 F 
ATOM     40  F   UNL A   1      45.807  33.445  26.573  1.00  0.00    -0.166 F 
ENDBRANCH  36  37
ENDBRANCH  12  31
ENDBRANCH   7   9
ENDBRANCH   4   7
ENDBRANCH   2   3
ENDBRANCH   1   2
BRANCH   1  41
ATOM     41  C   UNL A   1      44.530  24.028  36.024  1.00  0.00     0.118 C 
BRANCH  41  42
ATOM     42  N   UNL A   1      43.108  23.871  36.289  1.00  0.00    -0.352 N 
ATOM     43  C   UNL A   1      42.054  24.728  36.089  1.00  0.00     0.251 C 
ATOM     44  H   UNL A   1      42.859  23.002  36.679  1.00  0.00     0.163 HD
ATOM     45  O   UNL A   1      40.967  24.439  36.587  1.00  0.00    -0.269 OA
BRANCH  43  46
ATOM     46  C   UNL A   1      42.190  25.977  35.299  1.00  0.00     0.039 A 
ATOM     47  C   UNL A   1      41.857  27.192  35.911  1.00  0.00     0.014 A 
ATOM     48  C   UNL A   1      42.559  25.971  33.952  1.00  0.00     0.014 A 
ATOM     49  C   UNL A   1      41.921  28.388  35.187  1.00  0.00     0.010 A 
ATOM     50  C   UNL A   1      42.710  27.173  33.258  1.00  0.00     0.010 A 
ATOM     51  C   UNL A   1      42.368  28.393  33.857  1.00  0.00    -0.014 A 
BRANCH  51  52
ATOM     52  C   UNL A   1      42.467  29.653  33.072  1.00  0.00     0.031 A 
ATOM     53  C   UNL A   1      41.220  30.348  32.592  1.00  0.00     0.074 A 
ATOM     54  C   UNL A   1      43.677  30.130  32.714  1.00  0.00     0.049 A 
ATOM     55  N   UNL A   1      41.114  31.413  31.842  1.00  0.00    -0.248 NA
ATOM     56  C   UNL A   1      39.926  29.765  32.988  1.00  0.00     0.031 C 
ATOM     57  C   UNL A   1      44.954  29.519  33.070  1.00  0.00     0.029 A 
ATOM     58  N   UNL A   1      44.036  31.212  31.947  1.00  0.00    -0.354 N 
ATOM     59  C   UNL A   1      39.752  31.611  31.653  1.00  0.00     0.074 A 
ATOM     60  C   UNL A   1      39.068  30.535  32.335  1.00  0.00     0.031 C 
ATOM     61  C   UNL A   1      45.956  30.210  32.505  1.00  0.00     0.029 A 
ATOM     62  C   UNL A   1      45.392  31.310  31.731  1.00  0.00     0.049 A 
ATOM     63  H   UNL A   1      43.385  31.857  31.587  1.00  0.00     0.167 HD
ATOM     64  C   UNL A   1      39.127  32.621  31.005  1.00  0.00     0.034 A 
ATOM     65  C   UNL A   1      46.107  32.179  30.990  1.00  0.00     0.034 A 
ATOM     66  C   UNL A   1      39.812  33.722  30.385  1.00  0.00     0.049 A 
ATOM     67  C   UNL A   1      45.390  33.308  30.305  1.00  0.00     0.074 A 
ATOM     68  C   UNL A   1      39.262  34.852  29.804  1.00  0.00     0.029 A 
ATOM     69  N   UNL A   1      41.187  33.834  30.260  1.00  0.00    -0.354 N 
ATOM     70  N   UNL A   1      44.106  33.570  30.286  1.00  0.00    -0.248 NA
ATOM     71  C   UNL A   1      46.214  34.287  29.581  1.00  0.00     0.031 C 
ATOM     72  C   UNL A   1      40.305  35.633  29.302  1.00  0.00     0.029 A 
ATOM     73  C   UNL A   1      41.505  35.006  29.598  1.00  0.00     0.049 A 
ATOM     74  H   UNL A   1      41.840  33.178  30.593  1.00  0.00     0.167 HD
ATOM     75  C   UNL A   1      43.970  34.762  29.586  1.00  0.00     0.074 A 
ATOM     76  C   UNL A   1      45.305  35.180  29.209  1.00  0.00     0.031 C 
ATOM     77  C   UNL A   1      42.839  35.440  29.277  1.00  0.00     0.034 A 
BRANCH  64  78
ATOM     78  C   UNL A   1      37.623  32.641  30.989  1.00  0.00     0.023 A 
ATOM     79  C   UNL A   1      36.933  31.926  29.990  1.00  0.00     0.012 A 
ATOM     80  C   UNL A   1      36.898  33.252  32.031  1.00  0.00     0.148 A 
ATOM     81  C   UNL A   1      35.543  31.826  30.021  1.00  0.00     0.002 A 
ATOM     82  C   UNL A   1      35.516  33.112  32.079  1.00  0.00     0.091 A 
ATOM     83  F   UNL A   1      37.575  33.941  32.960  1.00  0.00    -0.205 F 
ATOM     84  C   UNL A   1      34.837  32.406  31.072  1.00  0.00     0.022 A 
BRANCH  82  85
ATOM     85  S   UNL A   1      34.519  33.744  33.434  1.00  0.00     0.127 S 
ATOM     86  O   UNL A   1      33.252  33.049  33.215  1.00  0.00    -0.237 OA
ATOM     87  O   UNL A   1      35.271  33.289  34.603  1.00  0.00    -0.237 OA
ATOM     88  O   UNL A   1      34.468  35.189  33.260  1.00  0.00    -0.744 OA
ENDBRANCH  82  85
ENDBRANCH  64  78
BRANCH  65  89
ATOM     89  C   UNL A   1      47.593  32.052  30.930  1.00  0.00     0.023 A 
ATOM     90  C   UNL A   1      48.182  31.271  29.919  1.00  0.00     0.012 A 
ATOM     91  C   UNL A   1      48.423  32.747  31.833  1.00  0.00     0.148 A 
ATOM     92  C   UNL A   1      49.570  31.159  29.823  1.00  0.00     0.002 A 
ATOM     93  C   UNL A   1      49.805  32.677  31.697  1.00  0.00     0.091 A 
ATOM     94  F   UNL A   1      47.844  33.479  32.794  1.00  0.00    -0.205 F 
ATOM     95  C   UNL A   1      50.382  31.870  30.704  1.00  0.00     0.022 A 
BRANCH  93  96
ATOM     96  S   UNL A   1      50.925  33.669  32.693  1.00  0.00     0.127 S 
ATOM     97  O   UNL A   1      50.489  33.344  34.048  1.00  0.00    -0.237 OA
ATOM     98  O   UNL A   1      52.229  33.121  32.317  1.00  0.00    -0.237 OA
ATOM     99  O   UNL A   1      50.709  35.046  32.269  1.00  0.00    -0.744 OA
ENDBRANCH  93  96
ENDBRANCH  65  89
BRANCH  77 100
ATOM    100  C   UNL A   1      42.971  36.729  28.510  1.00  0.00     0.023 A 
ATOM    101  C   UNL A   1      42.607  36.770  27.150  1.00  0.00     0.012 A 
ATOM    102  C   UNL A   1      43.327  37.921  29.171  1.00  0.00     0.148 A 
ATOM    103  C   UNL A   1      42.608  37.978  26.456  1.00  0.00     0.002 A 
ATOM    104  C   UNL A   1      43.276  39.129  28.486  1.00  0.00     0.091 A 
ATOM    105  F   UNL A   1      43.683  37.854  30.462  1.00  0.00    -0.205 F 
ATOM    106  C   UNL A   1      42.926  39.158  27.126  1.00  0.00     0.022 A 
BRANCH 104 107
ATOM    107  S   UNL A   1      43.562  40.709  29.290  1.00  0.00     0.127 S 
ATOM    108  O   UNL A   1      44.741  40.419  30.105  1.00  0.00    -0.237 OA
ATOM    109  O   UNL A   1      43.808  41.594  28.153  1.00  0.00    -0.237 OA
ATOM    110  O   UNL A   1      42.349  41.007  30.040  1.00  0.00    -0.744 OA
ENDBRANCH 104 107
ENDBRANCH  77 100
ENDBRANCH  51  52
ENDBRANCH  43  46
ENDBRANCH  41  42
ENDBRANCH   1  41
TORSDOF 19
ENDMDL
MODEL 2
REMARK VINA RESULT:      -8.0      3.664      6.580
REMARK SMILES CC1CC[NH+]([C@H](c2ccc(F)cc2)c2ccc([C@@H](C)C(=O)NCCCNC(=O)c3ccc(-c4c5nc(c(-c6cccc(S(=O)(=O)[O-])c6F)c6ccc([nH]6)c(-c6cccc(S(=O)(=O)[O-])c6F)c6nc(c(-c7cccc(S(=O)(=O)[O-])c7F)c7ccc4[nH]7)C=C6)C=C5)cc3)cc2-c2ccc(C(F)(F)F)cc2)CC1
REMARK SMILES IDX 24 1 23 2 22 3 20 4 21 5 18 7 19 8 17 9 14 10 15 11 93 12
REMARK SMILES IDX 16 13 92 14 6 15 5 16 1 17 2 18 3 19 105 20 4 21 104 22 7 24
REMARK SMILES IDX 8 25 13 26 9 27 12 28 10 29 11 30 94 31 95 32 103 33 96 34
REMARK SMILES IDX 102 35 97 36 98 37 99 38 100 39 101 40 25 41 26 42 27 43
REMARK SMILES IDX 28 45 29 46 30 47 91 48 31 49 90 50 32 51 33 52 34 53 84 54
REMARK SMILES IDX 35 55 89 56 83 57 85 58 36 59 88 60 82 61 81 62 37 64 69 65
REMARK SMILES IDX 49 66 68 67 50 68 53 69 67 70 86 71 51 72 52 73 66 75 87 76
REMARK SMILES IDX 54 77 38 78 39 79 47 80 40 81 42 82 48 83 41 84 43 85 44 86
REMARK SMILES IDX 45 87 46 88 70 89 71 90 79 91 72 92 74 93 80 94 73 95 75 96
REMARK SMILES IDX 76 97 77 98 78 99 55 100 56 101 64 102 57 103 59 104 65 105
REMARK SMILES IDX 58 106 60 107 61 108 62 109 63 110
REMARK H PARENT 22 6 5 23 26 44 85 63 53 74
REMARK Flexibility Score: inf
ROOT
ATOM      1  C   UNL A   1      41.876  19.859  25.749  1.00  0.00     0.042 C 
ENDROOT
BRANCH   1   2
ATOM      2  C   UNL A   1      42.796  21.080  25.804  1.00  0.00     0.117 C 
BRANCH   2   3
ATOM      3  N   UNL A   1      44.204  20.727  25.748  1.00  0.00    -0.356 N 
ATOM      4  C   UNL A   1      45.351  21.455  25.849  1.00  0.00     0.227 C 
ATOM      5  O   UNL A   1      46.404  20.810  25.749  1.00  0.00    -0.274 OA
ATOM      6  H   UNL A   1      44.362  19.766  25.607  1.00  0.00     0.163 HD
BRANCH   4   7
ATOM      7  C   UNL A   1      45.417  22.976  26.091  1.00  0.00     0.105 C 
ATOM      8  C   UNL A   1      46.574  23.676  25.383  1.00  0.00     0.023 C 
BRANCH   7   9
ATOM      9  C   UNL A   1      45.223  23.362  27.546  1.00  0.00    -0.035 A 
ATOM     10  C   UNL A   1      44.522  24.325  30.153  1.00  0.00     0.022 A 
ATOM     11  C   UNL A   1      44.007  23.133  29.616  1.00  0.00     0.011 A 
ATOM     12  C   UNL A   1      45.558  24.953  29.411  1.00  0.00    -0.009 A 
ATOM     13  C   UNL A   1      44.415  22.622  28.389  1.00  0.00     0.005 A 
ATOM     14  C   UNL A   1      45.826  24.506  28.089  1.00  0.00     0.013 A 
BRANCH  10  15
ATOM     15  C   UNL A   1      44.011  24.858  31.526  1.00  0.00     0.247 C 
BRANCH  15  16
ATOM     16  N   UNL A   1      44.107  26.326  31.769  1.00  0.00    -0.325 N 
ATOM     17  C   UNL A   1      42.722  30.138  33.466  1.00  0.00     0.008 C 
ATOM     18  C   UNL A   1      42.972  28.714  32.992  1.00  0.00    -0.003 C 
ATOM     19  C   UNL A   1      44.272  28.150  33.557  1.00  0.00     0.065 C 
ATOM     20  C   UNL A   1      43.083  28.634  31.475  1.00  0.00     0.065 C 
ATOM     21  C   UNL A   1      44.505  26.697  33.128  1.00  0.00     0.263 C 
ATOM     22  C   UNL A   1      43.168  27.172  31.034  1.00  0.00     0.263 C 
ATOM     23  H   UNL A   1      44.943  26.618  31.262  1.00  0.00     0.348 HD
ENDBRANCH  15  16
BRANCH  15  24
ATOM     24  C   UNL A   1      44.549  24.070  32.738  1.00  0.00     0.014 A 
ATOM     25  C   UNL A   1      43.744  23.176  33.470  1.00  0.00     0.013 A 
ATOM     26  C   UNL A   1      45.892  24.236  33.131  1.00  0.00     0.013 A 
ATOM     27  C   UNL A   1      44.265  22.475  34.561  1.00  0.00     0.040 A 
ATOM     28  C   UNL A   1      46.400  23.560  34.242  1.00  0.00     0.040 A 
ATOM     29  C   UNL A   1      45.584  22.683  34.943  1.00  0.00     0.123 A 
ATOM     30  F   UNL A   1      46.074  22.033  36.008  1.00  0.00    -0.207 F 
ENDBRANCH  15  24
ENDBRANCH  10  15
BRANCH  12  31
ATOM     31  C   UNL A   1      46.434  26.003  29.967  1.00  0.00    -0.018 A 
ATOM     32  C   UNL A   1      46.241  27.361  29.674  1.00  0.00     0.009 A 
ATOM     33  C   UNL A   1      47.526  25.652  30.780  1.00  0.00     0.009 A 
ATOM     34  C   UNL A   1      47.092  28.337  30.204  1.00  0.00     0.014 A 
ATOM     35  C   UNL A   1      48.370  26.625  31.322  1.00  0.00     0.014 A 
ATOM     36  C   UNL A   1      48.158  27.980  31.044  1.00  0.00     0.056 A 
BRANCH  36  37
ATOM     37  C   UNL A   1      49.067  29.040  31.613  1.00  0.00     0.416 C 
ATOM     38  F   UNL A   1      49.761  29.700  30.641  1.00  0.00    -0.166 F 
ATOM     39  F   UNL A   1      48.398  30.001  32.308  1.00  0.00    -0.166 F 
ATOM     40  F   UNL A   1      50.009  28.550  32.467  1.00  0.00    -0.166 F 
ENDBRANCH  36  37
ENDBRANCH  12  31
ENDBRANCH   7   9
ENDBRANCH   4   7
ENDBRANCH   2   3
ENDBRANCH   1   2
BRANCH   1  41
ATOM     41  C   UNL A   1      40.749  19.856  26.771  1.00  0.00     0.118 C 
BRANCH  41  42
ATOM     42  N   UNL A   1      39.471  20.223  26.182  1.00  0.00    -0.352 N 
ATOM     43  C   UNL A   1      38.817  21.428  26.127  1.00  0.00     0.251 C 
ATOM     44  H   UNL A   1      38.993  19.479  25.748  1.00  0.00     0.163 HD
ATOM     45  O   UNL A   1      37.646  21.438  25.750  1.00  0.00    -0.269 OA
BRANCH  43  46
ATOM     46  C   UNL A   1      39.476  22.702  26.508  1.00  0.00     0.039 A 
ATOM     47  C   UNL A   1      39.170  23.856  25.775  1.00  0.00     0.014 A 
ATOM     48  C   UNL A   1      40.444  22.771  27.512  1.00  0.00     0.014 A 
ATOM     49  C   UNL A   1      39.806  25.068  26.067  1.00  0.00     0.010 A 
ATOM     50  C   UNL A   1      41.010  23.997  27.862  1.00  0.00     0.010 A 
ATOM     51  C   UNL A   1      40.719  25.156  27.128  1.00  0.00    -0.014 A 
BRANCH  51  52
ATOM     52  C   UNL A   1      41.394  26.436  27.474  1.00  0.00     0.031 A 
ATOM     53  C   UNL A   1      40.675  27.475  28.294  1.00  0.00     0.074 A 
ATOM     54  C   UNL A   1      42.619  26.707  26.980  1.00  0.00     0.049 A 
ATOM     55  N   UNL A   1      41.077  28.671  28.635  1.00  0.00    -0.248 NA
ATOM     56  C   UNL A   1      39.326  27.137  28.782  1.00  0.00     0.031 C 
ATOM     57  C   UNL A   1      43.394  25.808  26.130  1.00  0.00     0.029 A 
ATOM     58  N   UNL A   1      43.416  27.821  27.087  1.00  0.00    -0.354 N 
ATOM     59  C   UNL A   1      40.027  29.237  29.348  1.00  0.00     0.074 A 
ATOM     60  C   UNL A   1      38.953  28.269  29.361  1.00  0.00     0.031 C 
ATOM     61  C   UNL A   1      44.538  26.407  25.766  1.00  0.00     0.029 A 
ATOM     62  C   UNL A   1      44.574  27.744  26.347  1.00  0.00     0.049 A 
ATOM     63  H   UNL A   1      43.180  28.601  27.641  1.00  0.00     0.167 HD
ATOM     64  C   UNL A   1      39.978  30.437  29.969  1.00  0.00     0.034 A 
ATOM     65  C   UNL A   1      45.556  28.646  26.148  1.00  0.00     0.034 A 
ATOM     66  C   UNL A   1      41.074  31.366  30.006  1.00  0.00     0.049 A 
ATOM     67  C   UNL A   1      45.490  29.960  26.875  1.00  0.00     0.074 A 
ATOM     68  C   UNL A   1      41.160  32.557  30.707  1.00  0.00     0.029 A 
ATOM     69  N   UNL A   1      42.266  31.219  29.317  1.00  0.00    -0.354 N 
ATOM     70  N   UNL A   1      44.560  30.401  27.685  1.00  0.00    -0.248 NA
ATOM     71  C   UNL A   1      46.624  30.880  26.704  1.00  0.00     0.031 C 
ATOM     72  C   UNL A   1      42.394  33.143  30.418  1.00  0.00     0.029 A 
ATOM     73  C   UNL A   1      43.089  32.302  29.563  1.00  0.00     0.049 A 
ATOM     74  H   UNL A   1      42.494  30.455  28.739  1.00  0.00     0.167 HD
ATOM     75  C   UNL A   1      45.011  31.629  28.151  1.00  0.00     0.074 A 
ATOM     76  C   UNL A   1      46.306  31.857  27.545  1.00  0.00     0.031 C 
ATOM     77  C   UNL A   1      44.400  32.492  28.998  1.00  0.00     0.034 A 
BRANCH  64  78
ATOM     78  C   UNL A   1      38.733  30.800  30.732  1.00  0.00     0.023 A 
ATOM     79  C   UNL A   1      38.690  30.589  32.124  1.00  0.00     0.012 A 
ATOM     80  C   UNL A   1      37.666  31.466  30.098  1.00  0.00     0.148 A 
ATOM     81  C   UNL A   1      37.599  31.025  32.874  1.00  0.00     0.002 A 
ATOM     82  C   UNL A   1      36.602  31.936  30.858  1.00  0.00     0.091 A 
ATOM     83  F   UNL A   1      37.721  31.640  28.770  1.00  0.00    -0.205 F 
ATOM     84  C   UNL A   1      36.564  31.710  32.244  1.00  0.00     0.022 A 
BRANCH  82  85
ATOM     85  S   UNL A   1      35.259  32.906  30.161  1.00  0.00     0.127 S 
ATOM     86  O   UNL A   1      34.725  31.988  29.156  1.00  0.00    -0.237 OA
ATOM     87  O   UNL A   1      34.395  33.109  31.323  1.00  0.00    -0.237 OA
ATOM     88  O   UNL A   1      35.869  34.117  29.630  1.00  0.00    -0.744 OA
ENDBRANCH  82  85
ENDBRANCH  64  78
BRANCH  65  89
ATOM     89  C   UNL A   1      46.719  28.294  25.282  1.00  0.00     0.023 A 
ATOM     90  C   UNL A   1      46.595  28.387  23.883  1.00  0.00     0.012 A 
ATOM     91  C   UNL A   1      47.960  27.924  25.839  1.00  0.00     0.148 A 
ATOM     92  C   UNL A   1      47.677  28.092  23.052  1.00  0.00     0.002 A 
ATOM     93  C   UNL A   1      49.049  27.687  25.007  1.00  0.00     0.091 A 
ATOM     94  F   UNL A   1      48.056  27.833  27.172  1.00  0.00    -0.205 F 
ATOM     95  C   UNL A   1      48.906  27.753  23.613  1.00  0.00     0.022 A 
BRANCH  93  96
ATOM     96  S   UNL A   1      50.702  27.385  25.642  1.00  0.00     0.127 S 
ATOM     97  O   UNL A   1      50.592  26.009  26.121  1.00  0.00    -0.237 OA
ATOM     98  O   UNL A   1      51.523  27.557  24.444  1.00  0.00    -0.237 OA
ATOM     99  O   UNL A   1      50.918  28.398  26.667  1.00  0.00    -0.744 OA
ENDBRANCH  93  96
ENDBRANCH  65  89
BRANCH  77 100
ATOM    100  C   UNL A   1      45.119  33.765  29.356  1.00  0.00     0.023 A 
ATOM    101  C   UNL A   1      46.034  33.770  30.426  1.00  0.00     0.012 A 
ATOM    102  C   UNL A   1      44.987  34.912  28.550  1.00  0.00     0.148 A 
ATOM    103  C   UNL A   1      46.797  34.904  30.697  1.00  0.00     0.002 A 
ATOM    104  C   UNL A   1      45.788  36.021  28.794  1.00  0.00     0.091 A 
ATOM    105  F   UNL A   1      44.099  34.888  27.545  1.00  0.00    -0.205 F 
ATOM    106  C   UNL A   1      46.686  36.022  29.873  1.00  0.00     0.022 A 
BRANCH 104 107
ATOM    107  S   UNL A   1      45.795  37.463  27.723  1.00  0.00     0.127 S 
ATOM    108  O   UNL A   1      44.415  37.931  27.846  1.00  0.00    -0.237 OA
ATOM    109  O   UNL A   1      46.790  38.320  28.366  1.00  0.00    -0.237 OA
ATOM    110  O   UNL A   1      46.171  36.983  26.400  1.00  0.00    -0.744 OA
ENDBRANCH 104 107
ENDBRANCH  77 100
ENDBRANCH  51  52
ENDBRANCH  43  46
ENDBRANCH  41  42
ENDBRANCH   1  41
TORSDOF 19
ENDMDL
MODEL 3
REMARK VINA RESULT:      -7.9      3.555      6.242
REMARK SMILES CC1CC[NH+]([C@H](c2ccc(F)cc2)c2ccc([C@@H](C)C(=O)NCCCNC(=O)c3ccc(-c4c5nc(c(-c6cccc(S(=O)(=O)[O-])c6F)c6ccc([nH]6)c(-c6cccc(S(=O)(=O)[O-])c6F)c6nc(c(-c7cccc(S(=O)(=O)[O-])c7F)c7ccc4[nH]7)C=C6)C=C5)cc3)cc2-c2ccc(C(F)(F)F)cc2)CC1
REMARK SMILES IDX 24 1 23 2 22 3 20 4 21 5 18 7 19 8 17 9 14 10 15 11 93 12
REMARK SMILES IDX 16 13 92 14 6 15 5 16 1 17 2 18 3 19 105 20 4 21 104 22 7 24
REMARK SMILES IDX 8 25 13 26 9 27 12 28 10 29 11 30 94 31 95 32 103 33 96 34
REMARK SMILES IDX 102 35 97 36 98 37 99 38 100 39 101 40 25 41 26 42 27 43
REMARK SMILES IDX 28 45 29 46 30 47 91 48 31 49 90 50 32 51 33 52 34 53 84 54
REMARK SMILES IDX 35 55 89 56 83 57 85 58 36 59 88 60 82 61 81 62 37 64 69 65
REMARK SMILES IDX 49 66 68 67 50 68 53 69 67 70 86 71 51 72 52 73 66 75 87 76
REMARK SMILES IDX 54 77 38 78 39 79 47 80 40 81 42 82 48 83 41 84 43 85 44 86
REMARK SMILES IDX 45 87 46 88 70 89 71 90 79 91 72 92 74 93 80 94 73 95 75 96
REMARK SMILES IDX 76 97 77 98 78 99 55 100 56 101 64 102 57 103 59 104 65 105
REMARK SMILES IDX 58 106 60 107 61 108 62 109 63 110
REMARK H PARENT 22 6 5 23 26 44 85 63 53 74
REMARK Flexibility Score: inf
ROOT
ATOM      1  C   UNL A   1      42.199  26.988  35.002  1.00  0.00     0.042 C 
ENDROOT
BRANCH   1   2
ATOM      2  C   UNL A   1      43.528  26.542  34.390  1.00  0.00     0.117 C 
BRANCH   2   3
ATOM      3  N   UNL A   1      43.840  25.152  34.672  1.00  0.00    -0.356 N 
ATOM      4  C   UNL A   1      44.696  24.256  34.106  1.00  0.00     0.227 C 
ATOM      5  O   UNL A   1      44.701  23.126  34.615  1.00  0.00    -0.274 OA
ATOM      6  H   UNL A   1      43.327  24.781  35.426  1.00  0.00     0.163 HD
BRANCH   4   7
ATOM      7  C   UNL A   1      45.640  24.556  32.924  1.00  0.00     0.105 C 
ATOM      8  C   UNL A   1      46.696  25.619  33.217  1.00  0.00     0.023 C 
BRANCH   7   9
ATOM      9  C   UNL A   1      44.913  24.716  31.602  1.00  0.00    -0.035 A 
ATOM     10  C   UNL A   1      43.901  24.860  28.923  1.00  0.00     0.022 A 
ATOM     11  C   UNL A   1      43.732  23.731  29.743  1.00  0.00     0.011 A 
ATOM     12  C   UNL A   1      44.448  26.013  29.547  1.00  0.00    -0.009 A 
ATOM     13  C   UNL A   1      44.145  23.696  31.070  1.00  0.00     0.005 A 
ATOM     14  C   UNL A   1      45.017  25.891  30.844  1.00  0.00     0.013 A 
BRANCH  10  15
ATOM     15  C   UNL A   1      43.434  24.833  27.436  1.00  0.00     0.247 C 
BRANCH  15  16
ATOM     16  N   UNL A   1      42.166  25.544  27.104  1.00  0.00    -0.325 N 
ATOM     17  C   UNL A   1      39.395  28.953  27.290  1.00  0.00     0.008 C 
ATOM     18  C   UNL A   1      40.510  27.923  27.398  1.00  0.00    -0.003 C 
ATOM     19  C   UNL A   1      41.154  27.643  26.043  1.00  0.00     0.065 C 
ATOM     20  C   UNL A   1      39.999  26.588  27.924  1.00  0.00     0.065 C 
ATOM     21  C   UNL A   1      42.314  26.645  26.151  1.00  0.00     0.263 C 
ATOM     22  C   UNL A   1      41.172  25.640  28.172  1.00  0.00     0.263 C 
ATOM     23  H   UNL A   1      41.645  24.886  26.523  1.00  0.00     0.348 HD
ENDBRANCH  15  16
BRANCH  15  24
ATOM     24  C   UNL A   1      43.450  23.426  26.805  1.00  0.00     0.014 A 
ATOM     25  C   UNL A   1      44.629  22.841  26.304  1.00  0.00     0.013 A 
ATOM     26  C   UNL A   1      42.252  22.688  26.728  1.00  0.00     0.013 A 
ATOM     27  C   UNL A   1      44.609  21.562  25.742  1.00  0.00     0.040 A 
ATOM     28  C   UNL A   1      42.228  21.424  26.134  1.00  0.00     0.040 A 
ATOM     29  C   UNL A   1      43.407  20.872  25.651  1.00  0.00     0.123 A 
ATOM     30  F   UNL A   1      43.383  19.658  25.085  1.00  0.00    -0.207 F 
ENDBRANCH  15  24
ENDBRANCH  10  15
BRANCH  12  31
ATOM     31  C   UNL A   1      44.390  27.363  28.951  1.00  0.00    -0.018 A 
ATOM     32  C   UNL A   1      45.332  27.798  28.008  1.00  0.00     0.009 A 
ATOM     33  C   UNL A   1      43.398  28.271  29.360  1.00  0.00     0.009 A 
ATOM     34  C   UNL A   1      45.263  29.086  27.466  1.00  0.00     0.014 A 
ATOM     35  C   UNL A   1      43.319  29.554  28.813  1.00  0.00     0.014 A 
ATOM     36  C   UNL A   1      44.248  29.974  27.854  1.00  0.00     0.056 A 
BRANCH  36  37
ATOM     37  C   UNL A   1      44.181  31.359  27.262  1.00  0.00     0.416 C 
ATOM     38  F   UNL A   1      43.404  32.199  28.004  1.00  0.00    -0.166 F 
ATOM     39  F   UNL A   1      45.398  31.961  27.171  1.00  0.00    -0.166 F 
ATOM     40  F   UNL A   1      43.656  31.391  26.005  1.00  0.00    -0.166 F 
ENDBRANCH  36  37
ENDBRANCH  12  31
ENDBRANCH   7   9
ENDBRANCH   4   7
ENDBRANCH   2   3
ENDBRANCH   1   2
BRANCH   1  41
ATOM     41  C   UNL A   1      41.156  27.461  34.001  1.00  0.00     0.118 C 
BRANCH  41  42
ATOM     42  N   UNL A   1      40.375  28.579  34.507  1.00  0.00    -0.352 N 
ATOM     43  C   UNL A   1      40.583  29.933  34.424  1.00  0.00     0.251 C 
ATOM     44  H   UNL A   1      39.558  28.320  34.992  1.00  0.00     0.163 HD
ATOM     45  O   UNL A   1      39.882  30.672  35.114  1.00  0.00    -0.269 OA
BRANCH  43  46
ATOM     46  C   UNL A   1      41.619  30.521  33.539  1.00  0.00     0.039 A 
ATOM     47  C   UNL A   1      42.807  30.985  34.118  1.00  0.00     0.014 A 
ATOM     48  C   UNL A   1      41.414  30.701  32.169  1.00  0.00     0.014 A 
ATOM     49  C   UNL A   1      43.788  31.593  33.328  1.00  0.00     0.010 A 
ATOM     50  C   UNL A   1      42.430  31.225  31.368  1.00  0.00     0.010 A 
ATOM     51  C   UNL A   1      43.618  31.701  31.939  1.00  0.00    -0.014 A 
BRANCH  51  52
ATOM     52  C   UNL A   1      44.655  32.324  31.072  1.00  0.00     0.031 A 
ATOM     53  C   UNL A   1      44.442  33.702  30.505  1.00  0.00     0.074 A 
ATOM     54  C   UNL A   1      45.750  31.619  30.721  1.00  0.00     0.049 A 
ATOM     55  N   UNL A   1      45.201  34.375  29.680  1.00  0.00    -0.248 NA
ATOM     56  C   UNL A   1      43.212  34.413  30.898  1.00  0.00     0.031 C 
ATOM     57  C   UNL A   1      46.044  30.258  31.159  1.00  0.00     0.029 A 
ATOM     58  N   UNL A   1      46.802  31.929  29.893  1.00  0.00    -0.354 N 
ATOM     59  C   UNL A   1      44.533  35.568  29.434  1.00  0.00     0.074 A 
ATOM     60  C   UNL A   1      43.287  35.515  30.166  1.00  0.00     0.031 C 
ATOM     61  C   UNL A   1      47.177  29.834  30.580  1.00  0.00     0.029 A 
ATOM     62  C   UNL A   1      47.688  30.891  29.715  1.00  0.00     0.049 A 
ATOM     63  H   UNL A   1      46.912  32.811  29.468  1.00  0.00     0.167 HD
ATOM     64  C   UNL A   1      44.940  36.627  28.697  1.00  0.00     0.034 A 
ATOM     65  C   UNL A   1      48.785  30.790  28.939  1.00  0.00     0.034 A 
ATOM     66  C   UNL A   1      46.208  36.697  28.026  1.00  0.00     0.049 A 
ATOM     67  C   UNL A   1      49.230  31.992  28.155  1.00  0.00     0.074 A 
ATOM     68  C   UNL A   1      46.758  37.774  27.351  1.00  0.00     0.029 A 
ATOM     69  N   UNL A   1      47.120  35.659  27.937  1.00  0.00    -0.354 N 
ATOM     70  N   UNL A   1      48.667  33.172  28.076  1.00  0.00    -0.248 NA
ATOM     71  C   UNL A   1      50.481  31.872  27.392  1.00  0.00     0.031 C 
ATOM     72  C   UNL A   1      47.991  37.375  26.830  1.00  0.00     0.029 A 
ATOM     73  C   UNL A   1      48.223  36.062  27.206  1.00  0.00     0.049 A 
ATOM     74  H   UNL A   1      47.001  34.767  28.336  1.00  0.00     0.167 HD
ATOM     75  C   UNL A   1      49.510  33.947  27.291  1.00  0.00     0.074 A 
ATOM     76  C   UNL A   1      50.634  33.107  26.929  1.00  0.00     0.031 C 
ATOM     77  C   UNL A   1      49.360  35.235  26.899  1.00  0.00     0.034 A 
BRANCH  64  78
ATOM     78  C   UNL A   1      44.050  37.838  28.632  1.00  0.00     0.023 A 
ATOM     79  C   UNL A   1      43.134  37.967  27.569  1.00  0.00     0.012 A 
ATOM     80  C   UNL A   1      44.027  38.775  29.684  1.00  0.00     0.148 A 
ATOM     81  C   UNL A   1      42.216  39.015  27.546  1.00  0.00     0.002 A 
ATOM     82  C   UNL A   1      43.079  39.792  29.676  1.00  0.00     0.091 A 
ATOM     83  F   UNL A   1      44.918  38.642  30.676  1.00  0.00    -0.205 F 
ATOM     84  C   UNL A   1      42.179  39.917  28.605  1.00  0.00     0.022 A 
BRANCH  82  85
ATOM     85  S   UNL A   1      42.887  40.955  31.032  1.00  0.00     0.127 S 
ATOM     86  O   UNL A   1      44.139  41.707  30.953  1.00  0.00    -0.237 OA
ATOM     87  O   UNL A   1      41.699  41.704  30.625  1.00  0.00    -0.237 OA
ATOM     88  O   UNL A   1      42.725  40.151  32.236  1.00  0.00    -0.744 OA
ENDBRANCH  82  85
ENDBRANCH  64  78
BRANCH  65  89
ATOM     89  C   UNL A   1      49.576  29.524  28.936  1.00  0.00     0.023 A 
ATOM     90  C   UNL A   1      50.546  29.311  29.934  1.00  0.00     0.012 A 
ATOM     91  C   UNL A   1      49.332  28.511  27.988  1.00  0.00     0.148 A 
ATOM     92  C   UNL A   1      51.279  28.124  29.972  1.00  0.00     0.002 A 
ATOM     93  C   UNL A   1      50.026  27.308  28.066  1.00  0.00     0.091 A 
ATOM     94  F   UNL A   1      48.410  28.735  27.041  1.00  0.00    -0.205 F 
ATOM     95  C   UNL A   1      51.012  27.118  29.046  1.00  0.00     0.022 A 
BRANCH  93  96
ATOM     96  S   UNL A   1      49.649  25.905  27.007  1.00  0.00     0.127 S 
ATOM     97  O   UNL A   1      50.526  24.874  27.554  1.00  0.00    -0.237 OA
ATOM     98  O   UNL A   1      48.223  25.704  27.268  1.00  0.00    -0.237 OA
ATOM     99  O   UNL A   1      49.954  26.346  25.652  1.00  0.00    -0.744 OA
ENDBRANCH  93  96
ENDBRANCH  65  89
BRANCH  77 100
ATOM    100  C   UNL A   1      50.441  35.849  26.050  1.00  0.00     0.023 A 
ATOM    101  C   UNL A   1      50.422  35.658  24.655  1.00  0.00     0.012 A 
ATOM    102  C   UNL A   1      51.389  36.722  26.619  1.00  0.00     0.148 A 
ATOM    103  C   UNL A   1      51.342  36.315  23.840  1.00  0.00     0.002 A 
ATOM    104  C   UNL A   1      52.269  37.413  25.796  1.00  0.00     0.091 A 
ATOM    105  F   UNL A   1      51.395  36.877  27.951  1.00  0.00    -0.205 F 
ATOM    106  C   UNL A   1      52.253  37.204  24.408  1.00  0.00     0.022 A 
BRANCH 104 107
ATOM    107  S   UNL A   1      53.403  38.657  26.423  1.00  0.00     0.127 S 
ATOM    108  O   UNL A   1      52.527  39.452  27.282  1.00  0.00    -0.237 OA
ATOM    109  O   UNL A   1      54.387  37.846  27.137  1.00  0.00    -0.237 OA
ATOM    110  O   UNL A   1      53.925  39.355  25.255  1.00  0.00    -0.744 OA
ENDBRANCH 104 107
ENDBRANCH  77 100
ENDBRANCH  51  52
ENDBRANCH  43  46
ENDBRANCH  41  42
ENDBRANCH   1  41
TORSDOF 19
ENDMDL
