MODEL 1
REMARK VINA RESULT:     -12.3      0.000      0.000
REMARK SMILES COCC[C@]1(C(=O)NCCCNC(=O)c2ccc(-c3c4nc(c(-c5cccc(S(=O)(=O)[O-])c5F)c5ccc([nH]5)c(-c5cccc(S(=O)(=O)[O-])c5F)c5nc(c(-c6cccc(S(=O)(=O)[O-])c6F)c6ccc3[nH]6)C=C5)C=C4)cc2)CCCN(C(=O)c2ccc3c(c2)CCCO3)C1
REMARK SMILES IDX 10 1 9 2 8 3 6 4 7 5 5 7 78 8 94 9 79 10 81 11 80 12 4 13
REMARK SMILES IDX 3 14 2 15 1 16 82 17 83 18 84 19 85 20 89 21 86 22 88 23
REMARK SMILES IDX 87 24 90 25 93 26 91 27 92 28 11 29 12 30 13 31 14 33 15 34
REMARK SMILES IDX 16 35 77 36 17 37 76 38 18 39 19 40 20 41 70 42 21 43 75 44
REMARK SMILES IDX 69 45 71 46 22 47 74 48 68 49 67 50 23 52 55 53 35 54 54 55
REMARK SMILES IDX 36 56 39 57 53 58 72 59 37 60 38 61 52 63 73 64 40 65 24 66
REMARK SMILES IDX 25 67 33 68 26 69 28 70 34 71 27 72 29 73 30 74 31 75 32 76
REMARK SMILES IDX 56 77 57 78 65 79 58 80 60 81 66 82 59 83 61 84 62 85 63 86
REMARK SMILES IDX 64 87 41 88 42 89 50 90 43 91 45 92 51 93 44 94 46 95 47 96
REMARK SMILES IDX 48 97 49 98
REMARK H PARENT 8 6 12 32 71 51 39 62
REMARK Flexibility Score: inf
ROOT
ATOM      1  C   UNL A   1      31.460  31.829  26.555  1.00  0.00     0.042 C 
ENDROOT
BRANCH   1   2
ATOM      2  C   UNL A   1      31.701  30.576  25.721  1.00  0.00     0.117 C 
BRANCH   2   3
ATOM      3  N   UNL A   1      32.759  29.744  26.271  1.00  0.00    -0.355 N 
ATOM      4  C   UNL A   1      33.084  28.432  26.127  1.00  0.00     0.228 C 
ATOM      5  O   UNL A   1      34.065  28.061  26.781  1.00  0.00    -0.274 OA
ATOM      6  H   UNL A   1      33.367  30.233  26.872  1.00  0.00     0.163 HD
BRANCH   4   7
ATOM      7  C   UNL A   1      32.325  27.461  25.196  1.00  0.00     0.069 C 
ATOM      8  C   UNL A   1      30.859  27.895  24.986  1.00  0.00     0.021 C 
ATOM      9  C   UNL A   1      33.071  27.417  23.842  1.00  0.00     0.136 C 
ATOM     10  C   UNL A   1      30.147  27.066  23.924  1.00  0.00     0.023 C 
ATOM     11  N   UNL A   1      32.319  26.699  22.808  1.00  0.00    -0.338 N 
ATOM     12  C   UNL A   1      30.925  27.113  22.616  1.00  0.00     0.120 C 
BRANCH   7  13
ATOM     13  C   UNL A   1      32.415  26.015  25.809  1.00  0.00     0.047 C 
BRANCH  13  14
ATOM     14  C   UNL A   1      31.093  25.424  26.313  1.00  0.00     0.161 C 
BRANCH  14  15
ATOM     15  O   UNL A   1      31.369  24.226  27.039  1.00  0.00    -0.385 OA
ATOM     16  C   UNL A   1      30.388  23.207  26.910  1.00  0.00     0.194 C 
ENDBRANCH  14  15
ENDBRANCH  13  14
ENDBRANCH   7  13
BRANCH  11  17
ATOM     17  C   UNL A   1      32.966  25.681  22.115  1.00  0.00     0.253 C 
ATOM     18  O   UNL A   1      33.336  25.778  20.945  1.00  0.00    -0.269 OA
BRANCH  17  19
ATOM     19  C   UNL A   1      33.231  24.398  22.794  1.00  0.00     0.040 A 
ATOM     20  C   UNL A   1      32.143  23.582  23.129  1.00  0.00     0.017 A 
ATOM     21  C   UNL A   1      34.537  24.039  23.150  1.00  0.00     0.021 A 
ATOM     22  C   UNL A   1      32.360  22.391  23.817  1.00  0.00     0.047 A 
ATOM     23  C   UNL A   1      34.750  22.839  23.824  1.00  0.00    -0.005 A 
ATOM     24  C   UNL A   1      33.657  22.045  24.182  1.00  0.00     0.122 A 
ATOM     25  C   UNL A   1      36.113  22.318  24.149  1.00  0.00     0.043 C 
ATOM     26  O   UNL A   1      33.861  20.888  24.883  1.00  0.00    -0.493 OA
ATOM     27  C   UNL A   1      36.099  21.804  25.576  1.00  0.00     0.046 C 
ATOM     28  C   UNL A   1      34.796  21.088  25.954  1.00  0.00     0.230 C 
ENDBRANCH  17  19
ENDBRANCH  11  17
ENDBRANCH   4   7
ENDBRANCH   2   3
ENDBRANCH   1   2
BRANCH   1  29
ATOM     29  C   UNL A   1      32.714  32.364  27.232  1.00  0.00     0.118 C 
BRANCH  29  30
ATOM     30  N   UNL A   1      32.596  33.777  27.562  1.00  0.00    -0.352 N 
ATOM     31  C   UNL A   1      33.204  34.507  28.552  1.00  0.00     0.251 C 
ATOM     32  H   UNL A   1      31.985  34.290  26.984  1.00  0.00     0.163 HD
ATOM     33  O   UNL A   1      32.775  35.625  28.824  1.00  0.00    -0.269 OA
BRANCH  31  34
ATOM     34  C   UNL A   1      34.362  33.956  29.290  1.00  0.00     0.039 A 
ATOM     35  C   UNL A   1      34.136  33.052  30.332  1.00  0.00     0.014 A 
ATOM     36  C   UNL A   1      35.665  34.362  28.989  1.00  0.00     0.014 A 
ATOM     37  C   UNL A   1      35.219  32.519  31.036  1.00  0.00     0.010 A 
ATOM     38  C   UNL A   1      36.745  33.765  29.631  1.00  0.00     0.010 A 
ATOM     39  C   UNL A   1      36.533  32.851  30.673  1.00  0.00    -0.014 A 
BRANCH  39  40
ATOM     40  C   UNL A   1      37.705  32.265  31.372  1.00  0.00     0.031 A 
ATOM     41  C   UNL A   1      38.490  31.154  30.727  1.00  0.00     0.074 A 
ATOM     42  C   UNL A   1      38.001  32.666  32.623  1.00  0.00     0.049 A 
ATOM     43  N   UNL A   1      39.490  30.464  31.209  1.00  0.00    -0.248 NA
ATOM     44  C   UNL A   1      38.078  30.742  29.374  1.00  0.00     0.031 C 
ATOM     45  C   UNL A   1      37.262  33.676  33.385  1.00  0.00     0.029 A 
ATOM     46  N   UNL A   1      38.982  32.250  33.489  1.00  0.00    -0.354 N 
ATOM     47  C   UNL A   1      39.799  29.513  30.244  1.00  0.00     0.074 A 
ATOM     48  C   UNL A   1      38.858  29.692  29.160  1.00  0.00     0.031 C 
ATOM     49  C   UNL A   1      37.817  33.803  34.601  1.00  0.00     0.029 A 
ATOM     50  C   UNL A   1      38.929  32.865  34.718  1.00  0.00     0.049 A 
ATOM     51  H   UNL A   1      39.659  31.577  33.251  1.00  0.00     0.167 HD
ATOM     52  C   UNL A   1      40.794  28.595  30.242  1.00  0.00     0.034 A 
ATOM     53  C   UNL A   1      39.687  32.689  35.818  1.00  0.00     0.034 A 
ATOM     54  C   UNL A   1      41.760  28.459  31.298  1.00  0.00     0.049 A 
ATOM     55  C   UNL A   1      40.822  31.703  35.769  1.00  0.00     0.074 A 
ATOM     56  C   UNL A   1      42.864  27.627  31.353  1.00  0.00     0.029 A 
ATOM     57  N   UNL A   1      41.737  29.173  32.486  1.00  0.00    -0.354 N 
ATOM     58  N   UNL A   1      41.196  30.925  34.782  1.00  0.00    -0.248 NA
ATOM     59  C   UNL A   1      41.663  31.595  36.970  1.00  0.00     0.031 C 
ATOM     60  C   UNL A   1      43.499  27.825  32.583  1.00  0.00     0.029 A 
ATOM     61  C   UNL A   1      42.804  28.797  33.284  1.00  0.00     0.049 A 
ATOM     62  H   UNL A   1      41.062  29.847  32.728  1.00  0.00     0.167 HD
ATOM     63  C   UNL A   1      42.336  30.265  35.227  1.00  0.00     0.074 A 
ATOM     64  C   UNL A   1      42.602  30.750  36.566  1.00  0.00     0.031 C 
ATOM     65  C   UNL A   1      43.087  29.333  34.591  1.00  0.00     0.034 A 
BRANCH  52  66
ATOM     66  C   UNL A   1      40.926  27.704  29.034  1.00  0.00     0.023 A 
ATOM     67  C   UNL A   1      40.065  26.596  28.890  1.00  0.00     0.012 A 
ATOM     68  C   UNL A   1      41.858  27.989  28.018  1.00  0.00     0.148 A 
ATOM     69  C   UNL A   1      40.153  25.768  27.773  1.00  0.00     0.002 A 
ATOM     70  C   UNL A   1      41.909  27.185  26.885  1.00  0.00     0.091 A 
ATOM     71  F   UNL A   1      42.685  29.034  28.182  1.00  0.00    -0.205 F 
ATOM     72  C   UNL A   1      41.066  26.068  26.766  1.00  0.00     0.022 A 
BRANCH  70  73
ATOM     73  S   UNL A   1      42.995  27.534  25.497  1.00  0.00     0.127 S 
ATOM     74  O   UNL A   1      43.226  26.194  24.959  1.00  0.00    -0.237 OA
ATOM     75  O   UNL A   1      42.158  28.392  24.658  1.00  0.00    -0.237 OA
ATOM     76  O   UNL A   1      44.166  28.193  26.060  1.00  0.00    -0.744 OA
ENDBRANCH  70  73
ENDBRANCH  52  66
BRANCH  53  77
ATOM     77  C   UNL A   1      39.444  33.522  37.029  1.00  0.00     0.023 A 
ATOM     78  C   UNL A   1      39.901  34.854  37.053  1.00  0.00     0.012 A 
ATOM     79  C   UNL A   1      38.731  33.020  38.135  1.00  0.00     0.148 A 
ATOM     80  C   UNL A   1      39.682  35.661  38.169  1.00  0.00     0.002 A 
ATOM     81  C   UNL A   1      38.467  33.847  39.220  1.00  0.00     0.091 A 
ATOM     82  F   UNL A   1      38.312  31.748  38.097  1.00  0.00    -0.205 F 
ATOM     83  C   UNL A   1      38.957  35.162  39.247  1.00  0.00     0.022 A 
BRANCH  81  84
ATOM     84  S   UNL A   1      37.422  33.333  40.589  1.00  0.00     0.127 S 
ATOM     85  O   UNL A   1      36.200  32.932  39.899  1.00  0.00    -0.237 OA
ATOM     86  O   UNL A   1      38.196  32.234  41.166  1.00  0.00    -0.237 OA
ATOM     87  O   UNL A   1      37.309  34.502  41.453  1.00  0.00    -0.744 OA
ENDBRANCH  81  84
ENDBRANCH  53  77
BRANCH  65  88
ATOM     88  C   UNL A   1      44.294  28.796  35.313  1.00  0.00     0.023 A 
ATOM     89  C   UNL A   1      45.554  29.394  35.111  1.00  0.00     0.012 A 
ATOM     90  C   UNL A   1      44.164  27.756  36.253  1.00  0.00     0.148 A 
ATOM     91  C   UNL A   1      46.672  28.941  35.811  1.00  0.00     0.002 A 
ATOM     92  C   UNL A   1      45.272  27.343  36.983  1.00  0.00     0.091 A 
ATOM     93  F   UNL A   1      42.959  27.188  36.416  1.00  0.00    -0.205 F 
ATOM     94  C   UNL A   1      46.529  27.928  36.755  1.00  0.00     0.022 A 
BRANCH  92  95
ATOM     95  S   UNL A   1      45.161  26.112  38.286  1.00  0.00     0.127 S 
ATOM     96  O   UNL A   1      46.554  26.006  38.714  1.00  0.00    -0.237 OA
ATOM     97  O   UNL A   1      44.273  26.760  39.252  1.00  0.00    -0.237 OA
ATOM     98  O   UNL A   1      44.605  24.919  37.663  1.00  0.00    -0.744 OA
ENDBRANCH  92  95
ENDBRANCH  65  88
ENDBRANCH  39  40
ENDBRANCH  31  34
ENDBRANCH  29  30
ENDBRANCH   1  29
TORSDOF 18
ENDMDL
MODEL 2
REMARK VINA RESULT:     -12.3      5.460      8.754
REMARK SMILES COCC[C@]1(C(=O)NCCCNC(=O)c2ccc(-c3c4nc(c(-c5cccc(S(=O)(=O)[O-])c5F)c5ccc([nH]5)c(-c5cccc(S(=O)(=O)[O-])c5F)c5nc(c(-c6cccc(S(=O)(=O)[O-])c6F)c6ccc3[nH]6)C=C5)C=C4)cc2)CCCN(C(=O)c2ccc3c(c2)CCCO3)C1
REMARK SMILES IDX 10 1 9 2 8 3 6 4 7 5 5 7 78 8 94 9 79 10 81 11 80 12 4 13
REMARK SMILES IDX 3 14 2 15 1 16 82 17 83 18 84 19 85 20 89 21 86 22 88 23
REMARK SMILES IDX 87 24 90 25 93 26 91 27 92 28 11 29 12 30 13 31 14 33 15 34
REMARK SMILES IDX 16 35 77 36 17 37 76 38 18 39 19 40 20 41 70 42 21 43 75 44
REMARK SMILES IDX 69 45 71 46 22 47 74 48 68 49 67 50 23 52 55 53 35 54 54 55
REMARK SMILES IDX 36 56 39 57 53 58 72 59 37 60 38 61 52 63 73 64 40 65 24 66
REMARK SMILES IDX 25 67 33 68 26 69 28 70 34 71 27 72 29 73 30 74 31 75 32 76
REMARK SMILES IDX 56 77 57 78 65 79 58 80 60 81 66 82 59 83 61 84 62 85 63 86
REMARK SMILES IDX 64 87 41 88 42 89 50 90 43 91 45 92 51 93 44 94 46 95 47 96
REMARK SMILES IDX 48 97 49 98
REMARK H PARENT 8 6 12 32 71 51 39 62
REMARK Flexibility Score: inf
ROOT
ATOM      1  C   UNL A   1      36.571  20.869  24.815  1.00  0.00     0.042 C 
ENDROOT
BRANCH   1   2
ATOM      2  C   UNL A   1      35.450  21.258  25.772  1.00  0.00     0.117 C 
BRANCH   2   3
ATOM      3  N   UNL A   1      34.148  20.808  25.306  1.00  0.00    -0.355 N 
ATOM      4  C   UNL A   1      33.078  21.448  24.765  1.00  0.00     0.228 C 
ATOM      5  O   UNL A   1      32.112  20.723  24.503  1.00  0.00    -0.274 OA
ATOM      6  H   UNL A   1      34.014  19.837  25.402  1.00  0.00     0.163 HD
BRANCH   4   7
ATOM      7  C   UNL A   1      33.054  22.962  24.458  1.00  0.00     0.069 C 
ATOM      8  C   UNL A   1      34.215  23.378  23.531  1.00  0.00     0.021 C 
ATOM      9  C   UNL A   1      31.695  23.294  23.801  1.00  0.00     0.136 C 
ATOM     10  C   UNL A   1      34.102  24.823  23.060  1.00  0.00     0.023 C 
ATOM     11  N   UNL A   1      31.647  24.659  23.266  1.00  0.00    -0.338 N 
ATOM     12  C   UNL A   1      32.755  25.049  22.388  1.00  0.00     0.120 C 
BRANCH   7  13
ATOM     13  C   UNL A   1      33.099  23.744  25.823  1.00  0.00     0.047 C 
BRANCH  13  14
ATOM     14  C   UNL A   1      32.337  23.098  26.985  1.00  0.00     0.161 C 
BRANCH  14  15
ATOM     15  O   UNL A   1      31.118  23.811  27.194  1.00  0.00    -0.385 OA
ATOM     16  C   UNL A   1      29.937  23.037  27.047  1.00  0.00     0.194 C 
ENDBRANCH  14  15
ENDBRANCH  13  14
ENDBRANCH   7  13
BRANCH  11  17
ATOM     17  C   UNL A   1      30.584  25.473  23.643  1.00  0.00     0.253 C 
ATOM     18  O   UNL A   1      29.402  25.170  23.491  1.00  0.00    -0.269 OA
BRANCH  17  19
ATOM     19  C   UNL A   1      30.862  26.786  24.258  1.00  0.00     0.040 A 
ATOM     20  C   UNL A   1      30.662  27.939  23.489  1.00  0.00     0.017 A 
ATOM     21  C   UNL A   1      31.373  26.868  25.560  1.00  0.00     0.021 A 
ATOM     22  C   UNL A   1      30.965  29.188  24.026  1.00  0.00     0.047 A 
ATOM     23  C   UNL A   1      31.660  28.120  26.097  1.00  0.00    -0.005 A 
ATOM     24  C   UNL A   1      31.487  29.264  25.313  1.00  0.00     0.122 A 
ATOM     25  C   UNL A   1      32.104  28.317  27.512  1.00  0.00     0.043 C 
ATOM     26  O   UNL A   1      31.811  30.491  25.825  1.00  0.00    -0.493 OA
ATOM     27  C   UNL A   1      33.251  29.310  27.517  1.00  0.00     0.046 C 
ATOM     28  C   UNL A   1      33.073  30.452  26.508  1.00  0.00     0.230 C 
ENDBRANCH  17  19
ENDBRANCH  11  17
ENDBRANCH   4   7
ENDBRANCH   2   3
ENDBRANCH   1   2
BRANCH   1  29
ATOM     29  C   UNL A   1      37.915  21.492  25.161  1.00  0.00     0.118 C 
BRANCH  29  30
ATOM     30  N   UNL A   1      38.772  20.570  25.892  1.00  0.00    -0.352 N 
ATOM     31  C   UNL A   1      39.946  20.800  26.565  1.00  0.00     0.251 C 
ATOM     32  H   UNL A   1      38.462  19.636  25.906  1.00  0.00     0.163 HD
ATOM     33  O   UNL A   1      40.646  19.847  26.894  1.00  0.00    -0.269 OA
BRANCH  31  34
ATOM     34  C   UNL A   1      40.369  22.179  26.892  1.00  0.00     0.039 A 
ATOM     35  C   UNL A   1      41.297  22.381  27.917  1.00  0.00     0.014 A 
ATOM     36  C   UNL A   1      39.820  23.277  26.222  1.00  0.00     0.014 A 
ATOM     37  C   UNL A   1      41.710  23.677  28.235  1.00  0.00     0.010 A 
ATOM     38  C   UNL A   1      40.297  24.558  26.480  1.00  0.00     0.010 A 
ATOM     39  C   UNL A   1      41.234  24.774  27.500  1.00  0.00    -0.014 A 
BRANCH  39  40
ATOM     40  C   UNL A   1      41.690  26.157  27.784  1.00  0.00     0.031 A 
ATOM     41  C   UNL A   1      43.074  26.593  27.383  1.00  0.00     0.074 A 
ATOM     42  C   UNL A   1      40.895  26.988  28.486  1.00  0.00     0.049 A 
ATOM     43  N   UNL A   1      43.680  27.728  27.613  1.00  0.00    -0.248 NA
ATOM     44  C   UNL A   1      43.899  25.613  26.656  1.00  0.00     0.031 C 
ATOM     45  C   UNL A   1      39.566  26.653  29.001  1.00  0.00     0.029 A 
ATOM     46  N   UNL A   1      41.102  28.275  28.916  1.00  0.00    -0.354 N 
ATOM     47  C   UNL A   1      44.964  27.587  27.100  1.00  0.00     0.074 A 
ATOM     48  C   UNL A   1      45.062  26.242  26.576  1.00  0.00     0.031 C 
ATOM     49  C   UNL A   1      39.075  27.706  29.674  1.00  0.00     0.029 A 
ATOM     50  C   UNL A   1      40.064  28.780  29.665  1.00  0.00     0.049 A 
ATOM     51  H   UNL A   1      41.915  28.788  28.707  1.00  0.00     0.167 HD
ATOM     52  C   UNL A   1      45.961  28.500  27.040  1.00  0.00     0.034 A 
ATOM     53  C   UNL A   1      39.928  29.970  30.282  1.00  0.00     0.034 A 
ATOM     54  C   UNL A   1      45.838  29.852  27.514  1.00  0.00     0.049 A 
ATOM     55  C   UNL A   1      41.028  30.988  30.150  1.00  0.00     0.074 A 
ATOM     56  C   UNL A   1      46.753  30.885  27.415  1.00  0.00     0.029 A 
ATOM     57  N   UNL A   1      44.731  30.360  28.176  1.00  0.00    -0.354 N 
ATOM     58  N   UNL A   1      42.173  30.887  29.520  1.00  0.00    -0.248 NA
ATOM     59  C   UNL A   1      40.803  32.296  30.783  1.00  0.00     0.031 C 
ATOM     60  C   UNL A   1      46.206  32.014  28.034  1.00  0.00     0.029 A 
ATOM     61  C   UNL A   1      44.941  31.690  28.498  1.00  0.00     0.049 A 
ATOM     62  H   UNL A   1      43.916  29.850  28.387  1.00  0.00     0.167 HD
ATOM     63  C   UNL A   1      42.788  32.128  29.646  1.00  0.00     0.074 A 
ATOM     64  C   UNL A   1      41.878  32.969  30.397  1.00  0.00     0.031 C 
ATOM     65  C   UNL A   1      44.001  32.530  29.194  1.00  0.00     0.034 A 
BRANCH  52  66
ATOM     66  C   UNL A   1      47.255  28.088  26.387  1.00  0.00     0.023 A 
ATOM     67  C   UNL A   1      48.322  27.630  27.187  1.00  0.00     0.012 A 
ATOM     68  C   UNL A   1      47.398  28.097  24.986  1.00  0.00     0.148 A 
ATOM     69  C   UNL A   1      49.523  27.223  26.607  1.00  0.00     0.002 A 
ATOM     70  C   UNL A   1      48.581  27.646  24.412  1.00  0.00     0.091 A 
ATOM     71  F   UNL A   1      46.380  28.556  24.241  1.00  0.00    -0.205 F 
ATOM     72  C   UNL A   1      49.648  27.221  25.220  1.00  0.00     0.022 A 
BRANCH  70  73
ATOM     73  S   UNL A   1      48.814  27.530  22.634  1.00  0.00     0.127 S 
ATOM     74  O   UNL A   1      48.849  26.082  22.435  1.00  0.00    -0.237 OA
ATOM     75  O   UNL A   1      47.611  28.186  22.123  1.00  0.00    -0.237 OA
ATOM     76  O   UNL A   1      50.057  28.232  22.345  1.00  0.00    -0.744 OA
ENDBRANCH  70  73
ENDBRANCH  52  66
BRANCH  53  77
ATOM     77  C   UNL A   1      38.668  30.288  31.011  1.00  0.00     0.023 A 
ATOM     78  C   UNL A   1      38.503  29.834  32.334  1.00  0.00     0.012 A 
ATOM     79  C   UNL A   1      37.654  31.068  30.422  1.00  0.00     0.148 A 
ATOM     80  C   UNL A   1      37.339  30.122  33.046  1.00  0.00     0.002 A 
ATOM     81  C   UNL A   1      36.521  31.398  31.155  1.00  0.00     0.091 A 
ATOM     82  F   UNL A   1      37.824  31.483  29.159  1.00  0.00    -0.205 F 
ATOM     83  C   UNL A   1      36.353  30.912  32.461  1.00  0.00     0.022 A 
BRANCH  81  84
ATOM     84  S   UNL A   1      35.267  32.525  30.533  1.00  0.00     0.127 S 
ATOM     85  O   UNL A   1      34.341  32.595  31.660  1.00  0.00    -0.237 OA
ATOM     86  O   UNL A   1      36.043  33.742  30.295  1.00  0.00    -0.237 OA
ATOM     87  O   UNL A   1      34.748  31.901  29.322  1.00  0.00    -0.744 OA
ENDBRANCH  81  84
ENDBRANCH  53  77
BRANCH  65  88
ATOM     88  C   UNL A   1      44.409  33.954  29.460  1.00  0.00     0.023 A 
ATOM     89  C   UNL A   1      44.932  34.310  30.719  1.00  0.00     0.012 A 
ATOM     90  C   UNL A   1      44.352  34.919  28.435  1.00  0.00     0.148 A 
ATOM     91  C   UNL A   1      45.363  35.614  30.963  1.00  0.00     0.002 A 
ATOM     92  C   UNL A   1      44.827  36.203  28.670  1.00  0.00     0.091 A 
ATOM     93  F   UNL A   1      43.832  34.564  27.250  1.00  0.00    -0.205 F 
ATOM     94  C   UNL A   1      45.324  36.555  29.936  1.00  0.00     0.022 A 
BRANCH  92  95
ATOM     95  S   UNL A   1      44.905  37.451  27.380  1.00  0.00     0.127 S 
ATOM     96  O   UNL A   1      43.516  37.499  26.929  1.00  0.00    -0.237 OA
ATOM     97  O   UNL A   1      45.349  38.635  28.119  1.00  0.00    -0.237 OA
ATOM     98  O   UNL A   1      45.865  36.957  26.403  1.00  0.00    -0.744 OA
ENDBRANCH  92  95
ENDBRANCH  65  88
ENDBRANCH  39  40
ENDBRANCH  31  34
ENDBRANCH  29  30
ENDBRANCH   1  29
TORSDOF 18
ENDMDL
MODEL 3
REMARK VINA RESULT:     -12.3      6.189     11.364
REMARK SMILES COCC[C@]1(C(=O)NCCCNC(=O)c2ccc(-c3c4nc(c(-c5cccc(S(=O)(=O)[O-])c5F)c5ccc([nH]5)c(-c5cccc(S(=O)(=O)[O-])c5F)c5nc(c(-c6cccc(S(=O)(=O)[O-])c6F)c6ccc3[nH]6)C=C5)C=C4)cc2)CCCN(C(=O)c2ccc3c(c2)CCCO3)C1
REMARK SMILES IDX 10 1 9 2 8 3 6 4 7 5 5 7 78 8 94 9 79 10 81 11 80 12 4 13
REMARK SMILES IDX 3 14 2 15 1 16 82 17 83 18 84 19 85 20 89 21 86 22 88 23
REMARK SMILES IDX 87 24 90 25 93 26 91 27 92 28 11 29 12 30 13 31 14 33 15 34
REMARK SMILES IDX 16 35 77 36 17 37 76 38 18 39 19 40 20 41 70 42 21 43 75 44
REMARK SMILES IDX 69 45 71 46 22 47 74 48 68 49 67 50 23 52 55 53 35 54 54 55
REMARK SMILES IDX 36 56 39 57 53 58 72 59 37 60 38 61 52 63 73 64 40 65 24 66
REMARK SMILES IDX 25 67 33 68 26 69 28 70 34 71 27 72 29 73 30 74 31 75 32 76
REMARK SMILES IDX 56 77 57 78 65 79 58 80 60 81 66 82 59 83 61 84 62 85 63 86
REMARK SMILES IDX 64 87 41 88 42 89 50 90 43 91 45 92 51 93 44 94 46 95 47 96
REMARK SMILES IDX 48 97 49 98
REMARK H PARENT 8 6 12 32 71 51 39 62
REMARK Flexibility Score: inf
ROOT
ATOM      1  C   UNL A   1      37.286  19.670  24.996  1.00  0.00     0.042 C 
ENDROOT
BRANCH   1   2
ATOM      2  C   UNL A   1      36.115  20.624  24.792  1.00  0.00     0.117 C 
BRANCH   2   3
ATOM      3  N   UNL A   1      35.374  20.855  26.021  1.00  0.00    -0.355 N 
ATOM      4  C   UNL A   1      34.383  21.720  26.365  1.00  0.00     0.228 C 
ATOM      5  O   UNL A   1      34.000  21.639  27.537  1.00  0.00    -0.274 OA
ATOM      6  H   UNL A   1      35.645  20.261  26.758  1.00  0.00     0.163 HD
BRANCH   4   7
ATOM      7  C   UNL A   1      33.739  22.718  25.376  1.00  0.00     0.069 C 
ATOM      8  C   UNL A   1      33.545  22.096  23.978  1.00  0.00     0.021 C 
ATOM      9  C   UNL A   1      32.378  23.159  25.962  1.00  0.00     0.136 C 
ATOM     10  C   UNL A   1      32.740  22.991  23.043  1.00  0.00     0.023 C 
ATOM     11  N   UNL A   1      31.579  23.934  25.008  1.00  0.00    -0.338 N 
ATOM     12  C   UNL A   1      31.401  23.340  23.679  1.00  0.00     0.120 C 
BRANCH   7  13
ATOM     13  C   UNL A   1      34.643  24.004  25.313  1.00  0.00     0.047 C 
BRANCH  13  14
ATOM     14  C   UNL A   1      35.702  24.019  24.205  1.00  0.00     0.161 C 
BRANCH  14  15
ATOM     15  O   UNL A   1      36.947  23.578  24.748  1.00  0.00    -0.385 OA
ATOM     16  C   UNL A   1      37.224  24.038  26.063  1.00  0.00     0.194 C 
ENDBRANCH  14  15
ENDBRANCH  13  14
ENDBRANCH   7  13
BRANCH  11  17
ATOM     17  C   UNL A   1      31.078  25.165  25.420  1.00  0.00     0.253 C 
ATOM     18  O   UNL A   1      30.872  25.460  26.597  1.00  0.00    -0.269 OA
BRANCH  17  19
ATOM     19  C   UNL A   1      30.761  26.193  24.410  1.00  0.00     0.040 A 
ATOM     20  C   UNL A   1      31.804  26.701  23.624  1.00  0.00     0.017 A 
ATOM     21  C   UNL A   1      29.458  26.691  24.286  1.00  0.00     0.021 A 
ATOM     22  C   UNL A   1      31.543  27.709  22.700  1.00  0.00     0.047 A 
ATOM     23  C   UNL A   1      29.200  27.687  23.349  1.00  0.00    -0.005 A 
ATOM     24  C   UNL A   1      30.251  28.211  22.590  1.00  0.00     0.122 A 
ATOM     25  C   UNL A   1      27.825  28.204  23.067  1.00  0.00     0.043 C 
ATOM     26  O   UNL A   1      30.006  29.222  21.701  1.00  0.00    -0.493 OA
ATOM     27  C   UNL A   1      27.894  29.717  22.976  1.00  0.00     0.046 C 
ATOM     28  C   UNL A   1      29.161  30.229  22.279  1.00  0.00     0.230 C 
ENDBRANCH  17  19
ENDBRANCH  11  17
ENDBRANCH   4   7
ENDBRANCH   2   3
ENDBRANCH   1   2
BRANCH   1  29
ATOM     29  C   UNL A   1      38.536  20.343  25.543  1.00  0.00     0.118 C 
BRANCH  29  30
ATOM     30  N   UNL A   1      39.575  19.379  25.875  1.00  0.00    -0.352 N 
ATOM     31  C   UNL A   1      40.903  19.574  26.162  1.00  0.00     0.251 C 
ATOM     32  H   UNL A   1      39.279  18.440  25.898  1.00  0.00     0.163 HD
ATOM     33  O   UNL A   1      41.666  18.612  26.160  1.00  0.00    -0.269 OA
BRANCH  31  34
ATOM     34  C   UNL A   1      41.416  20.928  26.467  1.00  0.00     0.039 A 
ATOM     35  C   UNL A   1      41.906  21.720  25.424  1.00  0.00     0.014 A 
ATOM     36  C   UNL A   1      41.458  21.402  27.781  1.00  0.00     0.014 A 
ATOM     37  C   UNL A   1      42.390  23.002  25.694  1.00  0.00     0.010 A 
ATOM     38  C   UNL A   1      41.857  22.709  28.036  1.00  0.00     0.010 A 
ATOM     39  C   UNL A   1      42.344  23.517  26.999  1.00  0.00    -0.014 A 
BRANCH  39  40
ATOM     40  C   UNL A   1      42.807  24.893  27.309  1.00  0.00     0.031 A 
ATOM     41  C   UNL A   1      41.867  25.881  27.947  1.00  0.00     0.074 A 
ATOM     42  C   UNL A   1      44.041  25.280  26.929  1.00  0.00     0.049 A 
ATOM     43  N   UNL A   1      42.060  27.144  28.220  1.00  0.00    -0.248 NA
ATOM     44  C   UNL A   1      40.521  25.394  28.294  1.00  0.00     0.031 C 
ATOM     45  C   UNL A   1      45.013  24.438  26.228  1.00  0.00     0.029 A 
ATOM     46  N   UNL A   1      44.676  26.491  27.048  1.00  0.00    -0.354 N 
ATOM     47  C   UNL A   1      40.855  27.613  28.730  1.00  0.00     0.074 A 
ATOM     48  C   UNL A   1      39.924  26.506  28.696  1.00  0.00     0.031 C 
ATOM     49  C   UNL A   1      46.121  25.155  25.984  1.00  0.00     0.029 A 
ATOM     50  C   UNL A   1      45.929  26.514  26.481  1.00  0.00     0.049 A 
ATOM     51  H   UNL A   1      44.274  27.267  27.499  1.00  0.00     0.167 HD
ATOM     52  C   UNL A   1      40.556  28.842  29.212  1.00  0.00     0.034 A 
ATOM     53  C   UNL A   1      46.820  27.519  26.367  1.00  0.00     0.034 A 
ATOM     54  C   UNL A   1      41.502  29.922  29.293  1.00  0.00     0.049 A 
ATOM     55  C   UNL A   1      46.484  28.859  26.963  1.00  0.00     0.074 A 
ATOM     56  C   UNL A   1      41.330  31.176  29.852  1.00  0.00     0.029 A 
ATOM     57  N   UNL A   1      42.798  29.876  28.802  1.00  0.00    -0.354 N 
ATOM     58  N   UNL A   1      45.394  29.235  27.586  1.00  0.00    -0.248 NA
ATOM     59  C   UNL A   1      47.515  29.903  26.874  1.00  0.00     0.031 C 
ATOM     60  C   UNL A   1      42.518  31.896  29.682  1.00  0.00     0.029 A 
ATOM     61  C   UNL A   1      43.436  31.082  29.038  1.00  0.00     0.049 A 
ATOM     62  H   UNL A   1      43.204  29.102  28.350  1.00  0.00     0.167 HD
ATOM     63  C   UNL A   1      45.621  30.543  27.996  1.00  0.00     0.074 A 
ATOM     64  C   UNL A   1      46.961  30.888  27.568  1.00  0.00     0.031 C 
ATOM     65  C   UNL A   1      44.791  31.388  28.656  1.00  0.00     0.034 A 
BRANCH  52  66
ATOM     66  C   UNL A   1      39.166  29.069  29.746  1.00  0.00     0.023 A 
ATOM     67  C   UNL A   1      38.854  28.672  31.063  1.00  0.00     0.012 A 
ATOM     68  C   UNL A   1      38.186  29.722  28.973  1.00  0.00     0.148 A 
ATOM     69  C   UNL A   1      37.581  28.889  31.589  1.00  0.00     0.002 A 
ATOM     70  C   UNL A   1      36.934  29.975  29.520  1.00  0.00     0.091 A 
ATOM     71  F   UNL A   1      38.493  30.073  27.714  1.00  0.00    -0.205 F 
ATOM     72  C   UNL A   1      36.626  29.549  30.822  1.00  0.00     0.022 A 
BRANCH  70  73
ATOM     73  S   UNL A   1      35.660  30.889  28.642  1.00  0.00     0.127 S 
ATOM     74  O   UNL A   1      36.455  31.859  27.891  1.00  0.00    -0.237 OA
ATOM     75  O   UNL A   1      35.040  29.846  27.825  1.00  0.00    -0.237 OA
ATOM     76  O   UNL A   1      34.791  31.452  29.668  1.00  0.00    -0.744 OA
ENDBRANCH  70  73
ENDBRANCH  52  66
BRANCH  53  77
ATOM     77  C   UNL A   1      48.143  27.269  25.729  1.00  0.00     0.023 A 
ATOM     78  C   UNL A   1      49.212  26.802  26.520  1.00  0.00     0.012 A 
ATOM     79  C   UNL A   1      48.339  27.452  24.347  1.00  0.00     0.148 A 
ATOM     80  C   UNL A   1      50.460  26.552  25.951  1.00  0.00     0.002 A 
ATOM     81  C   UNL A   1      49.570  27.148  23.777  1.00  0.00     0.091 A 
ATOM     82  F   UNL A   1      47.314  27.906  23.614  1.00  0.00    -0.205 F 
ATOM     83  C   UNL A   1      50.637  26.714  24.580  1.00  0.00     0.022 A 
BRANCH  81  84
ATOM     84  S   UNL A   1      49.845  27.193  22.002  1.00  0.00     0.127 S 
ATOM     85  O   UNL A   1      48.834  26.258  21.518  1.00  0.00    -0.237 OA
ATOM     86  O   UNL A   1      49.586  28.599  21.690  1.00  0.00    -0.237 OA
ATOM     87  O   UNL A   1      51.231  26.784  21.812  1.00  0.00    -0.744 OA
ENDBRANCH  81  84
ENDBRANCH  53  77
BRANCH  65  88
ATOM     88  C   UNL A   1      45.313  32.759  28.995  1.00  0.00     0.023 A 
ATOM     89  C   UNL A   1      46.069  32.950  30.168  1.00  0.00     0.012 A 
ATOM     90  C   UNL A   1      45.124  33.837  28.108  1.00  0.00     0.148 A 
ATOM     91  C   UNL A   1      46.603  34.203  30.469  1.00  0.00     0.002 A 
ATOM     92  C   UNL A   1      45.700  35.069  28.390  1.00  0.00     0.091 A 
ATOM     93  F   UNL A   1      44.384  33.638  27.007  1.00  0.00    -0.205 F 
ATOM     94  C   UNL A   1      46.431  35.257  29.575  1.00  0.00     0.022 A 
BRANCH  92  95
ATOM     95  S   UNL A   1      45.611  36.456  27.250  1.00  0.00     0.127 S 
ATOM     96  O   UNL A   1      46.417  35.973  26.132  1.00  0.00    -0.237 OA
ATOM     97  O   UNL A   1      44.176  36.543  26.977  1.00  0.00    -0.237 OA
ATOM     98  O   UNL A   1      46.158  37.599  27.969  1.00  0.00    -0.744 OA
ENDBRANCH  92  95
ENDBRANCH  65  88
ENDBRANCH  39  40
ENDBRANCH  31  34
ENDBRANCH  29  30
ENDBRANCH   1  29
TORSDOF 18
ENDMDL
