MODEL 1
REMARK VINA RESULT:     -13.7      0.000      0.000
REMARK SMILES Cc1cccc(-c2cccc(O)c2)c1C(=O)NCCCNC(=O)c1ccc(-c2c3nc(c(-c4cccc(S(=O)(=O)[O-])c4F)c4ccc([nH]4)c(-c4cccc(S(=O)(=O)[O-])c4F)c4nc(c(-c5cccc(S(=O)(=O)[O-])c5F)c5ccc2[nH]5)C=C4)C=C3)cc1
REMARK SMILES IDX 19 1 18 2 17 3 15 4 16 5 14 7 1 8 2 9 3 10 4 11 6 12 5 13
REMARK SMILES IDX 7 14 8 15 13 16 9 17 11 18 10 19 12 20 20 22 21 23 22 24
REMARK SMILES IDX 23 26 24 27 25 28 86 29 26 30 85 31 27 32 28 33 29 34 79 35
REMARK SMILES IDX 30 36 84 37 78 38 80 39 31 40 83 41 77 42 76 43 32 45 64 46
REMARK SMILES IDX 44 47 63 48 45 49 48 50 62 51 81 52 46 53 47 54 61 56 82 57
REMARK SMILES IDX 49 58 33 59 34 60 42 61 35 62 37 63 43 64 36 65 38 66 39 67
REMARK SMILES IDX 40 68 41 69 65 70 66 71 74 72 67 73 69 74 75 75 68 76 70 77
REMARK SMILES IDX 71 78 72 79 73 80 50 81 51 82 59 83 52 84 54 85 60 86 53 87
REMARK SMILES IDX 55 88 56 89 57 90 58 91
REMARK H PARENT 17 6 12 21 21 25 80 44 48 55
REMARK Flexibility Score: inf
ROOT
ATOM      1  C   UNL A   1      32.886  30.995  26.946  1.00  0.00     0.042 C 
ENDROOT
BRANCH   1   2
ATOM      2  C   UNL A   1      32.290  30.142  25.822  1.00  0.00     0.118 C 
BRANCH   2   3
ATOM      3  N   UNL A   1      31.733  28.915  26.343  1.00  0.00    -0.352 N 
ATOM      4  C   UNL A   1      31.412  27.665  25.877  1.00  0.00     0.252 C 
ATOM      5  O   UNL A   1      30.791  27.017  26.722  1.00  0.00    -0.269 OA
ATOM      6  H   UNL A   1      31.524  28.999  27.302  1.00  0.00     0.163 HD
BRANCH   4   7
ATOM      7  C   UNL A   1      31.765  27.023  24.539  1.00  0.00     0.050 A 
ATOM      8  C   UNL A   1      34.059  25.987  25.207  1.00  0.00     0.045 C 
ATOM      9  C   UNL A   1      32.891  26.186  24.293  1.00  0.00    -0.038 A 
ATOM     10  C   UNL A   1      33.066  25.547  23.041  1.00  0.00     0.004 A 
ATOM     11  C   UNL A   1      32.242  25.816  21.971  1.00  0.00     0.001 A 
ATOM     12  C   UNL A   1      30.952  27.350  23.394  1.00  0.00    -0.005 A 
ATOM     13  C   UNL A   1      31.225  26.735  22.141  1.00  0.00     0.009 A 
BRANCH  12  14
ATOM     14  C   UNL A   1      29.844  28.340  23.335  1.00  0.00    -0.014 A 
ATOM     15  C   UNL A   1      30.084  29.705  23.096  1.00  0.00     0.009 A 
ATOM     16  C   UNL A   1      28.503  27.914  23.355  1.00  0.00     0.055 A 
ATOM     17  C   UNL A   1      29.036  30.621  22.967  1.00  0.00     0.004 A 
ATOM     18  C   UNL A   1      27.463  28.822  23.173  1.00  0.00     0.116 A 
ATOM     19  C   UNL A   1      27.717  30.178  22.999  1.00  0.00     0.046 A 
BRANCH  18  20
ATOM     20  O   UNL A   1      26.188  28.335  23.150  1.00  0.00    -0.508 OA
ATOM     21  H   UNL A   1      25.490  28.862  22.813  1.00  0.00     0.293 HD
ENDBRANCH  18  20
ENDBRANCH  12  14
ENDBRANCH   4   7
ENDBRANCH   2   3
ENDBRANCH   1   2
BRANCH   1  22
ATOM     22  C   UNL A   1      33.997  30.359  27.768  1.00  0.00     0.118 C 
BRANCH  22  23
ATOM     23  N   UNL A   1      34.993  31.379  28.128  1.00  0.00    -0.352 N 
ATOM     24  C   UNL A   1      36.340  31.253  28.415  1.00  0.00     0.251 C 
ATOM     25  H   UNL A   1      34.645  32.299  28.172  1.00  0.00     0.163 HD
ATOM     26  O   UNL A   1      37.015  32.220  28.717  1.00  0.00    -0.269 OA
BRANCH  24  27
ATOM     27  C   UNL A   1      36.926  29.911  28.253  1.00  0.00     0.039 A 
ATOM     28  C   UNL A   1      37.132  29.180  29.424  1.00  0.00     0.014 A 
ATOM     29  C   UNL A   1      37.625  29.640  27.079  1.00  0.00     0.014 A 
ATOM     30  C   UNL A   1      38.244  28.355  29.504  1.00  0.00     0.010 A 
ATOM     31  C   UNL A   1      38.766  28.869  27.181  1.00  0.00     0.010 A 
ATOM     32  C   UNL A   1      39.115  28.309  28.417  1.00  0.00    -0.014 A 
BRANCH  32  33
ATOM     33  C   UNL A   1      40.424  27.682  28.485  1.00  0.00     0.031 A 
ATOM     34  C   UNL A   1      40.510  26.223  28.350  1.00  0.00     0.074 A 
ATOM     35  C   UNL A   1      41.547  28.411  28.663  1.00  0.00     0.049 A 
ATOM     36  N   UNL A   1      41.489  25.509  28.786  1.00  0.00    -0.248 NA
ATOM     37  C   UNL A   1      39.428  25.449  27.763  1.00  0.00     0.031 C 
ATOM     38  C   UNL A   1      42.924  27.967  28.479  1.00  0.00     0.029 A 
ATOM     39  N   UNL A   1      41.667  29.647  29.302  1.00  0.00    -0.354 N 
ATOM     40  C   UNL A   1      41.313  24.238  28.291  1.00  0.00     0.074 A 
ATOM     41  C   UNL A   1      39.968  24.229  27.767  1.00  0.00     0.031 C 
ATOM     42  C   UNL A   1      43.730  28.742  29.222  1.00  0.00     0.029 A 
ATOM     43  C   UNL A   1      42.878  29.601  30.024  1.00  0.00     0.049 A 
ATOM     44  H   UNL A   1      41.034  30.399  29.258  1.00  0.00     0.167 HD
ATOM     45  C   UNL A   1      42.390  23.404  28.240  1.00  0.00     0.034 A 
ATOM     46  C   UNL A   1      42.972  29.788  31.374  1.00  0.00     0.034 A 
ATOM     47  C   UNL A   1      43.552  23.992  28.934  1.00  0.00     0.049 A 
ATOM     48  C   UNL A   1      43.632  28.625  32.105  1.00  0.00     0.074 A 
ATOM     49  C   UNL A   1      44.702  24.643  28.513  1.00  0.00     0.029 A 
ATOM     50  N   UNL A   1      43.484  24.196  30.306  1.00  0.00    -0.354 N 
ATOM     51  N   UNL A   1      44.103  27.548  31.538  1.00  0.00    -0.248 NA
ATOM     52  C   UNL A   1      43.672  28.543  33.564  1.00  0.00     0.031 C 
ATOM     53  C   UNL A   1      45.315  25.252  29.648  1.00  0.00     0.029 A 
ATOM     54  C   UNL A   1      44.553  24.956  30.762  1.00  0.00     0.049 A 
ATOM     55  H   UNL A   1      42.767  23.847  30.883  1.00  0.00     0.167 HD
ATOM     56  C   UNL A   1      44.323  26.584  32.496  1.00  0.00     0.074 A 
ATOM     57  C   UNL A   1      44.049  27.269  33.749  1.00  0.00     0.031 C 
ATOM     58  C   UNL A   1      44.628  25.281  32.185  1.00  0.00     0.034 A 
BRANCH  45  59
ATOM     59  C   UNL A   1      42.498  22.207  27.302  1.00  0.00     0.023 A 
ATOM     60  C   UNL A   1      41.626  21.122  27.536  1.00  0.00     0.012 A 
ATOM     61  C   UNL A   1      43.446  22.013  26.268  1.00  0.00     0.148 A 
ATOM     62  C   UNL A   1      41.760  19.890  26.882  1.00  0.00     0.002 A 
ATOM     63  C   UNL A   1      43.633  20.765  25.668  1.00  0.00     0.091 A 
ATOM     64  F   UNL A   1      44.117  23.053  25.772  1.00  0.00    -0.205 F 
ATOM     65  C   UNL A   1      42.792  19.697  25.978  1.00  0.00     0.022 A 
BRANCH  63  66
ATOM     66  S   UNL A   1      44.999  20.431  24.538  1.00  0.00     0.127 S 
ATOM     67  O   UNL A   1      44.678  21.301  23.405  1.00  0.00    -0.237 OA
ATOM     68  O   UNL A   1      46.162  20.852  25.316  1.00  0.00    -0.237 OA
ATOM     69  O   UNL A   1      44.935  19.007  24.229  1.00  0.00    -0.744 OA
ENDBRANCH  63  66
ENDBRANCH  45  59
BRANCH  46  70
ATOM     70  C   UNL A   1      41.853  30.610  31.930  1.00  0.00     0.023 A 
ATOM     71  C   UNL A   1      41.699  31.924  31.427  1.00  0.00     0.012 A 
ATOM     72  C   UNL A   1      40.764  30.003  32.574  1.00  0.00     0.148 A 
ATOM     73  C   UNL A   1      40.441  32.527  31.389  1.00  0.00     0.002 A 
ATOM     74  C   UNL A   1      39.519  30.622  32.554  1.00  0.00     0.091 A 
ATOM     75  F   UNL A   1      40.919  28.796  33.131  1.00  0.00    -0.205 F 
ATOM     76  C   UNL A   1      39.340  31.854  31.910  1.00  0.00     0.022 A 
BRANCH  74  77
ATOM     77  S   UNL A   1      38.096  29.784  33.255  1.00  0.00     0.127 S 
ATOM     78  O   UNL A   1      38.265  30.063  34.677  1.00  0.00    -0.237 OA
ATOM     79  O   UNL A   1      36.973  30.472  32.622  1.00  0.00    -0.237 OA
ATOM     80  O   UNL A   1      38.260  28.399  32.835  1.00  0.00    -0.744 OA
ENDBRANCH  74  77
ENDBRANCH  46  70
BRANCH  58  81
ATOM     81  C   UNL A   1      44.944  24.175  33.195  1.00  0.00     0.023 A 
ATOM     82  C   UNL A   1      43.952  23.312  33.703  1.00  0.00     0.012 A 
ATOM     83  C   UNL A   1      46.244  24.006  33.747  1.00  0.00     0.148 A 
ATOM     84  C   UNL A   1      44.248  22.250  34.566  1.00  0.00     0.002 A 
ATOM     85  C   UNL A   1      46.535  22.970  34.634  1.00  0.00     0.091 A 
ATOM     86  F   UNL A   1      47.209  24.888  33.467  1.00  0.00    -0.205 F 
ATOM     87  C   UNL A   1      45.544  22.064  35.016  1.00  0.00     0.022 A 
BRANCH  85  88
ATOM     88  S   UNL A   1      48.163  22.750  35.368  1.00  0.00     0.127 S 
ATOM     89  O   UNL A   1      48.225  23.889  36.284  1.00  0.00    -0.237 OA
ATOM     90  O   UNL A   1      48.027  21.449  36.024  1.00  0.00    -0.237 OA
ATOM     91  O   UNL A   1      49.115  22.780  34.268  1.00  0.00    -0.744 OA
ENDBRANCH  85  88
ENDBRANCH  58  81
ENDBRANCH  32  33
ENDBRANCH  24  27
ENDBRANCH  22  23
ENDBRANCH   1  22
TORSDOF 15
ENDMDL
MODEL 2
REMARK VINA RESULT:     -13.3      4.919     10.739
REMARK SMILES Cc1cccc(-c2cccc(O)c2)c1C(=O)NCCCNC(=O)c1ccc(-c2c3nc(c(-c4cccc(S(=O)(=O)[O-])c4F)c4ccc([nH]4)c(-c4cccc(S(=O)(=O)[O-])c4F)c4nc(c(-c5cccc(S(=O)(=O)[O-])c5F)c5ccc2[nH]5)C=C4)C=C3)cc1
REMARK SMILES IDX 19 1 18 2 17 3 15 4 16 5 14 7 1 8 2 9 3 10 4 11 6 12 5 13
REMARK SMILES IDX 7 14 8 15 13 16 9 17 11 18 10 19 12 20 20 22 21 23 22 24
REMARK SMILES IDX 23 26 24 27 25 28 86 29 26 30 85 31 27 32 28 33 29 34 79 35
REMARK SMILES IDX 30 36 84 37 78 38 80 39 31 40 83 41 77 42 76 43 32 45 64 46
REMARK SMILES IDX 44 47 63 48 45 49 48 50 62 51 81 52 46 53 47 54 61 56 82 57
REMARK SMILES IDX 49 58 33 59 34 60 42 61 35 62 37 63 43 64 36 65 38 66 39 67
REMARK SMILES IDX 40 68 41 69 65 70 66 71 74 72 67 73 69 74 75 75 68 76 70 77
REMARK SMILES IDX 71 78 72 79 73 80 50 81 51 82 59 83 52 84 54 85 60 86 53 87
REMARK SMILES IDX 55 88 56 89 57 90 58 91
REMARK H PARENT 17 6 12 21 21 25 80 44 48 55
REMARK Flexibility Score: inf
ROOT
ATOM      1  C   UNL A   1      38.093  21.150  25.460  1.00  0.00     0.042 C 
ENDROOT
BRANCH   1   2
ATOM      2  C   UNL A   1      36.582  20.997  25.261  1.00  0.00     0.118 C 
BRANCH   2   3
ATOM      3  N   UNL A   1      36.112  21.843  24.188  1.00  0.00    -0.352 N 
ATOM      4  C   UNL A   1      34.940  22.446  23.806  1.00  0.00     0.252 C 
ATOM      5  O   UNL A   1      35.036  22.943  22.683  1.00  0.00    -0.269 OA
ATOM      6  H   UNL A   1      36.835  22.043  23.550  1.00  0.00     0.163 HD
BRANCH   4   7
ATOM      7  C   UNL A   1      33.641  22.598  24.594  1.00  0.00     0.050 A 
ATOM      8  C   UNL A   1      34.120  24.920  25.671  1.00  0.00     0.045 C 
ATOM      9  C   UNL A   1      33.247  23.755  25.325  1.00  0.00    -0.038 A 
ATOM     10  C   UNL A   1      31.968  23.836  25.929  1.00  0.00     0.004 A 
ATOM     11  C   UNL A   1      31.113  22.757  25.956  1.00  0.00     0.001 A 
ATOM     12  C   UNL A   1      32.768  21.455  24.689  1.00  0.00    -0.005 A 
ATOM     13  C   UNL A   1      31.529  21.574  25.377  1.00  0.00     0.009 A 
BRANCH  12  14
ATOM     14  C   UNL A   1      33.032  20.080  24.186  1.00  0.00    -0.014 A 
ATOM     15  C   UNL A   1      33.870  19.188  24.879  1.00  0.00     0.009 A 
ATOM     16  C   UNL A   1      32.320  19.573  23.084  1.00  0.00     0.055 A 
ATOM     17  C   UNL A   1      34.057  17.873  24.444  1.00  0.00     0.004 A 
ATOM     18  C   UNL A   1      32.469  18.247  22.686  1.00  0.00     0.116 A 
ATOM     19  C   UNL A   1      33.349  17.396  23.345  1.00  0.00     0.046 A 
BRANCH  18  20
ATOM     20  O   UNL A   1      31.709  17.805  21.642  1.00  0.00    -0.508 OA
ATOM     21  H   UNL A   1      31.715  18.270  20.828  1.00  0.00     0.293 HD
ENDBRANCH  18  20
ENDBRANCH  12  14
ENDBRANCH   4   7
ENDBRANCH   2   3
ENDBRANCH   1   2
BRANCH   1  22
ATOM     22  C   UNL A   1      38.615  22.567  25.647  1.00  0.00     0.118 C 
BRANCH  22  23
ATOM     23  N   UNL A   1      39.878  22.534  26.398  1.00  0.00    -0.352 N 
ATOM     24  C   UNL A   1      40.540  23.538  27.082  1.00  0.00     0.251 C 
ATOM     25  H   UNL A   1      40.325  21.657  26.416  1.00  0.00     0.163 HD
ATOM     26  O   UNL A   1      41.603  23.329  27.636  1.00  0.00    -0.269 OA
BRANCH  24  27
ATOM     27  C   UNL A   1      39.853  24.837  27.173  1.00  0.00     0.039 A 
ATOM     28  C   UNL A   1      40.475  25.913  26.538  1.00  0.00     0.014 A 
ATOM     29  C   UNL A   1      38.930  25.018  28.201  1.00  0.00     0.014 A 
ATOM     30  C   UNL A   1      40.387  27.168  27.120  1.00  0.00     0.010 A 
ATOM     31  C   UNL A   1      38.896  26.254  28.816  1.00  0.00     0.010 A 
ATOM     32  C   UNL A   1      39.697  27.294  28.324  1.00  0.00    -0.014 A 
BRANCH  32  33
ATOM     33  C   UNL A   1      39.752  28.495  29.140  1.00  0.00     0.031 A 
ATOM     34  C   UNL A   1      38.817  29.587  28.844  1.00  0.00     0.074 A 
ATOM     35  C   UNL A   1      40.635  28.618  30.156  1.00  0.00     0.049 A 
ATOM     36  N   UNL A   1      39.007  30.816  29.178  1.00  0.00    -0.248 NA
ATOM     37  C   UNL A   1      37.610  29.364  28.064  1.00  0.00     0.031 C 
ATOM     38  C   UNL A   1      40.626  29.621  31.214  1.00  0.00     0.029 A 
ATOM     39  N   UNL A   1      41.879  27.996  30.282  1.00  0.00    -0.354 N 
ATOM     40  C   UNL A   1      37.835  31.489  28.920  1.00  0.00     0.074 A 
ATOM     41  C   UNL A   1      37.050  30.573  28.127  1.00  0.00     0.031 C 
ATOM     42  C   UNL A   1      41.873  29.754  31.692  1.00  0.00     0.029 A 
ATOM     43  C   UNL A   1      42.743  28.957  30.847  1.00  0.00     0.049 A 
ATOM     44  H   UNL A   1      42.107  27.073  30.027  1.00  0.00     0.167 HD
ATOM     45  C   UNL A   1      37.613  32.676  29.553  1.00  0.00     0.034 A 
ATOM     46  C   UNL A   1      43.903  29.381  30.264  1.00  0.00     0.034 A 
ATOM     47  C   UNL A   1      38.815  33.122  30.284  1.00  0.00     0.049 A 
ATOM     48  C   UNL A   1      43.961  30.889  30.053  1.00  0.00     0.074 A 
ATOM     49  C   UNL A   1      39.204  33.090  31.615  1.00  0.00     0.029 A 
ATOM     50  N   UNL A   1      39.954  33.455  29.564  1.00  0.00    -0.354 N 
ATOM     51  N   UNL A   1      43.033  31.737  30.405  1.00  0.00    -0.248 NA
ATOM     52  C   UNL A   1      45.030  31.529  29.288  1.00  0.00     0.031 C 
ATOM     53  C   UNL A   1      40.597  33.394  31.683  1.00  0.00     0.029 A 
ATOM     54  C   UNL A   1      41.051  33.632  30.399  1.00  0.00     0.049 A 
ATOM     55  H   UNL A   1      39.983  33.554  28.586  1.00  0.00     0.167 HD
ATOM     56  C   UNL A   1      43.255  32.945  29.784  1.00  0.00     0.074 A 
ATOM     57  C   UNL A   1      44.529  32.761  29.108  1.00  0.00     0.031 C 
ATOM     58  C   UNL A   1      42.341  33.971  29.802  1.00  0.00     0.034 A 
BRANCH  45  59
ATOM     59  C   UNL A   1      36.230  33.277  29.778  1.00  0.00     0.023 A 
ATOM     60  C   UNL A   1      35.591  33.863  28.664  1.00  0.00     0.012 A 
ATOM     61  C   UNL A   1      35.541  33.401  31.009  1.00  0.00     0.148 A 
ATOM     62  C   UNL A   1      34.420  34.623  28.778  1.00  0.00     0.002 A 
ATOM     63  C   UNL A   1      34.416  34.220  31.141  1.00  0.00     0.091 A 
ATOM     64  F   UNL A   1      35.897  32.652  32.053  1.00  0.00    -0.205 F 
ATOM     65  C   UNL A   1      33.855  34.839  30.024  1.00  0.00     0.022 A 
BRANCH  63  66
ATOM     66  S   UNL A   1      33.677  34.595  32.744  1.00  0.00     0.127 S 
ATOM     67  O   UNL A   1      33.471  33.259  33.306  1.00  0.00    -0.237 OA
ATOM     68  O   UNL A   1      34.726  35.373  33.400  1.00  0.00    -0.237 OA
ATOM     69  O   UNL A   1      32.443  35.319  32.465  1.00  0.00    -0.744 OA
ENDBRANCH  63  66
ENDBRANCH  45  59
BRANCH  46  70
ATOM     70  C   UNL A   1      44.489  28.374  29.326  1.00  0.00     0.023 A 
ATOM     71  C   UNL A   1      44.850  27.116  29.866  1.00  0.00     0.012 A 
ATOM     72  C   UNL A   1      44.297  28.482  27.939  1.00  0.00     0.148 A 
ATOM     73  C   UNL A   1      44.820  25.968  29.073  1.00  0.00     0.002 A 
ATOM     74  C   UNL A   1      44.294  27.336  27.153  1.00  0.00     0.091 A 
ATOM     75  F   UNL A   1      44.040  29.681  27.403  1.00  0.00    -0.205 F 
ATOM     76  C   UNL A   1      44.494  26.072  27.725  1.00  0.00     0.022 A 
BRANCH  74  77
ATOM     77  S   UNL A   1      43.912  27.458  25.404  1.00  0.00     0.127 S 
ATOM     78  O   UNL A   1      43.579  26.075  25.082  1.00  0.00    -0.237 OA
ATOM     79  O   UNL A   1      42.782  28.384  25.386  1.00  0.00    -0.237 OA
ATOM     80  O   UNL A   1      45.131  27.993  24.813  1.00  0.00    -0.744 OA
ENDBRANCH  74  77
ENDBRANCH  46  70
BRANCH  58  81
ATOM     81  C   UNL A   1      42.547  35.358  29.188  1.00  0.00     0.023 A 
ATOM     82  C   UNL A   1      42.062  35.695  27.909  1.00  0.00     0.012 A 
ATOM     83  C   UNL A   1      43.315  36.364  29.837  1.00  0.00     0.148 A 
ATOM     84  C   UNL A   1      42.179  36.984  27.374  1.00  0.00     0.002 A 
ATOM     85  C   UNL A   1      43.462  37.639  29.292  1.00  0.00     0.091 A 
ATOM     86  F   UNL A   1      43.967  36.081  30.969  1.00  0.00    -0.205 F 
ATOM     87  C   UNL A   1      42.861  37.964  28.075  1.00  0.00     0.022 A 
BRANCH  85  88
ATOM     88  S   UNL A   1      44.450  38.921  30.078  1.00  0.00     0.127 S 
ATOM     89  O   UNL A   1      43.763  39.072  31.361  1.00  0.00    -0.237 OA
ATOM     90  O   UNL A   1      45.764  38.283  30.163  1.00  0.00    -0.237 OA
ATOM     91  O   UNL A   1      44.392  40.079  29.198  1.00  0.00    -0.744 OA
ENDBRANCH  85  88
ENDBRANCH  58  81
ENDBRANCH  32  33
ENDBRANCH  24  27
ENDBRANCH  22  23
ENDBRANCH   1  22
TORSDOF 15
ENDMDL
MODEL 3
REMARK VINA RESULT:     -13.2      1.631      2.061
REMARK SMILES Cc1cccc(-c2cccc(O)c2)c1C(=O)NCCCNC(=O)c1ccc(-c2c3nc(c(-c4cccc(S(=O)(=O)[O-])c4F)c4ccc([nH]4)c(-c4cccc(S(=O)(=O)[O-])c4F)c4nc(c(-c5cccc(S(=O)(=O)[O-])c5F)c5ccc2[nH]5)C=C4)C=C3)cc1
REMARK SMILES IDX 19 1 18 2 17 3 15 4 16 5 14 7 1 8 2 9 3 10 4 11 6 12 5 13
REMARK SMILES IDX 7 14 8 15 13 16 9 17 11 18 10 19 12 20 20 22 21 23 22 24
REMARK SMILES IDX 23 26 24 27 25 28 86 29 26 30 85 31 27 32 28 33 29 34 79 35
REMARK SMILES IDX 30 36 84 37 78 38 80 39 31 40 83 41 77 42 76 43 32 45 64 46
REMARK SMILES IDX 44 47 63 48 45 49 48 50 62 51 81 52 46 53 47 54 61 56 82 57
REMARK SMILES IDX 49 58 33 59 34 60 42 61 35 62 37 63 43 64 36 65 38 66 39 67
REMARK SMILES IDX 40 68 41 69 65 70 66 71 74 72 67 73 69 74 75 75 68 76 70 77
REMARK SMILES IDX 71 78 72 79 73 80 50 81 51 82 59 83 52 84 54 85 60 86 53 87
REMARK SMILES IDX 55 88 56 89 57 90 58 91
REMARK H PARENT 17 6 12 21 21 25 80 44 48 55
REMARK Flexibility Score: inf
ROOT
ATOM      1  C   UNL A   1      33.370  30.086  26.250  1.00  0.00     0.042 C 
ENDROOT
BRANCH   1   2
ATOM      2  C   UNL A   1      31.960  29.854  25.698  1.00  0.00     0.118 C 
BRANCH   2   3
ATOM      3  N   UNL A   1      31.426  28.591  26.156  1.00  0.00    -0.352 N 
ATOM      4  C   UNL A   1      31.217  27.332  25.653  1.00  0.00     0.252 C 
ATOM      5  O   UNL A   1      30.558  26.641  26.432  1.00  0.00    -0.269 OA
ATOM      6  H   UNL A   1      31.127  28.651  27.092  1.00  0.00     0.163 HD
BRANCH   4   7
ATOM      7  C   UNL A   1      31.724  26.728  24.346  1.00  0.00     0.050 A 
ATOM      8  C   UNL A   1      33.882  25.595  25.264  1.00  0.00     0.045 C 
ATOM      9  C   UNL A   1      32.849  25.864  24.215  1.00  0.00    -0.038 A 
ATOM     10  C   UNL A   1      33.169  25.265  22.972  1.00  0.00     0.004 A 
ATOM     11  C   UNL A   1      32.499  25.599  21.816  1.00  0.00     0.001 A 
ATOM     12  C   UNL A   1      31.076  27.121  23.120  1.00  0.00    -0.005 A 
ATOM     13  C   UNL A   1      31.494  26.544  21.889  1.00  0.00     0.009 A 
BRANCH  12  14
ATOM     14  C   UNL A   1      30.013  28.149  22.958  1.00  0.00    -0.014 A 
ATOM     15  C   UNL A   1      30.279  29.404  22.382  1.00  0.00     0.009 A 
ATOM     16  C   UNL A   1      28.668  27.834  23.227  1.00  0.00     0.055 A 
ATOM     17  C   UNL A   1      29.263  30.338  22.162  1.00  0.00     0.004 A 
ATOM     18  C   UNL A   1      27.653  28.748  22.957  1.00  0.00     0.116 A 
ATOM     19  C   UNL A   1      27.941  30.008  22.445  1.00  0.00     0.046 A 
BRANCH  18  20
ATOM     20  O   UNL A   1      26.366  28.359  23.192  1.00  0.00    -0.508 OA
ATOM     21  H   UNL A   1      26.188  27.495  23.507  1.00  0.00     0.293 HD
ENDBRANCH  18  20
ENDBRANCH  12  14
ENDBRANCH   4   7
ENDBRANCH   2   3
ENDBRANCH   1   2
BRANCH   1  22
ATOM     22  C   UNL A   1      33.547  29.933  27.753  1.00  0.00     0.118 C 
BRANCH  22  23
ATOM     23  N   UNL A   1      34.288  31.085  28.284  1.00  0.00    -0.352 N 
ATOM     24  C   UNL A   1      35.590  31.178  28.744  1.00  0.00     0.251 C 
ATOM     25  H   UNL A   1      33.776  31.925  28.320  1.00  0.00     0.163 HD
ATOM     26  O   UNL A   1      36.035  32.226  29.173  1.00  0.00    -0.269 OA
BRANCH  24  27
ATOM     27  C   UNL A   1      36.425  29.973  28.606  1.00  0.00     0.039 A 
ATOM     28  C   UNL A   1      36.874  29.392  29.792  1.00  0.00     0.014 A 
ATOM     29  C   UNL A   1      37.067  29.758  27.388  1.00  0.00     0.014 A 
ATOM     30  C   UNL A   1      38.135  28.816  29.814  1.00  0.00     0.010 A 
ATOM     31  C   UNL A   1      38.347  29.243  27.425  1.00  0.00     0.010 A 
ATOM     32  C   UNL A   1      38.905  28.861  28.653  1.00  0.00    -0.014 A 
BRANCH  32  33
ATOM     33  C   UNL A   1      40.317  28.517  28.632  1.00  0.00     0.031 A 
ATOM     34  C   UNL A   1      40.691  27.105  28.486  1.00  0.00     0.074 A 
ATOM     35  C   UNL A   1      41.275  29.463  28.738  1.00  0.00     0.049 A 
ATOM     36  N   UNL A   1      41.823  26.613  28.853  1.00  0.00    -0.248 NA
ATOM     37  C   UNL A   1      39.755  26.120  27.969  1.00  0.00     0.031 C 
ATOM     38  C   UNL A   1      42.699  29.310  28.462  1.00  0.00     0.029 A 
ATOM     39  N   UNL A   1      41.180  30.703  29.372  1.00  0.00    -0.354 N 
ATOM     40  C   UNL A   1      41.880  25.327  28.366  1.00  0.00     0.074 A 
ATOM     41  C   UNL A   1      40.534  25.037  27.932  1.00  0.00     0.031 C 
ATOM     42  C   UNL A   1      43.375  30.241  29.152  1.00  0.00     0.029 A 
ATOM     43  C   UNL A   1      42.419  30.914  30.012  1.00  0.00     0.049 A 
ATOM     44  H   UNL A   1      40.404  31.309  29.373  1.00  0.00     0.167 HD
ATOM     45  C   UNL A   1      43.099  24.732  28.241  1.00  0.00     0.034 A 
ATOM     46  C   UNL A   1      42.561  31.130  31.353  1.00  0.00     0.034 A 
ATOM     47  C   UNL A   1      44.159  25.553  28.859  1.00  0.00     0.049 A 
ATOM     48  C   UNL A   1      43.492  30.135  32.035  1.00  0.00     0.074 A 
ATOM     49  C   UNL A   1      45.120  26.422  28.365  1.00  0.00     0.029 A 
ATOM     50  N   UNL A   1      44.140  25.752  30.232  1.00  0.00    -0.354 N 
ATOM     51  N   UNL A   1      44.136  29.172  31.434  1.00  0.00    -0.248 NA
ATOM     52  C   UNL A   1      43.644  30.077  33.487  1.00  0.00     0.031 C 
ATOM     53  C   UNL A   1      45.668  27.155  29.459  1.00  0.00     0.029 A 
ATOM     54  C   UNL A   1      45.058  26.720  30.620  1.00  0.00     0.049 A 
ATOM     55  H   UNL A   1      43.550  25.269  30.855  1.00  0.00     0.167 HD
ATOM     56  C   UNL A   1      44.612  28.283  32.372  1.00  0.00     0.074 A 
ATOM     57  C   UNL A   1      44.286  28.909  33.643  1.00  0.00     0.031 C 
ATOM     58  C   UNL A   1      45.157  27.067  32.036  1.00  0.00     0.034 A 
BRANCH  45  59
ATOM     59  C   UNL A   1      43.390  23.573  27.293  1.00  0.00     0.023 A 
ATOM     60  C   UNL A   1      44.192  23.847  26.164  1.00  0.00     0.012 A 
ATOM     61  C   UNL A   1      42.865  22.260  27.362  1.00  0.00     0.148 A 
ATOM     62  C   UNL A   1      44.363  22.931  25.118  1.00  0.00     0.002 A 
ATOM     63  C   UNL A   1      42.969  21.371  26.289  1.00  0.00     0.091 A 
ATOM     64  F   UNL A   1      42.344  21.807  28.502  1.00  0.00    -0.205 F 
ATOM     65  C   UNL A   1      43.716  21.706  25.160  1.00  0.00     0.022 A 
BRANCH  63  66
ATOM     66  S   UNL A   1      42.094  19.793  26.253  1.00  0.00     0.127 S 
ATOM     67  O   UNL A   1      40.698  20.221  26.146  1.00  0.00    -0.237 OA
ATOM     68  O   UNL A   1      42.629  19.163  25.047  1.00  0.00    -0.237 OA
ATOM     69  O   UNL A   1      42.414  19.120  27.505  1.00  0.00    -0.744 OA
ENDBRANCH  63  66
ENDBRANCH  45  59
BRANCH  46  70
ATOM     70  C   UNL A   1      41.336  31.710  31.986  1.00  0.00     0.023 A 
ATOM     71  C   UNL A   1      40.881  32.959  31.497  1.00  0.00     0.012 A 
ATOM     72  C   UNL A   1      40.440  30.899  32.700  1.00  0.00     0.148 A 
ATOM     73  C   UNL A   1      39.526  33.289  31.546  1.00  0.00     0.002 A 
ATOM     74  C   UNL A   1      39.096  31.248  32.765  1.00  0.00     0.091 A 
ATOM     75  F   UNL A   1      40.878  29.756  33.243  1.00  0.00    -0.205 F 
ATOM     76  C   UNL A   1      38.624  32.409  32.138  1.00  0.00     0.022 A 
BRANCH  74  77
ATOM     77  S   UNL A   1      37.927  30.142  33.559  1.00  0.00     0.127 S 
ATOM     78  O   UNL A   1      36.659  30.630  33.028  1.00  0.00    -0.237 OA
ATOM     79  O   UNL A   1      38.338  28.831  33.062  1.00  0.00    -0.237 OA
ATOM     80  O   UNL A   1      38.162  30.342  34.982  1.00  0.00    -0.744 OA
ENDBRANCH  74  77
ENDBRANCH  46  70
BRANCH  58  81
ATOM     81  C   UNL A   1      45.759  26.060  33.019  1.00  0.00     0.023 A 
ATOM     82  C   UNL A   1      47.133  25.749  33.032  1.00  0.00     0.012 A 
ATOM     83  C   UNL A   1      44.954  25.313  33.923  1.00  0.00     0.148 A 
ATOM     84  C   UNL A   1      47.702  24.888  33.979  1.00  0.00     0.002 A 
ATOM     85  C   UNL A   1      45.513  24.429  34.845  1.00  0.00     0.091 A 
ATOM     86  F   UNL A   1      43.621  25.404  33.862  1.00  0.00    -0.205 F 
ATOM     87  C   UNL A   1      46.895  24.244  34.901  1.00  0.00     0.022 A 
BRANCH  85  88
ATOM     88  S   UNL A   1      44.516  23.453  35.981  1.00  0.00     0.127 S 
ATOM     89  O   UNL A   1      45.477  22.438  36.413  1.00  0.00    -0.237 OA
ATOM     90  O   UNL A   1      44.170  24.439  37.005  1.00  0.00    -0.237 OA
ATOM     91  O   UNL A   1      43.387  22.956  35.209  1.00  0.00    -0.744 OA
ENDBRANCH  85  88
ENDBRANCH  58  81
ENDBRANCH  32  33
ENDBRANCH  24  27
ENDBRANCH  22  23
ENDBRANCH   1  22
TORSDOF 15
ENDMDL
