MODEL 1
REMARK VINA RESULT:     -13.2      0.000      0.000
REMARK SMILES Cc1nc(-c2cccc(N3C[C@H](C(=O)NCCCNC(=O)c4ccc(-c5c6nc(c(-c7cccc(S(=O)(=O)[O-])c7F)c7ccc([nH]7)c(-c7cccc(S(=O)(=O)[O-])c7F)c7nc(c(-c8cccc(S(=O)(=O)[O-])c8F)c8ccc5[nH]8)C=C7)C=C6)cc4)CC3=O)c2)no1
REMARK SMILES IDX 17 1 16 2 15 3 13 4 14 5 12 7 10 8 11 9 86 10 85 11 87 12
REMARK SMILES IDX 9 13 5 14 6 15 88 16 7 17 8 18 4 19 1 20 2 21 3 22 90 23
REMARK SMILES IDX 89 24 18 25 19 26 20 27 21 29 22 30 23 31 84 32 24 33 83 34
REMARK SMILES IDX 25 35 26 36 27 37 77 38 28 39 82 40 76 41 78 42 29 43 81 44
REMARK SMILES IDX 75 45 74 46 30 48 62 49 42 50 61 51 43 52 46 53 60 54 79 55
REMARK SMILES IDX 44 56 45 57 59 59 80 60 47 61 31 62 32 63 40 64 33 65 35 66
REMARK SMILES IDX 41 67 34 68 36 69 37 70 38 71 39 72 63 73 64 74 72 75 65 76
REMARK SMILES IDX 67 77 73 78 66 79 68 80 69 81 70 82 71 83 48 84 49 85 57 86
REMARK SMILES IDX 50 87 52 88 58 89 51 90 53 91 54 92 55 93 56 94
REMARK H PARENT 15 6 19 28 78 47 46 58
REMARK Flexibility Score: inf
ROOT
ATOM      1  C   UNL A   1      31.757  29.296  26.953  1.00  0.00     0.042 C 
ENDROOT
BRANCH   1   2
ATOM      2  C   UNL A   1      32.051  27.937  27.581  1.00  0.00     0.117 C 
BRANCH   2   3
ATOM      3  N   UNL A   1      31.400  26.856  26.856  1.00  0.00    -0.356 N 
ATOM      4  C   UNL A   1      31.812  26.186  25.739  1.00  0.00     0.225 C 
ATOM      5  O   UNL A   1      31.055  25.360  25.236  1.00  0.00    -0.275 OA
ATOM      6  H   UNL A   1      30.536  26.564  27.225  1.00  0.00     0.163 HD
BRANCH   4   7
ATOM      7  C   UNL A   1      33.221  26.415  25.236  1.00  0.00     0.107 C 
ATOM      8  N   UNL A   1      34.252  24.402  24.596  1.00  0.00    -0.312 N 
ATOM      9  C   UNL A   1      34.088  25.270  25.733  1.00  0.00     0.139 C 
ATOM     10  C   UNL A   1      33.894  25.018  23.399  1.00  0.00     0.227 C 
ATOM     11  C   UNL A   1      33.337  26.381  23.716  1.00  0.00     0.116 C 
ATOM     12  O   UNL A   1      34.005  24.578  22.263  1.00  0.00    -0.274 OA
BRANCH   8  13
ATOM     13  C   UNL A   1      34.836  23.122  24.693  1.00  0.00     0.044 A 
ATOM     14  C   UNL A   1      34.599  20.709  24.902  1.00  0.00     0.025 A 
ATOM     15  C   UNL A   1      35.992  20.580  24.956  1.00  0.00     0.012 A 
ATOM     16  C   UNL A   1      34.030  21.985  24.801  1.00  0.00     0.038 A 
ATOM     17  C   UNL A   1      36.803  21.710  24.850  1.00  0.00     0.003 A 
ATOM     18  C   UNL A   1      36.228  22.972  24.691  1.00  0.00     0.026 A 
BRANCH  14  19
ATOM     19  C   UNL A   1      33.742  19.536  24.883  1.00  0.00     0.202 A 
ATOM     20  C   UNL A   1      33.079  16.057  24.606  1.00  0.00     0.114 C 
ATOM     21  C   UNL A   1      33.194  17.518  24.736  1.00  0.00     0.223 A 
ATOM     22  N   UNL A   1      34.235  18.293  24.549  1.00  0.00    -0.191 NA
ATOM     23  O   UNL A   1      32.081  18.193  25.139  1.00  0.00    -0.339 OA
ATOM     24  N   UNL A   1      32.453  19.533  25.258  1.00  0.00    -0.057 NA
ENDBRANCH  14  19
ENDBRANCH   8  13
ENDBRANCH   4   7
ENDBRANCH   2   3
ENDBRANCH   1   2
BRANCH   1  25
ATOM     25  C   UNL A   1      32.997  30.023  26.435  1.00  0.00     0.118 C 
BRANCH  25  26
ATOM     26  N   UNL A   1      32.994  31.442  26.766  1.00  0.00    -0.352 N 
ATOM     27  C   UNL A   1      33.818  32.161  27.597  1.00  0.00     0.251 C 
ATOM     28  H   UNL A   1      32.290  31.969  26.323  1.00  0.00     0.163 HD
ATOM     29  O   UNL A   1      33.525  33.323  27.865  1.00  0.00    -0.269 OA
BRANCH  27  30
ATOM     30  C   UNL A   1      35.035  31.552  28.177  1.00  0.00     0.039 A 
ATOM     31  C   UNL A   1      36.218  32.298  28.189  1.00  0.00     0.014 A 
ATOM     32  C   UNL A   1      35.032  30.245  28.671  1.00  0.00     0.014 A 
ATOM     33  C   UNL A   1      37.380  31.755  28.744  1.00  0.00     0.010 A 
ATOM     34  C   UNL A   1      36.171  29.731  29.289  1.00  0.00     0.010 A 
ATOM     35  C   UNL A   1      37.359  30.477  29.326  1.00  0.00    -0.014 A 
BRANCH  35  36
ATOM     36  C   UNL A   1      38.565  29.911  29.986  1.00  0.00     0.031 A 
ATOM     37  C   UNL A   1      38.980  30.382  31.353  1.00  0.00     0.074 A 
ATOM     38  C   UNL A   1      39.336  29.032  29.316  1.00  0.00     0.049 A 
ATOM     39  N   UNL A   1      40.024  30.037  32.062  1.00  0.00    -0.248 NA
ATOM     40  C   UNL A   1      38.127  31.394  31.999  1.00  0.00     0.031 C 
ATOM     41  C   UNL A   1      39.088  28.554  27.954  1.00  0.00     0.029 A 
ATOM     42  N   UNL A   1      40.501  28.402  29.679  1.00  0.00    -0.354 N 
ATOM     43  C   UNL A   1      39.977  30.814  33.214  1.00  0.00     0.074 A 
ATOM     44  C   UNL A   1      38.817  31.670  33.097  1.00  0.00     0.031 C 
ATOM     45  C   UNL A   1      40.065  27.704  27.600  1.00  0.00     0.029 A 
ATOM     46  C   UNL A   1      41.023  27.596  28.695  1.00  0.00     0.049 A 
ATOM     47  H   UNL A   1      40.923  28.518  30.561  1.00  0.00     0.167 HD
ATOM     48  C   UNL A   1      40.806  30.798  34.286  1.00  0.00     0.034 A 
ATOM     49  C   UNL A   1      42.149  26.855  28.673  1.00  0.00     0.034 A 
ATOM     50  C   UNL A   1      41.929  29.909  34.423  1.00  0.00     0.049 A 
ATOM     51  C   UNL A   1      43.025  26.818  29.896  1.00  0.00     0.074 A 
ATOM     52  C   UNL A   1      42.768  29.746  35.512  1.00  0.00     0.029 A 
ATOM     53  N   UNL A   1      42.375  29.041  33.440  1.00  0.00    -0.354 N 
ATOM     54  N   UNL A   1      42.868  27.433  31.043  1.00  0.00    -0.248 NA
ATOM     55  C   UNL A   1      44.215  25.956  29.835  1.00  0.00     0.031 C 
ATOM     56  C   UNL A   1      43.736  28.792  35.177  1.00  0.00     0.029 A 
ATOM     57  C   UNL A   1      43.485  28.345  33.891  1.00  0.00     0.049 A 
ATOM     58  H   UNL A   1      41.965  28.934  32.552  1.00  0.00     0.167 HD
ATOM     59  C   UNL A   1      43.912  27.003  31.853  1.00  0.00     0.074 A 
ATOM     60  C   UNL A   1      44.685  26.060  31.071  1.00  0.00     0.031 C 
ATOM     61  C   UNL A   1      44.213  27.366  33.124  1.00  0.00     0.034 A 
BRANCH  48  62
ATOM     62  C   UNL A   1      40.496  31.733  35.427  1.00  0.00     0.023 A 
ATOM     63  C   UNL A   1      41.330  32.846  35.659  1.00  0.00     0.012 A 
ATOM     64  C   UNL A   1      39.354  31.547  36.229  1.00  0.00     0.148 A 
ATOM     65  C   UNL A   1      41.054  33.739  36.694  1.00  0.00     0.002 A 
ATOM     66  C   UNL A   1      39.060  32.467  37.230  1.00  0.00     0.091 A 
ATOM     67  F   UNL A   1      38.583  30.473  36.009  1.00  0.00    -0.205 F 
ATOM     68  C   UNL A   1      39.915  33.555  37.471  1.00  0.00     0.022 A 
BRANCH  66  69
ATOM     69  S   UNL A   1      37.572  32.363  38.232  1.00  0.00     0.127 S 
ATOM     70  O   UNL A   1      37.977  33.088  39.436  1.00  0.00    -0.237 OA
ATOM     71  O   UNL A   1      36.590  33.062  37.403  1.00  0.00    -0.237 OA
ATOM     72  O   UNL A   1      37.311  30.943  38.414  1.00  0.00    -0.744 OA
ENDBRANCH  66  69
ENDBRANCH  48  62
BRANCH  49  73
ATOM     73  C   UNL A   1      42.470  26.023  27.479  1.00  0.00     0.023 A 
ATOM     74  C   UNL A   1      43.221  26.588  26.430  1.00  0.00     0.012 A 
ATOM     75  C   UNL A   1      42.065  24.678  27.387  1.00  0.00     0.148 A 
ATOM     76  C   UNL A   1      43.535  25.839  25.295  1.00  0.00     0.002 A 
ATOM     77  C   UNL A   1      42.430  23.920  26.279  1.00  0.00     0.091 A 
ATOM     78  F   UNL A   1      41.342  24.161  28.391  1.00  0.00    -0.205 F 
ATOM     79  C   UNL A   1      43.149  24.503  25.224  1.00  0.00     0.022 A 
BRANCH  77  80
ATOM     80  S   UNL A   1      42.092  22.159  26.165  1.00  0.00     0.127 S 
ATOM     81  O   UNL A   1      42.915  21.770  25.024  1.00  0.00    -0.237 OA
ATOM     82  O   UNL A   1      42.568  21.674  27.462  1.00  0.00    -0.237 OA
ATOM     83  O   UNL A   1      40.652  22.048  25.978  1.00  0.00    -0.744 OA
ENDBRANCH  77  80
ENDBRANCH  49  73
BRANCH  61  84
ATOM     84  C   UNL A   1      45.407  26.718  33.773  1.00  0.00     0.023 A 
ATOM     85  C   UNL A   1      46.663  27.357  33.727  1.00  0.00     0.012 A 
ATOM     86  C   UNL A   1      45.271  25.512  34.488  1.00  0.00     0.148 A 
ATOM     87  C   UNL A   1      47.771  26.787  34.355  1.00  0.00     0.002 A 
ATOM     88  C   UNL A   1      46.369  24.976  35.152  1.00  0.00     0.091 A 
ATOM     89  F   UNL A   1      44.073  24.909  34.504  1.00  0.00    -0.205 F 
ATOM     90  C   UNL A   1      47.621  25.606  35.076  1.00  0.00     0.022 A 
BRANCH  88  91
ATOM     91  S   UNL A   1      46.245  23.511  36.185  1.00  0.00     0.127 S 
ATOM     92  O   UNL A   1      45.973  22.471  35.195  1.00  0.00    -0.237 OA
ATOM     93  O   UNL A   1      47.574  23.442  36.792  1.00  0.00    -0.237 OA
ATOM     94  O   UNL A   1      45.166  23.777  37.127  1.00  0.00    -0.744 OA
ENDBRANCH  88  91
ENDBRANCH  61  84
ENDBRANCH  35  36
ENDBRANCH  27  30
ENDBRANCH  25  26
ENDBRANCH   1  25
TORSDOF 15
ENDMDL
MODEL 2
REMARK VINA RESULT:     -12.9      5.184     10.533
REMARK SMILES Cc1nc(-c2cccc(N3C[C@H](C(=O)NCCCNC(=O)c4ccc(-c5c6nc(c(-c7cccc(S(=O)(=O)[O-])c7F)c7ccc([nH]7)c(-c7cccc(S(=O)(=O)[O-])c7F)c7nc(c(-c8cccc(S(=O)(=O)[O-])c8F)c8ccc5[nH]8)C=C7)C=C6)cc4)CC3=O)c2)no1
REMARK SMILES IDX 17 1 16 2 15 3 13 4 14 5 12 7 10 8 11 9 86 10 85 11 87 12
REMARK SMILES IDX 9 13 5 14 6 15 88 16 7 17 8 18 4 19 1 20 2 21 3 22 90 23
REMARK SMILES IDX 89 24 18 25 19 26 20 27 21 29 22 30 23 31 84 32 24 33 83 34
REMARK SMILES IDX 25 35 26 36 27 37 77 38 28 39 82 40 76 41 78 42 29 43 81 44
REMARK SMILES IDX 75 45 74 46 30 48 62 49 42 50 61 51 43 52 46 53 60 54 79 55
REMARK SMILES IDX 44 56 45 57 59 59 80 60 47 61 31 62 32 63 40 64 33 65 35 66
REMARK SMILES IDX 41 67 34 68 36 69 37 70 38 71 39 72 63 73 64 74 72 75 65 76
REMARK SMILES IDX 67 77 73 78 66 79 68 80 69 81 70 82 71 83 48 84 49 85 57 86
REMARK SMILES IDX 50 87 52 88 58 89 51 90 53 91 54 92 55 93 56 94
REMARK H PARENT 15 6 19 28 78 47 46 58
REMARK Flexibility Score: inf
ROOT
ATOM      1  C   UNL A   1      35.604  21.579  24.516  1.00  0.00     0.042 C 
ENDROOT
BRANCH   1   2
ATOM      2  C   UNL A   1      34.200  21.189  24.968  1.00  0.00     0.117 C 
BRANCH   2   3
ATOM      3  N   UNL A   1      33.176  21.824  24.153  1.00  0.00    -0.356 N 
ATOM      4  C   UNL A   1      32.163  22.661  24.524  1.00  0.00     0.225 C 
ATOM      5  O   UNL A   1      31.348  23.012  23.674  1.00  0.00    -0.275 OA
ATOM      6  H   UNL A   1      33.219  21.620  23.191  1.00  0.00     0.163 HD
BRANCH   4   7
ATOM      7  C   UNL A   1      32.152  23.203  25.938  1.00  0.00     0.107 C 
ATOM      8  N   UNL A   1      31.435  25.440  26.006  1.00  0.00    -0.312 N 
ATOM      9  C   UNL A   1      32.630  24.644  25.891  1.00  0.00     0.139 C 
ATOM     10  C   UNL A   1      30.342  24.699  26.449  1.00  0.00     0.227 C 
ATOM     11  C   UNL A   1      30.760  23.257  26.558  1.00  0.00     0.116 C 
ATOM     12  O   UNL A   1      29.222  25.104  26.730  1.00  0.00    -0.274 OA
BRANCH   8  13
ATOM     13  C   UNL A   1      31.428  26.837  25.811  1.00  0.00     0.044 A 
ATOM     14  C   UNL A   1      30.879  28.770  24.439  1.00  0.00     0.025 A 
ATOM     15  C   UNL A   1      31.475  29.609  25.387  1.00  0.00     0.012 A 
ATOM     16  C   UNL A   1      30.887  27.384  24.644  1.00  0.00     0.038 A 
ATOM     17  C   UNL A   1      32.019  29.071  26.553  1.00  0.00     0.003 A 
ATOM     18  C   UNL A   1      31.970  27.693  26.777  1.00  0.00     0.026 A 
BRANCH  14  19
ATOM     19  C   UNL A   1      30.196  29.321  23.281  1.00  0.00     0.202 A 
ATOM     20  C   UNL A   1      28.333  31.792  21.535  1.00  0.00     0.114 C 
ATOM     21  C   UNL A   1      29.097  30.680  22.123  1.00  0.00     0.223 A 
ATOM     22  N   UNL A   1      29.462  30.485  23.367  1.00  0.00    -0.191 NA
ATOM     23  O   UNL A   1      29.530  29.708  21.272  1.00  0.00    -0.339 OA
ATOM     24  N   UNL A   1      30.281  28.816  22.040  1.00  0.00    -0.057 NA
ENDBRANCH  14  19
ENDBRANCH   8  13
ENDBRANCH   4   7
ENDBRANCH   2   3
ENDBRANCH   1   2
BRANCH   1  25
ATOM     25  C   UNL A   1      36.555  21.923  25.662  1.00  0.00     0.118 C 
BRANCH  25  26
ATOM     26  N   UNL A   1      37.600  20.924  25.842  1.00  0.00    -0.352 N 
ATOM     27  C   UNL A   1      38.934  21.077  26.126  1.00  0.00     0.251 C 
ATOM     28  H   UNL A   1      37.300  19.991  25.746  1.00  0.00     0.163 HD
ATOM     29  O   UNL A   1      39.672  20.097  26.063  1.00  0.00    -0.269 OA
BRANCH  27  30
ATOM     30  C   UNL A   1      39.490  22.399  26.492  1.00  0.00     0.039 A 
ATOM     31  C   UNL A   1      40.484  22.461  27.473  1.00  0.00     0.014 A 
ATOM     32  C   UNL A   1      39.014  23.576  25.908  1.00  0.00     0.014 A 
ATOM     33  C   UNL A   1      41.038  23.694  27.827  1.00  0.00     0.010 A 
ATOM     34  C   UNL A   1      39.617  24.796  26.210  1.00  0.00     0.010 A 
ATOM     35  C   UNL A   1      40.630  24.870  27.178  1.00  0.00    -0.014 A 
BRANCH  35  36
ATOM     36  C   UNL A   1      41.258  26.180  27.489  1.00  0.00     0.031 A 
ATOM     37  C   UNL A   1      42.677  26.466  27.075  1.00  0.00     0.074 A 
ATOM     38  C   UNL A   1      40.578  27.085  28.222  1.00  0.00     0.049 A 
ATOM     39  N   UNL A   1      43.402  27.530  27.300  1.00  0.00    -0.248 NA
ATOM     40  C   UNL A   1      43.382  25.407  26.334  1.00  0.00     0.031 C 
ATOM     41  C   UNL A   1      39.226  26.899  28.753  1.00  0.00     0.029 A 
ATOM     42  N   UNL A   1      40.940  28.331  28.670  1.00  0.00    -0.354 N 
ATOM     43  C   UNL A   1      44.657  27.257  26.767  1.00  0.00     0.074 A 
ATOM     44  C   UNL A   1      44.603  25.913  26.234  1.00  0.00     0.031 C 
ATOM     45  C   UNL A   1      38.871  27.991  29.448  1.00  0.00     0.029 A 
ATOM     46  C   UNL A   1      39.976  28.943  29.437  1.00  0.00     0.049 A 
ATOM     47  H   UNL A   1      41.808  28.746  28.462  1.00  0.00     0.167 HD
ATOM     48  C   UNL A   1      45.747  28.059  26.702  1.00  0.00     0.034 A 
ATOM     49  C   UNL A   1      39.982  30.136  30.064  1.00  0.00     0.034 A 
ATOM     50  C   UNL A   1      45.782  29.413  27.187  1.00  0.00     0.049 A 
ATOM     51  C   UNL A   1      41.188  31.026  29.934  1.00  0.00     0.074 A 
ATOM     52  C   UNL A   1      46.804  30.339  27.077  1.00  0.00     0.029 A 
ATOM     53  N   UNL A   1      44.755  30.031  27.880  1.00  0.00    -0.354 N 
ATOM     54  N   UNL A   1      42.304  30.815  29.278  1.00  0.00    -0.248 NA
ATOM     55  C   UNL A   1      41.122  32.336  30.598  1.00  0.00     0.031 C 
ATOM     56  C   UNL A   1      46.401  31.513  27.725  1.00  0.00     0.029 A 
ATOM     57  C   UNL A   1      45.120  31.325  28.215  1.00  0.00     0.049 A 
ATOM     58  H   UNL A   1      43.891  29.614  28.103  1.00  0.00     0.167 HD
ATOM     59  C   UNL A   1      43.054  31.976  29.416  1.00  0.00     0.074 A 
ATOM     60  C   UNL A   1      42.258  32.897  30.203  1.00  0.00     0.031 C 
ATOM     61  C   UNL A   1      44.296  32.252  28.948  1.00  0.00     0.034 A 
BRANCH  48  62
ATOM     62  C   UNL A   1      46.981  27.513  26.030  1.00  0.00     0.023 A 
ATOM     63  C   UNL A   1      47.184  27.745  24.654  1.00  0.00     0.012 A 
ATOM     64  C   UNL A   1      47.964  26.824  26.766  1.00  0.00     0.148 A 
ATOM     65  C   UNL A   1      48.327  27.269  24.013  1.00  0.00     0.002 A 
ATOM     66  C   UNL A   1      49.122  26.391  26.130  1.00  0.00     0.091 A 
ATOM     67  F   UNL A   1      47.746  26.593  28.069  1.00  0.00    -0.205 F 
ATOM     68  C   UNL A   1      49.300  26.602  24.752  1.00  0.00     0.022 A 
BRANCH  66  69
ATOM     69  S   UNL A   1      50.471  25.596  27.011  1.00  0.00     0.127 S 
ATOM     70  O   UNL A   1      49.792  24.451  27.617  1.00  0.00    -0.237 OA
ATOM     71  O   UNL A   1      51.391  25.253  25.926  1.00  0.00    -0.237 OA
ATOM     72  O   UNL A   1      50.980  26.590  27.945  1.00  0.00    -0.744 OA
ENDBRANCH  66  69
ENDBRANCH  48  62
BRANCH  49  73
ATOM     73  C   UNL A   1      38.774  30.592  30.807  1.00  0.00     0.023 A 
ATOM     74  C   UNL A   1      38.704  30.387  32.199  1.00  0.00     0.012 A 
ATOM     75  C   UNL A   1      37.712  31.249  30.156  1.00  0.00     0.148 A 
ATOM     76  C   UNL A   1      37.585  30.797  32.924  1.00  0.00     0.002 A 
ATOM     77  C   UNL A   1      36.625  31.706  30.893  1.00  0.00     0.091 A 
ATOM     78  F   UNL A   1      37.792  31.426  28.830  1.00  0.00    -0.205 F 
ATOM     79  C   UNL A   1      36.551  31.465  32.275  1.00  0.00     0.022 A 
BRANCH  77  80
ATOM     80  S   UNL A   1      35.314  32.693  30.163  1.00  0.00     0.127 S 
ATOM     81  O   UNL A   1      34.805  31.798  29.129  1.00  0.00    -0.237 OA
ATOM     82  O   UNL A   1      34.416  32.894  31.302  1.00  0.00    -0.237 OA
ATOM     83  O   UNL A   1      35.958  33.910  29.690  1.00  0.00    -0.744 OA
ENDBRANCH  77  80
ENDBRANCH  49  73
BRANCH  61  84
ATOM     84  C   UNL A   1      44.865  33.616  29.235  1.00  0.00     0.023 A 
ATOM     85  C   UNL A   1      45.559  33.847  30.440  1.00  0.00     0.012 A 
ATOM     86  C   UNL A   1      44.773  34.649  28.281  1.00  0.00     0.148 A 
ATOM     87  C   UNL A   1      46.125  35.095  30.704  1.00  0.00     0.002 A 
ATOM     88  C   UNL A   1      45.381  35.875  28.531  1.00  0.00     0.091 A 
ATOM     89  F   UNL A   1      44.092  34.417  27.150  1.00  0.00    -0.205 F 
ATOM     90  C   UNL A   1      46.046  36.103  29.746  1.00  0.00     0.022 A 
BRANCH  88  91
ATOM     91  S   UNL A   1      45.413  37.196  27.313  1.00  0.00     0.127 S 
ATOM     92  O   UNL A   1      46.188  36.587  26.234  1.00  0.00    -0.237 OA
ATOM     93  O   UNL A   1      43.993  37.380  27.015  1.00  0.00    -0.237 OA
ATOM     94  O   UNL A   1      46.042  38.332  27.975  1.00  0.00    -0.744 OA
ENDBRANCH  88  91
ENDBRANCH  61  84
ENDBRANCH  35  36
ENDBRANCH  27  30
ENDBRANCH  25  26
ENDBRANCH   1  25
TORSDOF 15
ENDMDL
MODEL 3
REMARK VINA RESULT:     -12.8      5.086     10.605
REMARK SMILES Cc1nc(-c2cccc(N3C[C@H](C(=O)NCCCNC(=O)c4ccc(-c5c6nc(c(-c7cccc(S(=O)(=O)[O-])c7F)c7ccc([nH]7)c(-c7cccc(S(=O)(=O)[O-])c7F)c7nc(c(-c8cccc(S(=O)(=O)[O-])c8F)c8ccc5[nH]8)C=C7)C=C6)cc4)CC3=O)c2)no1
REMARK SMILES IDX 17 1 16 2 15 3 13 4 14 5 12 7 10 8 11 9 86 10 85 11 87 12
REMARK SMILES IDX 9 13 5 14 6 15 88 16 7 17 8 18 4 19 1 20 2 21 3 22 90 23
REMARK SMILES IDX 89 24 18 25 19 26 20 27 21 29 22 30 23 31 84 32 24 33 83 34
REMARK SMILES IDX 25 35 26 36 27 37 77 38 28 39 82 40 76 41 78 42 29 43 81 44
REMARK SMILES IDX 75 45 74 46 30 48 62 49 42 50 61 51 43 52 46 53 60 54 79 55
REMARK SMILES IDX 44 56 45 57 59 59 80 60 47 61 31 62 32 63 40 64 33 65 35 66
REMARK SMILES IDX 41 67 34 68 36 69 37 70 38 71 39 72 63 73 64 74 72 75 65 76
REMARK SMILES IDX 67 77 73 78 66 79 68 80 69 81 70 82 71 83 48 84 49 85 57 86
REMARK SMILES IDX 50 87 52 88 58 89 51 90 53 91 54 92 55 93 56 94
REMARK H PARENT 15 6 19 28 78 47 46 58
REMARK Flexibility Score: inf
ROOT
ATOM      1  C   UNL A   1      36.794  21.838  24.243  1.00  0.00     0.042 C 
ENDROOT
BRANCH   1   2
ATOM      2  C   UNL A   1      36.440  23.153  23.553  1.00  0.00     0.117 C 
BRANCH   2   3
ATOM      3  N   UNL A   1      35.043  23.190  23.151  1.00  0.00    -0.356 N 
ATOM      4  C   UNL A   1      33.928  23.437  23.900  1.00  0.00     0.225 C 
ATOM      5  O   UNL A   1      32.825  23.328  23.369  1.00  0.00    -0.275 OA
ATOM      6  H   UNL A   1      34.875  23.011  22.198  1.00  0.00     0.163 HD
BRANCH   4   7
ATOM      7  C   UNL A   1      34.104  23.936  25.319  1.00  0.00     0.107 C 
ATOM      8  N   UNL A   1      32.815  25.859  25.730  1.00  0.00    -0.312 N 
ATOM      9  C   UNL A   1      34.123  25.455  25.281  1.00  0.00     0.139 C 
ATOM     10  C   UNL A   1      32.121  24.821  26.349  1.00  0.00     0.227 C 
ATOM     11  C   UNL A   1      32.948  23.568  26.242  1.00  0.00     0.116 C 
ATOM     12  O   UNL A   1      31.035  24.871  26.910  1.00  0.00    -0.274 OA
BRANCH   8  13
ATOM     13  C   UNL A   1      32.362  27.191  25.656  1.00  0.00     0.044 A 
ATOM     14  C   UNL A   1      31.154  28.943  24.475  1.00  0.00     0.025 A 
ATOM     15  C   UNL A   1      31.516  29.859  25.469  1.00  0.00     0.012 A 
ATOM     16  C   UNL A   1      31.605  27.620  24.561  1.00  0.00     0.038 A 
ATOM     17  C   UNL A   1      32.272  29.440  26.564  1.00  0.00     0.003 A 
ATOM     18  C   UNL A   1      32.669  28.105  26.671  1.00  0.00     0.026 A 
BRANCH  14  19
ATOM     19  C   UNL A   1      30.263  29.331  23.395  1.00  0.00     0.202 A 
ATOM     20  C   UNL A   1      28.141  31.575  21.640  1.00  0.00     0.114 C 
ATOM     21  C   UNL A   1      28.983  30.536  22.254  1.00  0.00     0.223 A 
ATOM     22  N   UNL A   1      29.588  30.533  23.417  1.00  0.00    -0.191 NA
ATOM     23  O   UNL A   1      29.212  29.412  21.519  1.00  0.00    -0.339 OA
ATOM     24  N   UNL A   1      30.083  28.620  22.270  1.00  0.00    -0.057 NA
ENDBRANCH  14  19
ENDBRANCH   8  13
ENDBRANCH   4   7
ENDBRANCH   2   3
ENDBRANCH   1   2
BRANCH   1  25
ATOM     25  C   UNL A   1      37.282  22.002  25.682  1.00  0.00     0.118 C 
BRANCH  25  26
ATOM     26  N   UNL A   1      38.349  21.070  26.022  1.00  0.00    -0.352 N 
ATOM     27  C   UNL A   1      39.629  21.307  26.457  1.00  0.00     0.251 C 
ATOM     28  H   UNL A   1      38.113  20.119  25.925  1.00  0.00     0.163 HD
ATOM     29  O   UNL A   1      40.420  20.369  26.518  1.00  0.00    -0.269 OA
BRANCH  27  30
ATOM     30  C   UNL A   1      40.066  22.669  26.837  1.00  0.00     0.039 A 
ATOM     31  C   UNL A   1      40.934  22.816  27.923  1.00  0.00     0.014 A 
ATOM     32  C   UNL A   1      39.599  23.800  26.162  1.00  0.00     0.014 A 
ATOM     33  C   UNL A   1      41.376  24.089  28.295  1.00  0.00     0.010 A 
ATOM     34  C   UNL A   1      40.095  25.060  26.488  1.00  0.00     0.010 A 
ATOM     35  C   UNL A   1      40.983  25.220  27.562  1.00  0.00    -0.014 A 
BRANCH  35  36
ATOM     36  C   UNL A   1      41.499  26.573  27.897  1.00  0.00     0.031 A 
ATOM     37  C   UNL A   1      42.924  26.945  27.591  1.00  0.00     0.074 A 
ATOM     38  C   UNL A   1      40.705  27.441  28.557  1.00  0.00     0.049 A 
ATOM     39  N   UNL A   1      43.560  28.059  27.852  1.00  0.00    -0.248 NA
ATOM     40  C   UNL A   1      43.754  25.925  26.929  1.00  0.00     0.031 C 
ATOM     41  C   UNL A   1      39.329  27.174  28.982  1.00  0.00     0.029 A 
ATOM     42  N   UNL A   1      40.949  28.714  29.008  1.00  0.00    -0.354 N 
ATOM     43  C   UNL A   1      44.868  27.860  27.426  1.00  0.00     0.074 A 
ATOM     44  C   UNL A   1      44.944  26.509  26.916  1.00  0.00     0.031 C 
ATOM     45  C   UNL A   1      38.850  28.251  29.626  1.00  0.00     0.029 A 
ATOM     46  C   UNL A   1      39.890  29.273  29.684  1.00  0.00     0.049 A 
ATOM     47  H   UNL A   1      41.803  29.183  28.862  1.00  0.00     0.167 HD
ATOM     48  C   UNL A   1      45.906  28.732  27.432  1.00  0.00     0.034 A 
ATOM     49  C   UNL A   1      39.769  30.472  30.288  1.00  0.00     0.034 A 
ATOM     50  C   UNL A   1      45.815  30.091  27.893  1.00  0.00     0.049 A 
ATOM     51  C   UNL A   1      40.921  31.438  30.236  1.00  0.00     0.074 A 
ATOM     52  C   UNL A   1      46.781  31.081  27.847  1.00  0.00     0.029 A 
ATOM     53  N   UNL A   1      44.698  30.651  28.491  1.00  0.00    -0.354 N 
ATOM     54  N   UNL A   1      42.097  31.291  29.675  1.00  0.00    -0.248 NA
ATOM     55  C   UNL A   1      40.718  32.750  30.868  1.00  0.00     0.031 C 
ATOM     56  C   UNL A   1      46.253  32.235  28.438  1.00  0.00     0.029 A 
ATOM     57  C   UNL A   1      44.951  31.970  28.829  1.00  0.00     0.049 A 
ATOM     58  H   UNL A   1      43.848  30.180  28.652  1.00  0.00     0.167 HD
ATOM     59  C   UNL A   1      42.758  32.501  29.850  1.00  0.00     0.074 A 
ATOM     60  C   UNL A   1      41.843  33.378  30.553  1.00  0.00     0.031 C 
ATOM     61  C   UNL A   1      44.013  32.851  29.476  1.00  0.00     0.034 A 
BRANCH  48  62
ATOM     62  C   UNL A   1      47.222  28.258  26.870  1.00  0.00     0.023 A 
ATOM     63  C   UNL A   1      48.287  27.963  27.747  1.00  0.00     0.012 A 
ATOM     64  C   UNL A   1      47.389  28.050  25.488  1.00  0.00     0.148 A 
ATOM     65  C   UNL A   1      49.507  27.503  27.255  1.00  0.00     0.002 A 
ATOM     66  C   UNL A   1      48.594  27.548  25.008  1.00  0.00     0.091 A 
ATOM     67  F   UNL A   1      46.375  28.355  24.666  1.00  0.00    -0.205 F 
ATOM     68  C   UNL A   1      49.657  27.286  25.888  1.00  0.00     0.022 A 
BRANCH  66  69
ATOM     69  S   UNL A   1      48.858  27.156  23.275  1.00  0.00     0.127 S 
ATOM     70  O   UNL A   1      48.124  25.898  23.142  1.00  0.00    -0.237 OA
ATOM     71  O   UNL A   1      48.236  28.298  22.601  1.00  0.00    -0.237 OA
ATOM     72  O   UNL A   1      50.300  27.062  23.101  1.00  0.00    -0.744 OA
ENDBRANCH  66  69
ENDBRANCH  48  62
BRANCH  49  73
ATOM     73  C   UNL A   1      38.477  30.858  30.923  1.00  0.00     0.023 A 
ATOM     74  C   UNL A   1      38.271  30.575  32.288  1.00  0.00     0.012 A 
ATOM     75  C   UNL A   1      37.470  31.526  30.202  1.00  0.00     0.148 A 
ATOM     76  C   UNL A   1      37.072  30.918  32.914  1.00  0.00     0.002 A 
ATOM     77  C   UNL A   1      36.300  31.916  30.845  1.00  0.00     0.091 A 
ATOM     78  F   UNL A   1      37.680  31.778  28.902  1.00  0.00    -0.205 F 
ATOM     79  C   UNL A   1      36.092  31.597  32.196  1.00  0.00     0.022 A 
BRANCH  77  80
ATOM     80  S   UNL A   1      35.043  32.912  30.035  1.00  0.00     0.127 S 
ATOM     81  O   UNL A   1      35.836  34.005  29.483  1.00  0.00    -0.237 OA
ATOM     82  O   UNL A   1      34.507  31.977  29.045  1.00  0.00    -0.237 OA
ATOM     83  O   UNL A   1      34.100  33.277  31.083  1.00  0.00    -0.744 OA
ENDBRANCH  77  80
ENDBRANCH  49  73
BRANCH  61  84
ATOM     84  C   UNL A   1      44.468  34.254  29.782  1.00  0.00     0.023 A 
ATOM     85  C   UNL A   1      45.163  34.520  30.979  1.00  0.00     0.012 A 
ATOM     86  C   UNL A   1      44.270  35.293  28.851  1.00  0.00     0.148 A 
ATOM     87  C   UNL A   1      45.624  35.807  31.259  1.00  0.00     0.002 A 
ATOM     88  C   UNL A   1      44.775  36.561  29.115  1.00  0.00     0.091 A 
ATOM     89  F   UNL A   1      43.590  35.024  27.727  1.00  0.00    -0.205 F 
ATOM     90  C   UNL A   1      45.441  36.822  30.323  1.00  0.00     0.022 A 
BRANCH  88  91
ATOM     91  S   UNL A   1      44.671  37.903  27.925  1.00  0.00     0.127 S 
ATOM     92  O   UNL A   1      45.430  38.956  28.596  1.00  0.00    -0.237 OA
ATOM     93  O   UNL A   1      45.330  37.331  26.751  1.00  0.00    -0.237 OA
ATOM     94  O   UNL A   1      43.249  38.169  27.747  1.00  0.00    -0.744 OA
ENDBRANCH  88  91
ENDBRANCH  61  84
ENDBRANCH  35  36
ENDBRANCH  27  30
ENDBRANCH  25  26
ENDBRANCH   1  25
TORSDOF 15
ENDMDL
