MODEL 1
REMARK VINA RESULT:     -13.6      0.000      0.000
REMARK SMILES O=C(NCCCNC(=O)C1(c2ccccc2)CCN(S(=O)(=O)c2cccs2)CC1)c1ccc(-c2c3nc(c(-c4cccc(S(=O)(=O)[O-])c4F)c4ccc([nH]4)c(-c4cccc(S(=O)(=O)[O-])c4F)c4nc(c(-c5cccc(S(=O)(=O)[O-])c5F)c5ccc2[nH]5)C=C4)C=C3)cc1
REMARK SMILES IDX 4 1 3 2 1 3 2 4 30 6 31 7 92 8 32 9 91 10 33 11 34 12 35 13
REMARK SMILES IDX 85 14 36 15 90 16 84 17 86 18 37 19 89 20 83 21 82 22 38 24
REMARK SMILES IDX 70 25 50 26 69 27 51 28 54 29 68 30 87 31 52 32 53 33 67 35
REMARK SMILES IDX 88 36 55 37 39 38 40 39 48 40 41 41 43 42 49 43 42 44 44 45
REMARK SMILES IDX 45 46 46 47 47 48 71 49 72 50 80 51 73 52 75 53 81 54 74 55
REMARK SMILES IDX 76 56 77 57 78 58 79 59 56 60 57 61 65 62 58 63 60 64 66 65
REMARK SMILES IDX 59 66 61 67 62 68 63 69 64 70 5 71 6 72 7 73 8 74 9 76 10 77
REMARK SMILES IDX 17 78 29 79 18 80 28 81 19 82 11 83 12 84 16 85 13 86 15 87
REMARK SMILES IDX 14 88 20 89 21 90 22 91 23 92 24 93 27 94 25 95 26 96
REMARK H PARENT 3 5 86 23 54 34 7 75
REMARK Flexibility Score: inf
ROOT
ATOM      1  C   UNL A   1      31.912  30.892  26.856  1.00  0.00     0.118 C 
ENDROOT
BRANCH   1   2
ATOM      2  N   UNL A   1      32.009  32.337  26.947  1.00  0.00    -0.352 N 
ATOM      3  O   UNL A   1      32.659  34.287  27.840  1.00  0.00    -0.269 OA
ATOM      4  C   UNL A   1      32.923  33.108  27.622  1.00  0.00     0.251 C 
ATOM      5  H   UNL A   1      31.320  32.838  26.454  1.00  0.00     0.163 HD
BRANCH   4   6
ATOM      6  C   UNL A   1      34.206  32.527  28.084  1.00  0.00     0.039 A 
ATOM      7  C   UNL A   1      35.321  33.337  28.318  1.00  0.00     0.014 A 
ATOM      8  C   UNL A   1      34.269  31.162  28.377  1.00  0.00     0.014 A 
ATOM      9  C   UNL A   1      36.521  32.775  28.742  1.00  0.00     0.010 A 
ATOM     10  C   UNL A   1      35.448  30.611  28.891  1.00  0.00     0.010 A 
ATOM     11  C   UNL A   1      36.582  31.414  29.077  1.00  0.00    -0.014 A 
BRANCH  11  12
ATOM     12  C   UNL A   1      37.783  30.891  29.778  1.00  0.00     0.031 A 
ATOM     13  C   UNL A   1      38.694  29.884  29.139  1.00  0.00     0.074 A 
ATOM     14  C   UNL A   1      38.006  31.306  31.042  1.00  0.00     0.049 A 
ATOM     15  N   UNL A   1      39.760  29.315  29.638  1.00  0.00    -0.248 NA
ATOM     16  C   UNL A   1      38.370  29.452  27.770  1.00  0.00     0.031 C 
ATOM     17  C   UNL A   1      37.147  32.235  31.785  1.00  0.00     0.029 A 
ATOM     18  N   UNL A   1      38.997  30.989  31.935  1.00  0.00    -0.354 N 
ATOM     19  C   UNL A   1      40.209  28.425  28.671  1.00  0.00     0.074 A 
ATOM     20  C   UNL A   1      39.306  28.536  27.545  1.00  0.00     0.031 C 
ATOM     21  C   UNL A   1      37.646  32.411  33.017  1.00  0.00     0.029 A 
ATOM     22  C   UNL A   1      38.823  31.567  33.173  1.00  0.00     0.049 A 
ATOM     23  H   UNL A   1      39.759  30.406  31.714  1.00  0.00     0.167 HD
ATOM     24  C   UNL A   1      41.282  27.600  28.721  1.00  0.00     0.034 A 
ATOM     25  C   UNL A   1      39.508  31.408  34.321  1.00  0.00     0.034 A 
ATOM     26  C   UNL A   1      42.197  27.530  29.830  1.00  0.00     0.049 A 
ATOM     27  C   UNL A   1      40.698  30.494  34.333  1.00  0.00     0.074 A 
ATOM     28  C   UNL A   1      43.380  26.817  29.920  1.00  0.00     0.029 A 
ATOM     29  N   UNL A   1      42.021  28.169  31.047  1.00  0.00    -0.354 N 
ATOM     30  N   UNL A   1      41.217  29.808  33.344  1.00  0.00    -0.248 NA
ATOM     31  C   UNL A   1      41.411  30.346  35.608  1.00  0.00     0.031 C 
ATOM     32  C   UNL A   1      43.901  26.997  31.207  1.00  0.00     0.029 A 
ATOM     33  C   UNL A   1      43.054  27.839  31.908  1.00  0.00     0.049 A 
ATOM     34  H   UNL A   1      41.272  28.770  31.267  1.00  0.00     0.167 HD
ATOM     35  C   UNL A   1      42.321  29.154  33.874  1.00  0.00     0.074 A 
ATOM     36  C   UNL A   1      42.421  29.560  35.261  1.00  0.00     0.031 C 
ATOM     37  C   UNL A   1      43.162  28.279  33.274  1.00  0.00     0.034 A 
BRANCH  24  38
ATOM     38  C   UNL A   1      41.564  26.716  27.536  1.00  0.00     0.023 A 
ATOM     39  C   UNL A   1      42.265  27.237  26.430  1.00  0.00     0.012 A 
ATOM     40  C   UNL A   1      41.252  25.343  27.574  1.00  0.00     0.148 A 
ATOM     41  C   UNL A   1      42.642  26.405  25.375  1.00  0.00     0.002 A 
ATOM     42  C   UNL A   1      41.661  24.514  26.536  1.00  0.00     0.091 A 
ATOM     43  F   UNL A   1      40.571  24.874  28.629  1.00  0.00    -0.205 F 
ATOM     44  C   UNL A   1      42.351  25.044  25.434  1.00  0.00     0.022 A 
BRANCH  42  45
ATOM     45  S   UNL A   1      41.401  22.736  26.550  1.00  0.00     0.127 S 
ATOM     46  O   UNL A   1      41.967  22.368  27.848  1.00  0.00    -0.237 OA
ATOM     47  O   UNL A   1      39.944  22.639  26.472  1.00  0.00    -0.237 OA
ATOM     48  O   UNL A   1      42.113  22.214  25.392  1.00  0.00    -0.744 OA
ENDBRANCH  42  45
ENDBRANCH  24  38
BRANCH  25  49
ATOM     49  C   UNL A   1      39.078  32.133  35.548  1.00  0.00     0.023 A 
ATOM     50  C   UNL A   1      39.336  33.512  35.670  1.00  0.00     0.012 A 
ATOM     51  C   UNL A   1      38.388  31.469  36.583  1.00  0.00     0.148 A 
ATOM     52  C   UNL A   1      38.938  34.209  36.812  1.00  0.00     0.002 A 
ATOM     53  C   UNL A   1      37.942  32.183  37.687  1.00  0.00     0.091 A 
ATOM     54  F   UNL A   1      38.171  30.152  36.461  1.00  0.00    -0.205 F 
ATOM     55  C   UNL A   1      38.232  33.549  37.814  1.00  0.00     0.022 A 
BRANCH  53  56
ATOM     56  S   UNL A   1      36.897  31.429  38.939  1.00  0.00     0.127 S 
ATOM     57  O   UNL A   1      37.724  31.554  40.136  1.00  0.00    -0.237 OA
ATOM     58  O   UNL A   1      35.714  32.290  38.915  1.00  0.00    -0.237 OA
ATOM     59  O   UNL A   1      36.652  30.073  38.467  1.00  0.00    -0.744 OA
ENDBRANCH  53  56
ENDBRANCH  25  49
BRANCH  37  60
ATOM     60  C   UNL A   1      44.265  27.694  34.113  1.00  0.00     0.023 A 
ATOM     61  C   UNL A   1      45.495  28.374  34.210  1.00  0.00     0.012 A 
ATOM     62  C   UNL A   1      44.063  26.516  34.857  1.00  0.00     0.148 A 
ATOM     63  C   UNL A   1      46.518  27.876  35.015  1.00  0.00     0.002 A 
ATOM     64  C   UNL A   1      45.070  26.051  35.695  1.00  0.00     0.091 A 
ATOM     65  F   UNL A   1      42.890  25.877  34.736  1.00  0.00    -0.205 F 
ATOM     66  C   UNL A   1      46.301  26.724  35.765  1.00  0.00     0.022 A 
BRANCH  64  67
ATOM     67  S   UNL A   1      44.854  24.628  36.768  1.00  0.00     0.127 S 
ATOM     68  O   UNL A   1      46.190  24.482  37.343  1.00  0.00    -0.237 OA
ATOM     69  O   UNL A   1      43.834  25.097  37.705  1.00  0.00    -0.237 OA
ATOM     70  O   UNL A   1      44.426  23.533  35.906  1.00  0.00    -0.744 OA
ENDBRANCH  64  67
ENDBRANCH  37  60
ENDBRANCH  11  12
ENDBRANCH   4   6
ENDBRANCH   1   2
BRANCH   1  71
ATOM     71  C   UNL A   1      31.477  30.447  25.468  1.00  0.00     0.042 C 
BRANCH  71  72
ATOM     72  C   UNL A   1      32.195  29.195  24.980  1.00  0.00     0.117 C 
BRANCH  72  73
ATOM     73  N   UNL A   1      31.660  27.992  25.597  1.00  0.00    -0.355 N 
ATOM     74  C   UNL A   1      30.804  27.044  25.128  1.00  0.00     0.230 C 
ATOM     75  H   UNL A   1      31.974  27.836  26.517  1.00  0.00     0.163 HD
ATOM     76  O   UNL A   1      30.302  26.307  25.984  1.00  0.00    -0.274 OA
BRANCH  74  77
ATOM     77  C   UNL A   1      30.523  26.842  23.609  1.00  0.00     0.077 C 
ATOM     78  C   UNL A   1      29.890  25.427  23.398  1.00  0.00     0.038 C 
ATOM     79  C   UNL A   1      31.875  26.848  22.850  1.00  0.00     0.038 C 
ATOM     80  C   UNL A   1      30.853  24.257  23.680  1.00  0.00     0.104 C 
ATOM     81  C   UNL A   1      32.776  25.700  23.267  1.00  0.00     0.104 C 
ATOM     82  N   UNL A   1      32.106  24.435  22.897  1.00  0.00    -0.197 NA
BRANCH  77  83
ATOM     83  C   UNL A   1      29.532  27.917  23.102  1.00  0.00    -0.032 A 
ATOM     84  C   UNL A   1      29.950  29.045  22.371  1.00  0.00     0.005 A 
ATOM     85  C   UNL A   1      28.166  27.832  23.438  1.00  0.00     0.005 A 
ATOM     86  C   UNL A   1      29.065  30.083  22.064  1.00  0.00     0.000 A 
ATOM     87  C   UNL A   1      27.282  28.871  23.126  1.00  0.00     0.000 A 
ATOM     88  C   UNL A   1      27.736  30.004  22.457  1.00  0.00     0.000 A 
ENDBRANCH  77  83
BRANCH  82  89
ATOM     89  S   UNL A   1      33.141  23.069  22.889  1.00  0.00     0.252 S 
ATOM     90  O   UNL A   1      32.319  21.886  22.761  1.00  0.00    -0.206 OA
ATOM     91  O   UNL A   1      34.240  23.332  21.982  1.00  0.00    -0.206 OA
BRANCH  89  92
ATOM     92  C   UNL A   1      33.844  22.950  24.536  1.00  0.00     0.135 A 
ATOM     93  C   UNL A   1      34.987  23.502  25.095  1.00  0.00     0.033 A 
ATOM     94  S   UNL A   1      33.003  21.995  25.683  1.00  0.00    -0.131 S 
ATOM     95  C   UNL A   1      35.188  23.102  26.448  1.00  0.00     0.013 A 
ATOM     96  C   UNL A   1      34.168  22.297  26.898  1.00  0.00     0.066 A 
ENDBRANCH  89  92
ENDBRANCH  82  89
ENDBRANCH  74  77
ENDBRANCH  72  73
ENDBRANCH  71  72
ENDBRANCH   1  71
TORSDOF 16
ENDMDL
MODEL 2
REMARK VINA RESULT:     -13.4      5.285     10.645
REMARK SMILES O=C(NCCCNC(=O)C1(c2ccccc2)CCN(S(=O)(=O)c2cccs2)CC1)c1ccc(-c2c3nc(c(-c4cccc(S(=O)(=O)[O-])c4F)c4ccc([nH]4)c(-c4cccc(S(=O)(=O)[O-])c4F)c4nc(c(-c5cccc(S(=O)(=O)[O-])c5F)c5ccc2[nH]5)C=C4)C=C3)cc1
REMARK SMILES IDX 4 1 3 2 1 3 2 4 30 6 31 7 92 8 32 9 91 10 33 11 34 12 35 13
REMARK SMILES IDX 85 14 36 15 90 16 84 17 86 18 37 19 89 20 83 21 82 22 38 24
REMARK SMILES IDX 70 25 50 26 69 27 51 28 54 29 68 30 87 31 52 32 53 33 67 35
REMARK SMILES IDX 88 36 55 37 39 38 40 39 48 40 41 41 43 42 49 43 42 44 44 45
REMARK SMILES IDX 45 46 46 47 47 48 71 49 72 50 80 51 73 52 75 53 81 54 74 55
REMARK SMILES IDX 76 56 77 57 78 58 79 59 56 60 57 61 65 62 58 63 60 64 66 65
REMARK SMILES IDX 59 66 61 67 62 68 63 69 64 70 5 71 6 72 7 73 8 74 9 76 10 77
REMARK SMILES IDX 17 78 29 79 18 80 28 81 19 82 11 83 12 84 16 85 13 86 15 87
REMARK SMILES IDX 14 88 20 89 21 90 22 91 23 92 24 93 27 94 25 95 26 96
REMARK H PARENT 3 5 86 23 54 34 7 75
REMARK Flexibility Score: inf
ROOT
ATOM      1  C   UNL A   1      37.771  20.892  24.825  1.00  0.00     0.118 C 
ENDROOT
BRANCH   1   2
ATOM      2  N   UNL A   1      38.675  19.910  25.397  1.00  0.00    -0.352 N 
ATOM      3  O   UNL A   1      40.637  19.142  26.160  1.00  0.00    -0.269 OA
ATOM      4  C   UNL A   1      39.877  20.099  26.031  1.00  0.00     0.251 C 
ATOM      5  H   UNL A   1      38.383  18.973  25.318  1.00  0.00     0.163 HD
BRANCH   4   6
ATOM      6  C   UNL A   1      40.257  21.435  26.549  1.00  0.00     0.039 A 
ATOM      7  C   UNL A   1      41.223  21.571  27.550  1.00  0.00     0.014 A 
ATOM      8  C   UNL A   1      39.705  22.575  25.958  1.00  0.00     0.014 A 
ATOM      9  C   UNL A   1      41.560  22.833  28.032  1.00  0.00     0.010 A 
ATOM     10  C   UNL A   1      40.113  23.846  26.379  1.00  0.00     0.010 A 
ATOM     11  C   UNL A   1      41.043  23.983  27.420  1.00  0.00    -0.014 A 
BRANCH  11  12
ATOM     12  C   UNL A   1      41.615  25.310  27.764  1.00  0.00     0.031 A 
ATOM     13  C   UNL A   1      40.810  26.354  28.481  1.00  0.00     0.074 A 
ATOM     14  C   UNL A   1      42.874  25.578  27.361  1.00  0.00     0.049 A 
ATOM     15  N   UNL A   1      41.163  27.566  28.821  1.00  0.00    -0.248 NA
ATOM     16  C   UNL A   1      39.431  26.004  28.860  1.00  0.00     0.031 C 
ATOM     17  C   UNL A   1      43.727  24.657  26.601  1.00  0.00     0.029 A 
ATOM     18  N   UNL A   1      43.650  26.699  27.507  1.00  0.00    -0.354 N 
ATOM     19  C   UNL A   1      40.045  28.142  29.409  1.00  0.00     0.074 A 
ATOM     20  C   UNL A   1      38.998  27.142  29.392  1.00  0.00     0.031 C 
ATOM     21  C   UNL A   1      44.902  25.250  26.347  1.00  0.00     0.029 A 
ATOM     22  C   UNL A   1      44.868  26.607  26.873  1.00  0.00     0.049 A 
ATOM     23  H   UNL A   1      43.364  27.492  28.017  1.00  0.00     0.167 HD
ATOM     24  C   UNL A   1      39.912  29.388  29.922  1.00  0.00     0.034 A 
ATOM     25  C   UNL A   1      45.838  27.525  26.695  1.00  0.00     0.034 A 
ATOM     26  C   UNL A   1      40.973  30.360  29.971  1.00  0.00     0.049 A 
ATOM     27  C   UNL A   1      45.659  28.891  27.289  1.00  0.00     0.074 A 
ATOM     28  C   UNL A   1      40.970  31.602  30.582  1.00  0.00     0.029 A 
ATOM     29  N   UNL A   1      42.211  30.215  29.367  1.00  0.00    -0.354 N 
ATOM     30  N   UNL A   1      44.664  29.349  28.010  1.00  0.00    -0.248 NA
ATOM     31  C   UNL A   1      46.739  29.860  27.066  1.00  0.00     0.031 C 
ATOM     32  C   UNL A   1      42.194  32.223  30.315  1.00  0.00     0.029 A 
ATOM     33  C   UNL A   1      42.968  31.359  29.558  1.00  0.00     0.049 A 
ATOM     34  H   UNL A   1      42.510  29.416  28.874  1.00  0.00     0.167 HD
ATOM     35  C   UNL A   1      45.003  30.656  28.334  1.00  0.00     0.074 A 
ATOM     36  C   UNL A   1      46.312  30.902  27.766  1.00  0.00     0.031 C 
ATOM     37  C   UNL A   1      44.284  31.578  29.019  1.00  0.00     0.034 A 
BRANCH  24  38
ATOM     38  C   UNL A   1      38.584  29.786  30.509  1.00  0.00     0.023 A 
ATOM     39  C   UNL A   1      38.290  29.465  31.849  1.00  0.00     0.012 A 
ATOM     40  C   UNL A   1      37.686  30.587  29.775  1.00  0.00     0.148 A 
ATOM     41  C   UNL A   1      37.118  29.928  32.447  1.00  0.00     0.002 A 
ATOM     42  C   UNL A   1      36.538  31.074  30.389  1.00  0.00     0.091 A 
ATOM     43  F   UNL A   1      37.980  30.866  28.497  1.00  0.00    -0.205 F 
ATOM     44  C   UNL A   1      36.250  30.741  31.722  1.00  0.00     0.022 A 
BRANCH  42  45
ATOM     45  S   UNL A   1      35.393  32.188  29.566  1.00  0.00     0.127 S 
ATOM     46  O   UNL A   1      34.872  31.335  28.498  1.00  0.00    -0.237 OA
ATOM     47  O   UNL A   1      34.435  32.483  30.631  1.00  0.00    -0.237 OA
ATOM     48  O   UNL A   1      36.184  33.326  29.121  1.00  0.00    -0.744 OA
ENDBRANCH  42  45
ENDBRANCH  24  38
BRANCH  25  49
ATOM     49  C   UNL A   1      47.060  27.172  25.921  1.00  0.00     0.023 A 
ATOM     50  C   UNL A   1      48.058  26.379  26.516  1.00  0.00     0.012 A 
ATOM     51  C   UNL A   1      47.223  27.596  24.586  1.00  0.00     0.148 A 
ATOM     52  C   UNL A   1      49.210  26.036  25.805  1.00  0.00     0.002 A 
ATOM     53  C   UNL A   1      48.343  27.200  23.866  1.00  0.00     0.091 A 
ATOM     54  F   UNL A   1      46.274  28.370  24.042  1.00  0.00    -0.205 F 
ATOM     55  C   UNL A   1      49.346  26.436  24.478  1.00  0.00     0.022 A 
BRANCH  53  56
ATOM     56  S   UNL A   1      48.510  27.550  22.112  1.00  0.00     0.127 S 
ATOM     57  O   UNL A   1      48.698  26.214  21.555  1.00  0.00    -0.237 OA
ATOM     58  O   UNL A   1      47.223  28.174  21.797  1.00  0.00    -0.237 OA
ATOM     59  O   UNL A   1      49.646  28.455  22.010  1.00  0.00    -0.744 OA
ENDBRANCH  53  56
ENDBRANCH  25  49
BRANCH  37  60
ATOM     60  C   UNL A   1      44.894  32.941  29.191  1.00  0.00     0.023 A 
ATOM     61  C   UNL A   1      45.652  33.219  30.346  1.00  0.00     0.012 A 
ATOM     62  C   UNL A   1      44.778  33.920  28.185  1.00  0.00     0.148 A 
ATOM     63  C   UNL A   1      46.263  34.461  30.511  1.00  0.00     0.002 A 
ATOM     64  C   UNL A   1      45.430  35.138  28.334  1.00  0.00     0.091 A 
ATOM     65  F   UNL A   1      44.039  33.639  27.103  1.00  0.00    -0.205 F 
ATOM     66  C   UNL A   1      46.163  35.414  29.500  1.00  0.00     0.022 A 
BRANCH  64  67
ATOM     67  S   UNL A   1      45.435  36.394  27.050  1.00  0.00     0.127 S 
ATOM     68  O   UNL A   1      45.914  35.637  25.895  1.00  0.00    -0.237 OA
ATOM     69  O   UNL A   1      44.025  36.778  26.986  1.00  0.00    -0.237 OA
ATOM     70  O   UNL A   1      46.328  37.446  27.518  1.00  0.00    -0.744 OA
ENDBRANCH  64  67
ENDBRANCH  37  60
ENDBRANCH  11  12
ENDBRANCH   4   6
ENDBRANCH   1   2
BRANCH   1  71
ATOM     71  C   UNL A   1      36.316  20.528  25.079  1.00  0.00     0.042 C 
BRANCH  71  72
ATOM     72  C   UNL A   1      35.452  21.721  25.467  1.00  0.00     0.117 C 
BRANCH  72  73
ATOM     73  N   UNL A   1      35.087  22.522  24.310  1.00  0.00    -0.355 N 
ATOM     74  C   UNL A   1      33.931  22.598  23.595  1.00  0.00     0.230 C 
ATOM     75  H   UNL A   1      35.804  23.113  23.985  1.00  0.00     0.163 HD
ATOM     76  O   UNL A   1      34.021  23.142  22.490  1.00  0.00    -0.274 OA
BRANCH  74  77
ATOM     77  C   UNL A   1      32.563  22.104  24.154  1.00  0.00     0.077 C 
ATOM     78  C   UNL A   1      31.415  22.707  23.281  1.00  0.00     0.038 C 
ATOM     79  C   UNL A   1      32.381  22.666  25.588  1.00  0.00     0.038 C 
ATOM     80  C   UNL A   1      31.256  24.234  23.416  1.00  0.00     0.104 C 
ATOM     81  C   UNL A   1      32.321  24.183  25.610  1.00  0.00     0.104 C 
ATOM     82  N   UNL A   1      31.123  24.603  24.851  1.00  0.00    -0.197 NA
BRANCH  77  83
ATOM     83  C   UNL A   1      32.487  20.560  24.089  1.00  0.00    -0.032 A 
ATOM     84  C   UNL A   1      32.659  19.745  25.225  1.00  0.00     0.005 A 
ATOM     85  C   UNL A   1      32.321  19.913  22.849  1.00  0.00     0.005 A 
ATOM     86  C   UNL A   1      32.749  18.355  25.118  1.00  0.00     0.000 A 
ATOM     87  C   UNL A   1      32.406  18.520  22.744  1.00  0.00     0.000 A 
ATOM     88  C   UNL A   1      32.641  17.744  23.876  1.00  0.00     0.000 A 
ENDBRANCH  77  83
BRANCH  82  89
ATOM     89  S   UNL A   1      30.651  26.227  25.129  1.00  0.00     0.252 S 
ATOM     90  O   UNL A   1      29.496  26.505  24.303  1.00  0.00    -0.206 OA
ATOM     91  O   UNL A   1      30.638  26.462  26.558  1.00  0.00    -0.206 OA
BRANCH  89  92
ATOM     92  C   UNL A   1      31.949  27.261  24.444  1.00  0.00     0.135 A 
ATOM     93  C   UNL A   1      33.166  27.678  24.960  1.00  0.00     0.033 A 
ATOM     94  S   UNL A   1      31.707  27.884  22.866  1.00  0.00    -0.131 S 
ATOM     95  C   UNL A   1      33.874  28.542  24.074  1.00  0.00     0.013 A 
ATOM     96  C   UNL A   1      33.199  28.720  22.889  1.00  0.00     0.066 A 
ENDBRANCH  89  92
ENDBRANCH  82  89
ENDBRANCH  74  77
ENDBRANCH  72  73
ENDBRANCH  71  72
ENDBRANCH   1  71
TORSDOF 16
ENDMDL
MODEL 3
REMARK VINA RESULT:     -13.1      1.967      2.490
REMARK SMILES O=C(NCCCNC(=O)C1(c2ccccc2)CCN(S(=O)(=O)c2cccs2)CC1)c1ccc(-c2c3nc(c(-c4cccc(S(=O)(=O)[O-])c4F)c4ccc([nH]4)c(-c4cccc(S(=O)(=O)[O-])c4F)c4nc(c(-c5cccc(S(=O)(=O)[O-])c5F)c5ccc2[nH]5)C=C4)C=C3)cc1
REMARK SMILES IDX 4 1 3 2 1 3 2 4 30 6 31 7 92 8 32 9 91 10 33 11 34 12 35 13
REMARK SMILES IDX 85 14 36 15 90 16 84 17 86 18 37 19 89 20 83 21 82 22 38 24
REMARK SMILES IDX 70 25 50 26 69 27 51 28 54 29 68 30 87 31 52 32 53 33 67 35
REMARK SMILES IDX 88 36 55 37 39 38 40 39 48 40 41 41 43 42 49 43 42 44 44 45
REMARK SMILES IDX 45 46 46 47 47 48 71 49 72 50 80 51 73 52 75 53 81 54 74 55
REMARK SMILES IDX 76 56 77 57 78 58 79 59 56 60 57 61 65 62 58 63 60 64 66 65
REMARK SMILES IDX 59 66 61 67 62 68 63 69 64 70 5 71 6 72 7 73 8 74 9 76 10 77
REMARK SMILES IDX 17 78 29 79 18 80 28 81 19 82 11 83 12 84 16 85 13 86 15 87
REMARK SMILES IDX 14 88 20 89 21 90 22 91 23 92 24 93 27 94 25 95 26 96
REMARK H PARENT 3 5 86 23 54 34 7 75
REMARK Flexibility Score: inf
ROOT
ATOM      1  C   UNL A   1      32.911  31.702  27.088  1.00  0.00     0.118 C 
ENDROOT
BRANCH   1   2
ATOM      2  N   UNL A   1      32.694  33.126  27.262  1.00  0.00    -0.352 N 
ATOM      3  O   UNL A   1      32.658  35.063  28.389  1.00  0.00    -0.269 OA
ATOM      4  C   UNL A   1      33.199  33.974  28.217  1.00  0.00     0.251 C 
ATOM      5  H   UNL A   1      32.098  33.546  26.601  1.00  0.00     0.163 HD
BRANCH   4   6
ATOM      6  C   UNL A   1      34.376  33.582  29.029  1.00  0.00     0.039 A 
ATOM      7  C   UNL A   1      34.246  32.697  30.103  1.00  0.00     0.014 A 
ATOM      8  C   UNL A   1      35.643  34.035  28.653  1.00  0.00     0.014 A 
ATOM      9  C   UNL A   1      35.360  32.347  30.862  1.00  0.00     0.010 A 
ATOM     10  C   UNL A   1      36.774  33.611  29.359  1.00  0.00     0.010 A 
ATOM     11  C   UNL A   1      36.640  32.764  30.469  1.00  0.00    -0.014 A 
BRANCH  11  12
ATOM     12  C   UNL A   1      37.832  32.167  31.124  1.00  0.00     0.031 A 
ATOM     13  C   UNL A   1      38.576  31.017  30.511  1.00  0.00     0.074 A 
ATOM     14  C   UNL A   1      38.200  32.653  32.327  1.00  0.00     0.049 A 
ATOM     15  N   UNL A   1      39.613  30.374  30.980  1.00  0.00    -0.248 NA
ATOM     16  C   UNL A   1      38.098  30.516  29.212  1.00  0.00     0.031 C 
ATOM     17  C   UNL A   1      37.508  33.729  33.046  1.00  0.00     0.029 A 
ATOM     18  N   UNL A   1      39.222  32.300  33.170  1.00  0.00    -0.354 N 
ATOM     19  C   UNL A   1      39.886  29.365  30.065  1.00  0.00     0.074 A 
ATOM     20  C   UNL A   1      38.910  29.486  29.002  1.00  0.00     0.031 C 
ATOM     21  C   UNL A   1      38.122  33.945  34.217  1.00  0.00     0.029 A 
ATOM     22  C   UNL A   1      39.212  32.990  34.361  1.00  0.00     0.049 A 
ATOM     23  H   UNL A   1      39.897  31.619  32.946  1.00  0.00     0.167 HD
ATOM     24  C   UNL A   1      40.866  28.431  30.109  1.00  0.00     0.034 A 
ATOM     25  C   UNL A   1      39.967  32.847  35.467  1.00  0.00     0.034 A 
ATOM     26  C   UNL A   1      41.857  28.348  31.150  1.00  0.00     0.049 A 
ATOM     27  C   UNL A   1      41.052  31.810  35.472  1.00  0.00     0.074 A 
ATOM     28  C   UNL A   1      42.961  27.517  31.217  1.00  0.00     0.029 A 
ATOM     29  N   UNL A   1      41.849  29.097  32.316  1.00  0.00    -0.354 N 
ATOM     30  N   UNL A   1      41.412  30.993  34.512  1.00  0.00    -0.248 NA
ATOM     31  C   UNL A   1      41.847  31.685  36.700  1.00  0.00     0.031 C 
ATOM     32  C   UNL A   1      43.602  27.739  32.441  1.00  0.00     0.029 A 
ATOM     33  C   UNL A   1      42.909  28.723  33.125  1.00  0.00     0.049 A 
ATOM     34  H   UNL A   1      41.188  29.794  32.536  1.00  0.00     0.167 HD
ATOM     35  C   UNL A   1      42.482  30.265  35.016  1.00  0.00     0.074 A 
ATOM     36  C   UNL A   1      42.736  30.766  36.351  1.00  0.00     0.031 C 
ATOM     37  C   UNL A   1      43.174  29.255  34.436  1.00  0.00     0.034 A 
BRANCH  24  38
ATOM     38  C   UNL A   1      40.956  27.430  28.989  1.00  0.00     0.023 A 
ATOM     39  C   UNL A   1      40.055  26.348  28.948  1.00  0.00     0.012 A 
ATOM     40  C   UNL A   1      41.843  27.635  27.914  1.00  0.00     0.148 A 
ATOM     41  C   UNL A   1      40.044  25.478  27.857  1.00  0.00     0.002 A 
ATOM     42  C   UNL A   1      41.802  26.786  26.815  1.00  0.00     0.091 A 
ATOM     43  F   UNL A   1      42.702  28.663  27.983  1.00  0.00    -0.205 F 
ATOM     44  C   UNL A   1      40.907  25.704  26.787  1.00  0.00     0.022 A 
BRANCH  42  45
ATOM     45  S   UNL A   1      42.819  27.033  25.354  1.00  0.00     0.127 S 
ATOM     46  O   UNL A   1      44.145  27.208  25.947  1.00  0.00    -0.237 OA
ATOM     47  O   UNL A   1      42.636  25.772  24.636  1.00  0.00    -0.237 OA
ATOM     48  O   UNL A   1      42.281  28.205  24.680  1.00  0.00    -0.744 OA
ENDBRANCH  42  45
ENDBRANCH  24  38
BRANCH  25  49
ATOM     49  C   UNL A   1      39.719  33.712  36.653  1.00  0.00     0.023 A 
ATOM     50  C   UNL A   1      40.105  35.065  36.624  1.00  0.00     0.012 A 
ATOM     51  C   UNL A   1      39.073  33.206  37.799  1.00  0.00     0.148 A 
ATOM     52  C   UNL A   1      39.878  35.891  37.726  1.00  0.00     0.002 A 
ATOM     53  C   UNL A   1      38.795  34.049  38.867  1.00  0.00     0.091 A 
ATOM     54  F   UNL A   1      38.731  31.910  37.820  1.00  0.00    -0.205 F 
ATOM     55  C   UNL A   1      39.213  35.388  38.841  1.00  0.00     0.022 A 
BRANCH  53  56
ATOM     56  S   UNL A   1      37.810  33.507  40.268  1.00  0.00     0.127 S 
ATOM     57  O   UNL A   1      36.579  33.068  39.618  1.00  0.00    -0.237 OA
ATOM     58  O   UNL A   1      38.630  32.431  40.825  1.00  0.00    -0.237 OA
ATOM     59  O   UNL A   1      37.699  34.675  41.132  1.00  0.00    -0.744 OA
ENDBRANCH  53  56
ENDBRANCH  25  49
BRANCH  37  60
ATOM     60  C   UNL A   1      44.274  28.620  35.241  1.00  0.00     0.023 A 
ATOM     61  C   UNL A   1      45.580  29.141  35.159  1.00  0.00     0.012 A 
ATOM     62  C   UNL A   1      44.004  27.558  36.126  1.00  0.00     0.148 A 
ATOM     63  C   UNL A   1      46.609  28.597  35.927  1.00  0.00     0.002 A 
ATOM     64  C   UNL A   1      45.023  27.053  36.924  1.00  0.00     0.091 A 
ATOM     65  F   UNL A   1      42.757  27.068  36.175  1.00  0.00    -0.205 F 
ATOM     66  C   UNL A   1      46.328  27.564  36.817  1.00  0.00     0.022 A 
BRANCH  64  67
ATOM     67  S   UNL A   1      44.742  25.785  38.163  1.00  0.00     0.127 S 
ATOM     68  O   UNL A   1      46.079  25.625  38.734  1.00  0.00    -0.237 OA
ATOM     69  O   UNL A   1      43.772  26.428  39.050  1.00  0.00    -0.237 OA
ATOM     70  O   UNL A   1      44.230  24.625  37.445  1.00  0.00    -0.744 OA
ENDBRANCH  64  67
ENDBRANCH  37  60
ENDBRANCH  11  12
ENDBRANCH   4   6
ENDBRANCH   1   2
BRANCH   1  71
ATOM     71  C   UNL A   1      31.614  30.971  26.778  1.00  0.00     0.042 C 
BRANCH  71  72
ATOM     72  C   UNL A   1      31.824  29.622  26.103  1.00  0.00     0.117 C 
BRANCH  72  73
ATOM     73  N   UNL A   1      32.578  29.750  24.867  1.00  0.00    -0.355 N 
ATOM     74  C   UNL A   1      32.639  28.956  23.762  1.00  0.00     0.230 C 
ATOM     75  H   UNL A   1      33.147  30.552  24.821  1.00  0.00     0.163 HD
ATOM     76  O   UNL A   1      33.592  29.166  23.005  1.00  0.00    -0.274 OA
BRANCH  74  77
ATOM     77  C   UNL A   1      31.544  27.900  23.425  1.00  0.00     0.077 C 
ATOM     78  C   UNL A   1      31.165  27.133  24.734  1.00  0.00     0.038 C 
ATOM     79  C   UNL A   1      32.145  26.856  22.449  1.00  0.00     0.038 C 
ATOM     80  C   UNL A   1      32.288  26.231  25.284  1.00  0.00     0.104 C 
ATOM     81  C   UNL A   1      33.297  26.085  23.068  1.00  0.00     0.104 C 
ATOM     82  N   UNL A   1      32.768  25.315  24.214  1.00  0.00    -0.197 NA
BRANCH  77  83
ATOM     83  C   UNL A   1      30.281  28.600  22.869  1.00  0.00    -0.032 A 
ATOM     84  C   UNL A   1      30.349  29.754  22.064  1.00  0.00     0.005 A 
ATOM     85  C   UNL A   1      29.000  28.137  23.230  1.00  0.00     0.005 A 
ATOM     86  C   UNL A   1      29.198  30.462  21.709  1.00  0.00     0.000 A 
ATOM     87  C   UNL A   1      27.849  28.846  22.869  1.00  0.00     0.000 A 
ATOM     88  C   UNL A   1      27.950  30.019  22.126  1.00  0.00     0.000 A 
ENDBRANCH  77  83
BRANCH  82  89
ATOM     89  S   UNL A   1      33.807  24.066  24.760  1.00  0.00     0.252 S 
ATOM     90  O   UNL A   1      35.089  24.236  24.111  1.00  0.00    -0.206 OA
ATOM     91  O   UNL A   1      33.692  23.969  26.200  1.00  0.00    -0.206 OA
BRANCH  89  92
ATOM     92  C   UNL A   1      33.163  22.533  24.082  1.00  0.00     0.135 A 
ATOM     93  C   UNL A   1      32.548  22.244  22.875  1.00  0.00     0.033 A 
ATOM     94  S   UNL A   1      33.299  21.127  25.052  1.00  0.00    -0.131 S 
ATOM     95  C   UNL A   1      32.152  20.879  22.769  1.00  0.00     0.013 A 
ATOM     96  C   UNL A   1      32.521  20.155  23.879  1.00  0.00     0.066 A 
ENDBRANCH  89  92
ENDBRANCH  82  89
ENDBRANCH  74  77
ENDBRANCH  72  73
ENDBRANCH  71  72
ENDBRANCH   1  71
TORSDOF 16
ENDMDL
