MODEL 1
REMARK VINA RESULT:     -11.7      0.000      0.000
REMARK SMILES Cc1ccc(/C=C/C(=O)N[C@](C)(C(=O)NCCCNC(=O)c2ccc(-c3c4nc(c(-c5cccc(S(=O)(=O)[O-])c5F)c5ccc([nH]5)c(-c5cccc(S(=O)(=O)[O-])c5F)c5nc(c(-c6cccc(S(=O)(=O)[O-])c6F)c6ccc3[nH]6)C=C5)C=C4)cc2)C(F)(F)F)o1
REMARK SMILES IDX 17 1 16 2 15 3 13 4 14 5 11 7 12 8 10 9 8 10 9 11 7 13 6 14
REMARK SMILES IDX 5 15 1 16 2 17 3 18 89 19 4 20 85 21 86 22 87 23 88 24 18 25
REMARK SMILES IDX 19 26 20 27 21 29 22 30 23 31 84 32 24 33 83 34 25 35 26 36
REMARK SMILES IDX 27 37 77 38 28 39 82 40 76 41 78 42 29 43 81 44 75 45 74 46
REMARK SMILES IDX 30 48 62 49 42 50 61 51 43 52 46 53 60 54 79 55 44 56 45 57
REMARK SMILES IDX 59 59 80 60 47 61 31 62 32 63 40 64 33 65 35 66 41 67 34 68
REMARK SMILES IDX 36 69 37 70 38 71 39 72 63 73 64 74 72 75 65 76 67 77 73 78
REMARK SMILES IDX 66 79 68 80 69 81 70 82 71 83 48 84 49 85 57 86 50 87 52 88
REMARK SMILES IDX 58 89 51 90 53 91 54 92 55 93 56 94
REMARK H PARENT 15 6 10 12 19 28 78 47 46 58
REMARK Flexibility Score: inf
ROOT
ATOM      1  C   UNL A   1      33.529  27.992  25.812  1.00  0.00     0.042 C 
ENDROOT
BRANCH   1   2
ATOM      2  C   UNL A   1      33.837  26.493  25.815  1.00  0.00     0.117 C 
BRANCH   2   3
ATOM      3  N   UNL A   1      32.629  25.700  26.018  1.00  0.00    -0.354 N 
ATOM      4  C   UNL A   1      31.947  24.749  25.327  1.00  0.00     0.254 C 
ATOM      5  O   UNL A   1      30.866  24.448  25.854  1.00  0.00    -0.272 OA
ATOM      6  H   UNL A   1      32.197  25.908  26.879  1.00  0.00     0.163 HD
BRANCH   4   7
ATOM      7  C   UNL A   1      32.328  24.133  23.948  1.00  0.00     0.212 C 
ATOM      8  C   UNL A   1      31.108  23.411  23.334  1.00  0.00     0.056 C 
BRANCH   7   9
ATOM      9  N   UNL A   1      33.045  25.048  22.982  1.00  0.00    -0.331 N 
ATOM     10  C   UNL A   1      32.819  26.173  22.262  1.00  0.00     0.245 C 
ATOM     11  O   UNL A   1      33.711  26.524  21.488  1.00  0.00    -0.270 OA
ATOM     12  H   UNL A   1      33.963  24.725  22.826  1.00  0.00     0.165 HD
BRANCH  10  13
ATOM     13  C   UNL A   1      31.598  27.004  22.343  1.00  0.00     0.075 C 
ATOM     14  C   UNL A   1      31.641  28.315  22.573  1.00  0.00     0.053 C 
BRANCH  14  15
ATOM     15  C   UNL A   1      30.531  29.187  22.597  1.00  0.00     0.127 A 
ATOM     16  C   UNL A   1      28.172  31.332  20.939  1.00  0.00     0.087 C 
ATOM     17  C   UNL A   1      28.951  30.590  21.951  1.00  0.00     0.101 A 
ATOM     18  C   UNL A   1      28.942  30.623  23.324  1.00  0.00     0.046 A 
ATOM     19  O   UNL A   1      29.889  29.707  21.500  1.00  0.00    -0.462 OA
ATOM     20  C   UNL A   1      29.952  29.735  23.736  1.00  0.00     0.050 A 
ENDBRANCH  14  15
ENDBRANCH  10  13
ENDBRANCH   7   9
BRANCH   7  21
ATOM     21  C   UNL A   1      33.324  22.995  24.339  1.00  0.00     0.420 C 
ATOM     22  F   UNL A   1      33.154  22.489  25.578  1.00  0.00    -0.168 F 
ATOM     23  F   UNL A   1      33.189  21.946  23.481  1.00  0.00    -0.168 F 
ATOM     24  F   UNL A   1      34.610  23.409  24.227  1.00  0.00    -0.168 F 
ENDBRANCH   7  21
ENDBRANCH   4   7
ENDBRANCH   2   3
ENDBRANCH   1   2
BRANCH   1  25
ATOM     25  C   UNL A   1      33.273  28.599  27.183  1.00  0.00     0.118 C 
BRANCH  25  26
ATOM     26  N   UNL A   1      33.412  30.045  27.186  1.00  0.00    -0.352 N 
ATOM     27  C   UNL A   1      34.411  30.837  27.704  1.00  0.00     0.251 C 
ATOM     28  H   UNL A   1      32.678  30.534  26.749  1.00  0.00     0.163 HD
ATOM     29  O   UNL A   1      34.230  32.053  27.763  1.00  0.00    -0.269 OA
BRANCH  27  30
ATOM     30  C   UNL A   1      35.683  30.258  28.200  1.00  0.00     0.039 A 
ATOM     31  C   UNL A   1      36.801  30.264  27.358  1.00  0.00     0.014 A 
ATOM     32  C   UNL A   1      35.778  29.664  29.461  1.00  0.00     0.014 A 
ATOM     33  C   UNL A   1      38.016  29.727  27.798  1.00  0.00     0.010 A 
ATOM     34  C   UNL A   1      37.010  29.211  29.932  1.00  0.00     0.010 A 
ATOM     35  C   UNL A   1      38.141  29.222  29.101  1.00  0.00    -0.014 A 
BRANCH  35  36
ATOM     36  C   UNL A   1      39.430  28.686  29.616  1.00  0.00     0.031 A 
ATOM     37  C   UNL A   1      40.158  29.409  30.722  1.00  0.00     0.074 A 
ATOM     38  C   UNL A   1      39.997  27.613  29.028  1.00  0.00     0.049 A 
ATOM     39  N   UNL A   1      41.344  29.174  31.220  1.00  0.00    -0.248 NA
ATOM     40  C   UNL A   1      39.476  30.567  31.327  1.00  0.00     0.031 C 
ATOM     41  C   UNL A   1      39.430  26.865  27.904  1.00  0.00     0.029 A 
ATOM     42  N   UNL A   1      41.198  26.989  29.267  1.00  0.00    -0.354 N 
ATOM     43  C   UNL A   1      41.572  30.181  32.154  1.00  0.00     0.074 A 
ATOM     44  C   UNL A   1      40.409  31.040  32.141  1.00  0.00     0.031 C 
ATOM     45  C   UNL A   1      40.285  25.893  27.545  1.00  0.00     0.029 A 
ATOM     46  C   UNL A   1      41.477  25.970  28.384  1.00  0.00     0.049 A 
ATOM     47  H   UNL A   1      41.802  27.246  30.000  1.00  0.00     0.167 HD
ATOM     48  C   UNL A   1      42.642  30.360  32.964  1.00  0.00     0.034 A 
ATOM     49  C   UNL A   1      42.576  25.202  28.248  1.00  0.00     0.034 A 
ATOM     50  C   UNL A   1      43.768  29.469  33.020  1.00  0.00     0.049 A 
ATOM     51  C   UNL A   1      43.727  25.393  29.199  1.00  0.00     0.074 A 
ATOM     52  C   UNL A   1      44.851  29.510  33.880  1.00  0.00     0.029 A 
ATOM     53  N   UNL A   1      43.958  28.381  32.185  1.00  0.00    -0.354 N 
ATOM     54  N   UNL A   1      43.855  26.257  30.175  1.00  0.00    -0.248 NA
ATOM     55  C   UNL A   1      44.873  24.480  29.054  1.00  0.00     0.031 C 
ATOM     56  C   UNL A   1      45.713  28.461  33.545  1.00  0.00     0.029 A 
ATOM     57  C   UNL A   1      45.147  27.747  32.503  1.00  0.00     0.049 A 
ATOM     58  H   UNL A   1      43.342  28.100  31.471  1.00  0.00     0.167 HD
ATOM     59  C   UNL A   1      45.066  25.962  30.790  1.00  0.00     0.074 A 
ATOM     60  C   UNL A   1      45.631  24.832  30.084  1.00  0.00     0.031 C 
ATOM     61  C   UNL A   1      45.662  26.578  31.839  1.00  0.00     0.034 A 
BRANCH  48  62
ATOM     62  C   UNL A   1      42.638  31.541  33.900  1.00  0.00     0.023 A 
ATOM     63  C   UNL A   1      43.035  32.808  33.428  1.00  0.00     0.012 A 
ATOM     64  C   UNL A   1      42.142  31.415  35.213  1.00  0.00     0.148 A 
ATOM     65  C   UNL A   1      42.962  33.927  34.255  1.00  0.00     0.002 A 
ATOM     66  C   UNL A   1      42.028  32.543  36.016  1.00  0.00     0.091 A 
ATOM     67  F   UNL A   1      41.785  30.198  35.647  1.00  0.00    -0.205 F 
ATOM     68  C   UNL A   1      42.446  33.797  35.543  1.00  0.00     0.022 A 
BRANCH  66  69
ATOM     69  S   UNL A   1      41.298  32.495  37.657  1.00  0.00     0.127 S 
ATOM     70  O   UNL A   1      41.359  33.906  38.046  1.00  0.00    -0.237 OA
ATOM     71  O   UNL A   1      39.947  32.003  37.375  1.00  0.00    -0.237 OA
ATOM     72  O   UNL A   1      42.125  31.599  38.443  1.00  0.00    -0.744 OA
ENDBRANCH  66  69
ENDBRANCH  48  62
BRANCH  49  73
ATOM     73  C   UNL A   1      42.630  24.153  27.189  1.00  0.00     0.023 A 
ATOM     74  C   UNL A   1      43.286  24.423  25.972  1.00  0.00     0.012 A 
ATOM     75  C   UNL A   1      42.040  22.889  27.383  1.00  0.00     0.148 A 
ATOM     76  C   UNL A   1      43.313  23.472  24.951  1.00  0.00     0.002 A 
ATOM     77  C   UNL A   1      42.124  21.925  26.386  1.00  0.00     0.091 A 
ATOM     78  F   UNL A   1      41.412  22.652  28.543  1.00  0.00    -0.205 F 
ATOM     79  C   UNL A   1      42.741  22.220  25.161  1.00  0.00     0.022 A 
BRANCH  77  80
ATOM     80  S   UNL A   1      41.538  20.245  26.632  1.00  0.00     0.127 S 
ATOM     81  O   UNL A   1      42.259  19.849  27.839  1.00  0.00    -0.237 OA
ATOM     82  O   UNL A   1      40.100  20.450  26.810  1.00  0.00    -0.237 OA
ATOM     83  O   UNL A   1      41.890  19.525  25.417  1.00  0.00    -0.744 OA
ENDBRANCH  77  80
ENDBRANCH  49  73
BRANCH  61  84
ATOM     84  C   UNL A   1      46.960  26.014  32.349  1.00  0.00     0.023 A 
ATOM     85  C   UNL A   1      48.186  26.510  31.866  1.00  0.00     0.012 A 
ATOM     86  C   UNL A   1      46.958  25.061  33.389  1.00  0.00     0.148 A 
ATOM     87  C   UNL A   1      49.392  26.047  32.392  1.00  0.00     0.002 A 
ATOM     88  C   UNL A   1      48.161  24.643  33.942  1.00  0.00     0.091 A 
ATOM     89  F   UNL A   1      45.779  24.590  33.821  1.00  0.00    -0.205 F 
ATOM     90  C   UNL A   1      49.379  25.127  33.438  1.00  0.00     0.022 A 
BRANCH  88  91
ATOM     91  S   UNL A   1      48.237  23.541  35.359  1.00  0.00     0.127 S 
ATOM     92  O   UNL A   1      49.679  23.376  35.529  1.00  0.00    -0.237 OA
ATOM     93  O   UNL A   1      47.586  24.335  36.402  1.00  0.00    -0.237 OA
ATOM     94  O   UNL A   1      47.514  22.338  34.974  1.00  0.00    -0.744 OA
ENDBRANCH  88  91
ENDBRANCH  61  84
ENDBRANCH  35  36
ENDBRANCH  27  30
ENDBRANCH  25  26
ENDBRANCH   1  25
TORSDOF 17
ENDMDL
MODEL 2
REMARK VINA RESULT:     -11.5      1.916      2.407
REMARK SMILES Cc1ccc(/C=C/C(=O)N[C@](C)(C(=O)NCCCNC(=O)c2ccc(-c3c4nc(c(-c5cccc(S(=O)(=O)[O-])c5F)c5ccc([nH]5)c(-c5cccc(S(=O)(=O)[O-])c5F)c5nc(c(-c6cccc(S(=O)(=O)[O-])c6F)c6ccc3[nH]6)C=C5)C=C4)cc2)C(F)(F)F)o1
REMARK SMILES IDX 17 1 16 2 15 3 13 4 14 5 11 7 12 8 10 9 8 10 9 11 7 13 6 14
REMARK SMILES IDX 5 15 1 16 2 17 3 18 89 19 4 20 85 21 86 22 87 23 88 24 18 25
REMARK SMILES IDX 19 26 20 27 21 29 22 30 23 31 84 32 24 33 83 34 25 35 26 36
REMARK SMILES IDX 27 37 77 38 28 39 82 40 76 41 78 42 29 43 81 44 75 45 74 46
REMARK SMILES IDX 30 48 62 49 42 50 61 51 43 52 46 53 60 54 79 55 44 56 45 57
REMARK SMILES IDX 59 59 80 60 47 61 31 62 32 63 40 64 33 65 35 66 41 67 34 68
REMARK SMILES IDX 36 69 37 70 38 71 39 72 63 73 64 74 72 75 65 76 67 77 73 78
REMARK SMILES IDX 66 79 68 80 69 81 70 82 71 83 48 84 49 85 57 86 50 87 52 88
REMARK SMILES IDX 58 89 51 90 53 91 54 92 55 93 56 94
REMARK H PARENT 15 6 10 12 19 28 78 47 46 58
REMARK Flexibility Score: inf
ROOT
ATOM      1  C   UNL A   1      31.803  29.134  26.949  1.00  0.00     0.042 C 
ENDROOT
BRANCH   1   2
ATOM      2  C   UNL A   1      32.067  27.631  27.066  1.00  0.00     0.117 C 
BRANCH   2   3
ATOM      3  N   UNL A   1      30.894  26.852  26.684  1.00  0.00    -0.354 N 
ATOM      4  C   UNL A   1      30.622  25.842  25.815  1.00  0.00     0.254 C 
ATOM      5  O   UNL A   1      29.412  25.581  25.739  1.00  0.00    -0.272 OA
ATOM      6  H   UNL A   1      30.093  27.130  27.185  1.00  0.00     0.163 HD
BRANCH   4   7
ATOM      7  C   UNL A   1      31.627  25.115  24.874  1.00  0.00     0.212 C 
ATOM      8  C   UNL A   1      30.861  24.261  23.838  1.00  0.00     0.056 C 
BRANCH   7   9
ATOM      9  N   UNL A   1      32.719  25.969  24.272  1.00  0.00    -0.331 N 
ATOM     10  C   UNL A   1      32.866  27.135  23.598  1.00  0.00     0.245 C 
ATOM     11  O   UNL A   1      34.000  27.403  23.196  1.00  0.00    -0.270 OA
ATOM     12  H   UNL A   1      33.597  25.546  24.413  1.00  0.00     0.165 HD
BRANCH  10  13
ATOM     13  C   UNL A   1      31.780  28.100  23.322  1.00  0.00     0.075 C 
ATOM     14  C   UNL A   1      30.685  27.765  22.642  1.00  0.00     0.053 C 
BRANCH  14  15
ATOM     15  C   UNL A   1      29.576  28.604  22.396  1.00  0.00     0.127 A 
ATOM     16  C   UNL A   1      28.078  31.469  20.826  1.00  0.00     0.087 C 
ATOM     17  C   UNL A   1      28.330  30.269  21.650  1.00  0.00     0.101 A 
ATOM     18  C   UNL A   1      27.573  29.634  22.605  1.00  0.00     0.046 A 
ATOM     19  O   UNL A   1      29.531  29.641  21.497  1.00  0.00    -0.462 OA
ATOM     20  C   UNL A   1      28.369  28.579  23.085  1.00  0.00     0.050 A 
ENDBRANCH  14  15
ENDBRANCH  10  13
ENDBRANCH   7   9
BRANCH   7  21
ATOM     21  C   UNL A   1      32.313  24.084  25.828  1.00  0.00     0.420 C 
ATOM     22  F   UNL A   1      31.717  23.934  27.029  1.00  0.00    -0.168 F 
ATOM     23  F   UNL A   1      32.317  22.851  25.251  1.00  0.00    -0.168 F 
ATOM     24  F   UNL A   1      33.613  24.404  26.041  1.00  0.00    -0.168 F 
ENDBRANCH   7  21
ENDBRANCH   4   7
ENDBRANCH   2   3
ENDBRANCH   1   2
BRANCH   1  25
ATOM     25  C   UNL A   1      32.883  29.922  26.225  1.00  0.00     0.118 C 
BRANCH  25  26
ATOM     26  N   UNL A   1      32.853  31.337  26.550  1.00  0.00    -0.352 N 
ATOM     27  C   UNL A   1      33.630  32.062  27.424  1.00  0.00     0.251 C 
ATOM     28  H   UNL A   1      32.170  31.860  26.070  1.00  0.00     0.163 HD
ATOM     29  O   UNL A   1      33.303  33.220  27.685  1.00  0.00    -0.269 OA
BRANCH  27  30
ATOM     30  C   UNL A   1      34.835  31.477  28.060  1.00  0.00     0.039 A 
ATOM     31  C   UNL A   1      36.003  32.245  28.128  1.00  0.00     0.014 A 
ATOM     32  C   UNL A   1      34.847  30.166  28.545  1.00  0.00     0.014 A 
ATOM     33  C   UNL A   1      37.156  31.722  28.724  1.00  0.00     0.010 A 
ATOM     34  C   UNL A   1      35.966  29.679  29.219  1.00  0.00     0.010 A 
ATOM     35  C   UNL A   1      37.140  30.443  29.303  1.00  0.00    -0.014 A 
BRANCH  35  36
ATOM     36  C   UNL A   1      38.334  29.875  29.985  1.00  0.00     0.031 A 
ATOM     37  C   UNL A   1      38.716  30.357  31.362  1.00  0.00     0.074 A 
ATOM     38  C   UNL A   1      39.132  29.003  29.334  1.00  0.00     0.049 A 
ATOM     39  N   UNL A   1      39.781  30.080  32.069  1.00  0.00    -0.248 NA
ATOM     40  C   UNL A   1      37.795  31.301  32.020  1.00  0.00     0.031 C 
ATOM     41  C   UNL A   1      38.912  28.509  27.973  1.00  0.00     0.029 A 
ATOM     42  N   UNL A   1      40.311  28.409  29.715  1.00  0.00    -0.354 N 
ATOM     43  C   UNL A   1      39.685  30.850  33.223  1.00  0.00     0.074 A 
ATOM     44  C   UNL A   1      38.467  31.621  33.117  1.00  0.00     0.031 C 
ATOM     45  C   UNL A   1      39.927  27.698  27.630  1.00  0.00     0.029 A 
ATOM     46  C   UNL A   1      40.887  27.643  28.727  1.00  0.00     0.049 A 
ATOM     47  H   UNL A   1      40.706  28.520  30.609  1.00  0.00     0.167 HD
ATOM     48  C   UNL A   1      40.523  30.894  34.286  1.00  0.00     0.034 A 
ATOM     49  C   UNL A   1      42.067  26.991  28.697  1.00  0.00     0.034 A 
ATOM     50  C   UNL A   1      41.700  30.079  34.418  1.00  0.00     0.049 A 
ATOM     51  C   UNL A   1      42.952  27.018  29.915  1.00  0.00     0.074 A 
ATOM     52  C   UNL A   1      42.554  29.977  35.501  1.00  0.00     0.029 A 
ATOM     53  N   UNL A   1      42.188  29.230  33.439  1.00  0.00    -0.354 N 
ATOM     54  N   UNL A   1      42.764  27.634  31.056  1.00  0.00    -0.248 NA
ATOM     55  C   UNL A   1      44.193  26.230  29.857  1.00  0.00     0.031 C 
ATOM     56  C   UNL A   1      43.579  29.087  35.166  1.00  0.00     0.029 A 
ATOM     57  C   UNL A   1      43.339  28.607  33.890  1.00  0.00     0.049 A 
ATOM     58  H   UNL A   1      41.779  29.090  32.555  1.00  0.00     0.167 HD
ATOM     59  C   UNL A   1      43.835  27.272  31.865  1.00  0.00     0.074 A 
ATOM     60  C   UNL A   1      44.663  26.373  31.090  1.00  0.00     0.031 C 
ATOM     61  C   UNL A   1      44.112  27.657  33.134  1.00  0.00     0.034 A 
BRANCH  48  62
ATOM     62  C   UNL A   1      40.183  31.820  35.425  1.00  0.00     0.023 A 
ATOM     63  C   UNL A   1      40.759  33.105  35.477  1.00  0.00     0.012 A 
ATOM     64  C   UNL A   1      39.215  31.455  36.382  1.00  0.00     0.148 A 
ATOM     65  C   UNL A   1      40.396  34.005  36.477  1.00  0.00     0.002 A 
ATOM     66  C   UNL A   1      38.824  32.375  37.348  1.00  0.00     0.091 A 
ATOM     67  F   UNL A   1      38.692  30.223  36.325  1.00  0.00    -0.205 F 
ATOM     68  C   UNL A   1      39.420  33.645  37.403  1.00  0.00     0.022 A 
BRANCH  66  69
ATOM     69  S   UNL A   1      37.515  32.039  38.532  1.00  0.00     0.127 S 
ATOM     70  O   UNL A   1      36.483  32.987  38.105  1.00  0.00    -0.237 OA
ATOM     71  O   UNL A   1      37.202  30.635  38.250  1.00  0.00    -0.237 OA
ATOM     72  O   UNL A   1      38.081  32.286  39.844  1.00  0.00    -0.744 OA
ENDBRANCH  66  69
ENDBRANCH  48  62
BRANCH  49  73
ATOM     73  C   UNL A   1      42.469  26.225  27.482  1.00  0.00     0.023 A 
ATOM     74  C   UNL A   1      43.182  26.871  26.453  1.00  0.00     0.012 A 
ATOM     75  C   UNL A   1      42.152  24.860  27.343  1.00  0.00     0.148 A 
ATOM     76  C   UNL A   1      43.532  26.185  25.289  1.00  0.00     0.002 A 
ATOM     77  C   UNL A   1      42.557  24.167  26.208  1.00  0.00     0.091 A 
ATOM     78  F   UNL A   1      41.465  24.263  28.327  1.00  0.00    -0.205 F 
ATOM     79  C   UNL A   1      43.228  24.831  25.171  1.00  0.00     0.022 A 
BRANCH  77  80
ATOM     80  S   UNL A   1      42.330  22.393  26.042  1.00  0.00     0.127 S 
ATOM     81  O   UNL A   1      40.874  22.275  26.044  1.00  0.00    -0.237 OA
ATOM     82  O   UNL A   1      42.970  22.125  24.753  1.00  0.00    -0.237 OA
ATOM     83  O   UNL A   1      43.016  21.801  27.181  1.00  0.00    -0.744 OA
ENDBRANCH  77  80
ENDBRANCH  49  73
BRANCH  61  84
ATOM     84  C   UNL A   1      45.319  27.062  33.807  1.00  0.00     0.023 A 
ATOM     85  C   UNL A   1      46.549  27.749  33.792  1.00  0.00     0.012 A 
ATOM     86  C   UNL A   1      45.201  25.867  34.547  1.00  0.00     0.148 A 
ATOM     87  C   UNL A   1      47.650  27.241  34.482  1.00  0.00     0.002 A 
ATOM     88  C   UNL A   1      46.287  25.396  35.272  1.00  0.00     0.091 A 
ATOM     89  F   UNL A   1      44.025  25.222  34.532  1.00  0.00    -0.205 F 
ATOM     90  C   UNL A   1      47.515  26.075  35.232  1.00  0.00     0.022 A 
BRANCH  88  91
ATOM     91  S   UNL A   1      46.176  23.961  36.348  1.00  0.00     0.127 S 
ATOM     92  O   UNL A   1      45.218  24.418  37.353  1.00  0.00    -0.237 OA
ATOM     93  O   UNL A   1      45.667  22.934  35.439  1.00  0.00    -0.237 OA
ATOM     94  O   UNL A   1      47.525  23.719  36.839  1.00  0.00    -0.744 OA
ENDBRANCH  88  91
ENDBRANCH  61  84
ENDBRANCH  35  36
ENDBRANCH  27  30
ENDBRANCH  25  26
ENDBRANCH   1  25
TORSDOF 17
ENDMDL
MODEL 3
REMARK VINA RESULT:     -11.5      5.753      9.136
REMARK SMILES Cc1ccc(/C=C/C(=O)N[C@](C)(C(=O)NCCCNC(=O)c2ccc(-c3c4nc(c(-c5cccc(S(=O)(=O)[O-])c5F)c5ccc([nH]5)c(-c5cccc(S(=O)(=O)[O-])c5F)c5nc(c(-c6cccc(S(=O)(=O)[O-])c6F)c6ccc3[nH]6)C=C5)C=C4)cc2)C(F)(F)F)o1
REMARK SMILES IDX 17 1 16 2 15 3 13 4 14 5 11 7 12 8 10 9 8 10 9 11 7 13 6 14
REMARK SMILES IDX 5 15 1 16 2 17 3 18 89 19 4 20 85 21 86 22 87 23 88 24 18 25
REMARK SMILES IDX 19 26 20 27 21 29 22 30 23 31 84 32 24 33 83 34 25 35 26 36
REMARK SMILES IDX 27 37 77 38 28 39 82 40 76 41 78 42 29 43 81 44 75 45 74 46
REMARK SMILES IDX 30 48 62 49 42 50 61 51 43 52 46 53 60 54 79 55 44 56 45 57
REMARK SMILES IDX 59 59 80 60 47 61 31 62 32 63 40 64 33 65 35 66 41 67 34 68
REMARK SMILES IDX 36 69 37 70 38 71 39 72 63 73 64 74 72 75 65 76 67 77 73 78
REMARK SMILES IDX 66 79 68 80 69 81 70 82 71 83 48 84 49 85 57 86 50 87 52 88
REMARK SMILES IDX 58 89 51 90 53 91 54 92 55 93 56 94
REMARK H PARENT 15 6 10 12 19 28 78 47 46 58
REMARK Flexibility Score: inf
ROOT
ATOM      1  C   UNL A   1      38.167  19.981  24.824  1.00  0.00     0.042 C 
ENDROOT
BRANCH   1   2
ATOM      2  C   UNL A   1      37.401  21.287  24.598  1.00  0.00     0.117 C 
BRANCH   2   3
ATOM      3  N   UNL A   1      36.266  21.403  25.506  1.00  0.00    -0.354 N 
ATOM      4  C   UNL A   1      35.108  22.115  25.549  1.00  0.00     0.254 C 
ATOM      5  O   UNL A   1      34.494  21.977  26.618  1.00  0.00    -0.272 OA
ATOM      6  H   UNL A   1      36.363  20.814  26.289  1.00  0.00     0.163 HD
BRANCH   4   7
ATOM      7  C   UNL A   1      34.583  23.124  24.486  1.00  0.00     0.212 C 
ATOM      8  C   UNL A   1      35.533  23.153  23.267  1.00  0.00     0.056 C 
BRANCH   7   9
ATOM      9  N   UNL A   1      33.122  23.008  24.117  1.00  0.00    -0.331 N 
ATOM     10  C   UNL A   1      32.238  22.083  23.673  1.00  0.00     0.245 C 
ATOM     11  O   UNL A   1      31.106  22.485  23.399  1.00  0.00    -0.270 OA
ATOM     12  H   UNL A   1      32.672  23.876  24.236  1.00  0.00     0.165 HD
BRANCH  10  13
ATOM     13  C   UNL A   1      32.528  20.643  23.504  1.00  0.00     0.075 C 
ATOM     14  C   UNL A   1      32.580  19.799  24.534  1.00  0.00     0.053 C 
BRANCH  14  15
ATOM     15  C   UNL A   1      32.781  18.404  24.450  1.00  0.00     0.127 A 
ATOM     16  C   UNL A   1      32.382  15.078  25.751  1.00  0.00     0.087 C 
ATOM     17  C   UNL A   1      32.772  16.250  24.941  1.00  0.00     0.101 A 
ATOM     18  C   UNL A   1      33.622  16.386  23.870  1.00  0.00     0.046 A 
ATOM     19  O   UNL A   1      32.238  17.459  25.283  1.00  0.00    -0.462 OA
ATOM     20  C   UNL A   1      33.634  17.758  23.562  1.00  0.00     0.050 A 
ENDBRANCH  14  15
ENDBRANCH  10  13
ENDBRANCH   7   9
BRANCH   7  21
ATOM     21  C   UNL A   1      34.779  24.505  25.191  1.00  0.00     0.420 C 
ATOM     22  F   UNL A   1      33.903  24.768  26.183  1.00  0.00    -0.168 F 
ATOM     23  F   UNL A   1      36.018  24.567  25.753  1.00  0.00    -0.168 F 
ATOM     24  F   UNL A   1      34.720  25.524  24.297  1.00  0.00    -0.168 F 
ENDBRANCH   7  21
ENDBRANCH   4   7
ENDBRANCH   2   3
ENDBRANCH   1   2
BRANCH   1  25
ATOM     25  C   UNL A   1      38.921  19.897  26.142  1.00  0.00     0.118 C 
BRANCH  25  26
ATOM     26  N   UNL A   1      40.081  19.025  26.065  1.00  0.00    -0.352 N 
ATOM     27  C   UNL A   1      41.422  19.331  26.084  1.00  0.00     0.251 C 
ATOM     28  H   UNL A   1      39.875  18.065  25.988  1.00  0.00     0.163 HD
ATOM     29  O   UNL A   1      42.234  18.447  25.813  1.00  0.00    -0.269 OA
BRANCH  27  30
ATOM     30  C   UNL A   1      41.902  20.696  26.410  1.00  0.00     0.039 A 
ATOM     31  C   UNL A   1      42.023  21.633  25.376  1.00  0.00     0.014 A 
ATOM     32  C   UNL A   1      42.282  21.052  27.706  1.00  0.00     0.014 A 
ATOM     33  C   UNL A   1      42.472  22.930  25.651  1.00  0.00     0.010 A 
ATOM     34  C   UNL A   1      42.642  22.368  27.994  1.00  0.00     0.010 A 
ATOM     35  C   UNL A   1      42.757  23.320  26.969  1.00  0.00    -0.014 A 
BRANCH  35  36
ATOM     36  C   UNL A   1      43.192  24.703  27.303  1.00  0.00     0.031 A 
ATOM     37  C   UNL A   1      42.216  25.669  27.927  1.00  0.00     0.074 A 
ATOM     38  C   UNL A   1      44.425  25.125  26.956  1.00  0.00     0.049 A 
ATOM     39  N   UNL A   1      42.362  26.945  28.176  1.00  0.00    -0.248 NA
ATOM     40  C   UNL A   1      40.889  25.140  28.290  1.00  0.00     0.031 C 
ATOM     41  C   UNL A   1      45.440  24.310  26.284  1.00  0.00     0.029 A 
ATOM     42  N   UNL A   1      45.021  26.357  27.083  1.00  0.00    -0.354 N 
ATOM     43  C   UNL A   1      41.138  27.380  28.673  1.00  0.00     0.074 A 
ATOM     44  C   UNL A   1      40.252  26.237  28.673  1.00  0.00     0.031 C 
ATOM     45  C   UNL A   1      46.526  25.065  26.049  1.00  0.00     0.029 A 
ATOM     46  C   UNL A   1      46.274  26.425  26.516  1.00  0.00     0.049 A 
ATOM     47  H   UNL A   1      44.593  27.118  27.536  1.00  0.00     0.167 HD
ATOM     48  C   UNL A   1      40.789  28.613  29.111  1.00  0.00     0.034 A 
ATOM     49  C   UNL A   1      47.114  27.468  26.365  1.00  0.00     0.034 A 
ATOM     50  C   UNL A   1      41.690  29.731  29.169  1.00  0.00     0.049 A 
ATOM     51  C   UNL A   1      46.717  28.815  26.910  1.00  0.00     0.074 A 
ATOM     52  C   UNL A   1      41.459  30.991  29.692  1.00  0.00     0.029 A 
ATOM     53  N   UNL A   1      42.988  29.727  28.688  1.00  0.00    -0.354 N 
ATOM     54  N   UNL A   1      45.609  29.165  27.514  1.00  0.00    -0.248 NA
ATOM     55  C   UNL A   1      47.700  29.903  26.785  1.00  0.00     0.031 C 
ATOM     56  C   UNL A   1      42.611  31.760  29.500  1.00  0.00     0.029 A 
ATOM     57  C   UNL A   1      43.569  30.966  28.894  1.00  0.00     0.049 A 
ATOM     58  H   UNL A   1      43.432  28.959  28.263  1.00  0.00     0.167 HD
ATOM     59  C   UNL A   1      45.779  30.494  27.884  1.00  0.00     0.074 A 
ATOM     60  C   UNL A   1      47.102  30.886  27.446  1.00  0.00     0.031 C 
ATOM     61  C   UNL A   1      44.913  31.320  28.520  1.00  0.00     0.034 A 
BRANCH  48  62
ATOM     62  C   UNL A   1      39.383  28.821  29.611  1.00  0.00     0.023 A 
ATOM     63  C   UNL A   1      39.055  28.479  30.938  1.00  0.00     0.012 A 
ATOM     64  C   UNL A   1      38.418  29.452  28.800  1.00  0.00     0.148 A 
ATOM     65  C   UNL A   1      37.783  28.739  31.444  1.00  0.00     0.002 A 
ATOM     66  C   UNL A   1      37.167  29.751  29.326  1.00  0.00     0.091 A 
ATOM     67  F   UNL A   1      38.745  29.755  27.536  1.00  0.00    -0.205 F 
ATOM     68  C   UNL A   1      36.845  29.386  30.643  1.00  0.00     0.022 A 
BRANCH  66  69
ATOM     69  S   UNL A   1      35.920  30.658  28.405  1.00  0.00     0.127 S 
ATOM     70  O   UNL A   1      36.665  31.851  27.999  1.00  0.00    -0.237 OA
ATOM     71  O   UNL A   1      35.616  29.732  27.310  1.00  0.00    -0.237 OA
ATOM     72  O   UNL A   1      34.826  30.893  29.328  1.00  0.00    -0.744 OA
ENDBRANCH  66  69
ENDBRANCH  48  62
BRANCH  49  73
ATOM     73  C   UNL A   1      48.435  27.277  25.699  1.00  0.00     0.023 A 
ATOM     74  C   UNL A   1      49.557  26.912  26.468  1.00  0.00     0.012 A 
ATOM     75  C   UNL A   1      48.583  27.453  24.310  1.00  0.00     0.148 A 
ATOM     76  C   UNL A   1      50.812  26.769  25.873  1.00  0.00     0.002 A 
ATOM     77  C   UNL A   1      49.822  27.249  23.715  1.00  0.00     0.091 A 
ATOM     78  F   UNL A   1      47.507  27.810  23.595  1.00  0.00    -0.205 F 
ATOM     79  C   UNL A   1      50.942  26.928  24.496  1.00  0.00     0.022 A 
BRANCH  77  80
ATOM     80  S   UNL A   1      50.044  27.295  21.933  1.00  0.00     0.127 S 
ATOM     81  O   UNL A   1      49.046  26.328  21.481  1.00  0.00    -0.237 OA
ATOM     82  O   UNL A   1      49.733  28.692  21.626  1.00  0.00    -0.237 OA
ATOM     83  O   UNL A   1      51.433  26.929  21.700  1.00  0.00    -0.744 OA
ENDBRANCH  77  80
ENDBRANCH  49  73
BRANCH  61  84
ATOM     84  C   UNL A   1      45.377  32.711  28.855  1.00  0.00     0.023 A 
ATOM     85  C   UNL A   1      46.070  32.957  30.057  1.00  0.00     0.012 A 
ATOM     86  C   UNL A   1      45.215  33.756  27.923  1.00  0.00     0.148 A 
ATOM     87  C   UNL A   1      46.571  34.228  30.336  1.00  0.00     0.002 A 
ATOM     88  C   UNL A   1      45.762  35.005  28.185  1.00  0.00     0.091 A 
ATOM     89  F   UNL A   1      44.537  33.503  26.793  1.00  0.00    -0.205 F 
ATOM     90  C   UNL A   1      46.430  35.246  29.396  1.00  0.00     0.022 A 
BRANCH  88  91
ATOM     91  S   UNL A   1      45.719  36.345  26.988  1.00  0.00     0.127 S 
ATOM     92  O   UNL A   1      46.317  35.712  25.814  1.00  0.00    -0.237 OA
ATOM     93  O   UNL A   1      44.285  36.611  26.876  1.00  0.00    -0.237 OA
ATOM     94  O   UNL A   1      46.493  37.431  27.572  1.00  0.00    -0.744 OA
ENDBRANCH  88  91
ENDBRANCH  61  84
ENDBRANCH  35  36
ENDBRANCH  27  30
ENDBRANCH  25  26
ENDBRANCH   1  25
TORSDOF 17
ENDMDL
