MODEL 1
REMARK VINA RESULT:     -12.5      0.000      0.000
REMARK SMILES O=C(Cn1cc(C(=O)C(F)(F)F)c2ccccc21)NCCCNC(=O)c1ccc(-c2c3nc(c(-c4cccc(S(=O)(=O)[O-])c4F)c4ccc([nH]4)c(-c4cccc(S(=O)(=O)[O-])c4F)c4nc(c(-c5cccc(S(=O)(=O)[O-])c5F)c5ccc2[nH]5)C=C4)C=C3)cc1
REMARK SMILES IDX 21 1 20 2 19 3 1 4 2 5 3 7 4 8 5 9 18 10 6 11 13 12 17 13
REMARK SMILES IDX 14 14 16 15 15 16 7 17 8 18 9 19 10 20 11 21 12 22 22 23
REMARK SMILES IDX 23 24 24 25 25 27 26 28 27 29 88 30 28 31 87 32 29 33 30 34
REMARK SMILES IDX 31 35 81 36 32 37 86 38 80 39 82 40 33 41 85 42 79 43 78 44
REMARK SMILES IDX 34 46 66 47 46 48 65 49 47 50 50 51 64 52 83 53 48 54 49 55
REMARK SMILES IDX 63 57 84 58 51 59 35 60 36 61 44 62 37 63 39 64 45 65 38 66
REMARK SMILES IDX 40 67 41 68 42 69 43 70 67 71 68 72 76 73 69 74 71 75 77 76
REMARK SMILES IDX 70 77 72 78 73 79 74 80 75 81 52 82 53 83 61 84 54 85 56 86
REMARK SMILES IDX 62 87 55 88 57 89 58 90 59 91 60 92
REMARK H PARENT 19 6 23 26 82 45 50 56
REMARK Flexibility Score: inf
ROOT
ATOM      1  C   UNL A   1      33.238  30.442  27.121  1.00  0.00     0.042 C 
ENDROOT
BRANCH   1   2
ATOM      2  C   UNL A   1      33.760  29.179  26.437  1.00  0.00     0.117 C 
BRANCH   2   3
ATOM      3  N   UNL A   1      33.624  29.225  24.994  1.00  0.00    -0.354 N 
ATOM      4  O   UNL A   1      34.054  26.993  24.644  1.00  0.00    -0.273 OA
ATOM      5  C   UNL A   1      33.654  28.076  24.228  1.00  0.00     0.239 C 
ATOM      6  H   UNL A   1      33.509  30.096  24.549  1.00  0.00     0.163 HD
BRANCH   5   7
ATOM      7  C   UNL A   1      33.089  28.256  22.830  1.00  0.00     0.222 C 
BRANCH   7   8
ATOM      8  N   UNL A   1      31.653  28.513  22.862  1.00  0.00    -0.337 N 
ATOM      9  C   UNL A   1      31.059  29.632  22.331  1.00  0.00     0.099 A 
ATOM     10  C   UNL A   1      30.691  27.692  23.419  1.00  0.00     0.049 A 
ATOM     11  C   UNL A   1      29.686  29.512  22.462  1.00  0.00     0.053 A 
ATOM     12  C   UNL A   1      29.448  28.254  23.107  1.00  0.00     0.011 A 
ATOM     13  C   UNL A   1      30.791  26.492  24.145  1.00  0.00     0.027 A 
ATOM     14  C   UNL A   1      28.280  27.550  23.476  1.00  0.00     0.011 A 
ATOM     15  C   UNL A   1      29.620  25.816  24.493  1.00  0.00     0.002 A 
ATOM     16  C   UNL A   1      28.378  26.329  24.149  1.00  0.00     0.001 A 
BRANCH  11  17
ATOM     17  C   UNL A   1      28.679  30.491  22.030  1.00  0.00     0.268 C 
ATOM     18  O   UNL A   1      28.125  30.383  20.930  1.00  0.00    -0.284 OA
BRANCH  17  19
ATOM     19  C   UNL A   1      28.318  31.618  22.994  1.00  0.00     0.454 C 
ATOM     20  F   UNL A   1      29.208  31.729  24.026  1.00  0.00    -0.163 F 
ATOM     21  F   UNL A   1      28.284  32.842  22.394  1.00  0.00    -0.163 F 
ATOM     22  F   UNL A   1      27.096  31.453  23.579  1.00  0.00    -0.163 F 
ENDBRANCH  17  19
ENDBRANCH  11  17
ENDBRANCH   7   8
ENDBRANCH   5   7
ENDBRANCH   2   3
ENDBRANCH   1   2
BRANCH   1  23
ATOM     23  C   UNL A   1      34.311  31.489  27.440  1.00  0.00     0.118 C 
BRANCH  23  24
ATOM     24  N   UNL A   1      34.242  32.040  28.776  1.00  0.00    -0.352 N 
ATOM     25  C   UNL A   1      35.172  32.253  29.760  1.00  0.00     0.251 C 
ATOM     26  H   UNL A   1      33.334  32.322  29.034  1.00  0.00     0.163 HD
ATOM     27  O   UNL A   1      34.859  33.070  30.629  1.00  0.00    -0.269 OA
BRANCH  25  28
ATOM     28  C   UNL A   1      36.455  31.506  29.889  1.00  0.00     0.039 A 
ATOM     29  C   UNL A   1      37.719  32.074  29.763  1.00  0.00     0.014 A 
ATOM     30  C   UNL A   1      36.358  30.107  30.035  1.00  0.00     0.014 A 
ATOM     31  C   UNL A   1      38.844  31.265  29.679  1.00  0.00     0.010 A 
ATOM     32  C   UNL A   1      37.487  29.292  29.971  1.00  0.00     0.010 A 
ATOM     33  C   UNL A   1      38.727  29.872  29.745  1.00  0.00    -0.014 A 
BRANCH  33  34
ATOM     34  C   UNL A   1      39.972  29.112  29.668  1.00  0.00     0.031 A 
ATOM     35  C   UNL A   1      40.627  28.901  30.984  1.00  0.00     0.074 A 
ATOM     36  C   UNL A   1      40.528  28.633  28.536  1.00  0.00     0.049 A 
ATOM     37  N   UNL A   1      41.665  29.521  31.444  1.00  0.00    -0.248 NA
ATOM     38  C   UNL A   1      39.966  28.022  31.957  1.00  0.00     0.031 C 
ATOM     39  C   UNL A   1      39.902  28.508  27.218  1.00  0.00     0.029 A 
ATOM     40  N   UNL A   1      41.756  28.060  28.353  1.00  0.00    -0.354 N 
ATOM     41  C   UNL A   1      41.940  28.912  32.665  1.00  0.00     0.074 A 
ATOM     42  C   UNL A   1      40.775  28.140  33.012  1.00  0.00     0.031 C 
ATOM     43  C   UNL A   1      40.652  27.684  26.449  1.00  0.00     0.029 A 
ATOM     44  C   UNL A   1      41.881  27.367  27.154  1.00  0.00     0.049 A 
ATOM     45  H   UNL A   1      42.486  28.130  29.011  1.00  0.00     0.167 HD
ATOM     46  C   UNL A   1      43.211  28.855  33.144  1.00  0.00     0.034 A 
ATOM     47  C   UNL A   1      42.907  26.558  26.796  1.00  0.00     0.034 A 
ATOM     48  C   UNL A   1      44.105  29.712  32.419  1.00  0.00     0.049 A 
ATOM     49  C   UNL A   1      44.108  27.015  27.529  1.00  0.00     0.074 A 
ATOM     50  C   UNL A   1      44.461  31.041  32.396  1.00  0.00     0.029 A 
ATOM     51  N   UNL A   1      44.576  29.139  31.272  1.00  0.00    -0.354 N 
ATOM     52  N   UNL A   1      44.681  28.170  27.328  1.00  0.00    -0.248 NA
ATOM     53  C   UNL A   1      44.576  26.270  28.694  1.00  0.00     0.031 C 
ATOM     54  C   UNL A   1      45.066  31.272  31.123  1.00  0.00     0.029 A 
ATOM     55  C   UNL A   1      45.078  30.075  30.414  1.00  0.00     0.049 A 
ATOM     56  H   UNL A   1      44.557  28.172  31.088  1.00  0.00     0.167 HD
ATOM     57  C   UNL A   1      45.243  28.471  28.552  1.00  0.00     0.074 A 
ATOM     58  C   UNL A   1      45.320  27.212  29.275  1.00  0.00     0.031 C 
ATOM     59  C   UNL A   1      45.254  29.748  29.019  1.00  0.00     0.034 A 
BRANCH  46  60
ATOM     60  C   UNL A   1      43.770  27.687  33.922  1.00  0.00     0.023 A 
ATOM     61  C   UNL A   1      44.232  26.568  33.197  1.00  0.00     0.012 A 
ATOM     62  C   UNL A   1      43.574  27.518  35.313  1.00  0.00     0.148 A 
ATOM     63  C   UNL A   1      44.489  25.343  33.825  1.00  0.00     0.002 A 
ATOM     64  C   UNL A   1      43.902  26.323  35.943  1.00  0.00     0.091 A 
ATOM     65  F   UNL A   1      42.931  28.461  36.009  1.00  0.00    -0.205 F 
ATOM     66  C   UNL A   1      44.340  25.225  35.202  1.00  0.00     0.022 A 
BRANCH  64  67
ATOM     67  S   UNL A   1      43.752  26.135  37.722  1.00  0.00     0.127 S 
ATOM     68  O   UNL A   1      44.479  27.310  38.201  1.00  0.00    -0.237 OA
ATOM     69  O   UNL A   1      42.300  26.187  37.906  1.00  0.00    -0.237 OA
ATOM     70  O   UNL A   1      44.344  24.841  38.023  1.00  0.00    -0.744 OA
ENDBRANCH  64  67
ENDBRANCH  46  60
BRANCH  47  71
ATOM     71  C   UNL A   1      42.921  25.282  26.039  1.00  0.00     0.023 A 
ATOM     72  C   UNL A   1      43.938  25.078  25.079  1.00  0.00     0.012 A 
ATOM     73  C   UNL A   1      42.191  24.159  26.479  1.00  0.00     0.148 A 
ATOM     74  C   UNL A   1      44.289  23.792  24.655  1.00  0.00     0.002 A 
ATOM     75  C   UNL A   1      42.536  22.881  26.044  1.00  0.00     0.091 A 
ATOM     76  F   UNL A   1      41.232  24.325  27.398  1.00  0.00    -0.205 F 
ATOM     77  C   UNL A   1      43.601  22.692  25.152  1.00  0.00     0.022 A 
BRANCH  75  78
ATOM     78  S   UNL A   1      41.694  21.412  26.646  1.00  0.00     0.127 S 
ATOM     79  O   UNL A   1      42.130  20.392  25.692  1.00  0.00    -0.237 OA
ATOM     80  O   UNL A   1      42.244  21.272  27.987  1.00  0.00    -0.237 OA
ATOM     81  O   UNL A   1      40.268  21.724  26.569  1.00  0.00    -0.744 OA
ENDBRANCH  75  78
ENDBRANCH  47  71
BRANCH  59  82
ATOM     82  C   UNL A   1      45.256  30.862  28.025  1.00  0.00     0.023 A 
ATOM     83  C   UNL A   1      44.081  31.409  27.481  1.00  0.00     0.012 A 
ATOM     84  C   UNL A   1      46.498  31.443  27.726  1.00  0.00     0.148 A 
ATOM     85  C   UNL A   1      44.149  32.531  26.649  1.00  0.00     0.002 A 
ATOM     86  C   UNL A   1      46.559  32.577  26.932  1.00  0.00     0.091 A 
ATOM     87  F   UNL A   1      47.599  30.888  28.258  1.00  0.00    -0.205 F 
ATOM     88  C   UNL A   1      45.385  33.122  26.386  1.00  0.00     0.022 A 
BRANCH  86  89
ATOM     89  S   UNL A   1      48.102  33.441  26.640  1.00  0.00     0.127 S 
ATOM     90  O   UNL A   1      49.000  32.349  26.268  1.00  0.00    -0.237 OA
ATOM     91  O   UNL A   1      47.745  34.343  25.544  1.00  0.00    -0.237 OA
ATOM     92  O   UNL A   1      48.433  34.116  27.889  1.00  0.00    -0.744 OA
ENDBRANCH  86  89
ENDBRANCH  59  82
ENDBRANCH  33  34
ENDBRANCH  25  28
ENDBRANCH  23  24
ENDBRANCH   1  23
TORSDOF 16
ENDMDL
MODEL 2
REMARK VINA RESULT:     -12.4      1.718      2.222
REMARK SMILES O=C(Cn1cc(C(=O)C(F)(F)F)c2ccccc21)NCCCNC(=O)c1ccc(-c2c3nc(c(-c4cccc(S(=O)(=O)[O-])c4F)c4ccc([nH]4)c(-c4cccc(S(=O)(=O)[O-])c4F)c4nc(c(-c5cccc(S(=O)(=O)[O-])c5F)c5ccc2[nH]5)C=C4)C=C3)cc1
REMARK SMILES IDX 21 1 20 2 19 3 1 4 2 5 3 7 4 8 5 9 18 10 6 11 13 12 17 13
REMARK SMILES IDX 14 14 16 15 15 16 7 17 8 18 9 19 10 20 11 21 12 22 22 23
REMARK SMILES IDX 23 24 24 25 25 27 26 28 27 29 88 30 28 31 87 32 29 33 30 34
REMARK SMILES IDX 31 35 81 36 32 37 86 38 80 39 82 40 33 41 85 42 79 43 78 44
REMARK SMILES IDX 34 46 66 47 46 48 65 49 47 50 50 51 64 52 83 53 48 54 49 55
REMARK SMILES IDX 63 57 84 58 51 59 35 60 36 61 44 62 37 63 39 64 45 65 38 66
REMARK SMILES IDX 40 67 41 68 42 69 43 70 67 71 68 72 76 73 69 74 71 75 77 76
REMARK SMILES IDX 70 77 72 78 73 79 74 80 75 81 52 82 53 83 61 84 54 85 56 86
REMARK SMILES IDX 62 87 55 88 57 89 58 90 59 91 60 92
REMARK H PARENT 19 6 23 26 82 45 50 56
REMARK Flexibility Score: inf
ROOT
ATOM      1  C   UNL A   1      33.606  29.389  26.071  1.00  0.00     0.042 C 
ENDROOT
BRANCH   1   2
ATOM      2  C   UNL A   1      33.552  28.024  25.386  1.00  0.00     0.117 C 
BRANCH   2   3
ATOM      3  N   UNL A   1      32.497  27.933  24.395  1.00  0.00    -0.354 N 
ATOM      4  O   UNL A   1      33.895  27.745  22.578  1.00  0.00    -0.273 OA
ATOM      5  C   UNL A   1      32.773  27.664  23.068  1.00  0.00     0.239 C 
ATOM      6  H   UNL A   1      31.562  28.069  24.674  1.00  0.00     0.163 HD
BRANCH   5   7
ATOM      7  C   UNL A   1      31.567  27.197  22.275  1.00  0.00     0.222 C 
BRANCH   7   8
ATOM      8  N   UNL A   1      30.430  28.096  22.447  1.00  0.00    -0.337 N 
ATOM      9  C   UNL A   1      30.407  29.400  22.013  1.00  0.00     0.099 A 
ATOM     10  C   UNL A   1      29.232  27.786  23.061  1.00  0.00     0.049 A 
ATOM     11  C   UNL A   1      29.153  29.930  22.265  1.00  0.00     0.053 A 
ATOM     12  C   UNL A   1      28.388  28.888  22.885  1.00  0.00     0.011 A 
ATOM     13  C   UNL A   1      28.797  26.629  23.731  1.00  0.00     0.027 A 
ATOM     14  C   UNL A   1      27.052  28.790  23.335  1.00  0.00     0.011 A 
ATOM     15  C   UNL A   1      27.470  26.559  24.162  1.00  0.00     0.002 A 
ATOM     16  C   UNL A   1      26.601  27.620  23.953  1.00  0.00     0.001 A 
BRANCH  11  17
ATOM     17  C   UNL A   1      28.706  31.297  21.962  1.00  0.00     0.268 C 
ATOM     18  O   UNL A   1      28.544  31.663  20.793  1.00  0.00    -0.284 OA
BRANCH  17  19
ATOM     19  C   UNL A   1      28.418  32.230  23.135  1.00  0.00     0.454 C 
ATOM     20  F   UNL A   1      27.162  32.058  23.645  1.00  0.00    -0.163 F 
ATOM     21  F   UNL A   1      29.275  32.051  24.181  1.00  0.00    -0.163 F 
ATOM     22  F   UNL A   1      28.502  33.551  22.803  1.00  0.00    -0.163 F 
ENDBRANCH  17  19
ENDBRANCH  11  17
ENDBRANCH   7   8
ENDBRANCH   5   7
ENDBRANCH   2   3
ENDBRANCH   1   2
BRANCH   1  23
ATOM     23  C   UNL A   1      34.010  29.351  27.549  1.00  0.00     0.118 C 
BRANCH  23  24
ATOM     24  N   UNL A   1      34.190  30.650  28.161  1.00  0.00    -0.352 N 
ATOM     25  C   UNL A   1      35.285  31.331  28.627  1.00  0.00     0.251 C 
ATOM     26  H   UNL A   1      33.348  31.149  28.267  1.00  0.00     0.163 HD
ATOM     27  O   UNL A   1      35.147  32.551  28.748  1.00  0.00    -0.269 OA
BRANCH  25  28
ATOM     28  C   UNL A   1      36.554  30.693  29.072  1.00  0.00     0.039 A 
ATOM     29  C   UNL A   1      37.818  31.019  28.589  1.00  0.00     0.014 A 
ATOM     30  C   UNL A   1      36.435  29.606  29.961  1.00  0.00     0.014 A 
ATOM     31  C   UNL A   1      38.912  30.223  28.898  1.00  0.00     0.010 A 
ATOM     32  C   UNL A   1      37.535  28.815  30.292  1.00  0.00     0.010 A 
ATOM     33  C   UNL A   1      38.766  29.099  29.719  1.00  0.00    -0.014 A 
BRANCH  33  34
ATOM     34  C   UNL A   1      39.982  28.340  30.002  1.00  0.00     0.031 A 
ATOM     35  C   UNL A   1      40.456  28.469  31.403  1.00  0.00     0.074 A 
ATOM     36  C   UNL A   1      40.659  27.586  29.111  1.00  0.00     0.049 A 
ATOM     37  N   UNL A   1      41.450  29.182  31.825  1.00  0.00    -0.248 NA
ATOM     38  C   UNL A   1      39.645  27.870  32.470  1.00  0.00     0.031 C 
ATOM     39  C   UNL A   1      40.201  27.131  27.797  1.00  0.00     0.029 A 
ATOM     40  N   UNL A   1      41.879  26.980  29.243  1.00  0.00    -0.354 N 
ATOM     41  C   UNL A   1      41.545  28.904  33.185  1.00  0.00     0.074 A 
ATOM     42  C   UNL A   1      40.318  28.250  33.559  1.00  0.00     0.031 C 
ATOM     43  C   UNL A   1      41.011  26.135  27.367  1.00  0.00     0.029 A 
ATOM     44  C   UNL A   1      42.129  26.004  28.285  1.00  0.00     0.049 A 
ATOM     45  H   UNL A   1      42.520  27.213  29.953  1.00  0.00     0.167 HD
ATOM     46  C   UNL A   1      42.742  28.966  33.827  1.00  0.00     0.034 A 
ATOM     47  C   UNL A   1      43.161  25.127  28.282  1.00  0.00     0.034 A 
ATOM     48  C   UNL A   1      43.752  29.607  33.033  1.00  0.00     0.049 A 
ATOM     49  C   UNL A   1      44.275  25.751  29.028  1.00  0.00     0.074 A 
ATOM     50  C   UNL A   1      44.157  30.885  32.724  1.00  0.00     0.029 A 
ATOM     51  N   UNL A   1      44.343  28.758  32.142  1.00  0.00    -0.354 N 
ATOM     52  N   UNL A   1      44.912  26.814  28.619  1.00  0.00    -0.248 NA
ATOM     53  C   UNL A   1      44.564  25.326  30.394  1.00  0.00     0.031 C 
ATOM     54  C   UNL A   1      44.926  30.781  31.525  1.00  0.00     0.029 A 
ATOM     55  C   UNL A   1      44.984  29.443  31.149  1.00  0.00     0.049 A 
ATOM     56  H   UNL A   1      44.311  27.776  32.206  1.00  0.00     0.167 HD
ATOM     57  C   UNL A   1      45.324  27.416  29.790  1.00  0.00     0.074 A 
ATOM     58  C   UNL A   1      45.262  26.383  30.812  1.00  0.00     0.031 C 
ATOM     59  C   UNL A   1      45.324  28.770  29.917  1.00  0.00     0.034 A 
BRANCH  46  60
ATOM     60  C   UNL A   1      43.154  28.034  34.942  1.00  0.00     0.023 A 
ATOM     61  C   UNL A   1      43.635  28.605  36.140  1.00  0.00     0.012 A 
ATOM     62  C   UNL A   1      43.379  26.651  34.751  1.00  0.00     0.148 A 
ATOM     63  C   UNL A   1      44.305  27.835  37.099  1.00  0.00     0.002 A 
ATOM     64  C   UNL A   1      43.977  25.878  35.739  1.00  0.00     0.091 A 
ATOM     65  F   UNL A   1      43.151  26.103  33.552  1.00  0.00    -0.205 F 
ATOM     66  C   UNL A   1      44.461  26.469  36.907  1.00  0.00     0.022 A 
BRANCH  64  67
ATOM     67  S   UNL A   1      44.174  24.104  35.545  1.00  0.00     0.127 S 
ATOM     68  O   UNL A   1      42.791  23.678  35.341  1.00  0.00    -0.237 OA
ATOM     69  O   UNL A   1      45.028  24.027  34.358  1.00  0.00    -0.237 OA
ATOM     70  O   UNL A   1      44.816  23.652  36.770  1.00  0.00    -0.744 OA
ENDBRANCH  64  67
ENDBRANCH  46  60
BRANCH  47  71
ATOM     71  C   UNL A   1      43.224  23.700  27.880  1.00  0.00     0.023 A 
ATOM     72  C   UNL A   1      42.222  22.821  28.350  1.00  0.00     0.012 A 
ATOM     73  C   UNL A   1      44.020  23.277  26.796  1.00  0.00     0.148 A 
ATOM     74  C   UNL A   1      41.950  21.614  27.696  1.00  0.00     0.002 A 
ATOM     75  C   UNL A   1      43.753  22.069  26.156  1.00  0.00     0.091 A 
ATOM     76  F   UNL A   1      44.967  24.098  26.324  1.00  0.00    -0.205 F 
ATOM     77  C   UNL A   1      42.702  21.247  26.587  1.00  0.00     0.022 A 
BRANCH  75  78
ATOM     78  S   UNL A   1      44.682  21.530  24.714  1.00  0.00     0.127 S 
ATOM     79  O   UNL A   1      44.105  20.212  24.448  1.00  0.00    -0.237 OA
ATOM     80  O   UNL A   1      44.348  22.555  23.736  1.00  0.00    -0.237 OA
ATOM     81  O   UNL A   1      46.078  21.489  25.147  1.00  0.00    -0.744 OA
ENDBRANCH  75  78
ENDBRANCH  47  71
BRANCH  59  82
ATOM     82  C   UNL A   1      45.493  29.593  28.684  1.00  0.00     0.023 A 
ATOM     83  C   UNL A   1      44.418  29.980  27.864  1.00  0.00     0.012 A 
ATOM     84  C   UNL A   1      46.782  30.082  28.419  1.00  0.00     0.148 A 
ATOM     85  C   UNL A   1      44.633  30.853  26.793  1.00  0.00     0.002 A 
ATOM     86  C   UNL A   1      46.984  30.977  27.380  1.00  0.00     0.091 A 
ATOM     87  F   UNL A   1      47.784  29.685  29.219  1.00  0.00    -0.205 F 
ATOM     88  C   UNL A   1      45.911  31.361  26.560  1.00  0.00     0.022 A 
BRANCH  86  89
ATOM     89  S   UNL A   1      48.579  31.741  27.092  1.00  0.00     0.127 S 
ATOM     90  O   UNL A   1      48.244  32.812  26.156  1.00  0.00    -0.237 OA
ATOM     91  O   UNL A   1      48.949  32.192  28.435  1.00  0.00    -0.237 OA
ATOM     92  O   UNL A   1      49.441  30.695  26.554  1.00  0.00    -0.744 OA
ENDBRANCH  86  89
ENDBRANCH  59  82
ENDBRANCH  33  34
ENDBRANCH  25  28
ENDBRANCH  23  24
ENDBRANCH   1  23
TORSDOF 16
ENDMDL
MODEL 3
REMARK VINA RESULT:     -12.2      4.682      7.313
REMARK SMILES O=C(Cn1cc(C(=O)C(F)(F)F)c2ccccc21)NCCCNC(=O)c1ccc(-c2c3nc(c(-c4cccc(S(=O)(=O)[O-])c4F)c4ccc([nH]4)c(-c4cccc(S(=O)(=O)[O-])c4F)c4nc(c(-c5cccc(S(=O)(=O)[O-])c5F)c5ccc2[nH]5)C=C4)C=C3)cc1
REMARK SMILES IDX 21 1 20 2 19 3 1 4 2 5 3 7 4 8 5 9 18 10 6 11 13 12 17 13
REMARK SMILES IDX 14 14 16 15 15 16 7 17 8 18 9 19 10 20 11 21 12 22 22 23
REMARK SMILES IDX 23 24 24 25 25 27 26 28 27 29 88 30 28 31 87 32 29 33 30 34
REMARK SMILES IDX 31 35 81 36 32 37 86 38 80 39 82 40 33 41 85 42 79 43 78 44
REMARK SMILES IDX 34 46 66 47 46 48 65 49 47 50 50 51 64 52 83 53 48 54 49 55
REMARK SMILES IDX 63 57 84 58 51 59 35 60 36 61 44 62 37 63 39 64 45 65 38 66
REMARK SMILES IDX 40 67 41 68 42 69 43 70 67 71 68 72 76 73 69 74 71 75 77 76
REMARK SMILES IDX 70 77 72 78 73 79 74 80 75 81 52 82 53 83 61 84 54 85 56 86
REMARK SMILES IDX 62 87 55 88 57 89 58 90 59 91 60 92
REMARK H PARENT 19 6 23 26 82 45 50 56
REMARK Flexibility Score: inf
ROOT
ATOM      1  C   UNL A   1      33.822  35.088  29.167  1.00  0.00     0.042 C 
ENDROOT
BRANCH   1   2
ATOM      2  C   UNL A   1      33.810  34.935  30.687  1.00  0.00     0.117 C 
BRANCH   2   3
ATOM      3  N   UNL A   1      34.921  34.143  31.180  1.00  0.00    -0.354 N 
ATOM      4  O   UNL A   1      33.662  32.810  32.568  1.00  0.00    -0.273 OA
ATOM      5  C   UNL A   1      34.720  33.044  31.992  1.00  0.00     0.239 C 
ATOM      6  H   UNL A   1      35.839  34.395  30.931  1.00  0.00     0.163 HD
BRANCH   5   7
ATOM      7  C   UNL A   1      35.914  32.109  32.065  1.00  0.00     0.222 C 
BRANCH   7   8
ATOM      8  N   UNL A   1      36.971  32.655  32.911  1.00  0.00    -0.337 N 
ATOM      9  C   UNL A   1      36.968  32.592  34.283  1.00  0.00     0.099 A 
ATOM     10  C   UNL A   1      38.109  33.304  32.474  1.00  0.00     0.049 A 
ATOM     11  C   UNL A   1      38.153  33.129  34.756  1.00  0.00     0.053 A 
ATOM     12  C   UNL A   1      38.903  33.535  33.603  1.00  0.00     0.011 A 
ATOM     13  C   UNL A   1      38.533  33.687  31.190  1.00  0.00     0.027 A 
ATOM     14  C   UNL A   1      40.185  34.102  33.420  1.00  0.00     0.011 A 
ATOM     15  C   UNL A   1      39.806  34.242  31.038  1.00  0.00     0.002 A 
ATOM     16  C   UNL A   1      40.630  34.433  32.137  1.00  0.00     0.001 A 
BRANCH  11  17
ATOM     17  C   UNL A   1      38.552  33.261  36.164  1.00  0.00     0.268 C 
ATOM     18  O   UNL A   1      37.952  34.033  36.920  1.00  0.00    -0.284 OA
BRANCH  17  19
ATOM     19  C   UNL A   1      39.702  32.392  36.665  1.00  0.00     0.454 C 
ATOM     20  F   UNL A   1      39.842  32.440  38.024  1.00  0.00    -0.163 F 
ATOM     21  F   UNL A   1      39.549  31.073  36.350  1.00  0.00    -0.163 F 
ATOM     22  F   UNL A   1      40.914  32.759  36.157  1.00  0.00    -0.163 F 
ENDBRANCH  17  19
ENDBRANCH  11  17
ENDBRANCH   7   8
ENDBRANCH   5   7
ENDBRANCH   2   3
ENDBRANCH   1   2
BRANCH   1  23
ATOM     23  C   UNL A   1      34.754  34.119  28.431  1.00  0.00     0.118 C 
BRANCH  23  24
ATOM     24  N   UNL A   1      34.084  33.030  27.753  1.00  0.00    -0.352 N 
ATOM     25  C   UNL A   1      34.288  31.675  27.711  1.00  0.00     0.251 C 
ATOM     26  H   UNL A   1      33.321  33.324  27.205  1.00  0.00     0.163 HD
ATOM     27  O   UNL A   1      33.326  30.998  27.340  1.00  0.00    -0.269 OA
BRANCH  25  28
ATOM     28  C   UNL A   1      35.590  31.006  27.985  1.00  0.00     0.039 A 
ATOM     29  C   UNL A   1      35.795  29.630  27.958  1.00  0.00     0.014 A 
ATOM     30  C   UNL A   1      36.648  31.834  28.411  1.00  0.00     0.014 A 
ATOM     31  C   UNL A   1      36.979  29.090  28.439  1.00  0.00     0.010 A 
ATOM     32  C   UNL A   1      37.847  31.298  28.877  1.00  0.00     0.010 A 
ATOM     33  C   UNL A   1      37.992  29.919  28.934  1.00  0.00    -0.014 A 
BRANCH  33  34
ATOM     34  C   UNL A   1      39.207  29.254  29.398  1.00  0.00     0.031 A 
ATOM     35  C   UNL A   1      39.545  29.546  30.814  1.00  0.00     0.074 A 
ATOM     36  C   UNL A   1      39.994  28.452  28.652  1.00  0.00     0.049 A 
ATOM     37  N   UNL A   1      40.465  30.346  31.246  1.00  0.00    -0.248 NA
ATOM     38  C   UNL A   1      38.665  29.014  31.862  1.00  0.00     0.031 C 
ATOM     39  C   UNL A   1      39.679  27.847  27.356  1.00  0.00     0.029 A 
ATOM     40  N   UNL A   1      41.221  27.926  28.951  1.00  0.00    -0.354 N 
ATOM     41  C   UNL A   1      40.446  30.209  32.630  1.00  0.00     0.074 A 
ATOM     42  C   UNL A   1      39.218  29.533  32.961  1.00  0.00     0.031 C 
ATOM     43  C   UNL A   1      40.567  26.856  27.103  1.00  0.00     0.029 A 
ATOM     44  C   UNL A   1      41.599  26.874  28.124  1.00  0.00     0.049 A 
ATOM     45  H   UNL A   1      41.785  28.260  29.686  1.00  0.00     0.167 HD
ATOM     46  C   UNL A   1      41.575  30.395  33.365  1.00  0.00     0.034 A 
ATOM     47  C   UNL A   1      42.663  26.055  28.301  1.00  0.00     0.034 A 
ATOM     48  C   UNL A   1      42.626  31.005  32.600  1.00  0.00     0.049 A 
ATOM     49  C   UNL A   1      43.678  26.805  29.073  1.00  0.00     0.074 A 
ATOM     50  C   UNL A   1      43.004  32.265  32.197  1.00  0.00     0.029 A 
ATOM     51  N   UNL A   1      43.332  30.104  31.855  1.00  0.00    -0.354 N 
ATOM     52  N   UNL A   1      44.304  27.854  28.614  1.00  0.00    -0.248 NA
ATOM     53  C   UNL A   1      43.857  26.533  30.496  1.00  0.00     0.031 C 
ATOM     54  C   UNL A   1      43.884  32.083  31.087  1.00  0.00     0.029 A 
ATOM     55  C   UNL A   1      44.032  30.720  30.857  1.00  0.00     0.049 A 
ATOM     56  H   UNL A   1      43.336  29.133  32.017  1.00  0.00     0.167 HD
ATOM     57  C   UNL A   1      44.581  28.588  29.749  1.00  0.00     0.074 A 
ATOM     58  C   UNL A   1      44.469  27.660  30.862  1.00  0.00     0.031 C 
ATOM     59  C   UNL A   1      44.512  29.946  29.736  1.00  0.00     0.034 A 
BRANCH  46  60
ATOM     60  C   UNL A   1      41.922  29.599  34.601  1.00  0.00     0.023 A 
ATOM     61  C   UNL A   1      42.647  30.247  35.624  1.00  0.00     0.012 A 
ATOM     62  C   UNL A   1      41.841  28.189  34.661  1.00  0.00     0.148 A 
ATOM     63  C   UNL A   1      43.258  29.526  36.657  1.00  0.00     0.002 A 
ATOM     64  C   UNL A   1      42.386  27.484  35.729  1.00  0.00     0.091 A 
ATOM     65  F   UNL A   1      41.367  27.508  33.612  1.00  0.00    -0.205 F 
ATOM     66  C   UNL A   1      43.114  28.145  36.719  1.00  0.00     0.022 A 
BRANCH  64  67
ATOM     67  S   UNL A   1      42.200  25.704  35.864  1.00  0.00     0.127 S 
ATOM     68  O   UNL A   1      40.750  25.553  35.745  1.00  0.00    -0.237 OA
ATOM     69  O   UNL A   1      42.968  25.235  34.708  1.00  0.00    -0.237 OA
ATOM     70  O   UNL A   1      42.783  25.353  37.149  1.00  0.00    -0.744 OA
ENDBRANCH  64  67
ENDBRANCH  46  60
BRANCH  47  71
ATOM     71  C   UNL A   1      42.823  24.600  28.055  1.00  0.00     0.023 A 
ATOM     72  C   UNL A   1      41.949  23.703  28.712  1.00  0.00     0.012 A 
ATOM     73  C   UNL A   1      43.560  24.118  26.953  1.00  0.00     0.148 A 
ATOM     74  C   UNL A   1      41.735  22.410  28.224  1.00  0.00     0.002 A 
ATOM     75  C   UNL A   1      43.352  22.825  26.479  1.00  0.00     0.091 A 
ATOM     76  F   UNL A   1      44.384  24.952  26.306  1.00  0.00    -0.205 F 
ATOM     77  C   UNL A   1      42.422  21.977  27.096  1.00  0.00     0.022 A 
BRANCH  75  78
ATOM     78  S   UNL A   1      44.201  22.197  25.024  1.00  0.00     0.127 S 
ATOM     79  O   UNL A   1      43.827  20.783  25.033  1.00  0.00    -0.237 OA
ATOM     80  O   UNL A   1      43.600  22.984  23.957  1.00  0.00    -0.237 OA
ATOM     81  O   UNL A   1      45.622  22.436  25.273  1.00  0.00    -0.744 OA
ENDBRANCH  75  78
ENDBRANCH  47  71
BRANCH  59  82
ATOM     82  C   UNL A   1      44.759  30.652  28.444  1.00  0.00     0.023 A 
ATOM     83  C   UNL A   1      43.752  30.886  27.490  1.00  0.00     0.012 A 
ATOM     84  C   UNL A   1      46.039  31.194  28.251  1.00  0.00     0.148 A 
ATOM     85  C   UNL A   1      44.025  31.659  26.358  1.00  0.00     0.002 A 
ATOM     86  C   UNL A   1      46.296  31.991  27.147  1.00  0.00     0.091 A 
ATOM     87  F   UNL A   1      46.976  30.943  29.179  1.00  0.00    -0.205 F 
ATOM     88  C   UNL A   1      45.292  32.222  26.193  1.00  0.00     0.022 A 
BRANCH  86  89
ATOM     89  S   UNL A   1      47.869  32.823  26.932  1.00  0.00     0.127 S 
ATOM     90  O   UNL A   1      48.761  31.714  26.600  1.00  0.00    -0.237 OA
ATOM     91  O   UNL A   1      47.583  33.734  25.822  1.00  0.00    -0.237 OA
ATOM     92  O   UNL A   1      48.153  33.490  28.197  1.00  0.00    -0.744 OA
ENDBRANCH  86  89
ENDBRANCH  59  82
ENDBRANCH  33  34
ENDBRANCH  25  28
ENDBRANCH  23  24
ENDBRANCH   1  23
TORSDOF 16
ENDMDL
