MODEL 1
REMARK VINA RESULT:     -12.2      0.000      0.000
REMARK SMILES Cc1nn(-c2cccc(C(=O)NCCCNC(=O)c3ccc(-c4c5nc(c(-c6cccc(S(=O)(=O)[O-])c6F)c6ccc([nH]6)c(-c6cccc(S(=O)(=O)[O-])c6F)c6nc(c(-c7cccc(S(=O)(=O)[O-])c7F)c7ccc4[nH]7)C=C6)C=C5)cc3)c2)c(C)c1Cl
REMARK SMILES IDX 15 1 14 2 13 3 12 4 10 5 11 6 9 8 5 9 6 10 82 11 7 12 8 13
REMARK SMILES IDX 4 14 1 15 2 16 3 17 85 18 83 19 86 20 84 21 16 22 17 23
REMARK SMILES IDX 18 25 19 26 20 27 81 28 21 29 80 30 22 31 23 32 24 33 74 34
REMARK SMILES IDX 25 35 79 36 73 37 75 38 26 39 78 40 72 41 71 42 27 44 59 45
REMARK SMILES IDX 39 46 58 47 40 48 43 49 57 50 76 51 41 52 42 53 56 55 77 56
REMARK SMILES IDX 44 57 28 58 29 59 37 60 30 61 32 62 38 63 31 64 33 65 34 66
REMARK SMILES IDX 35 67 36 68 60 69 61 70 69 71 62 72 64 73 70 74 63 75 65 76
REMARK SMILES IDX 66 77 67 78 68 79 45 80 46 81 54 82 47 83 49 84 55 85 48 86
REMARK SMILES IDX 50 87 51 88 52 89 53 90
REMARK H PARENT 12 7 16 24 75 43 43 54
REMARK Flexibility Score: inf
ROOT
ATOM      1  C   UNL A   1      39.265  20.137  25.899  1.00  0.00     0.118 C 
ENDROOT
BRANCH   1   2
ATOM      2  C   UNL A   1      38.098  19.704  25.027  1.00  0.00     0.042 C 
BRANCH   2   3
ATOM      3  C   UNL A   1      37.182  20.878  24.644  1.00  0.00     0.118 C 
BRANCH   3   4
ATOM      4  N   UNL A   1      37.773  22.183  24.893  1.00  0.00    -0.352 N 
ATOM      5  C   UNL A   1      37.295  23.360  25.421  1.00  0.00     0.251 C 
ATOM      6  O   UNL A   1      38.128  24.224  25.695  1.00  0.00    -0.269 OA
ATOM      7  H   UNL A   1      38.719  22.236  24.626  1.00  0.00     0.163 HD
BRANCH   5   8
ATOM      8  C   UNL A   1      35.855  23.657  25.692  1.00  0.00     0.041 A 
ATOM      9  C   UNL A   1      33.825  24.992  25.506  1.00  0.00     0.066 A 
ATOM     10  C   UNL A   1      33.143  24.154  26.381  1.00  0.00     0.028 A 
ATOM     11  C   UNL A   1      35.176  24.767  25.208  1.00  0.00     0.042 A 
ATOM     12  C   UNL A   1      33.803  23.026  26.870  1.00  0.00     0.003 A 
ATOM     13  C   UNL A   1      35.139  22.774  26.519  1.00  0.00     0.014 A 
BRANCH   9  14
ATOM     14  N   UNL A   1      33.194  26.103  24.899  1.00  0.00    -0.236 N 
ATOM     15  C   UNL A   1      30.615  27.152  22.718  1.00  0.00     0.070 C 
ATOM     16  C   UNL A   1      31.707  27.050  23.715  1.00  0.00     0.079 A 
ATOM     17  N   UNL A   1      32.489  25.959  23.752  1.00  0.00    -0.171 NA
ATOM     18  C   UNL A   1      32.074  27.984  24.708  1.00  0.00     0.085 A 
ATOM     19  C   UNL A   1      33.083  27.382  25.422  1.00  0.00     0.060 A 
ATOM     20  Cl  UNL A   1      31.414  29.526  24.955  1.00  0.00    -0.080 Cl
ATOM     21  C   UNL A   1      33.942  27.909  26.514  1.00  0.00     0.068 C 
ENDBRANCH   9  14
ENDBRANCH   5   8
ENDBRANCH   3   4
ENDBRANCH   2   3
ENDBRANCH   1   2
BRANCH   1  22
ATOM     22  N   UNL A   1      40.392  19.197  25.810  1.00  0.00    -0.352 N 
ATOM     23  C   UNL A   1      41.751  19.443  25.927  1.00  0.00     0.251 C 
ATOM     24  H   UNL A   1      40.146  18.258  25.645  1.00  0.00     0.163 HD
ATOM     25  O   UNL A   1      42.569  18.639  25.528  1.00  0.00    -0.269 OA
BRANCH  23  26
ATOM     26  C   UNL A   1      42.173  20.714  26.543  1.00  0.00     0.039 A 
ATOM     27  C   UNL A   1      42.643  21.780  25.770  1.00  0.00     0.014 A 
ATOM     28  C   UNL A   1      41.995  20.844  27.913  1.00  0.00     0.014 A 
ATOM     29  C   UNL A   1      42.824  23.019  26.381  1.00  0.00     0.010 A 
ATOM     30  C   UNL A   1      41.976  22.098  28.459  1.00  0.00     0.010 A 
ATOM     31  C   UNL A   1      42.456  23.177  27.724  1.00  0.00    -0.014 A 
BRANCH  31  32
ATOM     32  C   UNL A   1      42.465  24.483  28.374  1.00  0.00     0.031 A 
ATOM     33  C   UNL A   1      41.240  25.302  28.167  1.00  0.00     0.074 A 
ATOM     34  C   UNL A   1      43.396  24.815  29.297  1.00  0.00     0.049 A 
ATOM     35  N   UNL A   1      41.125  26.384  27.470  1.00  0.00    -0.248 NA
ATOM     36  C   UNL A   1      39.959  24.784  28.672  1.00  0.00     0.031 C 
ATOM     37  C   UNL A   1      44.477  23.967  29.829  1.00  0.00     0.029 A 
ATOM     38  N   UNL A   1      43.482  25.927  30.074  1.00  0.00    -0.354 N 
ATOM     39  C   UNL A   1      39.812  26.818  27.663  1.00  0.00     0.074 A 
ATOM     40  C   UNL A   1      39.100  25.693  28.205  1.00  0.00     0.031 C 
ATOM     41  C   UNL A   1      44.920  24.478  30.997  1.00  0.00     0.029 A 
ATOM     42  C   UNL A   1      44.315  25.779  31.179  1.00  0.00     0.049 A 
ATOM     43  H   UNL A   1      43.000  26.761  29.873  1.00  0.00     0.167 HD
ATOM     44  C   UNL A   1      39.499  28.145  27.628  1.00  0.00     0.034 A 
ATOM     45  C   UNL A   1      44.500  26.666  32.183  1.00  0.00     0.034 A 
ATOM     46  C   UNL A   1      40.613  28.917  27.133  1.00  0.00     0.049 A 
ATOM     47  C   UNL A   1      44.089  27.986  31.666  1.00  0.00     0.074 A 
ATOM     48  C   UNL A   1      41.297  29.041  25.944  1.00  0.00     0.029 A 
ATOM     49  N   UNL A   1      41.407  29.460  28.113  1.00  0.00    -0.354 N 
ATOM     50  N   UNL A   1      44.723  28.608  30.711  1.00  0.00    -0.248 NA
ATOM     51  C   UNL A   1      42.748  28.474  31.948  1.00  0.00     0.031 C 
ATOM     52  C   UNL A   1      42.639  29.352  26.313  1.00  0.00     0.029 A 
ATOM     53  C   UNL A   1      42.710  29.447  27.706  1.00  0.00     0.049 A 
ATOM     54  H   UNL A   1      41.085  29.805  28.978  1.00  0.00     0.167 HD
ATOM     55  C   UNL A   1      43.718  29.224  29.983  1.00  0.00     0.074 A 
ATOM     56  C   UNL A   1      42.572  29.264  30.885  1.00  0.00     0.031 C 
ATOM     57  C   UNL A   1      43.824  29.358  28.628  1.00  0.00     0.034 A 
BRANCH  44  58
ATOM     58  C   UNL A   1      38.405  28.842  28.425  1.00  0.00     0.023 A 
ATOM     59  C   UNL A   1      37.558  29.722  27.705  1.00  0.00     0.012 A 
ATOM     60  C   UNL A   1      38.345  28.926  29.834  1.00  0.00     0.148 A 
ATOM     61  C   UNL A   1      36.768  30.684  28.343  1.00  0.00     0.002 A 
ATOM     62  C   UNL A   1      37.505  29.838  30.468  1.00  0.00     0.091 A 
ATOM     63  F   UNL A   1      39.187  28.218  30.588  1.00  0.00    -0.205 F 
ATOM     64  C   UNL A   1      36.742  30.744  29.729  1.00  0.00     0.022 A 
BRANCH  62  65
ATOM     65  S   UNL A   1      37.402  29.936  32.261  1.00  0.00     0.127 S 
ATOM     66  O   UNL A   1      38.703  30.504  32.598  1.00  0.00    -0.237 OA
ATOM     67  O   UNL A   1      36.263  30.836  32.447  1.00  0.00    -0.237 OA
ATOM     68  O   UNL A   1      37.161  28.571  32.713  1.00  0.00    -0.744 OA
ENDBRANCH  62  65
ENDBRANCH  44  58
BRANCH  45  69
ATOM     69  C   UNL A   1      44.893  26.458  33.588  1.00  0.00     0.023 A 
ATOM     70  C   UNL A   1      46.226  26.680  33.983  1.00  0.00     0.012 A 
ATOM     71  C   UNL A   1      43.907  26.317  34.589  1.00  0.00     0.148 A 
ATOM     72  C   UNL A   1      46.562  26.805  35.334  1.00  0.00     0.002 A 
ATOM     73  C   UNL A   1      44.246  26.449  35.932  1.00  0.00     0.091 A 
ATOM     74  F   UNL A   1      42.633  26.138  34.211  1.00  0.00    -0.205 F 
ATOM     75  C   UNL A   1      45.572  26.706  36.307  1.00  0.00     0.022 A 
BRANCH  73  76
ATOM     76  S   UNL A   1      43.024  26.388  37.249  1.00  0.00     0.127 S 
ATOM     77  O   UNL A   1      42.454  25.053  37.068  1.00  0.00    -0.237 OA
ATOM     78  O   UNL A   1      43.858  26.540  38.439  1.00  0.00    -0.237 OA
ATOM     79  O   UNL A   1      42.101  27.482  36.986  1.00  0.00    -0.744 OA
ENDBRANCH  73  76
ENDBRANCH  45  69
BRANCH  57  80
ATOM     80  C   UNL A   1      45.188  29.162  28.017  1.00  0.00     0.023 A 
ATOM     81  C   UNL A   1      46.197  30.144  28.085  1.00  0.00     0.012 A 
ATOM     82  C   UNL A   1      45.502  27.898  27.491  1.00  0.00     0.148 A 
ATOM     83  C   UNL A   1      47.488  29.878  27.618  1.00  0.00     0.002 A 
ATOM     84  C   UNL A   1      46.797  27.622  27.073  1.00  0.00     0.091 A 
ATOM     85  F   UNL A   1      44.529  26.976  27.436  1.00  0.00    -0.205 F 
ATOM     86  C   UNL A   1      47.791  28.611  27.125  1.00  0.00     0.022 A 
BRANCH  84  87
ATOM     87  S   UNL A   1      47.279  25.975  26.552  1.00  0.00     0.127 S 
ATOM     88  O   UNL A   1      48.709  26.140  26.299  1.00  0.00    -0.237 OA
ATOM     89  O   UNL A   1      46.955  25.165  27.728  1.00  0.00    -0.237 OA
ATOM     90  O   UNL A   1      46.465  25.672  25.382  1.00  0.00    -0.744 OA
ENDBRANCH  84  87
ENDBRANCH  57  80
ENDBRANCH  31  32
ENDBRANCH  23  26
ENDBRANCH   1  22
TORSDOF 14
ENDMDL
MODEL 2
REMARK VINA RESULT:     -11.9      4.112      9.568
REMARK SMILES Cc1nn(-c2cccc(C(=O)NCCCNC(=O)c3ccc(-c4c5nc(c(-c6cccc(S(=O)(=O)[O-])c6F)c6ccc([nH]6)c(-c6cccc(S(=O)(=O)[O-])c6F)c6nc(c(-c7cccc(S(=O)(=O)[O-])c7F)c7ccc4[nH]7)C=C6)C=C5)cc3)c2)c(C)c1Cl
REMARK SMILES IDX 15 1 14 2 13 3 12 4 10 5 11 6 9 8 5 9 6 10 82 11 7 12 8 13
REMARK SMILES IDX 4 14 1 15 2 16 3 17 85 18 83 19 86 20 84 21 16 22 17 23
REMARK SMILES IDX 18 25 19 26 20 27 81 28 21 29 80 30 22 31 23 32 24 33 74 34
REMARK SMILES IDX 25 35 79 36 73 37 75 38 26 39 78 40 72 41 71 42 27 44 59 45
REMARK SMILES IDX 39 46 58 47 40 48 43 49 57 50 76 51 41 52 42 53 56 55 77 56
REMARK SMILES IDX 44 57 28 58 29 59 37 60 30 61 32 62 38 63 31 64 33 65 34 66
REMARK SMILES IDX 35 67 36 68 60 69 61 70 69 71 62 72 64 73 70 74 63 75 65 76
REMARK SMILES IDX 66 77 67 78 68 79 45 80 46 81 54 82 47 83 49 84 55 85 48 86
REMARK SMILES IDX 50 87 51 88 52 89 53 90
REMARK H PARENT 12 7 16 24 75 43 43 54
REMARK Flexibility Score: inf
ROOT
ATOM      1  C   UNL A   1      32.580  32.376  27.259  1.00  0.00     0.118 C 
ENDROOT
BRANCH   1   2
ATOM      2  C   UNL A   1      31.411  31.783  26.490  1.00  0.00     0.042 C 
BRANCH   2   3
ATOM      3  C   UNL A   1      31.606  30.291  26.178  1.00  0.00     0.118 C 
BRANCH   3   4
ATOM      4  N   UNL A   1      32.449  30.043  25.019  1.00  0.00    -0.352 N 
ATOM      5  C   UNL A   1      32.574  28.994  24.139  1.00  0.00     0.251 C 
ATOM      6  O   UNL A   1      33.243  29.196  23.124  1.00  0.00    -0.269 OA
ATOM      7  H   UNL A   1      33.063  30.788  24.822  1.00  0.00     0.163 HD
BRANCH   5   8
ATOM      8  C   UNL A   1      31.954  27.645  24.317  1.00  0.00     0.041 A 
ATOM      9  C   UNL A   1      32.024  25.242  24.713  1.00  0.00     0.066 A 
ATOM     10  C   UNL A   1      30.651  25.128  24.523  1.00  0.00     0.028 A 
ATOM     11  C   UNL A   1      32.665  26.479  24.563  1.00  0.00     0.042 A 
ATOM     12  C   UNL A   1      29.915  26.290  24.287  1.00  0.00     0.003 A 
ATOM     13  C   UNL A   1      30.558  27.535  24.198  1.00  0.00     0.014 A 
BRANCH   9  14
ATOM     14  N   UNL A   1      32.822  24.123  25.047  1.00  0.00    -0.236 N 
ATOM     15  C   UNL A   1      33.886  21.979  27.651  1.00  0.00     0.070 C 
ATOM     16  C   UNL A   1      33.578  22.631  26.356  1.00  0.00     0.079 A 
ATOM     17  N   UNL A   1      33.258  23.934  26.314  1.00  0.00    -0.171 NA
ATOM     18  C   UNL A   1      33.559  22.052  25.068  1.00  0.00     0.085 A 
ATOM     19  C   UNL A   1      33.132  23.051  24.225  1.00  0.00     0.060 A 
ATOM     20  Cl  UNL A   1      33.985  20.464  24.655  1.00  0.00    -0.080 Cl
ATOM     21  C   UNL A   1      33.017  23.081  22.743  1.00  0.00     0.068 C 
ENDBRANCH   9  14
ENDBRANCH   5   8
ENDBRANCH   3   4
ENDBRANCH   2   3
ENDBRANCH   1   2
BRANCH   1  22
ATOM     22  N   UNL A   1      32.338  33.778  27.628  1.00  0.00    -0.352 N 
ATOM     23  C   UNL A   1      32.999  34.567  28.556  1.00  0.00     0.251 C 
ATOM     24  H   UNL A   1      31.601  34.220  27.146  1.00  0.00     0.163 HD
ATOM     25  O   UNL A   1      32.500  35.593  28.974  1.00  0.00    -0.269 OA
BRANCH  23  26
ATOM     26  C   UNL A   1      34.321  34.120  29.028  1.00  0.00     0.039 A 
ATOM     27  C   UNL A   1      34.462  33.347  30.184  1.00  0.00     0.014 A 
ATOM     28  C   UNL A   1      35.414  34.416  28.225  1.00  0.00     0.014 A 
ATOM     29  C   UNL A   1      35.704  32.779  30.461  1.00  0.00     0.010 A 
ATOM     30  C   UNL A   1      36.565  33.696  28.388  1.00  0.00     0.010 A 
ATOM     31  C   UNL A   1      36.746  32.933  29.537  1.00  0.00    -0.014 A 
BRANCH  31  32
ATOM     32  C   UNL A   1      38.015  32.229  29.685  1.00  0.00     0.031 A 
ATOM     33  C   UNL A   1      38.046  30.853  29.121  1.00  0.00     0.074 A 
ATOM     34  C   UNL A   1      39.144  32.867  30.070  1.00  0.00     0.049 A 
ATOM     35  N   UNL A   1      38.106  29.737  29.772  1.00  0.00    -0.248 NA
ATOM     36  C   UNL A   1      37.838  30.684  27.675  1.00  0.00     0.031 C 
ATOM     37  C   UNL A   1      39.316  34.304  30.346  1.00  0.00     0.029 A 
ATOM     38  N   UNL A   1      40.417  32.396  30.145  1.00  0.00    -0.354 N 
ATOM     39  C   UNL A   1      38.204  28.740  28.799  1.00  0.00     0.074 A 
ATOM     40  C   UNL A   1      37.804  29.354  27.563  1.00  0.00     0.031 C 
ATOM     41  C   UNL A   1      40.626  34.622  30.288  1.00  0.00     0.029 A 
ATOM     42  C   UNL A   1      41.385  33.395  30.189  1.00  0.00     0.049 A 
ATOM     43  H   UNL A   1      40.634  31.436  30.168  1.00  0.00     0.167 HD
ATOM     44  C   UNL A   1      38.877  27.580  29.048  1.00  0.00     0.034 A 
ATOM     45  C   UNL A   1      42.726  33.230  30.147  1.00  0.00     0.034 A 
ATOM     46  C   UNL A   1      39.201  27.472  30.450  1.00  0.00     0.049 A 
ATOM     47  C   UNL A   1      42.997  31.838  30.559  1.00  0.00     0.074 A 
ATOM     48  C   UNL A   1      38.508  27.330  31.631  1.00  0.00     0.029 A 
ATOM     49  N   UNL A   1      40.465  27.898  30.773  1.00  0.00    -0.354 N 
ATOM     50  N   UNL A   1      42.765  31.392  31.761  1.00  0.00    -0.248 NA
ATOM     51  C   UNL A   1      43.189  30.819  29.539  1.00  0.00     0.031 C 
ATOM     52  C   UNL A   1      39.289  28.010  32.611  1.00  0.00     0.029 A 
ATOM     53  C   UNL A   1      40.445  28.502  31.998  1.00  0.00     0.049 A 
ATOM     54  H   UNL A   1      41.265  27.785  30.209  1.00  0.00     0.167 HD
ATOM     55  C   UNL A   1      42.323  30.095  31.561  1.00  0.00     0.074 A 
ATOM     56  C   UNL A   1      42.781  29.744  30.220  1.00  0.00     0.031 C 
ATOM     57  C   UNL A   1      41.371  29.551  32.376  1.00  0.00     0.034 A 
BRANCH  44  58
ATOM     58  C   UNL A   1      39.648  26.743  28.037  1.00  0.00     0.023 A 
ATOM     59  C   UNL A   1      39.466  25.338  28.107  1.00  0.00     0.012 A 
ATOM     60  C   UNL A   1      40.733  27.197  27.254  1.00  0.00     0.148 A 
ATOM     61  C   UNL A   1      40.358  24.442  27.508  1.00  0.00     0.002 A 
ATOM     62  C   UNL A   1      41.578  26.303  26.603  1.00  0.00     0.091 A 
ATOM     63  F   UNL A   1      41.047  28.493  27.226  1.00  0.00    -0.205 F 
ATOM     64  C   UNL A   1      41.418  24.924  26.756  1.00  0.00     0.022 A 
BRANCH  62  65
ATOM     65  S   UNL A   1      42.947  26.871  25.583  1.00  0.00     0.127 S 
ATOM     66  O   UNL A   1      43.847  27.427  26.588  1.00  0.00    -0.237 OA
ATOM     67  O   UNL A   1      43.399  25.624  24.965  1.00  0.00    -0.237 OA
ATOM     68  O   UNL A   1      42.365  27.823  24.645  1.00  0.00    -0.744 OA
ENDBRANCH  62  65
ENDBRANCH  44  58
BRANCH  45  69
ATOM     69  C   UNL A   1      43.791  34.132  29.672  1.00  0.00     0.023 A 
ATOM     70  C   UNL A   1      44.521  34.902  30.597  1.00  0.00     0.012 A 
ATOM     71  C   UNL A   1      44.276  34.026  28.350  1.00  0.00     0.148 A 
ATOM     72  C   UNL A   1      45.724  35.512  30.231  1.00  0.00     0.002 A 
ATOM     73  C   UNL A   1      45.478  34.629  27.993  1.00  0.00     0.091 A 
ATOM     74  F   UNL A   1      43.598  33.266  27.479  1.00  0.00    -0.205 F 
ATOM     75  C   UNL A   1      46.211  35.363  28.936  1.00  0.00     0.022 A 
BRANCH  73  76
ATOM     76  S   UNL A   1      46.206  34.444  26.360  1.00  0.00     0.127 S 
ATOM     77  O   UNL A   1      45.132  34.933  25.495  1.00  0.00    -0.237 OA
ATOM     78  O   UNL A   1      47.369  35.325  26.448  1.00  0.00    -0.237 OA
ATOM     79  O   UNL A   1      46.502  33.026  26.215  1.00  0.00    -0.744 OA
ENDBRANCH  73  76
ENDBRANCH  45  69
BRANCH  57  80
ATOM     80  C   UNL A   1      41.099  30.247  33.684  1.00  0.00     0.023 A 
ATOM     81  C   UNL A   1      41.996  30.197  34.771  1.00  0.00     0.012 A 
ATOM     82  C   UNL A   1      39.981  31.093  33.764  1.00  0.00     0.148 A 
ATOM     83  C   UNL A   1      41.770  30.958  35.922  1.00  0.00     0.002 A 
ATOM     84  C   UNL A   1      39.786  31.884  34.889  1.00  0.00     0.091 A 
ATOM     85  F   UNL A   1      39.139  31.129  32.720  1.00  0.00    -0.205 F 
ATOM     86  C   UNL A   1      40.671  31.812  35.975  1.00  0.00     0.022 A 
BRANCH  84  87
ATOM     87  S   UNL A   1      38.465  33.095  34.962  1.00  0.00     0.127 S 
ATOM     88  O   UNL A   1      38.823  33.867  36.151  1.00  0.00    -0.237 OA
ATOM     89  O   UNL A   1      38.627  33.813  33.696  1.00  0.00    -0.237 OA
ATOM     90  O   UNL A   1      37.227  32.332  35.057  1.00  0.00    -0.744 OA
ENDBRANCH  84  87
ENDBRANCH  57  80
ENDBRANCH  31  32
ENDBRANCH  23  26
ENDBRANCH   1  22
TORSDOF 14
ENDMDL
MODEL 3
REMARK VINA RESULT:     -11.9      1.510      1.957
REMARK SMILES Cc1nn(-c2cccc(C(=O)NCCCNC(=O)c3ccc(-c4c5nc(c(-c6cccc(S(=O)(=O)[O-])c6F)c6ccc([nH]6)c(-c6cccc(S(=O)(=O)[O-])c6F)c6nc(c(-c7cccc(S(=O)(=O)[O-])c7F)c7ccc4[nH]7)C=C6)C=C5)cc3)c2)c(C)c1Cl
REMARK SMILES IDX 15 1 14 2 13 3 12 4 10 5 11 6 9 8 5 9 6 10 82 11 7 12 8 13
REMARK SMILES IDX 4 14 1 15 2 16 3 17 85 18 83 19 86 20 84 21 16 22 17 23
REMARK SMILES IDX 18 25 19 26 20 27 81 28 21 29 80 30 22 31 23 32 24 33 74 34
REMARK SMILES IDX 25 35 79 36 73 37 75 38 26 39 78 40 72 41 71 42 27 44 59 45
REMARK SMILES IDX 39 46 58 47 40 48 43 49 57 50 76 51 41 52 42 53 56 55 77 56
REMARK SMILES IDX 44 57 28 58 29 59 37 60 30 61 32 62 38 63 31 64 33 65 34 66
REMARK SMILES IDX 35 67 36 68 60 69 61 70 69 71 62 72 64 73 70 74 63 75 65 76
REMARK SMILES IDX 66 77 67 78 68 79 45 80 46 81 54 82 47 83 49 84 55 85 48 86
REMARK SMILES IDX 50 87 51 88 52 89 53 90
REMARK H PARENT 12 7 16 24 75 43 43 54
REMARK Flexibility Score: inf
ROOT
ATOM      1  C   UNL A   1      39.122  20.198  25.764  1.00  0.00     0.118 C 
ENDROOT
BRANCH   1   2
ATOM      2  C   UNL A   1      37.884  19.673  25.054  1.00  0.00     0.042 C 
BRANCH   2   3
ATOM      3  C   UNL A   1      36.791  20.744  24.907  1.00  0.00     0.118 C 
BRANCH   3   4
ATOM      4  N   UNL A   1      37.244  22.088  25.230  1.00  0.00    -0.352 N 
ATOM      5  C   UNL A   1      36.662  23.164  25.858  1.00  0.00     0.251 C 
ATOM      6  O   UNL A   1      37.406  24.097  26.165  1.00  0.00    -0.269 OA
ATOM      7  H   UNL A   1      38.167  22.265  24.935  1.00  0.00     0.163 HD
BRANCH   5   8
ATOM      8  C   UNL A   1      35.211  23.277  26.200  1.00  0.00     0.041 A 
ATOM      9  C   UNL A   1      33.027  24.357  26.136  1.00  0.00     0.066 A 
ATOM     10  C   UNL A   1      32.494  23.425  27.021  1.00  0.00     0.028 A 
ATOM     11  C   UNL A   1      34.380  24.304  25.773  1.00  0.00     0.042 A 
ATOM     12  C   UNL A   1      33.309  22.378  27.452  1.00  0.00     0.003 A 
ATOM     13  C   UNL A   1      34.648  22.299  27.036  1.00  0.00     0.014 A 
BRANCH   9  14
ATOM     14  N   UNL A   1      32.238  25.392  25.584  1.00  0.00    -0.236 N 
ATOM     15  C   UNL A   1      31.821  28.892  25.282  1.00  0.00     0.070 C 
ATOM     16  C   UNL A   1      31.763  27.417  25.150  1.00  0.00     0.079 A 
ATOM     17  N   UNL A   1      32.234  26.630  26.131  1.00  0.00    -0.171 NA
ATOM     18  C   UNL A   1      31.261  26.654  24.073  1.00  0.00     0.085 A 
ATOM     19  C   UNL A   1      31.516  25.344  24.402  1.00  0.00     0.060 A 
ATOM     20  Cl  UNL A   1      30.496  27.237  22.677  1.00  0.00    -0.080 Cl
ATOM     21  C   UNL A   1      31.124  24.082  23.720  1.00  0.00     0.068 C 
ENDBRANCH   9  14
ENDBRANCH   5   8
ENDBRANCH   3   4
ENDBRANCH   2   3
ENDBRANCH   1   2
BRANCH   1  22
ATOM     22  N   UNL A   1      40.224  19.226  25.731  1.00  0.00    -0.352 N 
ATOM     23  C   UNL A   1      41.584  19.437  25.895  1.00  0.00     0.251 C 
ATOM     24  H   UNL A   1      39.958  18.292  25.572  1.00  0.00     0.163 HD
ATOM     25  O   UNL A   1      42.394  18.605  25.539  1.00  0.00    -0.269 OA
BRANCH  23  26
ATOM     26  C   UNL A   1      42.019  20.706  26.505  1.00  0.00     0.039 A 
ATOM     27  C   UNL A   1      42.422  21.793  25.724  1.00  0.00     0.014 A 
ATOM     28  C   UNL A   1      41.921  20.811  27.886  1.00  0.00     0.014 A 
ATOM     29  C   UNL A   1      42.616  23.026  26.345  1.00  0.00     0.010 A 
ATOM     30  C   UNL A   1      41.913  22.055  28.453  1.00  0.00     0.010 A 
ATOM     31  C   UNL A   1      42.328  23.156  27.710  1.00  0.00    -0.014 A 
BRANCH  31  32
ATOM     32  C   UNL A   1      42.351  24.451  28.380  1.00  0.00     0.031 A 
ATOM     33  C   UNL A   1      41.143  25.295  28.171  1.00  0.00     0.074 A 
ATOM     34  C   UNL A   1      43.276  24.751  29.320  1.00  0.00     0.049 A 
ATOM     35  N   UNL A   1      41.056  26.389  27.489  1.00  0.00    -0.248 NA
ATOM     36  C   UNL A   1      39.847  24.792  28.652  1.00  0.00     0.031 C 
ATOM     37  C   UNL A   1      44.335  23.876  29.852  1.00  0.00     0.029 A 
ATOM     38  N   UNL A   1      43.372  25.849  30.115  1.00  0.00    -0.354 N 
ATOM     39  C   UNL A   1      39.749  26.844  27.673  1.00  0.00     0.074 A 
ATOM     40  C   UNL A   1      39.011  25.723  28.188  1.00  0.00     0.031 C 
ATOM     41  C   UNL A   1      44.772  24.360  31.033  1.00  0.00     0.029 A 
ATOM     42  C   UNL A   1      44.188  25.670  31.228  1.00  0.00     0.049 A 
ATOM     43  H   UNL A   1      42.907  26.695  29.921  1.00  0.00     0.167 HD
ATOM     44  C   UNL A   1      39.460  28.177  27.655  1.00  0.00     0.034 A 
ATOM     45  C   UNL A   1      44.376  26.537  32.248  1.00  0.00     0.034 A 
ATOM     46  C   UNL A   1      40.594  28.936  27.187  1.00  0.00     0.049 A 
ATOM     47  C   UNL A   1      43.995  27.873  31.746  1.00  0.00     0.074 A 
ATOM     48  C   UNL A   1      41.296  29.066  26.008  1.00  0.00     0.029 A 
ATOM     49  N   UNL A   1      41.385  29.449  28.185  1.00  0.00    -0.354 N 
ATOM     50  N   UNL A   1      44.652  28.497  30.810  1.00  0.00    -0.248 NA
ATOM     51  C   UNL A   1      42.659  28.380  32.020  1.00  0.00     0.031 C 
ATOM     52  C   UNL A   1      42.638  29.347  26.399  1.00  0.00     0.029 A 
ATOM     53  C   UNL A   1      42.692  29.420  27.793  1.00  0.00     0.049 A 
ATOM     54  H   UNL A   1      41.058  29.786  29.051  1.00  0.00     0.167 HD
ATOM     55  C   UNL A   1      43.668  29.143  30.079  1.00  0.00     0.074 A 
ATOM     56  C   UNL A   1      42.511  29.190  30.967  1.00  0.00     0.031 C 
ATOM     57  C   UNL A   1      43.794  29.296  28.728  1.00  0.00     0.034 A 
BRANCH  44  58
ATOM     58  C   UNL A   1      38.369  28.880  28.450  1.00  0.00     0.023 A 
ATOM     59  C   UNL A   1      37.517  29.751  27.723  1.00  0.00     0.012 A 
ATOM     60  C   UNL A   1      38.315  28.980  29.858  1.00  0.00     0.148 A 
ATOM     61  C   UNL A   1      36.728  30.719  28.355  1.00  0.00     0.002 A 
ATOM     62  C   UNL A   1      37.477  29.898  30.486  1.00  0.00     0.091 A 
ATOM     63  F   UNL A   1      39.162  28.283  30.616  1.00  0.00    -0.205 F 
ATOM     64  C   UNL A   1      36.709  30.795  29.739  1.00  0.00     0.022 A 
BRANCH  62  65
ATOM     65  S   UNL A   1      37.382  30.016  32.278  1.00  0.00     0.127 S 
ATOM     66  O   UNL A   1      36.285  30.963  32.450  1.00  0.00    -0.237 OA
ATOM     67  O   UNL A   1      37.076  28.636  32.653  1.00  0.00    -0.237 OA
ATOM     68  O   UNL A   1      38.697  30.473  32.708  1.00  0.00    -0.744 OA
ENDBRANCH  62  65
ENDBRANCH  44  58
BRANCH  45  69
ATOM     69  C   UNL A   1      44.748  26.300  33.655  1.00  0.00     0.023 A 
ATOM     70  C   UNL A   1      46.086  26.458  34.061  1.00  0.00     0.012 A 
ATOM     71  C   UNL A   1      43.748  26.197  34.646  1.00  0.00     0.148 A 
ATOM     72  C   UNL A   1      46.417  26.556  35.416  1.00  0.00     0.002 A 
ATOM     73  C   UNL A   1      44.081  26.304  35.993  1.00  0.00     0.091 A 
ATOM     74  F   UNL A   1      42.470  26.081  34.257  1.00  0.00    -0.205 F 
ATOM     75  C   UNL A   1      45.415  26.496  36.380  1.00  0.00     0.022 A 
BRANCH  73  76
ATOM     76  S   UNL A   1      42.847  26.290  37.300  1.00  0.00     0.127 S 
ATOM     77  O   UNL A   1      42.059  27.480  36.981  1.00  0.00    -0.237 OA
ATOM     78  O   UNL A   1      42.166  25.021  37.056  1.00  0.00    -0.237 OA
ATOM     79  O   UNL A   1      43.591  26.373  38.549  1.00  0.00    -0.744 OA
ENDBRANCH  73  76
ENDBRANCH  45  69
BRANCH  57  80
ATOM     80  C   UNL A   1      45.161  29.085  28.130  1.00  0.00     0.023 A 
ATOM     81  C   UNL A   1      45.541  27.876  27.513  1.00  0.00     0.012 A 
ATOM     82  C   UNL A   1      46.029  30.186  28.060  1.00  0.00     0.148 A 
ATOM     83  C   UNL A   1      46.771  27.760  26.860  1.00  0.00     0.002 A 
ATOM     84  C   UNL A   1      47.229  30.083  27.368  1.00  0.00     0.091 A 
ATOM     85  F   UNL A   1      45.650  31.329  28.651  1.00  0.00    -0.205 F 
ATOM     86  C   UNL A   1      47.609  28.869  26.775  1.00  0.00     0.022 A 
BRANCH  84  87
ATOM     87  S   UNL A   1      48.287  31.509  27.115  1.00  0.00     0.127 S 
ATOM     88  O   UNL A   1      49.463  30.909  26.487  1.00  0.00    -0.237 OA
ATOM     89  O   UNL A   1      47.479  32.345  26.225  1.00  0.00    -0.237 OA
ATOM     90  O   UNL A   1      48.504  32.085  28.435  1.00  0.00    -0.744 OA
ENDBRANCH  84  87
ENDBRANCH  57  80
ENDBRANCH  31  32
ENDBRANCH  23  26
ENDBRANCH   1  22
TORSDOF 14
ENDMDL
