MODEL 1
REMARK VINA RESULT:     -12.5      0.000      0.000
REMARK SMILES C[C@@H](Oc1ccccc1Cl)C(=O)N1CC[C@H](C(=O)NCCCNC(=O)c2ccc(-c3c4nc(c(-c5cccc(S(=O)(=O)[O-])c5F)c5ccc([nH]5)c(-c5cccc(S(=O)(=O)[O-])c5F)c5nc(c(-c6cccc(S(=O)(=O)[O-])c6F)c6ccc3[nH]6)C=C5)C=C4)cc2)[C@@H]1C
REMARK SMILES IDX 20 1 19 2 17 3 18 4 16 6 13 7 14 8 89 9 15 10 90 11 11 12
REMARK SMILES IDX 12 13 2 14 1 15 3 16 4 17 5 18 9 19 6 20 8 21 10 22 7 23
REMARK SMILES IDX 21 24 22 25 23 26 24 27 25 29 26 30 27 31 88 32 28 33 87 34
REMARK SMILES IDX 29 35 30 36 31 37 81 38 32 39 86 40 80 41 82 42 33 43 85 44
REMARK SMILES IDX 79 45 78 46 34 48 66 49 46 50 65 51 47 52 50 53 64 54 83 55
REMARK SMILES IDX 48 56 49 57 63 59 84 60 51 61 35 62 36 63 44 64 37 65 39 66
REMARK SMILES IDX 45 67 38 68 40 69 41 70 42 71 43 72 67 73 68 74 76 75 69 76
REMARK SMILES IDX 71 77 77 78 70 79 72 80 73 81 74 82 75 83 52 84 53 85 61 86
REMARK SMILES IDX 54 87 56 88 62 89 55 90 57 91 58 92 59 93 60 94
REMARK H PARENT 19 5 23 28 82 47 50 58
REMARK Flexibility Score: inf
ROOT
ATOM      1  C   UNL A   1      31.699  30.761  26.154  1.00  0.00     0.117 C 
ENDROOT
BRANCH   1   2
ATOM      2  N   UNL A   1      31.023  30.461  24.903  1.00  0.00    -0.356 N 
ATOM      3  C   UNL A   1      30.870  29.300  24.212  1.00  0.00     0.225 C 
ATOM      4  O   UNL A   1      30.261  29.374  23.141  1.00  0.00    -0.275 OA
ATOM      5  H   UNL A   1      30.600  31.242  24.478  1.00  0.00     0.163 HD
BRANCH   3   6
ATOM      6  C   UNL A   1      31.373  27.971  24.771  1.00  0.00     0.102 C 
ATOM      7  N   UNL A   1      32.539  26.339  23.448  1.00  0.00    -0.336 N 
ATOM      8  C   UNL A   1      31.152  26.321  23.036  1.00  0.00     0.121 C 
ATOM      9  C   UNL A   1      32.782  27.481  24.336  1.00  0.00     0.094 C 
ATOM     10  C   UNL A   1      30.451  26.829  24.287  1.00  0.00     0.037 C 
ATOM     11  C   UNL A   1      33.654  28.512  23.629  1.00  0.00     0.032 C 
BRANCH   7  12
ATOM     12  C   UNL A   1      33.381  25.296  23.111  1.00  0.00     0.263 C 
ATOM     13  O   UNL A   1      33.655  25.068  21.926  1.00  0.00    -0.271 OA
BRANCH  12  14
ATOM     14  C   UNL A   1      33.890  24.323  24.197  1.00  0.00     0.259 C 
ATOM     15  C   UNL A   1      33.066  24.280  25.476  1.00  0.00     0.064 C 
BRANCH  14  16
ATOM     16  O   UNL A   1      33.980  23.017  23.595  1.00  0.00    -0.479 OA
BRANCH  16  17
ATOM     17  C   UNL A   1      35.031  22.284  24.079  1.00  0.00     0.139 A 
ATOM     18  C   UNL A   1      36.323  22.812  24.020  1.00  0.00     0.048 A 
ATOM     19  C   UNL A   1      34.827  20.981  24.544  1.00  0.00     0.083 A 
ATOM     20  C   UNL A   1      37.403  22.057  24.482  1.00  0.00     0.004 A 
ATOM     21  C   UNL A   1      35.905  20.239  25.027  1.00  0.00     0.024 A 
ATOM     22  Cl  UNL A   1      33.266  20.246  24.521  1.00  0.00    -0.080 Cl
ATOM     23  C   UNL A   1      37.193  20.779  25.000  1.00  0.00     0.002 A 
ENDBRANCH  16  17
ENDBRANCH  14  16
ENDBRANCH  12  14
ENDBRANCH   7  12
ENDBRANCH   3   6
ENDBRANCH   1   2
BRANCH   1  24
ATOM     24  C   UNL A   1      31.514  32.218  26.581  1.00  0.00     0.042 C 
BRANCH  24  25
ATOM     25  C   UNL A   1      32.662  32.827  27.376  1.00  0.00     0.118 C 
BRANCH  25  26
ATOM     26  N   UNL A   1      32.429  34.211  27.749  1.00  0.00    -0.352 N 
ATOM     27  C   UNL A   1      33.053  34.969  28.714  1.00  0.00     0.251 C 
ATOM     28  H   UNL A   1      31.726  34.672  27.238  1.00  0.00     0.163 HD
ATOM     29  O   UNL A   1      32.607  36.080  28.983  1.00  0.00    -0.269 OA
BRANCH  27  30
ATOM     30  C   UNL A   1      34.231  34.444  29.448  1.00  0.00     0.039 A 
ATOM     31  C   UNL A   1      34.030  33.836  30.690  1.00  0.00     0.014 A 
ATOM     32  C   UNL A   1      35.527  34.559  28.937  1.00  0.00     0.014 A 
ATOM     33  C   UNL A   1      35.114  33.291  31.386  1.00  0.00     0.010 A 
ATOM     34  C   UNL A   1      36.593  33.943  29.592  1.00  0.00     0.010 A 
ATOM     35  C   UNL A   1      36.403  33.309  30.829  1.00  0.00    -0.014 A 
BRANCH  35  36
ATOM     36  C   UNL A   1      37.554  32.662  31.517  1.00  0.00     0.031 A 
ATOM     37  C   UNL A   1      38.277  31.506  30.877  1.00  0.00     0.074 A 
ATOM     38  C   UNL A   1      37.901  33.060  32.759  1.00  0.00     0.049 A 
ATOM     39  N   UNL A   1      39.260  30.783  31.350  1.00  0.00    -0.248 NA
ATOM     40  C   UNL A   1      37.821  31.093  29.540  1.00  0.00     0.031 C 
ATOM     41  C   UNL A   1      37.239  34.119  33.523  1.00  0.00     0.029 A 
ATOM     42  N   UNL A   1      38.877  32.599  33.608  1.00  0.00    -0.354 N 
ATOM     43  C   UNL A   1      39.513  29.809  30.391  1.00  0.00     0.074 A 
ATOM     44  C   UNL A   1      38.561  30.014  29.323  1.00  0.00     0.031 C 
ATOM     45  C   UNL A   1      37.828  34.229  34.724  1.00  0.00     0.029 A 
ATOM     46  C   UNL A   1      38.882  33.225  34.834  1.00  0.00     0.049 A 
ATOM     47  H   UNL A   1      39.513  31.888  33.363  1.00  0.00     0.167 HD
ATOM     48  C   UNL A   1      40.466  28.846  30.386  1.00  0.00     0.034 A 
ATOM     49  C   UNL A   1      39.637  33.009  35.930  1.00  0.00     0.034 A 
ATOM     50  C   UNL A   1      41.434  28.661  31.435  1.00  0.00     0.049 A 
ATOM     51  C   UNL A   1      40.703  31.948  35.892  1.00  0.00     0.074 A 
ATOM     52  C   UNL A   1      42.494  27.772  31.480  1.00  0.00     0.029 A 
ATOM     53  N   UNL A   1      41.455  29.365  32.629  1.00  0.00    -0.354 N 
ATOM     54  N   UNL A   1      41.028  31.139  34.912  1.00  0.00    -0.248 NA
ATOM     55  C   UNL A   1      41.531  31.793  37.097  1.00  0.00     0.031 C 
ATOM     56  C   UNL A   1      43.130  27.910  32.717  1.00  0.00     0.029 A 
ATOM     57  C   UNL A   1      42.495  28.918  33.425  1.00  0.00     0.049 A 
ATOM     58  H   UNL A   1      40.821  30.077  32.875  1.00  0.00     0.167 HD
ATOM     59  C   UNL A   1      42.119  30.407  35.367  1.00  0.00     0.074 A 
ATOM     60  C   UNL A   1      42.411  30.880  36.705  1.00  0.00     0.031 C 
ATOM     61  C   UNL A   1      42.810  29.426  34.737  1.00  0.00     0.034 A 
BRANCH  48  62
ATOM     62  C   UNL A   1      40.532  27.932  29.189  1.00  0.00     0.023 A 
ATOM     63  C   UNL A   1      39.640  26.843  29.089  1.00  0.00     0.012 A 
ATOM     64  C   UNL A   1      41.439  28.177  28.139  1.00  0.00     0.148 A 
ATOM     65  C   UNL A   1      39.680  25.990  27.986  1.00  0.00     0.002 A 
ATOM     66  C   UNL A   1      41.438  27.352  27.020  1.00  0.00     0.091 A 
ATOM     67  F   UNL A   1      42.291  29.206  28.257  1.00  0.00    -0.205 F 
ATOM     68  C   UNL A   1      40.570  26.249  26.949  1.00  0.00     0.022 A 
BRANCH  66  69
ATOM     69  S   UNL A   1      42.486  27.653  25.593  1.00  0.00     0.127 S 
ATOM     70  O   UNL A   1      43.812  27.709  26.208  1.00  0.00    -0.237 OA
ATOM     71  O   UNL A   1      42.244  26.464  24.777  1.00  0.00    -0.237 OA
ATOM     72  O   UNL A   1      42.017  28.899  25.005  1.00  0.00    -0.744 OA
ENDBRANCH  66  69
ENDBRANCH  48  62
BRANCH  49  73
ATOM     73  C   UNL A   1      39.442  33.854  37.142  1.00  0.00     0.023 A 
ATOM     74  C   UNL A   1      39.879  35.192  37.133  1.00  0.00     0.012 A 
ATOM     75  C   UNL A   1      38.800  33.348  38.289  1.00  0.00     0.148 A 
ATOM     76  C   UNL A   1      39.707  36.004  38.255  1.00  0.00     0.002 A 
ATOM     77  C   UNL A   1      38.580  34.178  39.382  1.00  0.00     0.091 A 
ATOM     78  F   UNL A   1      38.400  32.069  38.279  1.00  0.00    -0.205 F 
ATOM     79  C   UNL A   1      39.049  35.501  39.375  1.00  0.00     0.022 A 
BRANCH  77  80
ATOM     80  S   UNL A   1      37.626  33.659  40.812  1.00  0.00     0.127 S 
ATOM     81  O   UNL A   1      38.557  32.754  41.481  1.00  0.00    -0.237 OA
ATOM     82  O   UNL A   1      37.401  34.931  41.499  1.00  0.00    -0.237 OA
ATOM     83  O   UNL A   1      36.419  33.042  40.280  1.00  0.00    -0.744 OA
ENDBRANCH  77  80
ENDBRANCH  49  73
BRANCH  61  84
ATOM     84  C   UNL A   1      43.987  28.818  35.456  1.00  0.00     0.023 A 
ATOM     85  C   UNL A   1      45.279  29.351  35.275  1.00  0.00     0.012 A 
ATOM     86  C   UNL A   1      43.796  27.767  36.375  1.00  0.00     0.148 A 
ATOM     87  C   UNL A   1      46.366  28.826  35.973  1.00  0.00     0.002 A 
ATOM     88  C   UNL A   1      44.874  27.284  37.106  1.00  0.00     0.091 A 
ATOM     89  F   UNL A   1      42.562  27.262  36.520  1.00  0.00    -0.205 F 
ATOM     90  C   UNL A   1      46.163  27.803  36.897  1.00  0.00     0.022 A 
BRANCH  88  91
ATOM     91  S   UNL A   1      44.692  26.038  38.388  1.00  0.00     0.127 S 
ATOM     92  O   UNL A   1      44.157  24.908  37.629  1.00  0.00    -0.237 OA
ATOM     93  O   UNL A   1      46.070  25.866  38.849  1.00  0.00    -0.237 OA
ATOM     94  O   UNL A   1      43.788  26.607  39.378  1.00  0.00    -0.744 OA
ENDBRANCH  88  91
ENDBRANCH  61  84
ENDBRANCH  35  36
ENDBRANCH  27  30
ENDBRANCH  25  26
ENDBRANCH  24  25
ENDBRANCH   1  24
TORSDOF 17
ENDMDL
MODEL 2
REMARK VINA RESULT:     -12.2      6.590     11.871
REMARK SMILES C[C@@H](Oc1ccccc1Cl)C(=O)N1CC[C@H](C(=O)NCCCNC(=O)c2ccc(-c3c4nc(c(-c5cccc(S(=O)(=O)[O-])c5F)c5ccc([nH]5)c(-c5cccc(S(=O)(=O)[O-])c5F)c5nc(c(-c6cccc(S(=O)(=O)[O-])c6F)c6ccc3[nH]6)C=C5)C=C4)cc2)[C@@H]1C
REMARK SMILES IDX 20 1 19 2 17 3 18 4 16 6 13 7 14 8 89 9 15 10 90 11 11 12
REMARK SMILES IDX 12 13 2 14 1 15 3 16 4 17 5 18 9 19 6 20 8 21 10 22 7 23
REMARK SMILES IDX 21 24 22 25 23 26 24 27 25 29 26 30 27 31 88 32 28 33 87 34
REMARK SMILES IDX 29 35 30 36 31 37 81 38 32 39 86 40 80 41 82 42 33 43 85 44
REMARK SMILES IDX 79 45 78 46 34 48 66 49 46 50 65 51 47 52 50 53 64 54 83 55
REMARK SMILES IDX 48 56 49 57 63 59 84 60 51 61 35 62 36 63 44 64 37 65 39 66
REMARK SMILES IDX 45 67 38 68 40 69 41 70 42 71 43 72 67 73 68 74 76 75 69 76
REMARK SMILES IDX 71 77 77 78 70 79 72 80 73 81 74 82 75 83 52 84 53 85 61 86
REMARK SMILES IDX 54 87 56 88 62 89 55 90 57 91 58 92 59 93 60 94
REMARK H PARENT 19 5 23 28 82 47 50 58
REMARK Flexibility Score: inf
ROOT
ATOM      1  C   UNL A   1      36.703  20.739  24.793  1.00  0.00     0.117 C 
ENDROOT
BRANCH   1   2
ATOM      2  N   UNL A   1      35.490  20.064  25.222  1.00  0.00    -0.356 N 
ATOM      3  C   UNL A   1      34.183  20.437  25.185  1.00  0.00     0.225 C 
ATOM      4  O   UNL A   1      33.370  19.644  25.667  1.00  0.00    -0.275 OA
ATOM      5  H   UNL A   1      35.643  19.173  25.613  1.00  0.00     0.163 HD
BRANCH   3   6
ATOM      6  C   UNL A   1      33.750  21.743  24.522  1.00  0.00     0.102 C 
ATOM      7  N   UNL A   1      32.157  23.254  25.499  1.00  0.00    -0.336 N 
ATOM      8  C   UNL A   1      31.429  22.089  25.044  1.00  0.00     0.121 C 
ATOM      9  C   UNL A   1      33.600  23.003  25.418  1.00  0.00     0.094 C 
ATOM     10  C   UNL A   1      32.331  21.573  23.934  1.00  0.00     0.037 C 
ATOM     11  C   UNL A   1      34.187  22.894  26.821  1.00  0.00     0.032 C 
BRANCH   7  12
ATOM     12  C   UNL A   1      31.485  24.424  25.798  1.00  0.00     0.263 C 
ATOM     13  O   UNL A   1      30.655  24.455  26.715  1.00  0.00    -0.271 OA
BRANCH  12  14
ATOM     14  C   UNL A   1      31.668  25.676  24.911  1.00  0.00     0.259 C 
ATOM     15  C   UNL A   1      31.592  25.432  23.410  1.00  0.00     0.064 C 
BRANCH  14  16
ATOM     16  O   UNL A   1      30.687  26.644  25.329  1.00  0.00    -0.479 OA
BRANCH  16  17
ATOM     17  C   UNL A   1      31.251  27.827  25.729  1.00  0.00     0.139 A 
ATOM     18  C   UNL A   1      31.896  27.899  26.966  1.00  0.00     0.048 A 
ATOM     19  C   UNL A   1      31.102  28.978  24.948  1.00  0.00     0.083 A 
ATOM     20  C   UNL A   1      32.444  29.109  27.393  1.00  0.00     0.004 A 
ATOM     21  C   UNL A   1      31.672  30.181  25.367  1.00  0.00     0.024 A 
ATOM     22  Cl  UNL A   1      30.208  28.962  23.473  1.00  0.00    -0.080 Cl
ATOM     23  C   UNL A   1      32.347  30.245  26.589  1.00  0.00     0.002 A 
ENDBRANCH  16  17
ENDBRANCH  14  16
ENDBRANCH  12  14
ENDBRANCH   7  12
ENDBRANCH   3   6
ENDBRANCH   1   2
BRANCH   1  24
ATOM     24  C   UNL A   1      37.925  19.818  24.825  1.00  0.00     0.042 C 
BRANCH  24  25
ATOM     25  C   UNL A   1      39.049  20.241  25.761  1.00  0.00     0.118 C 
BRANCH  25  26
ATOM     26  N   UNL A   1      40.090  19.238  25.893  1.00  0.00    -0.352 N 
ATOM     27  C   UNL A   1      41.435  19.407  26.138  1.00  0.00     0.251 C 
ATOM     28  H   UNL A   1      39.792  18.306  25.794  1.00  0.00     0.163 HD
ATOM     29  O   UNL A   1      42.183  18.437  26.062  1.00  0.00    -0.269 OA
BRANCH  27  30
ATOM     30  C   UNL A   1      41.987  20.746  26.460  1.00  0.00     0.039 A 
ATOM     31  C   UNL A   1      42.182  21.658  25.418  1.00  0.00     0.014 A 
ATOM     32  C   UNL A   1      42.327  21.107  27.766  1.00  0.00     0.014 A 
ATOM     33  C   UNL A   1      42.657  22.944  25.693  1.00  0.00     0.010 A 
ATOM     34  C   UNL A   1      42.722  22.415  28.049  1.00  0.00     0.010 A 
ATOM     35  C   UNL A   1      42.900  23.347  27.016  1.00  0.00    -0.014 A 
BRANCH  35  36
ATOM     36  C   UNL A   1      43.328  24.738  27.336  1.00  0.00     0.031 A 
ATOM     37  C   UNL A   1      42.353  25.721  27.927  1.00  0.00     0.074 A 
ATOM     38  C   UNL A   1      44.575  25.144  27.019  1.00  0.00     0.049 A 
ATOM     39  N   UNL A   1      42.528  26.985  28.216  1.00  0.00    -0.248 NA
ATOM     40  C   UNL A   1      40.996  25.227  28.209  1.00  0.00     0.031 C 
ATOM     41  C   UNL A   1      45.597  24.314  26.377  1.00  0.00     0.029 A 
ATOM     42  N   UNL A   1      45.184  26.366  27.166  1.00  0.00    -0.354 N 
ATOM     43  C   UNL A   1      41.300  27.446  28.675  1.00  0.00     0.074 A 
ATOM     44  C   UNL A   1      40.379  26.334  28.597  1.00  0.00     0.031 C 
ATOM     45  C   UNL A   1      46.705  25.048  26.189  1.00  0.00     0.029 A 
ATOM     46  C   UNL A   1      46.463  26.409  26.658  1.00  0.00     0.049 A 
ATOM     47  H   UNL A   1      44.748  27.138  27.593  1.00  0.00     0.167 HD
ATOM     48  C   UNL A   1      40.971  28.675  29.142  1.00  0.00     0.034 A 
ATOM     49  C   UNL A   1      47.339  27.430  26.563  1.00  0.00     0.034 A 
ATOM     50  C   UNL A   1      41.895  29.773  29.249  1.00  0.00     0.049 A 
ATOM     51  C   UNL A   1      46.958  28.780  27.108  1.00  0.00     0.074 A 
ATOM     52  C   UNL A   1      41.680  31.028  29.791  1.00  0.00     0.029 A 
ATOM     53  N   UNL A   1      43.204  29.756  28.792  1.00  0.00    -0.354 N 
ATOM     54  N   UNL A   1      45.839  29.153  27.681  1.00  0.00    -0.248 NA
ATOM     55  C   UNL A   1      47.973  29.841  27.027  1.00  0.00     0.031 C 
ATOM     56  C   UNL A   1      42.846  31.783  29.626  1.00  0.00     0.029 A 
ATOM     57  C   UNL A   1      43.803  30.983  29.022  1.00  0.00     0.049 A 
ATOM     58  H   UNL A   1      43.642  28.985  28.365  1.00  0.00     0.167 HD
ATOM     59  C   UNL A   1      46.028  30.476  28.062  1.00  0.00     0.074 A 
ATOM     60  C   UNL A   1      47.375  30.836  27.669  1.00  0.00     0.031 C 
ATOM     61  C   UNL A   1      45.160  31.320  28.672  1.00  0.00     0.034 A 
BRANCH  48  62
ATOM     62  C   UNL A   1      39.553  28.892  29.607  1.00  0.00     0.023 A 
ATOM     63  C   UNL A   1      39.172  28.490  30.904  1.00  0.00     0.012 A 
ATOM     64  C   UNL A   1      38.611  29.539  28.782  1.00  0.00     0.148 A 
ATOM     65  C   UNL A   1      37.867  28.687  31.356  1.00  0.00     0.002 A 
ATOM     66  C   UNL A   1      37.327  29.778  29.259  1.00  0.00     0.091 A 
ATOM     67  F   UNL A   1      38.984  29.900  27.546  1.00  0.00    -0.205 F 
ATOM     68  C   UNL A   1      36.949  29.339  30.539  1.00  0.00     0.022 A 
BRANCH  66  69
ATOM     69  S   UNL A   1      36.098  30.686  28.316  1.00  0.00     0.127 S 
ATOM     70  O   UNL A   1      36.808  31.931  28.028  1.00  0.00    -0.237 OA
ATOM     71  O   UNL A   1      35.898  29.818  27.155  1.00  0.00    -0.237 OA
ATOM     72  O   UNL A   1      34.938  30.815  29.185  1.00  0.00    -0.744 OA
ENDBRANCH  66  69
ENDBRANCH  48  62
BRANCH  49  73
ATOM     73  C   UNL A   1      48.686  27.197  25.970  1.00  0.00     0.023 A 
ATOM     74  C   UNL A   1      49.713  26.656  26.768  1.00  0.00     0.012 A 
ATOM     75  C   UNL A   1      48.947  27.479  24.615  1.00  0.00     0.148 A 
ATOM     76  C   UNL A   1      50.983  26.428  26.236  1.00  0.00     0.002 A 
ATOM     77  C   UNL A   1      50.196  27.196  24.076  1.00  0.00     0.091 A 
ATOM     78  F   UNL A   1      47.958  28.001  23.875  1.00  0.00    -0.205 F 
ATOM     79  C   UNL A   1      51.221  26.688  24.889  1.00  0.00     0.022 A 
BRANCH  77  80
ATOM     80  S   UNL A   1      50.555  27.371  22.326  1.00  0.00     0.127 S 
ATOM     81  O   UNL A   1      50.441  28.815  22.139  1.00  0.00    -0.237 OA
ATOM     82  O   UNL A   1      51.917  26.843  22.245  1.00  0.00    -0.237 OA
ATOM     83  O   UNL A   1      49.557  26.565  21.634  1.00  0.00    -0.744 OA
ENDBRANCH  77  80
ENDBRANCH  49  73
BRANCH  61  84
ATOM     84  C   UNL A   1      45.642  32.708  29.006  1.00  0.00     0.023 A 
ATOM     85  C   UNL A   1      46.359  32.941  30.196  1.00  0.00     0.012 A 
ATOM     86  C   UNL A   1      45.451  33.768  28.096  1.00  0.00     0.148 A 
ATOM     87  C   UNL A   1      46.851  34.213  30.490  1.00  0.00     0.002 A 
ATOM     88  C   UNL A   1      45.989  35.019  28.370  1.00  0.00     0.091 A 
ATOM     89  F   UNL A   1      44.751  33.530  26.977  1.00  0.00    -0.205 F 
ATOM     90  C   UNL A   1      46.678  35.247  29.573  1.00  0.00     0.022 A 
BRANCH  88  91
ATOM     91  S   UNL A   1      45.902  36.383  27.205  1.00  0.00     0.127 S 
ATOM     92  O   UNL A   1      46.534  35.803  26.020  1.00  0.00    -0.237 OA
ATOM     93  O   UNL A   1      44.459  36.594  27.084  1.00  0.00    -0.237 OA
ATOM     94  O   UNL A   1      46.626  37.486  27.819  1.00  0.00    -0.744 OA
ENDBRANCH  88  91
ENDBRANCH  61  84
ENDBRANCH  35  36
ENDBRANCH  27  30
ENDBRANCH  25  26
ENDBRANCH  24  25
ENDBRANCH   1  24
TORSDOF 17
ENDMDL
MODEL 3
REMARK VINA RESULT:     -12.1      1.696      2.228
REMARK SMILES C[C@@H](Oc1ccccc1Cl)C(=O)N1CC[C@H](C(=O)NCCCNC(=O)c2ccc(-c3c4nc(c(-c5cccc(S(=O)(=O)[O-])c5F)c5ccc([nH]5)c(-c5cccc(S(=O)(=O)[O-])c5F)c5nc(c(-c6cccc(S(=O)(=O)[O-])c6F)c6ccc3[nH]6)C=C5)C=C4)cc2)[C@@H]1C
REMARK SMILES IDX 20 1 19 2 17 3 18 4 16 6 13 7 14 8 89 9 15 10 90 11 11 12
REMARK SMILES IDX 12 13 2 14 1 15 3 16 4 17 5 18 9 19 6 20 8 21 10 22 7 23
REMARK SMILES IDX 21 24 22 25 23 26 24 27 25 29 26 30 27 31 88 32 28 33 87 34
REMARK SMILES IDX 29 35 30 36 31 37 81 38 32 39 86 40 80 41 82 42 33 43 85 44
REMARK SMILES IDX 79 45 78 46 34 48 66 49 46 50 65 51 47 52 50 53 64 54 83 55
REMARK SMILES IDX 48 56 49 57 63 59 84 60 51 61 35 62 36 63 44 64 37 65 39 66
REMARK SMILES IDX 45 67 38 68 40 69 41 70 42 71 43 72 67 73 68 74 76 75 69 76
REMARK SMILES IDX 71 77 77 78 70 79 72 80 73 81 74 82 75 83 52 84 53 85 61 86
REMARK SMILES IDX 54 87 56 88 62 89 55 90 57 91 58 92 59 93 60 94
REMARK H PARENT 19 5 23 28 82 47 50 58
REMARK Flexibility Score: inf
ROOT
ATOM      1  C   UNL A   1      31.344  30.839  25.960  1.00  0.00     0.117 C 
ENDROOT
BRANCH   1   2
ATOM      2  N   UNL A   1      30.651  30.711  24.689  1.00  0.00    -0.356 N 
ATOM      3  C   UNL A   1      30.449  29.645  23.871  1.00  0.00     0.225 C 
ATOM      4  O   UNL A   1      29.838  29.865  22.821  1.00  0.00    -0.275 OA
ATOM      5  H   UNL A   1      30.257  31.552  24.361  1.00  0.00     0.163 HD
BRANCH   3   6
ATOM      6  C   UNL A   1      30.902  28.242  24.269  1.00  0.00     0.102 C 
ATOM      7  N   UNL A   1      32.189  26.813  22.828  1.00  0.00    -0.336 N 
ATOM      8  C   UNL A   1      30.846  26.871  22.294  1.00  0.00     0.121 C 
ATOM      9  C   UNL A   1      32.347  27.807  23.895  1.00  0.00     0.094 C 
ATOM     10  C   UNL A   1      30.032  27.195  23.537  1.00  0.00     0.037 C 
ATOM     11  C   UNL A   1      33.277  28.922  23.433  1.00  0.00     0.032 C 
BRANCH   7  12
ATOM     12  C   UNL A   1      33.062  25.823  22.417  1.00  0.00     0.263 C 
ATOM     13  O   UNL A   1      33.657  25.919  21.336  1.00  0.00    -0.271 OA
BRANCH  12  14
ATOM     14  C   UNL A   1      33.210  24.523  23.240  1.00  0.00     0.259 C 
ATOM     15  C   UNL A   1      33.858  23.356  22.510  1.00  0.00     0.064 C 
BRANCH  14  16
ATOM     16  O   UNL A   1      33.939  24.855  24.437  1.00  0.00    -0.479 OA
BRANCH  16  17
ATOM     17  C   UNL A   1      33.612  24.048  25.495  1.00  0.00     0.139 A 
ATOM     18  C   UNL A   1      32.302  24.050  25.983  1.00  0.00     0.048 A 
ATOM     19  C   UNL A   1      34.599  23.297  26.141  1.00  0.00     0.083 A 
ATOM     20  C   UNL A   1      31.970  23.255  27.081  1.00  0.00     0.004 A 
ATOM     21  C   UNL A   1      34.257  22.484  27.222  1.00  0.00     0.024 A 
ATOM     22  Cl  UNL A   1      36.251  23.358  25.646  1.00  0.00    -0.080 Cl
ATOM     23  C   UNL A   1      32.941  22.461  27.690  1.00  0.00     0.002 A 
ENDBRANCH  16  17
ENDBRANCH  14  16
ENDBRANCH  12  14
ENDBRANCH   7  12
ENDBRANCH   3   6
ENDBRANCH   1   2
BRANCH   1  24
ATOM     24  C   UNL A   1      31.295  32.267  26.509  1.00  0.00     0.042 C 
BRANCH  24  25
ATOM     25  C   UNL A   1      32.639  32.880  26.883  1.00  0.00     0.118 C 
BRANCH  25  26
ATOM     26  N   UNL A   1      32.516  34.170  27.537  1.00  0.00    -0.352 N 
ATOM     27  C   UNL A   1      33.218  34.671  28.611  1.00  0.00     0.251 C 
ATOM     28  H   UNL A   1      31.836  34.771  27.159  1.00  0.00     0.163 HD
ATOM     29  O   UNL A   1      32.861  35.730  29.117  1.00  0.00    -0.269 OA
BRANCH  27  30
ATOM     30  C   UNL A   1      34.373  33.931  29.175  1.00  0.00     0.039 A 
ATOM     31  C   UNL A   1      35.663  34.404  28.915  1.00  0.00     0.014 A 
ATOM     32  C   UNL A   1      34.204  32.774  29.941  1.00  0.00     0.014 A 
ATOM     33  C   UNL A   1      36.771  33.756  29.469  1.00  0.00     0.010 A 
ATOM     34  C   UNL A   1      35.303  32.179  30.560  1.00  0.00     0.010 A 
ATOM     35  C   UNL A   1      36.601  32.657  30.326  1.00  0.00    -0.014 A 
BRANCH  35  36
ATOM     36  C   UNL A   1      37.764  32.005  30.991  1.00  0.00     0.031 A 
ATOM     37  C   UNL A   1      38.587  30.978  30.259  1.00  0.00     0.074 A 
ATOM     38  C   UNL A   1      38.033  32.276  32.284  1.00  0.00     0.049 A 
ATOM     39  N   UNL A   1      39.596  30.266  30.693  1.00  0.00    -0.248 NA
ATOM     40  C   UNL A   1      38.214  30.696  28.863  1.00  0.00     0.031 C 
ATOM     41  C   UNL A   1      37.273  33.196  33.132  1.00  0.00     0.029 A 
ATOM     42  N   UNL A   1      39.003  31.780  33.122  1.00  0.00    -0.354 N 
ATOM     43  C   UNL A   1      39.951  29.427  29.643  1.00  0.00     0.074 A 
ATOM     44  C   UNL A   1      39.031  29.698  28.560  1.00  0.00     0.031 C 
ATOM     45  C   UNL A   1      37.804  33.201  34.364  1.00  0.00     0.029 A 
ATOM     46  C   UNL A   1      38.917  32.258  34.410  1.00  0.00     0.049 A 
ATOM     47  H   UNL A   1      39.694  31.142  32.829  1.00  0.00     0.167 HD
ATOM     48  C   UNL A   1      40.965  28.531  29.574  1.00  0.00     0.034 A 
ATOM     49  C   UNL A   1      39.640  31.961  35.509  1.00  0.00     0.034 A 
ATOM     50  C   UNL A   1      41.900  28.285  30.639  1.00  0.00     0.049 A 
ATOM     51  C   UNL A   1      40.774  30.979  35.402  1.00  0.00     0.074 A 
ATOM     52  C   UNL A   1      43.013  27.463  30.634  1.00  0.00     0.029 A 
ATOM     53  N   UNL A   1      41.825  28.844  31.906  1.00  0.00    -0.354 N 
ATOM     54  N   UNL A   1      41.191  30.311  34.353  1.00  0.00    -0.248 NA
ATOM     55  C   UNL A   1      41.561  30.735  36.619  1.00  0.00     0.031 C 
ATOM     56  C   UNL A   1      43.589  27.494  31.908  1.00  0.00     0.029 A 
ATOM     57  C   UNL A   1      42.860  28.372  32.695  1.00  0.00     0.049 A 
ATOM     58  H   UNL A   1      41.137  29.483  32.200  1.00  0.00     0.167 HD
ATOM     59  C   UNL A   1      42.308  29.599  34.773  1.00  0.00     0.074 A 
ATOM     60  C   UNL A   1      42.514  29.930  36.169  1.00  0.00     0.031 C 
ATOM     61  C   UNL A   1      43.087  28.742  34.069  1.00  0.00     0.034 A 
BRANCH  48  62
ATOM     62  C   UNL A   1      41.140  27.769  28.284  1.00  0.00     0.023 A 
ATOM     63  C   UNL A   1      41.660  28.423  27.148  1.00  0.00     0.012 A 
ATOM     64  C   UNL A   1      40.839  26.394  28.210  1.00  0.00     0.148 A 
ATOM     65  C   UNL A   1      41.836  27.734  25.948  1.00  0.00     0.002 A 
ATOM     66  C   UNL A   1      41.065  25.703  27.025  1.00  0.00     0.091 A 
ATOM     67  F   UNL A   1      40.329  25.791  29.293  1.00  0.00    -0.205 F 
ATOM     68  C   UNL A   1      41.548  26.374  25.890  1.00  0.00     0.022 A 
BRANCH  66  69
ATOM     69  S   UNL A   1      40.807  23.932  26.873  1.00  0.00     0.127 S 
ATOM     70  O   UNL A   1      39.361  23.861  26.669  1.00  0.00    -0.237 OA
ATOM     71  O   UNL A   1      41.605  23.606  25.690  1.00  0.00    -0.237 OA
ATOM     72  O   UNL A   1      41.293  23.346  28.113  1.00  0.00    -0.744 OA
ENDBRANCH  66  69
ENDBRANCH  48  62
BRANCH  49  73
ATOM     73  C   UNL A   1      39.340  32.646  36.798  1.00  0.00     0.023 A 
ATOM     74  C   UNL A   1      39.999  33.850  37.115  1.00  0.00     0.012 A 
ATOM     75  C   UNL A   1      38.386  32.128  37.696  1.00  0.00     0.148 A 
ATOM     76  C   UNL A   1      39.735  34.511  38.316  1.00  0.00     0.002 A 
ATOM     77  C   UNL A   1      38.086  32.821  38.863  1.00  0.00     0.091 A 
ATOM     78  F   UNL A   1      37.777  30.977  37.379  1.00  0.00    -0.205 F 
ATOM     79  C   UNL A   1      38.772  34.002  39.184  1.00  0.00     0.022 A 
BRANCH  77  80
ATOM     80  S   UNL A   1      36.769  32.315  39.974  1.00  0.00     0.127 S 
ATOM     81  O   UNL A   1      35.604  32.355  39.095  1.00  0.00    -0.237 OA
ATOM     82  O   UNL A   1      37.204  30.974  40.364  1.00  0.00    -0.237 OA
ATOM     83  O   UNL A   1      36.772  33.287  41.060  1.00  0.00    -0.744 OA
ENDBRANCH  77  80
ENDBRANCH  49  73
BRANCH  61  84
ATOM     84  C   UNL A   1      44.272  28.127  34.770  1.00  0.00     0.023 A 
ATOM     85  C   UNL A   1      45.515  28.792  34.774  1.00  0.00     0.012 A 
ATOM     86  C   UNL A   1      44.128  26.926  35.494  1.00  0.00     0.148 A 
ATOM     87  C   UNL A   1      46.603  28.254  35.461  1.00  0.00     0.002 A 
ATOM     88  C   UNL A   1      45.202  26.424  36.218  1.00  0.00     0.091 A 
ATOM     89  F   UNL A   1      42.943  26.300  35.463  1.00  0.00    -0.205 F 
ATOM     90  C   UNL A   1      46.444  27.079  36.193  1.00  0.00     0.022 A 
BRANCH  88  91
ATOM     91  S   UNL A   1      45.063  24.973  37.268  1.00  0.00     0.127 S 
ATOM     92  O   UNL A   1      43.986  25.365  38.176  1.00  0.00    -0.237 OA
ATOM     93  O   UNL A   1      44.701  23.930  36.307  1.00  0.00    -0.237 OA
ATOM     94  O   UNL A   1      46.368  24.797  37.889  1.00  0.00    -0.744 OA
ENDBRANCH  88  91
ENDBRANCH  61  84
ENDBRANCH  35  36
ENDBRANCH  27  30
ENDBRANCH  25  26
ENDBRANCH  24  25
ENDBRANCH   1  24
TORSDOF 17
ENDMDL
