MODEL 1
REMARK VINA RESULT:     -12.6      0.000      0.000
REMARK SMILES O=C(NCCCNC(=O)c1cc(S(=O)(=O)Nc2ccc(F)c(C(F)(F)F)c2)c[nH]1)c1ccc(-c2c3nc(c(-c4cccc(S(=O)(=O)[O-])c4F)c4ccc([nH]4)c(-c4cccc(S(=O)(=O)[O-])c4F)c4nc(c(-c5cccc(S(=O)(=O)[O-])c5F)c5ccc2[nH]5)C=C4)C=C3)cc1
REMARK SMILES IDX 5 1 4 2 3 3 1 4 2 5 30 7 31 8 92 9 32 10 91 11 33 12 34 13
REMARK SMILES IDX 35 14 85 15 36 16 90 17 84 18 86 19 37 20 89 21 83 22 82 23
REMARK SMILES IDX 38 25 70 26 50 27 69 28 51 29 54 30 68 31 87 32 52 33 53 34
REMARK SMILES IDX 67 36 88 37 55 38 39 39 40 40 48 41 41 42 43 43 49 44 42 45
REMARK SMILES IDX 44 46 45 47 46 48 47 49 71 50 72 51 80 52 73 53 75 54 81 55
REMARK SMILES IDX 74 56 76 57 77 58 78 59 79 60 56 61 57 62 65 63 58 64 60 65
REMARK SMILES IDX 66 66 59 67 61 68 62 69 63 70 64 71 6 72 7 73 8 74 9 76
REMARK SMILES IDX 10 77 11 78 29 79 12 80 28 81 13 83 14 84 15 85 16 86 17 88
REMARK SMILES IDX 18 89 27 90 19 91 22 92 20 93 21 94 23 95 24 96 25 97 26 98
REMARK H PARENT 3 6 86 24 54 35 7 75 29 82 16 87
REMARK Flexibility Score: inf
ROOT
ATOM      1  C   UNL A   1      36.433  22.987  26.453  1.00  0.00     0.042 C 
ENDROOT
BRANCH   1   2
ATOM      2  C   UNL A   1      37.394  24.100  26.055  1.00  0.00     0.118 C 
BRANCH   2   3
ATOM      3  N   UNL A   1      38.797  23.732  26.051  1.00  0.00    -0.352 N 
ATOM      4  O   UNL A   1      40.959  23.614  26.540  1.00  0.00    -0.269 OA
ATOM      5  C   UNL A   1      39.908  24.240  26.680  1.00  0.00     0.251 C 
ATOM      6  H   UNL A   1      38.994  22.957  25.477  1.00  0.00     0.163 HD
BRANCH   5   7
ATOM      7  C   UNL A   1      39.907  25.525  27.428  1.00  0.00     0.039 A 
ATOM      8  C   UNL A   1      39.450  25.656  28.740  1.00  0.00     0.014 A 
ATOM      9  C   UNL A   1      40.410  26.658  26.764  1.00  0.00     0.014 A 
ATOM     10  C   UNL A   1      39.384  26.908  29.341  1.00  0.00     0.010 A 
ATOM     11  C   UNL A   1      40.392  27.910  27.378  1.00  0.00     0.010 A 
ATOM     12  C   UNL A   1      39.867  28.033  28.666  1.00  0.00    -0.014 A 
BRANCH  12  13
ATOM     13  C   UNL A   1      40.013  29.273  29.462  1.00  0.00     0.031 A 
ATOM     14  C   UNL A   1      38.796  30.212  29.221  1.00  0.00     0.074 A 
ATOM     15  C   UNL A   1      41.192  29.426  30.147  1.00  0.00     0.049 A 
ATOM     16  N   UNL A   1      38.743  31.507  29.110  1.00  0.00    -0.248 NA
ATOM     17  C   UNL A   1      37.466  29.611  28.915  1.00  0.00     0.031 C 
ATOM     18  C   UNL A   1      42.237  28.382  30.287  1.00  0.00     0.029 A 
ATOM     19  N   UNL A   1      41.770  30.464  30.854  1.00  0.00    -0.354 N 
ATOM     20  C   UNL A   1      37.372  31.870  28.982  1.00  0.00     0.074 A 
ATOM     21  C   UNL A   1      36.663  30.660  28.716  1.00  0.00     0.031 C 
ATOM     22  C   UNL A   1      43.326  28.861  30.931  1.00  0.00     0.029 A 
ATOM     23  C   UNL A   1      43.104  30.249  31.298  1.00  0.00     0.049 A 
ATOM     24  H   UNL A   1      41.288  31.303  31.039  1.00  0.00     0.167 HD
ATOM     25  C   UNL A   1      36.902  33.127  29.255  1.00  0.00     0.034 A 
ATOM     26  C   UNL A   1      43.980  31.136  31.873  1.00  0.00     0.034 A 
ATOM     27  C   UNL A   1      37.995  33.930  29.695  1.00  0.00     0.049 A 
ATOM     28  C   UNL A   1      43.196  32.356  32.107  1.00  0.00     0.074 A 
ATOM     29  C   UNL A   1      39.030  34.543  29.045  1.00  0.00     0.029 A 
ATOM     30  N   UNL A   1      38.255  33.871  31.041  1.00  0.00    -0.354 N 
ATOM     31  N   UNL A   1      42.269  32.479  33.010  1.00  0.00    -0.248 NA
ATOM     32  C   UNL A   1      43.372  33.491  31.191  1.00  0.00     0.031 C 
ATOM     33  C   UNL A   1      40.091  34.436  29.965  1.00  0.00     0.029 A 
ATOM     34  C   UNL A   1      39.611  33.961  31.192  1.00  0.00     0.049 A 
ATOM     35  H   UNL A   1      37.590  33.781  31.762  1.00  0.00     0.167 HD
ATOM     36  C   UNL A   1      41.535  33.527  32.519  1.00  0.00     0.074 A 
ATOM     37  C   UNL A   1      42.417  34.284  31.660  1.00  0.00     0.031 C 
ATOM     38  C   UNL A   1      40.189  33.400  32.389  1.00  0.00     0.034 A 
BRANCH  25  39
ATOM     39  C   UNL A   1      35.535  33.764  29.435  1.00  0.00     0.023 A 
ATOM     40  C   UNL A   1      34.924  34.228  28.229  1.00  0.00     0.012 A 
ATOM     41  C   UNL A   1      34.961  34.199  30.641  1.00  0.00     0.148 A 
ATOM     42  C   UNL A   1      33.919  35.192  28.207  1.00  0.00     0.002 A 
ATOM     43  C   UNL A   1      33.908  35.128  30.614  1.00  0.00     0.091 A 
ATOM     44  F   UNL A   1      35.473  33.779  31.802  1.00  0.00    -0.205 F 
ATOM     45  C   UNL A   1      33.424  35.658  29.407  1.00  0.00     0.022 A 
BRANCH  43  46
ATOM     46  S   UNL A   1      33.086  35.729  32.096  1.00  0.00     0.127 S 
ATOM     47  O   UNL A   1      34.185  36.365  32.819  1.00  0.00    -0.237 OA
ATOM     48  O   UNL A   1      32.107  36.667  31.539  1.00  0.00    -0.237 OA
ATOM     49  O   UNL A   1      32.491  34.555  32.720  1.00  0.00    -0.744 OA
ENDBRANCH  43  46
ENDBRANCH  25  39
BRANCH  26  50
ATOM     50  C   UNL A   1      45.470  31.222  32.170  1.00  0.00     0.023 A 
ATOM     51  C   UNL A   1      46.018  31.433  33.441  1.00  0.00     0.012 A 
ATOM     52  C   UNL A   1      46.419  30.961  31.130  1.00  0.00     0.148 A 
ATOM     53  C   UNL A   1      47.402  31.273  33.680  1.00  0.00     0.002 A 
ATOM     54  C   UNL A   1      47.752  30.659  31.390  1.00  0.00     0.091 A 
ATOM     55  F   UNL A   1      46.043  31.039  29.849  1.00  0.00    -0.205 F 
ATOM     56  C   UNL A   1      48.258  30.831  32.672  1.00  0.00     0.022 A 
BRANCH  54  57
ATOM     57  S   UNL A   1      48.809  29.875  30.152  1.00  0.00     0.127 S 
ATOM     58  O   UNL A   1      47.854  29.090  29.374  1.00  0.00    -0.237 OA
ATOM     59  O   UNL A   1      49.356  31.042  29.458  1.00  0.00    -0.237 OA
ATOM     60  O   UNL A   1      49.794  29.093  30.888  1.00  0.00    -0.744 OA
ENDBRANCH  54  57
ENDBRANCH  26  50
BRANCH  38  61
ATOM     61  C   UNL A   1      39.530  32.418  33.353  1.00  0.00     0.023 A 
ATOM     62  C   UNL A   1      39.130  31.175  32.825  1.00  0.00     0.012 A 
ATOM     63  C   UNL A   1      39.207  32.674  34.708  1.00  0.00     0.148 A 
ATOM     64  C   UNL A   1      38.445  30.233  33.600  1.00  0.00     0.002 A 
ATOM     65  C   UNL A   1      38.508  31.741  35.481  1.00  0.00     0.091 A 
ATOM     66  F   UNL A   1      39.586  33.829  35.244  1.00  0.00    -0.205 F 
ATOM     67  C   UNL A   1      38.135  30.513  34.925  1.00  0.00     0.022 A 
BRANCH  65  68
ATOM     68  S   UNL A   1      37.979  32.044  37.183  1.00  0.00     0.127 S 
ATOM     69  O   UNL A   1      37.369  30.764  37.556  1.00  0.00    -0.237 OA
ATOM     70  O   UNL A   1      39.246  32.319  37.854  1.00  0.00    -0.237 OA
ATOM     71  O   UNL A   1      37.035  33.155  37.135  1.00  0.00    -0.744 OA
ENDBRANCH  65  68
ENDBRANCH  38  61
ENDBRANCH  12  13
ENDBRANCH   5   7
ENDBRANCH   2   3
ENDBRANCH   1   2
BRANCH   1  72
ATOM     72  C   UNL A   1      34.985  23.286  26.100  1.00  0.00     0.118 C 
BRANCH  72  73
ATOM     73  N   UNL A   1      34.333  22.138  25.486  1.00  0.00    -0.351 N 
ATOM     74  C   UNL A   1      33.160  22.054  24.781  1.00  0.00     0.267 C 
ATOM     75  H   UNL A   1      34.811  21.285  25.596  1.00  0.00     0.163 HD
ATOM     76  O   UNL A   1      32.636  20.948  24.658  1.00  0.00    -0.268 OA
BRANCH  74  77
ATOM     77  C   UNL A   1      32.600  23.233  24.160  1.00  0.00     0.105 A 
ATOM     78  C   UNL A   1      33.167  24.150  23.298  1.00  0.00     0.055 A 
ATOM     79  N   UNL A   1      31.265  23.571  24.246  1.00  0.00    -0.356 N 
ATOM     80  C   UNL A   1      32.162  24.996  22.787  1.00  0.00     0.106 A 
ATOM     81  C   UNL A   1      30.993  24.645  23.433  1.00  0.00     0.105 A 
ATOM     82  H   UNL A   1      30.602  23.109  24.808  1.00  0.00     0.166 HD
BRANCH  80  83
ATOM     83  S   UNL A   1      32.353  26.150  21.505  1.00  0.00     0.263 S 
ATOM     84  O   UNL A   1      33.373  25.557  20.670  1.00  0.00    -0.201 OA
ATOM     85  O   UNL A   1      31.003  26.364  21.027  1.00  0.00    -0.201 OA
BRANCH  83  86
ATOM     86  N   UNL A   1      32.904  27.651  22.048  1.00  0.00    -0.280 N 
ATOM     87  H   UNL A   1      33.611  28.106  21.536  1.00  0.00     0.180 HD
BRANCH  86  88
ATOM     88  C   UNL A   1      32.392  28.288  23.215  1.00  0.00     0.050 A 
ATOM     89  C   UNL A   1      31.089  28.780  23.304  1.00  0.00     0.030 A 
ATOM     90  C   UNL A   1      33.269  28.472  24.294  1.00  0.00     0.043 A 
ATOM     91  C   UNL A   1      30.719  29.575  24.392  1.00  0.00     0.042 A 
ATOM     92  C   UNL A   1      32.892  29.247  25.409  1.00  0.00     0.093 A 
ATOM     93  C   UNL A   1      31.622  29.811  25.425  1.00  0.00     0.135 A 
ATOM     94  F   UNL A   1      31.238  30.605  26.433  1.00  0.00    -0.206 F 
BRANCH  92  95
ATOM     95  C   UNL A   1      33.853  29.454  26.547  1.00  0.00     0.419 C 
ATOM     96  F   UNL A   1      33.349  28.979  27.720  1.00  0.00    -0.166 F 
ATOM     97  F   UNL A   1      35.024  28.791  26.343  1.00  0.00    -0.166 F 
ATOM     98  F   UNL A   1      34.190  30.749  26.780  1.00  0.00    -0.166 F 
ENDBRANCH  92  95
ENDBRANCH  86  88
ENDBRANCH  83  86
ENDBRANCH  80  83
ENDBRANCH  74  77
ENDBRANCH  72  73
ENDBRANCH   1  72
TORSDOF 17
ENDMDL
MODEL 2
REMARK VINA RESULT:     -12.5      4.397     10.145
REMARK SMILES O=C(NCCCNC(=O)c1cc(S(=O)(=O)Nc2ccc(F)c(C(F)(F)F)c2)c[nH]1)c1ccc(-c2c3nc(c(-c4cccc(S(=O)(=O)[O-])c4F)c4ccc([nH]4)c(-c4cccc(S(=O)(=O)[O-])c4F)c4nc(c(-c5cccc(S(=O)(=O)[O-])c5F)c5ccc2[nH]5)C=C4)C=C3)cc1
REMARK SMILES IDX 5 1 4 2 3 3 1 4 2 5 30 7 31 8 92 9 32 10 91 11 33 12 34 13
REMARK SMILES IDX 35 14 85 15 36 16 90 17 84 18 86 19 37 20 89 21 83 22 82 23
REMARK SMILES IDX 38 25 70 26 50 27 69 28 51 29 54 30 68 31 87 32 52 33 53 34
REMARK SMILES IDX 67 36 88 37 55 38 39 39 40 40 48 41 41 42 43 43 49 44 42 45
REMARK SMILES IDX 44 46 45 47 46 48 47 49 71 50 72 51 80 52 73 53 75 54 81 55
REMARK SMILES IDX 74 56 76 57 77 58 78 59 79 60 56 61 57 62 65 63 58 64 60 65
REMARK SMILES IDX 66 66 59 67 61 68 62 69 63 70 64 71 6 72 7 73 8 74 9 76
REMARK SMILES IDX 10 77 11 78 29 79 12 80 28 81 13 83 14 84 15 85 16 86 17 88
REMARK SMILES IDX 18 89 27 90 19 91 22 92 20 93 21 94 23 95 24 96 25 97 26 98
REMARK H PARENT 3 6 86 24 54 35 7 75 29 82 16 87
REMARK Flexibility Score: inf
ROOT
ATOM      1  C   UNL A   1      33.125  28.856  26.430  1.00  0.00     0.042 C 
ENDROOT
BRANCH   1   2
ATOM      2  C   UNL A   1      34.501  28.902  27.083  1.00  0.00     0.118 C 
BRANCH   2   3
ATOM      3  N   UNL A   1      34.709  30.003  28.005  1.00  0.00    -0.352 N 
ATOM      4  O   UNL A   1      35.665  31.531  29.300  1.00  0.00    -0.269 OA
ATOM      5  C   UNL A   1      35.817  30.494  28.653  1.00  0.00     0.251 C 
ATOM      6  H   UNL A   1      33.886  30.500  28.209  1.00  0.00     0.163 HD
BRANCH   5   7
ATOM      7  C   UNL A   1      37.129  29.796  28.673  1.00  0.00     0.039 A 
ATOM      8  C   UNL A   1      38.070  29.888  27.646  1.00  0.00     0.014 A 
ATOM      9  C   UNL A   1      37.426  29.013  29.803  1.00  0.00     0.014 A 
ATOM     10  C   UNL A   1      39.232  29.126  27.686  1.00  0.00     0.010 A 
ATOM     11  C   UNL A   1      38.612  28.283  29.872  1.00  0.00     0.010 A 
ATOM     12  C   UNL A   1      39.510  28.334  28.803  1.00  0.00    -0.014 A 
BRANCH  12  13
ATOM     13  C   UNL A   1      40.876  27.769  28.894  1.00  0.00     0.031 A 
ATOM     14  C   UNL A   1      40.883  26.296  28.392  1.00  0.00     0.074 A 
ATOM     15  C   UNL A   1      41.828  28.560  29.485  1.00  0.00     0.049 A 
ATOM     16  N   UNL A   1      41.530  25.259  28.838  1.00  0.00    -0.248 NA
ATOM     17  C   UNL A   1      39.918  25.888  27.331  1.00  0.00     0.031 C 
ATOM     18  C   UNL A   1      41.634  29.979  29.874  1.00  0.00     0.029 A 
ATOM     19  N   UNL A   1      43.134  28.359  29.892  1.00  0.00    -0.354 N 
ATOM     20  C   UNL A   1      41.245  24.170  27.967  1.00  0.00     0.074 A 
ATOM     21  C   UNL A   1      40.138  24.581  27.163  1.00  0.00     0.031 C 
ATOM     22  C   UNL A   1      42.717  30.462  30.525  1.00  0.00     0.029 A 
ATOM     23  C   UNL A   1      43.734  29.428  30.613  1.00  0.00     0.049 A 
ATOM     24  H   UNL A   1      43.620  27.525  29.696  1.00  0.00     0.167 HD
ATOM     25  C   UNL A   1      42.044  23.061  27.869  1.00  0.00     0.034 A 
ATOM     26  C   UNL A   1      44.939  29.462  31.272  1.00  0.00     0.034 A 
ATOM     27  C   UNL A   1      43.158  23.232  28.741  1.00  0.00     0.049 A 
ATOM     28  C   UNL A   1      45.595  28.189  30.940  1.00  0.00     0.074 A 
ATOM     29  C   UNL A   1      43.315  23.130  30.096  1.00  0.00     0.029 A 
ATOM     30  N   UNL A   1      44.228  23.896  28.194  1.00  0.00    -0.354 N 
ATOM     31  N   UNL A   1      46.088  27.892  29.774  1.00  0.00    -0.248 NA
ATOM     32  C   UNL A   1      45.601  27.119  31.946  1.00  0.00     0.031 C 
ATOM     33  C   UNL A   1      44.262  24.131  30.383  1.00  0.00     0.029 A 
ATOM     34  C   UNL A   1      44.787  24.647  29.191  1.00  0.00     0.049 A 
ATOM     35  H   UNL A   1      44.535  23.842  27.260  1.00  0.00     0.167 HD
ATOM     36  C   UNL A   1      46.105  26.522  29.818  1.00  0.00     0.074 A 
ATOM     37  C   UNL A   1      46.142  26.152  31.214  1.00  0.00     0.031 C 
ATOM     38  C   UNL A   1      45.545  25.812  28.806  1.00  0.00     0.034 A 
BRANCH  25  39
ATOM     39  C   UNL A   1      42.154  21.878  26.924  1.00  0.00     0.023 A 
ATOM     40  C   UNL A   1      41.167  20.860  27.116  1.00  0.00     0.012 A 
ATOM     41  C   UNL A   1      43.253  21.546  26.115  1.00  0.00     0.148 A 
ATOM     42  C   UNL A   1      41.333  19.548  26.680  1.00  0.00     0.002 A 
ATOM     43  C   UNL A   1      43.387  20.236  25.627  1.00  0.00     0.091 A 
ATOM     44  F   UNL A   1      44.196  22.463  25.878  1.00  0.00    -0.205 F 
ATOM     45  C   UNL A   1      42.459  19.232  25.949  1.00  0.00     0.022 A 
BRANCH  43  46
ATOM     46  S   UNL A   1      44.739  19.713  24.564  1.00  0.00     0.127 S 
ATOM     47  O   UNL A   1      44.580  20.594  23.410  1.00  0.00    -0.237 OA
ATOM     48  O   UNL A   1      45.910  20.012  25.395  1.00  0.00    -0.237 OA
ATOM     49  O   UNL A   1      44.529  18.291  24.330  1.00  0.00    -0.744 OA
ENDBRANCH  43  46
ENDBRANCH  25  39
BRANCH  26  50
ATOM     50  C   UNL A   1      45.645  30.342  32.291  1.00  0.00     0.023 A 
ATOM     51  C   UNL A   1      46.725  31.186  32.003  1.00  0.00     0.012 A 
ATOM     52  C   UNL A   1      45.135  30.435  33.627  1.00  0.00     0.148 A 
ATOM     53  C   UNL A   1      47.181  32.140  32.940  1.00  0.00     0.002 A 
ATOM     54  C   UNL A   1      45.483  31.468  34.491  1.00  0.00     0.091 A 
ATOM     55  F   UNL A   1      44.319  29.486  34.095  1.00  0.00    -0.205 F 
ATOM     56  C   UNL A   1      46.526  32.322  34.158  1.00  0.00     0.022 A 
BRANCH  54  57
ATOM     57  S   UNL A   1      44.500  31.851  35.958  1.00  0.00     0.127 S 
ATOM     58  O   UNL A   1      45.106  33.094  36.429  1.00  0.00    -0.237 OA
ATOM     59  O   UNL A   1      43.164  31.999  35.380  1.00  0.00    -0.237 OA
ATOM     60  O   UNL A   1      44.646  30.715  36.859  1.00  0.00    -0.744 OA
ENDBRANCH  54  57
ENDBRANCH  26  50
BRANCH  38  61
ATOM     61  C   UNL A   1      45.524  26.513  27.450  1.00  0.00     0.023 A 
ATOM     62  C   UNL A   1      44.290  27.039  27.021  1.00  0.00     0.012 A 
ATOM     63  C   UNL A   1      46.611  26.609  26.548  1.00  0.00     0.148 A 
ATOM     64  C   UNL A   1      44.140  27.630  25.762  1.00  0.00     0.002 A 
ATOM     65  C   UNL A   1      46.461  27.184  25.281  1.00  0.00     0.091 A 
ATOM     66  F   UNL A   1      47.795  26.140  26.927  1.00  0.00    -0.205 F 
ATOM     67  C   UNL A   1      45.222  27.704  24.893  1.00  0.00     0.022 A 
BRANCH  65  68
ATOM     68  S   UNL A   1      47.779  27.248  24.046  1.00  0.00     0.127 S 
ATOM     69  O   UNL A   1      47.164  28.029  22.969  1.00  0.00    -0.237 OA
ATOM     70  O   UNL A   1      48.838  27.952  24.764  1.00  0.00    -0.237 OA
ATOM     71  O   UNL A   1      48.074  25.867  23.679  1.00  0.00    -0.744 OA
ENDBRANCH  65  68
ENDBRANCH  38  61
ENDBRANCH  12  13
ENDBRANCH   5   7
ENDBRANCH   2   3
ENDBRANCH   1   2
BRANCH   1  72
ATOM     72  C   UNL A   1      33.143  29.245  24.961  1.00  0.00     0.118 C 
BRANCH  72  73
ATOM     73  N   UNL A   1      31.840  29.721  24.515  1.00  0.00    -0.351 N 
ATOM     74  C   UNL A   1      30.817  29.054  23.892  1.00  0.00     0.267 C 
ATOM     75  H   UNL A   1      31.667  30.674  24.690  1.00  0.00     0.163 HD
ATOM     76  O   UNL A   1      29.964  29.720  23.306  1.00  0.00    -0.268 OA
BRANCH  74  77
ATOM     77  C   UNL A   1      30.728  27.615  23.980  1.00  0.00     0.105 A 
ATOM     78  C   UNL A   1      31.388  26.628  23.273  1.00  0.00     0.055 A 
ATOM     79  N   UNL A   1      30.004  26.959  24.954  1.00  0.00    -0.356 N 
ATOM     80  C   UNL A   1      31.137  25.377  23.869  1.00  0.00     0.106 A 
ATOM     81  C   UNL A   1      30.230  25.605  24.885  1.00  0.00     0.105 A 
ATOM     82  H   UNL A   1      29.410  27.398  25.605  1.00  0.00     0.166 HD
BRANCH  80  83
ATOM     83  S   UNL A   1      31.923  23.881  23.474  1.00  0.00     0.263 S 
ATOM     84  O   UNL A   1      30.828  23.014  23.103  1.00  0.00    -0.201 OA
ATOM     85  O   UNL A   1      32.946  24.268  22.524  1.00  0.00    -0.201 OA
BRANCH  83  86
ATOM     86  N   UNL A   1      32.734  23.198  24.788  1.00  0.00    -0.280 N 
ATOM     87  H   UNL A   1      32.634  23.619  25.672  1.00  0.00     0.180 HD
BRANCH  86  88
ATOM     88  C   UNL A   1      33.558  22.042  24.675  1.00  0.00     0.050 A 
ATOM     89  C   UNL A   1      33.043  20.748  24.578  1.00  0.00     0.030 A 
ATOM     90  C   UNL A   1      34.947  22.224  24.722  1.00  0.00     0.043 A 
ATOM     91  C   UNL A   1      33.901  19.649  24.679  1.00  0.00     0.042 A 
ATOM     92  C   UNL A   1      35.821  21.121  24.794  1.00  0.00     0.093 A 
ATOM     93  C   UNL A   1      35.274  19.843  24.799  1.00  0.00     0.135 A 
ATOM     94  F   UNL A   1      36.057  18.764  24.927  1.00  0.00    -0.206 F 
BRANCH  92  95
ATOM     95  C   UNL A   1      37.307  21.335  24.868  1.00  0.00     0.419 C 
ATOM     96  F   UNL A   1      37.691  22.426  24.149  1.00  0.00    -0.166 F 
ATOM     97  F   UNL A   1      37.720  21.559  26.145  1.00  0.00    -0.166 F 
ATOM     98  F   UNL A   1      38.055  20.299  24.407  1.00  0.00    -0.166 F 
ENDBRANCH  92  95
ENDBRANCH  86  88
ENDBRANCH  83  86
ENDBRANCH  80  83
ENDBRANCH  74  77
ENDBRANCH  72  73
ENDBRANCH   1  72
TORSDOF 17
ENDMDL
MODEL 3
REMARK VINA RESULT:     -12.4      2.329      2.906
REMARK SMILES O=C(NCCCNC(=O)c1cc(S(=O)(=O)Nc2ccc(F)c(C(F)(F)F)c2)c[nH]1)c1ccc(-c2c3nc(c(-c4cccc(S(=O)(=O)[O-])c4F)c4ccc([nH]4)c(-c4cccc(S(=O)(=O)[O-])c4F)c4nc(c(-c5cccc(S(=O)(=O)[O-])c5F)c5ccc2[nH]5)C=C4)C=C3)cc1
REMARK SMILES IDX 5 1 4 2 3 3 1 4 2 5 30 7 31 8 92 9 32 10 91 11 33 12 34 13
REMARK SMILES IDX 35 14 85 15 36 16 90 17 84 18 86 19 37 20 89 21 83 22 82 23
REMARK SMILES IDX 38 25 70 26 50 27 69 28 51 29 54 30 68 31 87 32 52 33 53 34
REMARK SMILES IDX 67 36 88 37 55 38 39 39 40 40 48 41 41 42 43 43 49 44 42 45
REMARK SMILES IDX 44 46 45 47 46 48 47 49 71 50 72 51 80 52 73 53 75 54 81 55
REMARK SMILES IDX 74 56 76 57 77 58 78 59 79 60 56 61 57 62 65 63 58 64 60 65
REMARK SMILES IDX 66 66 59 67 61 68 62 69 63 70 64 71 6 72 7 73 8 74 9 76
REMARK SMILES IDX 10 77 11 78 29 79 12 80 28 81 13 83 14 84 15 85 16 86 17 88
REMARK SMILES IDX 18 89 27 90 19 91 22 92 20 93 21 94 23 95 24 96 25 97 26 98
REMARK H PARENT 3 6 86 24 54 35 7 75 29 82 16 87
REMARK Flexibility Score: inf
ROOT
ATOM      1  C   UNL A   1      36.243  22.952  25.935  1.00  0.00     0.042 C 
ENDROOT
BRANCH   1   2
ATOM      2  C   UNL A   1      37.245  24.098  26.014  1.00  0.00     0.118 C 
BRANCH   2   3
ATOM      3  N   UNL A   1      38.639  23.698  26.037  1.00  0.00    -0.352 N 
ATOM      4  O   UNL A   1      40.788  23.532  26.567  1.00  0.00    -0.269 OA
ATOM      5  C   UNL A   1      39.749  24.182  26.687  1.00  0.00     0.251 C 
ATOM      6  H   UNL A   1      38.830  22.919  25.468  1.00  0.00     0.163 HD
BRANCH   5   7
ATOM      7  C   UNL A   1      39.763  25.467  27.434  1.00  0.00     0.039 A 
ATOM      8  C   UNL A   1      39.322  25.601  28.751  1.00  0.00     0.014 A 
ATOM      9  C   UNL A   1      40.263  26.597  26.763  1.00  0.00     0.014 A 
ATOM     10  C   UNL A   1      39.269  26.853  29.352  1.00  0.00     0.010 A 
ATOM     11  C   UNL A   1      40.257  27.850  27.377  1.00  0.00     0.010 A 
ATOM     12  C   UNL A   1      39.748  27.975  28.671  1.00  0.00    -0.014 A 
BRANCH  12  13
ATOM     13  C   UNL A   1      39.909  29.215  29.465  1.00  0.00     0.031 A 
ATOM     14  C   UNL A   1      38.688  30.154  29.248  1.00  0.00     0.074 A 
ATOM     15  C   UNL A   1      41.101  29.369  30.127  1.00  0.00     0.049 A 
ATOM     16  N   UNL A   1      38.632  31.450  29.139  1.00  0.00    -0.248 NA
ATOM     17  C   UNL A   1      37.352  29.553  28.968  1.00  0.00     0.031 C 
ATOM     18  C   UNL A   1      42.148  28.325  30.247  1.00  0.00     0.029 A 
ATOM     19  N   UNL A   1      41.692  30.407  30.823  1.00  0.00    -0.354 N 
ATOM     20  C   UNL A   1      37.259  31.811  29.036  1.00  0.00     0.074 A 
ATOM     21  C   UNL A   1      36.544  30.601  28.784  1.00  0.00     0.031 C 
ATOM     22  C   UNL A   1      43.250  28.804  30.870  1.00  0.00     0.029 A 
ATOM     23  C   UNL A   1      43.035  30.192  31.241  1.00  0.00     0.049 A 
ATOM     24  H   UNL A   1      41.214  31.245  31.017  1.00  0.00     0.167 HD
ATOM     25  C   UNL A   1      36.793  33.069  29.319  1.00  0.00     0.034 A 
ATOM     26  C   UNL A   1      43.921  31.079  31.800  1.00  0.00     0.034 A 
ATOM     27  C   UNL A   1      37.894  33.871  29.738  1.00  0.00     0.049 A 
ATOM     28  C   UNL A   1      43.141  32.299  32.049  1.00  0.00     0.074 A 
ATOM     29  C   UNL A   1      38.917  34.485  29.069  1.00  0.00     0.029 A 
ATOM     30  N   UNL A   1      38.180  33.812  31.079  1.00  0.00    -0.354 N 
ATOM     31  N   UNL A   1      42.232  32.420  32.970  1.00  0.00    -0.248 NA
ATOM     32  C   UNL A   1      43.299  33.434  31.131  1.00  0.00     0.031 C 
ATOM     33  C   UNL A   1      39.995  34.379  29.968  1.00  0.00     0.029 A 
ATOM     34  C   UNL A   1      39.539  33.902  31.205  1.00  0.00     0.049 A 
ATOM     35  H   UNL A   1      37.530  33.721  31.813  1.00  0.00     0.167 HD
ATOM     36  C   UNL A   1      41.488  33.468  32.494  1.00  0.00     0.074 A 
ATOM     37  C   UNL A   1      42.353  34.227  31.618  1.00  0.00     0.031 C 
ATOM     38  C   UNL A   1      40.140  33.342  32.389  1.00  0.00     0.034 A 
BRANCH  25  39
ATOM     39  C   UNL A   1      35.430  33.705  29.526  1.00  0.00     0.023 A 
ATOM     40  C   UNL A   1      34.767  34.112  28.326  1.00  0.00     0.012 A 
ATOM     41  C   UNL A   1      34.901  34.190  30.734  1.00  0.00     0.148 A 
ATOM     42  C   UNL A   1      33.755  35.068  28.302  1.00  0.00     0.002 A 
ATOM     43  C   UNL A   1      33.841  35.110  30.708  1.00  0.00     0.091 A 
ATOM     44  F   UNL A   1      35.462  33.825  31.891  1.00  0.00    -0.205 F 
ATOM     45  C   UNL A   1      33.305  35.583  29.500  1.00  0.00     0.022 A 
BRANCH  43  46
ATOM     46  S   UNL A   1      33.074  35.772  32.194  1.00  0.00     0.127 S 
ATOM     47  O   UNL A   1      32.027  36.627  31.643  1.00  0.00    -0.237 OA
ATOM     48  O   UNL A   1      32.580  34.555  32.846  1.00  0.00    -0.237 OA
ATOM     49  O   UNL A   1      34.143  36.440  32.924  1.00  0.00    -0.744 OA
ENDBRANCH  43  46
ENDBRANCH  25  39
BRANCH  26  50
ATOM     50  C   UNL A   1      45.416  31.165  32.068  1.00  0.00     0.023 A 
ATOM     51  C   UNL A   1      46.400  31.260  31.076  1.00  0.00     0.012 A 
ATOM     52  C   UNL A   1      45.893  31.275  33.415  1.00  0.00     0.148 A 
ATOM     53  C   UNL A   1      47.741  31.566  31.398  1.00  0.00     0.002 A 
ATOM     54  C   UNL A   1      47.175  31.720  33.721  1.00  0.00     0.091 A 
ATOM     55  F   UNL A   1      45.107  30.908  34.432  1.00  0.00    -0.205 F 
ATOM     56  C   UNL A   1      48.117  31.853  32.710  1.00  0.00     0.022 A 
BRANCH  54  57
ATOM     57  S   UNL A   1      47.607  32.308  35.375  1.00  0.00     0.127 S 
ATOM     58  O   UNL A   1      47.188  31.196  36.225  1.00  0.00    -0.237 OA
ATOM     59  O   UNL A   1      49.055  32.476  35.252  1.00  0.00    -0.237 OA
ATOM     60  O   UNL A   1      46.869  33.548  35.576  1.00  0.00    -0.744 OA
ENDBRANCH  54  57
ENDBRANCH  26  50
BRANCH  38  61
ATOM     61  C   UNL A   1      39.500  32.358  33.366  1.00  0.00     0.023 A 
ATOM     62  C   UNL A   1      39.102  31.111  32.848  1.00  0.00     0.012 A 
ATOM     63  C   UNL A   1      39.192  32.618  34.723  1.00  0.00     0.148 A 
ATOM     64  C   UNL A   1      38.434  30.167  33.635  1.00  0.00     0.002 A 
ATOM     65  C   UNL A   1      38.509  31.683  35.509  1.00  0.00     0.091 A 
ATOM     66  F   UNL A   1      39.570  33.778  35.250  1.00  0.00    -0.205 F 
ATOM     67  C   UNL A   1      38.138  30.451  34.963  1.00  0.00     0.022 A 
BRANCH  65  68
ATOM     68  S   UNL A   1      37.999  31.990  37.217  1.00  0.00     0.127 S 
ATOM     69  O   UNL A   1      39.268  32.327  37.868  1.00  0.00    -0.237 OA
ATOM     70  O   UNL A   1      37.087  33.119  37.066  1.00  0.00    -0.237 OA
ATOM     71  O   UNL A   1      37.398  30.751  37.700  1.00  0.00    -0.744 OA
ENDBRANCH  65  68
ENDBRANCH  38  61
ENDBRANCH  12  13
ENDBRANCH   5   7
ENDBRANCH   2   3
ENDBRANCH   1   2
BRANCH   1  72
ATOM     72  C   UNL A   1      36.139  22.339  24.548  1.00  0.00     0.118 C 
BRANCH  72  73
ATOM     73  N   UNL A   1      35.539  21.012  24.591  1.00  0.00    -0.351 N 
ATOM     74  C   UNL A   1      34.252  20.628  24.868  1.00  0.00     0.267 C 
ATOM     75  H   UNL A   1      36.157  20.273  24.388  1.00  0.00     0.163 HD
ATOM     76  O   UNL A   1      34.054  19.455  25.183  1.00  0.00    -0.268 OA
BRANCH  74  77
ATOM     77  C   UNL A   1      33.167  21.572  24.734  1.00  0.00     0.105 A 
ATOM     78  C   UNL A   1      32.530  22.349  25.680  1.00  0.00     0.055 A 
ATOM     79  N   UNL A   1      32.650  21.963  23.515  1.00  0.00    -0.356 N 
ATOM     80  C   UNL A   1      31.687  23.277  25.035  1.00  0.00     0.106 A 
ATOM     81  C   UNL A   1      31.743  22.981  23.688  1.00  0.00     0.105 A 
ATOM     82  H   UNL A   1      32.896  21.569  22.647  1.00  0.00     0.166 HD
BRANCH  80  83
ATOM     83  S   UNL A   1      30.860  24.602  25.790  1.00  0.00     0.263 S 
ATOM     84  O   UNL A   1      30.256  23.999  26.956  1.00  0.00    -0.201 OA
ATOM     85  O   UNL A   1      31.877  25.628  25.901  1.00  0.00    -0.201 OA
BRANCH  83  86
ATOM     86  N   UNL A   1      29.639  25.252  24.821  1.00  0.00    -0.280 N 
ATOM     87  H   UNL A   1      28.737  24.862  24.878  1.00  0.00     0.180 HD
BRANCH  86  88
ATOM     88  C   UNL A   1      29.856  26.337  23.924  1.00  0.00     0.050 A 
ATOM     89  C   UNL A   1      31.087  26.587  23.317  1.00  0.00     0.030 A 
ATOM     90  C   UNL A   1      28.789  27.218  23.698  1.00  0.00     0.043 A 
ATOM     91  C   UNL A   1      31.288  27.780  22.617  1.00  0.00     0.042 A 
ATOM     92  C   UNL A   1      28.975  28.409  22.968  1.00  0.00     0.093 A 
ATOM     93  C   UNL A   1      30.240  28.683  22.460  1.00  0.00     0.135 A 
ATOM     94  F   UNL A   1      30.483  29.829  21.812  1.00  0.00    -0.206 F 
BRANCH  92  95
ATOM     95  C   UNL A   1      27.827  29.354  22.755  1.00  0.00     0.419 C 
ATOM     96  F   UNL A   1      26.646  28.805  23.155  1.00  0.00    -0.166 F 
ATOM     97  F   UNL A   1      27.976  30.498  23.477  1.00  0.00    -0.166 F 
ATOM     98  F   UNL A   1      27.642  29.744  21.466  1.00  0.00    -0.166 F 
ENDBRANCH  92  95
ENDBRANCH  86  88
ENDBRANCH  83  86
ENDBRANCH  80  83
ENDBRANCH  74  77
ENDBRANCH  72  73
ENDBRANCH   1  72
TORSDOF 17
ENDMDL
