MODEL 1
REMARK VINA RESULT:     -12.0      0.000      0.000
REMARK SMILES CC[C@@](C)(NC(=O)Nc1ccccc1C#N)C(=O)NCCCNC(=O)c1ccc(-c2c3nc(c(-c4cccc(S(=O)(=O)[O-])c4F)c4ccc([nH]4)c(-c4cccc(S(=O)(=O)[O-])c4F)c4nc(c(-c5cccc(S(=O)(=O)[O-])c5F)c5ccc2[nH]5)C=C4)C=C3)cc1
REMARK SMILES IDX 21 1 20 2 19 3 17 4 18 5 3 7 4 8 2 9 1 10 5 11 6 12 7 14
REMARK SMILES IDX 8 15 9 17 10 18 14 19 11 20 13 21 12 22 15 23 16 24 22 25
REMARK SMILES IDX 23 26 24 27 25 29 26 30 27 31 88 32 28 33 87 34 29 35 30 36
REMARK SMILES IDX 31 37 81 38 32 39 86 40 80 41 82 42 33 43 85 44 79 45 78 46
REMARK SMILES IDX 34 48 66 49 46 50 65 51 47 52 50 53 64 54 83 55 48 56 49 57
REMARK SMILES IDX 63 59 84 60 51 61 35 62 36 63 44 64 37 65 39 66 45 67 38 68
REMARK SMILES IDX 40 69 41 70 42 71 43 72 67 73 68 74 76 75 69 76 71 77 77 78
REMARK SMILES IDX 70 79 72 80 73 81 74 82 75 83 52 84 53 85 61 86 54 87 56 88
REMARK SMILES IDX 62 89 55 90 57 91 58 92 59 93 60 94
REMARK H PARENT 19 6 5 13 8 16 23 28 82 47 50 58
REMARK Flexibility Score: inf
ROOT
ATOM      1  C   UNL A   1      31.679  29.307  27.005  1.00  0.00     0.042 C 
ENDROOT
BRANCH   1   2
ATOM      2  C   UNL A   1      32.327  27.900  27.095  1.00  0.00     0.117 C 
BRANCH   2   3
ATOM      3  N   UNL A   1      33.446  27.729  26.176  1.00  0.00    -0.354 N 
ATOM      4  C   UNL A   1      33.531  27.236  24.879  1.00  0.00     0.245 C 
ATOM      5  O   UNL A   1      33.771  27.959  23.915  1.00  0.00    -0.272 OA
ATOM      6  H   UNL A   1      34.311  28.019  26.546  1.00  0.00     0.163 HD
BRANCH   4   7
ATOM      7  C   UNL A   1      33.298  25.720  24.747  1.00  0.00     0.117 C 
ATOM      8  C   UNL A   1      34.675  25.218  25.276  1.00  0.00     0.045 C 
BRANCH   7   9
ATOM      9  C   UNL A   1      32.218  24.904  25.498  1.00  0.00     0.035 C 
ATOM     10  C   UNL A   1      30.759  25.123  25.176  1.00  0.00     0.007 C 
ENDBRANCH   7   9
BRANCH   7  11
ATOM     11  N   UNL A   1      33.068  25.469  23.314  1.00  0.00    -0.324 N 
ATOM     12  C   UNL A   1      33.459  24.503  22.463  1.00  0.00     0.320 C 
ATOM     13  H   UNL A   1      32.508  26.157  22.886  1.00  0.00     0.166 HD
ATOM     14  O   UNL A   1      33.278  24.743  21.265  1.00  0.00    -0.248 OA
ATOM     15  N   UNL A   1      33.874  23.233  22.753  1.00  0.00    -0.307 N 
ATOM     16  H   UNL A   1      33.522  22.594  22.091  1.00  0.00     0.171 HD
BRANCH  15  17
ATOM     17  C   UNL A   1      34.674  22.551  23.737  1.00  0.00     0.060 A 
ATOM     18  C   UNL A   1      36.050  22.579  23.447  1.00  0.00     0.027 A 
ATOM     19  C   UNL A   1      34.300  21.604  24.733  1.00  0.00     0.076 A 
ATOM     20  C   UNL A   1      37.000  21.928  24.248  1.00  0.00     0.002 A 
ATOM     21  C   UNL A   1      35.258  21.095  25.635  1.00  0.00     0.021 A 
ATOM     22  C   UNL A   1      36.609  21.261  25.396  1.00  0.00     0.002 A 
BRANCH  19  23
ATOM     23  C   UNL A   1      33.093  20.822  24.806  1.00  0.00     0.101 C 
ATOM     24  N   UNL A   1      32.153  20.128  24.760  1.00  0.00    -0.192 NA
ENDBRANCH  19  23
ENDBRANCH  15  17
ENDBRANCH   7  11
ENDBRANCH   4   7
ENDBRANCH   2   3
ENDBRANCH   1   2
BRANCH   1  25
ATOM     25  C   UNL A   1      32.320  30.385  26.119  1.00  0.00     0.118 C 
BRANCH  25  26
ATOM     26  N   UNL A   1      32.126  31.748  26.572  1.00  0.00    -0.352 N 
ATOM     27  C   UNL A   1      32.927  32.543  27.357  1.00  0.00     0.251 C 
ATOM     28  H   UNL A   1      31.291  32.171  26.270  1.00  0.00     0.163 HD
ATOM     29  O   UNL A   1      32.574  33.677  27.670  1.00  0.00    -0.269 OA
BRANCH  27  30
ATOM     30  C   UNL A   1      34.210  32.021  27.876  1.00  0.00     0.039 A 
ATOM     31  C   UNL A   1      35.280  32.910  28.001  1.00  0.00     0.014 A 
ATOM     32  C   UNL A   1      34.364  30.681  28.236  1.00  0.00     0.014 A 
ATOM     33  C   UNL A   1      36.479  32.477  28.573  1.00  0.00     0.010 A 
ATOM     34  C   UNL A   1      35.539  30.268  28.869  1.00  0.00     0.010 A 
ATOM     35  C   UNL A   1      36.604  31.166  29.060  1.00  0.00    -0.014 A 
BRANCH  35  36
ATOM     36  C   UNL A   1      37.818  30.736  29.810  1.00  0.00     0.031 A 
ATOM     37  C   UNL A   1      38.787  29.756  29.206  1.00  0.00     0.074 A 
ATOM     38  C   UNL A   1      38.002  31.161  31.078  1.00  0.00     0.049 A 
ATOM     39  N   UNL A   1      39.843  29.203  29.744  1.00  0.00    -0.248 NA
ATOM     40  C   UNL A   1      38.524  29.326  27.823  1.00  0.00     0.031 C 
ATOM     41  C   UNL A   1      37.110  32.068  31.804  1.00  0.00     0.029 A 
ATOM     42  N   UNL A   1      38.984  30.864  31.993  1.00  0.00    -0.354 N 
ATOM     43  C   UNL A   1      40.348  28.331  28.786  1.00  0.00     0.074 A 
ATOM     44  C   UNL A   1      39.467  28.411  27.641  1.00  0.00     0.031 C 
ATOM     45  C   UNL A   1      37.584  32.253  33.046  1.00  0.00     0.029 A 
ATOM     46  C   UNL A   1      38.784  31.442  33.227  1.00  0.00     0.049 A 
ATOM     47  H   UNL A   1      39.758  30.290  31.787  1.00  0.00     0.167 HD
ATOM     48  C   UNL A   1      41.453  27.550  28.844  1.00  0.00     0.034 A 
ATOM     49  C   UNL A   1      39.469  31.318  34.381  1.00  0.00     0.034 A 
ATOM     50  C   UNL A   1      42.341  27.489  29.975  1.00  0.00     0.049 A 
ATOM     51  C   UNL A   1      40.689  30.438  34.421  1.00  0.00     0.074 A 
ATOM     52  C   UNL A   1      43.528  26.786  30.097  1.00  0.00     0.029 A 
ATOM     53  N   UNL A   1      42.134  28.135  31.183  1.00  0.00    -0.354 N 
ATOM     54  N   UNL A   1      41.224  29.726  33.460  1.00  0.00    -0.248 NA
ATOM     55  C   UNL A   1      41.419  30.367  35.696  1.00  0.00     0.031 C 
ATOM     56  C   UNL A   1      44.010  26.964  31.396  1.00  0.00     0.029 A 
ATOM     57  C   UNL A   1      43.157  27.829  32.064  1.00  0.00     0.049 A 
ATOM     58  H   UNL A   1      41.372  28.723  31.386  1.00  0.00     0.167 HD
ATOM     59  C   UNL A   1      42.373  29.159  33.999  1.00  0.00     0.074 A 
ATOM     60  C   UNL A   1      42.465  29.619  35.368  1.00  0.00     0.031 C 
ATOM     61  C   UNL A   1      43.269  28.331  33.410  1.00  0.00     0.034 A 
BRANCH  48  62
ATOM     62  C   UNL A   1      41.783  26.705  27.639  1.00  0.00     0.023 A 
ATOM     63  C   UNL A   1      42.422  27.287  26.526  1.00  0.00     0.012 A 
ATOM     64  C   UNL A   1      41.518  25.321  27.637  1.00  0.00     0.148 A 
ATOM     65  C   UNL A   1      42.751  26.515  25.412  1.00  0.00     0.002 A 
ATOM     66  C   UNL A   1      41.897  24.549  26.546  1.00  0.00     0.091 A 
ATOM     67  F   UNL A   1      40.900  24.786  28.700  1.00  0.00    -0.205 F 
ATOM     68  C   UNL A   1      42.499  25.146  25.426  1.00  0.00     0.022 A 
BRANCH  66  69
ATOM     69  S   UNL A   1      41.693  22.765  26.501  1.00  0.00     0.127 S 
ATOM     70  O   UNL A   1      40.235  22.636  26.494  1.00  0.00    -0.237 OA
ATOM     71  O   UNL A   1      42.341  22.415  25.238  1.00  0.00    -0.237 OA
ATOM     72  O   UNL A   1      42.356  22.251  27.691  1.00  0.00    -0.744 OA
ENDBRANCH  66  69
ENDBRANCH  48  62
BRANCH  49  73
ATOM     73  C   UNL A   1      39.032  32.067  35.596  1.00  0.00     0.023 A 
ATOM     74  C   UNL A   1      39.312  33.443  35.703  1.00  0.00     0.012 A 
ATOM     75  C   UNL A   1      38.339  31.423  36.640  1.00  0.00     0.148 A 
ATOM     76  C   UNL A   1      38.943  34.157  36.844  1.00  0.00     0.002 A 
ATOM     77  C   UNL A   1      37.923  32.154  37.748  1.00  0.00     0.091 A 
ATOM     78  F   UNL A   1      38.090  30.112  36.523  1.00  0.00    -0.205 F 
ATOM     79  C   UNL A   1      38.242  33.515  37.862  1.00  0.00     0.022 A 
BRANCH  77  80
ATOM     80  S   UNL A   1      36.909  31.442  39.048  1.00  0.00     0.127 S 
ATOM     81  O   UNL A   1      37.780  31.575  40.213  1.00  0.00    -0.237 OA
ATOM     82  O   UNL A   1      35.747  32.333  39.042  1.00  0.00    -0.237 OA
ATOM     83  O   UNL A   1      36.624  30.077  38.628  1.00  0.00    -0.744 OA
ENDBRANCH  77  80
ENDBRANCH  49  73
BRANCH  61  84
ATOM     84  C   UNL A   1      44.474  27.905  34.210  1.00  0.00     0.023 A 
ATOM     85  C   UNL A   1      45.645  28.687  34.206  1.00  0.00     0.012 A 
ATOM     86  C   UNL A   1      44.400  26.773  35.046  1.00  0.00     0.148 A 
ATOM     87  C   UNL A   1      46.733  28.335  35.005  1.00  0.00     0.002 A 
ATOM     88  C   UNL A   1      45.466  26.460  35.880  1.00  0.00     0.091 A 
ATOM     89  F   UNL A   1      43.282  26.034  35.022  1.00  0.00    -0.205 F 
ATOM     90  C   UNL A   1      46.638  27.232  35.852  1.00  0.00     0.022 A 
BRANCH  88  91
ATOM     91  S   UNL A   1      45.396  25.122  37.077  1.00  0.00     0.127 S 
ATOM     92  O   UNL A   1      46.688  25.254  37.747  1.00  0.00    -0.237 OA
ATOM     93  O   UNL A   1      44.243  25.501  37.893  1.00  0.00    -0.237 OA
ATOM     94  O   UNL A   1      45.221  23.897  36.307  1.00  0.00    -0.744 OA
ENDBRANCH  88  91
ENDBRANCH  61  84
ENDBRANCH  35  36
ENDBRANCH  27  30
ENDBRANCH  25  26
ENDBRANCH   1  25
TORSDOF 17
ENDMDL
MODEL 2
REMARK VINA RESULT:     -12.0      1.707      2.225
REMARK SMILES CC[C@@](C)(NC(=O)Nc1ccccc1C#N)C(=O)NCCCNC(=O)c1ccc(-c2c3nc(c(-c4cccc(S(=O)(=O)[O-])c4F)c4ccc([nH]4)c(-c4cccc(S(=O)(=O)[O-])c4F)c4nc(c(-c5cccc(S(=O)(=O)[O-])c5F)c5ccc2[nH]5)C=C4)C=C3)cc1
REMARK SMILES IDX 21 1 20 2 19 3 17 4 18 5 3 7 4 8 2 9 1 10 5 11 6 12 7 14
REMARK SMILES IDX 8 15 9 17 10 18 14 19 11 20 13 21 12 22 15 23 16 24 22 25
REMARK SMILES IDX 23 26 24 27 25 29 26 30 27 31 88 32 28 33 87 34 29 35 30 36
REMARK SMILES IDX 31 37 81 38 32 39 86 40 80 41 82 42 33 43 85 44 79 45 78 46
REMARK SMILES IDX 34 48 66 49 46 50 65 51 47 52 50 53 64 54 83 55 48 56 49 57
REMARK SMILES IDX 63 59 84 60 51 61 35 62 36 63 44 64 37 65 39 66 45 67 38 68
REMARK SMILES IDX 40 69 41 70 42 71 43 72 67 73 68 74 76 75 69 76 71 77 77 78
REMARK SMILES IDX 70 79 72 80 73 81 74 82 75 83 52 84 53 85 61 86 54 87 56 88
REMARK SMILES IDX 62 89 55 90 57 91 58 92 59 93 60 94
REMARK H PARENT 19 6 5 13 8 16 23 28 82 47 50 58
REMARK Flexibility Score: inf
ROOT
ATOM      1  C   UNL A   1      31.078  31.961  26.260  1.00  0.00     0.042 C 
ENDROOT
BRANCH   1   2
ATOM      2  C   UNL A   1      31.013  30.741  25.303  1.00  0.00     0.117 C 
BRANCH   2   3
ATOM      3  N   UNL A   1      32.296  30.064  25.154  1.00  0.00    -0.354 N 
ATOM      4  C   UNL A   1      32.715  29.007  24.357  1.00  0.00     0.245 C 
ATOM      5  O   UNL A   1      33.489  29.158  23.414  1.00  0.00    -0.272 OA
ATOM      6  H   UNL A   1      33.005  30.429  25.732  1.00  0.00     0.163 HD
BRANCH   4   7
ATOM      7  C   UNL A   1      32.132  27.635  24.742  1.00  0.00     0.117 C 
ATOM      8  C   UNL A   1      33.029  26.731  23.845  1.00  0.00     0.045 C 
BRANCH   7   9
ATOM      9  C   UNL A   1      32.159  27.009  26.158  1.00  0.00     0.035 C 
ATOM     10  C   UNL A   1      31.413  27.681  27.286  1.00  0.00     0.007 C 
ENDBRANCH   7   9
BRANCH   7  11
ATOM     11  N   UNL A   1      30.714  27.671  24.345  1.00  0.00    -0.324 N 
ATOM     12  C   UNL A   1      29.807  26.725  24.042  1.00  0.00     0.320 C 
ATOM     13  H   UNL A   1      30.352  28.585  24.289  1.00  0.00     0.166 HD
ATOM     14  O   UNL A   1      28.768  27.133  23.513  1.00  0.00    -0.248 OA
ATOM     15  N   UNL A   1      29.811  25.402  24.389  1.00  0.00    -0.307 N 
ATOM     16  H   UNL A   1      28.901  25.101  24.614  1.00  0.00     0.171 HD
BRANCH  15  17
ATOM     17  C   UNL A   1      30.750  24.319  24.521  1.00  0.00     0.060 A 
ATOM     18  C   UNL A   1      31.227  23.846  23.284  1.00  0.00     0.027 A 
ATOM     19  C   UNL A   1      31.013  23.456  25.623  1.00  0.00     0.076 A 
ATOM     20  C   UNL A   1      32.108  22.759  23.184  1.00  0.00     0.002 A 
ATOM     21  C   UNL A   1      32.027  22.479  25.544  1.00  0.00     0.021 A 
ATOM     22  C   UNL A   1      32.579  22.133  24.326  1.00  0.00     0.002 A 
BRANCH  19  23
ATOM     23  C   UNL A   1      30.184  23.212  26.776  1.00  0.00     0.101 C 
ATOM     24  N   UNL A   1      29.540  22.890  27.697  1.00  0.00    -0.192 NA
ENDBRANCH  19  23
ENDBRANCH  15  17
ENDBRANCH   7  11
ENDBRANCH   4   7
ENDBRANCH   2   3
ENDBRANCH   1   2
BRANCH   1  25
ATOM     25  C   UNL A   1      32.425  32.381  26.866  1.00  0.00     0.118 C 
BRANCH  25  26
ATOM     26  N   UNL A   1      32.454  33.712  27.437  1.00  0.00    -0.352 N 
ATOM     27  C   UNL A   1      33.365  34.292  28.288  1.00  0.00     0.251 C 
ATOM     28  H   UNL A   1      31.704  34.293  27.174  1.00  0.00     0.163 HD
ATOM     29  O   UNL A   1      33.200  35.438  28.700  1.00  0.00    -0.269 OA
BRANCH  27  30
ATOM     30  C   UNL A   1      34.536  33.522  28.757  1.00  0.00     0.039 A 
ATOM     31  C   UNL A   1      35.809  34.035  28.497  1.00  0.00     0.014 A 
ATOM     32  C   UNL A   1      34.393  32.314  29.442  1.00  0.00     0.014 A 
ATOM     33  C   UNL A   1      36.937  33.385  29.004  1.00  0.00     0.010 A 
ATOM     34  C   UNL A   1      35.517  31.703  30.005  1.00  0.00     0.010 A 
ATOM     35  C   UNL A   1      36.800  32.241  29.806  1.00  0.00    -0.014 A 
BRANCH  35  36
ATOM     36  C   UNL A   1      37.979  31.628  30.481  1.00  0.00     0.031 A 
ATOM     37  C   UNL A   1      38.784  30.557  29.796  1.00  0.00     0.074 A 
ATOM     38  C   UNL A   1      38.273  31.974  31.752  1.00  0.00     0.049 A 
ATOM     39  N   UNL A   1      39.781  29.850  30.262  1.00  0.00    -0.248 NA
ATOM     40  C   UNL A   1      38.406  30.220  28.413  1.00  0.00     0.031 C 
ATOM     41  C   UNL A   1      37.541  32.958  32.551  1.00  0.00     0.029 A 
ATOM     42  N   UNL A   1      39.248  31.516  32.607  1.00  0.00    -0.354 N 
ATOM     43  C   UNL A   1      40.125  28.961  29.250  1.00  0.00     0.074 A 
ATOM     44  C   UNL A   1      39.212  29.200  28.154  1.00  0.00     0.031 C 
ATOM     45  C   UNL A   1      38.090  33.030  33.775  1.00  0.00     0.029 A 
ATOM     46  C   UNL A   1      39.180  32.065  33.868  1.00  0.00     0.049 A 
ATOM     47  H   UNL A   1      39.931  30.856  32.343  1.00  0.00     0.167 HD
ATOM     48  C   UNL A   1      41.120  28.042  29.227  1.00  0.00     0.034 A 
ATOM     49  C   UNL A   1      39.894  31.806  34.982  1.00  0.00     0.034 A 
ATOM     50  C   UNL A   1      42.042  27.821  30.310  1.00  0.00     0.049 A 
ATOM     51  C   UNL A   1      40.989  30.776  34.931  1.00  0.00     0.074 A 
ATOM     52  C   UNL A   1      43.130  26.966  30.349  1.00  0.00     0.029 A 
ATOM     53  N   UNL A   1      41.974  28.439  31.549  1.00  0.00    -0.354 N 
ATOM     54  N   UNL A   1      41.383  30.040  33.921  1.00  0.00    -0.248 NA
ATOM     55  C   UNL A   1      41.760  30.559  36.165  1.00  0.00     0.031 C 
ATOM     56  C   UNL A   1      43.689  27.028  31.628  1.00  0.00     0.029 A 
ATOM     57  C   UNL A   1      42.987  27.968  32.367  1.00  0.00     0.049 A 
ATOM     58  H   UNL A   1      41.306  29.111  31.809  1.00  0.00     0.167 HD
ATOM     59  C   UNL A   1      42.471  29.308  34.382  1.00  0.00     0.074 A 
ATOM     60  C   UNL A   1      42.682  29.696  35.761  1.00  0.00     0.031 C 
ATOM     61  C   UNL A   1      43.224  28.396  33.722  1.00  0.00     0.034 A 
BRANCH  48  62
ATOM     62  C   UNL A   1      41.283  27.211  27.979  1.00  0.00     0.023 A 
ATOM     63  C   UNL A   1      41.905  27.764  26.842  1.00  0.00     0.012 A 
ATOM     64  C   UNL A   1      40.877  25.862  27.956  1.00  0.00     0.148 A 
ATOM     65  C   UNL A   1      42.080  27.003  25.687  1.00  0.00     0.002 A 
ATOM     66  C   UNL A   1      41.103  25.094  26.819  1.00  0.00     0.091 A 
ATOM     67  F   UNL A   1      40.277  25.355  29.042  1.00  0.00    -0.205 F 
ATOM     68  C   UNL A   1      41.690  25.667  25.679  1.00  0.00     0.022 A 
BRANCH  66  69
ATOM     69  S   UNL A   1      40.713  23.343  26.737  1.00  0.00     0.127 S 
ATOM     70  O   UNL A   1      41.572  22.901  25.638  1.00  0.00    -0.237 OA
ATOM     71  O   UNL A   1      41.129  22.875  28.060  1.00  0.00    -0.237 OA
ATOM     72  O   UNL A   1      39.282  23.258  26.481  1.00  0.00    -0.744 OA
ENDBRANCH  66  69
ENDBRANCH  48  62
BRANCH  49  73
ATOM     73  C   UNL A   1      39.613  32.555  36.242  1.00  0.00     0.023 A 
ATOM     74  C   UNL A   1      40.342  33.724  36.534  1.00  0.00     0.012 A 
ATOM     75  C   UNL A   1      38.626  32.118  37.147  1.00  0.00     0.148 A 
ATOM     76  C   UNL A   1      40.122  34.423  37.722  1.00  0.00     0.002 A 
ATOM     77  C   UNL A   1      38.370  32.851  38.300  1.00  0.00     0.091 A 
ATOM     78  F   UNL A   1      37.949  30.999  36.855  1.00  0.00    -0.205 F 
ATOM     79  C   UNL A   1      39.130  33.992  38.600  1.00  0.00     0.022 A 
BRANCH  77  80
ATOM     80  S   UNL A   1      37.032  32.444  39.426  1.00  0.00     0.127 S 
ATOM     81  O   UNL A   1      37.381  31.082  39.824  1.00  0.00    -0.237 OA
ATOM     82  O   UNL A   1      37.203  33.454  40.471  1.00  0.00    -0.237 OA
ATOM     83  O   UNL A   1      35.806  32.579  38.652  1.00  0.00    -0.744 OA
ENDBRANCH  77  80
ENDBRANCH  49  73
BRANCH  61  84
ATOM     84  C   UNL A   1      44.397  27.786  34.446  1.00  0.00     0.023 A 
ATOM     85  C   UNL A   1      45.621  28.476  34.529  1.00  0.00     0.012 A 
ATOM     86  C   UNL A   1      44.244  26.564  35.131  1.00  0.00     0.148 A 
ATOM     87  C   UNL A   1      46.683  27.948  35.263  1.00  0.00     0.002 A 
ATOM     88  C   UNL A   1      45.287  26.071  35.906  1.00  0.00     0.091 A 
ATOM     89  F   UNL A   1      43.075  25.915  35.026  1.00  0.00    -0.205 F 
ATOM     90  C   UNL A   1      46.511  26.755  35.963  1.00  0.00     0.022 A 
BRANCH  88  91
ATOM     91  S   UNL A   1      45.124  24.598  36.921  1.00  0.00     0.127 S 
ATOM     92  O   UNL A   1      44.237  23.771  36.104  1.00  0.00    -0.237 OA
ATOM     93  O   UNL A   1      46.505  24.122  36.995  1.00  0.00    -0.237 OA
ATOM     94  O   UNL A   1      44.562  25.039  38.191  1.00  0.00    -0.744 OA
ENDBRANCH  88  91
ENDBRANCH  61  84
ENDBRANCH  35  36
ENDBRANCH  27  30
ENDBRANCH  25  26
ENDBRANCH   1  25
TORSDOF 17
ENDMDL
MODEL 3
REMARK VINA RESULT:     -11.9      5.291     10.363
REMARK SMILES CC[C@@](C)(NC(=O)Nc1ccccc1C#N)C(=O)NCCCNC(=O)c1ccc(-c2c3nc(c(-c4cccc(S(=O)(=O)[O-])c4F)c4ccc([nH]4)c(-c4cccc(S(=O)(=O)[O-])c4F)c4nc(c(-c5cccc(S(=O)(=O)[O-])c5F)c5ccc2[nH]5)C=C4)C=C3)cc1
REMARK SMILES IDX 21 1 20 2 19 3 17 4 18 5 3 7 4 8 2 9 1 10 5 11 6 12 7 14
REMARK SMILES IDX 8 15 9 17 10 18 14 19 11 20 13 21 12 22 15 23 16 24 22 25
REMARK SMILES IDX 23 26 24 27 25 29 26 30 27 31 88 32 28 33 87 34 29 35 30 36
REMARK SMILES IDX 31 37 81 38 32 39 86 40 80 41 82 42 33 43 85 44 79 45 78 46
REMARK SMILES IDX 34 48 66 49 46 50 65 51 47 52 50 53 64 54 83 55 48 56 49 57
REMARK SMILES IDX 63 59 84 60 51 61 35 62 36 63 44 64 37 65 39 66 45 67 38 68
REMARK SMILES IDX 40 69 41 70 42 71 43 72 67 73 68 74 76 75 69 76 71 77 77 78
REMARK SMILES IDX 70 79 72 80 73 81 74 82 75 83 52 84 53 85 61 86 54 87 56 88
REMARK SMILES IDX 62 89 55 90 57 91 58 92 59 93 60 94
REMARK H PARENT 19 6 5 13 8 16 23 28 82 47 50 58
REMARK Flexibility Score: inf
ROOT
ATOM      1  C   UNL A   1      36.271  22.396  23.867  1.00  0.00     0.042 C 
ENDROOT
BRANCH   1   2
ATOM      2  C   UNL A   1      34.997  23.249  23.625  1.00  0.00     0.117 C 
BRANCH   2   3
ATOM      3  N   UNL A   1      33.769  22.465  23.673  1.00  0.00    -0.354 N 
ATOM      4  C   UNL A   1      32.559  22.651  24.329  1.00  0.00     0.245 C 
ATOM      5  O   UNL A   1      31.521  22.926  23.732  1.00  0.00    -0.272 OA
ATOM      6  H   UNL A   1      33.804  21.642  23.134  1.00  0.00     0.163 HD
BRANCH   4   7
ATOM      7  C   UNL A   1      32.622  22.490  25.859  1.00  0.00     0.117 C 
ATOM      8  C   UNL A   1      33.063  20.997  25.927  1.00  0.00     0.045 C 
BRANCH   7   9
ATOM      9  C   UNL A   1      33.565  23.267  26.810  1.00  0.00     0.035 C 
ATOM     10  C   UNL A   1      34.261  22.535  27.933  1.00  0.00     0.007 C 
ENDBRANCH   7   9
BRANCH   7  11
ATOM     11  N   UNL A   1      31.257  22.745  26.351  1.00  0.00    -0.324 N 
ATOM     12  C   UNL A   1      30.555  23.862  26.614  1.00  0.00     0.320 C 
ATOM     13  H   UNL A   1      30.749  21.919  26.524  1.00  0.00     0.166 HD
ATOM     14  O   UNL A   1      29.509  23.695  27.250  1.00  0.00    -0.248 OA
ATOM     15  N   UNL A   1      30.759  25.126  26.136  1.00  0.00    -0.307 N 
ATOM     16  H   UNL A   1      29.899  25.565  25.942  1.00  0.00     0.171 HD
BRANCH  15  17
ATOM     17  C   UNL A   1      31.856  26.007  25.833  1.00  0.00     0.060 A 
ATOM     18  C   UNL A   1      32.142  26.912  26.872  1.00  0.00     0.027 A 
ATOM     19  C   UNL A   1      32.458  26.334  24.584  1.00  0.00     0.076 A 
ATOM     20  C   UNL A   1      33.138  27.894  26.760  1.00  0.00     0.002 A 
ATOM     21  C   UNL A   1      33.571  27.199  24.528  1.00  0.00     0.021 A 
ATOM     22  C   UNL A   1      33.915  27.976  25.618  1.00  0.00     0.002 A 
BRANCH  19  23
ATOM     23  C   UNL A   1      31.922  26.137  23.262  1.00  0.00     0.101 C 
ATOM     24  N   UNL A   1      31.404  26.072  22.216  1.00  0.00    -0.192 NA
ENDBRANCH  19  23
ENDBRANCH  15  17
ENDBRANCH   7  11
ENDBRANCH   4   7
ENDBRANCH   2   3
ENDBRANCH   1   2
BRANCH   1  25
ATOM     25  C   UNL A   1      36.610  21.920  25.287  1.00  0.00     0.118 C 
BRANCH  25  26
ATOM     26  N   UNL A   1      37.618  20.883  25.364  1.00  0.00    -0.352 N 
ATOM     27  C   UNL A   1      38.903  20.930  25.851  1.00  0.00     0.251 C 
ATOM     28  H   UNL A   1      37.340  20.006  25.013  1.00  0.00     0.163 HD
ATOM     29  O   UNL A   1      39.632  19.943  25.798  1.00  0.00    -0.269 OA
BRANCH  27  30
ATOM     30  C   UNL A   1      39.440  22.191  26.404  1.00  0.00     0.039 A 
ATOM     31  C   UNL A   1      40.542  22.119  27.260  1.00  0.00     0.014 A 
ATOM     32  C   UNL A   1      38.875  23.429  26.091  1.00  0.00     0.014 A 
ATOM     33  C   UNL A   1      41.135  23.293  27.729  1.00  0.00     0.010 A 
ATOM     34  C   UNL A   1      39.510  24.602  26.506  1.00  0.00     0.010 A 
ATOM     35  C   UNL A   1      40.657  24.548  27.316  1.00  0.00    -0.014 A 
BRANCH  35  36
ATOM     36  C   UNL A   1      41.373  25.803  27.683  1.00  0.00     0.031 A 
ATOM     37  C   UNL A   1      40.667  26.897  28.436  1.00  0.00     0.074 A 
ATOM     38  C   UNL A   1      42.639  25.995  27.257  1.00  0.00     0.049 A 
ATOM     39  N   UNL A   1      41.101  28.088  28.759  1.00  0.00    -0.248 NA
ATOM     40  C   UNL A   1      39.285  26.627  28.864  1.00  0.00     0.031 C 
ATOM     41  C   UNL A   1      43.422  25.039  26.472  1.00  0.00     0.029 A 
ATOM     42  N   UNL A   1      43.483  27.072  27.399  1.00  0.00    -0.354 N 
ATOM     43  C   UNL A   1      40.038  28.723  29.391  1.00  0.00     0.074 A 
ATOM     44  C   UNL A   1      38.930  27.794  29.383  1.00  0.00     0.031 C 
ATOM     45  C   UNL A   1      44.626  25.568  26.202  1.00  0.00     0.029 A 
ATOM     46  C   UNL A   1      44.688  26.920  26.750  1.00  0.00     0.049 A 
ATOM     47  H   UNL A   1      43.247  27.877  27.916  1.00  0.00     0.167 HD
ATOM     48  C   UNL A   1      39.993  29.959  29.945  1.00  0.00     0.034 A 
ATOM     49  C   UNL A   1      45.717  27.776  26.589  1.00  0.00     0.034 A 
ATOM     50  C   UNL A   1      41.104  30.873  29.972  1.00  0.00     0.049 A 
ATOM     51  C   UNL A   1      45.639  29.145  27.208  1.00  0.00     0.074 A 
ATOM     52  C   UNL A   1      41.177  32.116  30.578  1.00  0.00     0.029 A 
ATOM     53  N   UNL A   1      42.325  30.658  29.354  1.00  0.00    -0.354 N 
ATOM     54  N   UNL A   1      44.673  29.676  27.916  1.00  0.00    -0.248 NA
ATOM     55  C   UNL A   1      46.804  30.025  27.031  1.00  0.00     0.031 C 
ATOM     56  C   UNL A   1      42.423  32.674  30.281  1.00  0.00     0.029 A 
ATOM     57  C   UNL A   1      43.150  31.754  29.543  1.00  0.00     0.049 A 
ATOM     58  H   UNL A   1      42.570  29.847  28.853  1.00  0.00     0.167 HD
ATOM     59  C   UNL A   1      45.129  30.929  28.306  1.00  0.00     0.074 A 
ATOM     60  C   UNL A   1      46.464  31.076  27.765  1.00  0.00     0.031 C 
ATOM     61  C   UNL A   1      44.497  31.873  29.045  1.00  0.00     0.034 A 
BRANCH  48  62
ATOM     62  C   UNL A   1      38.702  30.396  30.589  1.00  0.00     0.023 A 
ATOM     63  C   UNL A   1      38.479  30.146  31.958  1.00  0.00     0.012 A 
ATOM     64  C   UNL A   1      37.736  31.111  29.852  1.00  0.00     0.148 A 
ATOM     65  C   UNL A   1      37.298  30.561  32.574  1.00  0.00     0.002 A 
ATOM     66  C   UNL A   1      36.586  31.567  30.485  1.00  0.00     0.091 A 
ATOM     67  F   UNL A   1      37.959  31.329  28.549  1.00  0.00    -0.205 F 
ATOM     68  C   UNL A   1      36.358  31.280  31.841  1.00  0.00     0.022 A 
BRANCH  66  69
ATOM     69  S   UNL A   1      35.353  32.572  29.650  1.00  0.00     0.127 S 
ATOM     70  O   UNL A   1      34.371  32.777  30.715  1.00  0.00    -0.237 OA
ATOM     71  O   UNL A   1      36.122  33.764  29.293  1.00  0.00    -0.237 OA
ATOM     72  O   UNL A   1      34.886  31.784  28.519  1.00  0.00    -0.744 OA
ENDBRANCH  66  69
ENDBRANCH  48  62
BRANCH  49  73
ATOM     73  C   UNL A   1      46.929  27.355  25.826  1.00  0.00     0.023 A 
ATOM     74  C   UNL A   1      47.922  26.588  26.465  1.00  0.00     0.012 A 
ATOM     75  C   UNL A   1      47.098  27.706  24.472  1.00  0.00     0.148 A 
ATOM     76  C   UNL A   1      49.080  26.211  25.782  1.00  0.00     0.002 A 
ATOM     77  C   UNL A   1      48.226  27.278  23.781  1.00  0.00     0.091 A 
ATOM     78  F   UNL A   1      46.146  28.443  23.884  1.00  0.00    -0.205 F 
ATOM     79  C   UNL A   1      49.227  26.548  24.439  1.00  0.00     0.022 A 
BRANCH  77  80
ATOM     80  S   UNL A   1      48.443  27.557  22.021  1.00  0.00     0.127 S 
ATOM     81  O   UNL A   1      47.185  28.208  21.664  1.00  0.00    -0.237 OA
ATOM     82  O   UNL A   1      49.617  28.431  21.999  1.00  0.00    -0.237 OA
ATOM     83  O   UNL A   1      48.660  26.242  21.433  1.00  0.00    -0.744 OA
ENDBRANCH  77  80
ENDBRANCH  49  73
BRANCH  61  84
ATOM     84  C   UNL A   1      45.250  33.136  29.378  1.00  0.00     0.023 A 
ATOM     85  C   UNL A   1      46.068  33.197  30.522  1.00  0.00     0.012 A 
ATOM     86  C   UNL A   1      45.218  34.230  28.491  1.00  0.00     0.148 A 
ATOM     87  C   UNL A   1      46.825  34.338  30.791  1.00  0.00     0.002 A 
ATOM     88  C   UNL A   1      46.016  35.340  28.735  1.00  0.00     0.091 A 
ATOM     89  F   UNL A   1      44.419  34.157  27.415  1.00  0.00    -0.205 F 
ATOM     90  C   UNL A   1      46.811  35.401  29.891  1.00  0.00     0.022 A 
BRANCH  88  91
ATOM     91  S   UNL A   1      46.141  36.712  27.582  1.00  0.00     0.127 S 
ATOM     92  O   UNL A   1      47.167  37.540  28.214  1.00  0.00    -0.237 OA
ATOM     93  O   UNL A   1      46.568  36.043  26.353  1.00  0.00    -0.237 OA
ATOM     94  O   UNL A   1      44.815  37.312  27.519  1.00  0.00    -0.744 OA
ENDBRANCH  88  91
ENDBRANCH  61  84
ENDBRANCH  35  36
ENDBRANCH  27  30
ENDBRANCH  25  26
ENDBRANCH   1  25
TORSDOF 17
ENDMDL
