MODEL 1
REMARK VINA RESULT:     -12.5      0.000      0.000
REMARK SMILES CN(C)S(=O)(=O)c1cccc(-c2cc(Cl)cc(C(=O)NCCCNC(=O)c3ccc(-c4c5nc(c(-c6cccc(S(=O)(=O)[O-])c6F)c6ccc([nH]6)c(-c6cccc(S(=O)(=O)[O-])c6F)c6nc(c(-c7cccc(S(=O)(=O)[O-])c7F)c7ccc4[nH]7)C=C6)C=C5)cc3)c2)c1
REMARK SMILES IDX 22 1 21 2 20 3 18 4 19 5 17 7 12 8 13 9 90 10 14 11 15 12
REMARK SMILES IDX 16 13 11 14 7 15 8 16 91 17 9 18 10 19 4 20 5 21 6 22 2 23
REMARK SMILES IDX 1 24 3 25 23 26 24 27 25 28 26 30 27 31 28 32 89 33 29 34
REMARK SMILES IDX 88 35 30 36 31 37 32 38 82 39 33 40 87 41 81 42 83 43 34 44
REMARK SMILES IDX 86 45 80 46 79 47 35 49 67 50 47 51 66 52 48 53 51 54 65 55
REMARK SMILES IDX 84 56 49 57 50 58 64 60 85 61 52 62 36 63 37 64 45 65 38 66
REMARK SMILES IDX 40 67 46 68 39 69 41 70 42 71 43 72 44 73 68 74 69 75 77 76
REMARK SMILES IDX 70 77 72 78 78 79 71 80 73 81 74 82 75 83 76 84 53 85 54 86
REMARK SMILES IDX 62 87 55 88 57 89 63 90 56 91 58 92 59 93 60 94 61 95
REMARK H PARENT 20 6 24 29 83 48 51 59
REMARK Flexibility Score: inf
ROOT
ATOM      1  C   UNL A   1      33.063  27.919  26.587  1.00  0.00     0.042 C 
ENDROOT
BRANCH   1   2
ATOM      2  C   UNL A   1      31.619  28.036  26.130  1.00  0.00     0.118 C 
BRANCH   2   3
ATOM      3  N   UNL A   1      30.757  26.933  26.557  1.00  0.00    -0.352 N 
ATOM      4  C   UNL A   1      30.510  25.657  26.105  1.00  0.00     0.251 C 
ATOM      5  O   UNL A   1      29.698  24.975  26.732  1.00  0.00    -0.269 OA
ATOM      6  H   UNL A   1      30.227  27.158  27.356  1.00  0.00     0.163 HD
BRANCH   4   7
ATOM      7  C   UNL A   1      31.126  25.066  24.885  1.00  0.00     0.041 A 
ATOM      8  C   UNL A   1      32.513  23.353  23.811  1.00  0.00    -0.016 A 
ATOM      9  C   UNL A   1      32.514  24.115  22.638  1.00  0.00     0.029 A 
ATOM     10  C   UNL A   1      31.697  23.800  24.865  1.00  0.00     0.022 A 
ATOM     11  C   UNL A   1      31.794  25.312  22.576  1.00  0.00     0.042 A 
ATOM     12  Cl  UNL A   1      31.759  26.203  21.104  1.00  0.00    -0.084 Cl
ATOM     13  C   UNL A   1      31.139  25.811  23.703  1.00  0.00     0.034 A 
BRANCH   8  14
ATOM     14  C   UNL A   1      33.424  22.207  24.041  1.00  0.00    -0.017 A 
ATOM     15  C   UNL A   1      33.735  19.822  24.493  1.00  0.00     0.083 A 
ATOM     16  C   UNL A   1      35.042  20.042  24.917  1.00  0.00     0.022 A 
ATOM     17  C   UNL A   1      32.940  20.888  24.055  1.00  0.00     0.030 A 
ATOM     18  C   UNL A   1      35.555  21.337  24.883  1.00  0.00     0.002 A 
ATOM     19  C   UNL A   1      34.755  22.404  24.451  1.00  0.00     0.009 A 
BRANCH  15  20
ATOM     20  S   UNL A   1      32.974  18.230  24.710  1.00  0.00     0.242 S 
ATOM     21  O   UNL A   1      32.015  18.056  23.632  1.00  0.00    -0.207 OA
ATOM     22  O   UNL A   1      32.570  18.108  26.091  1.00  0.00    -0.207 OA
BRANCH  20  23
ATOM     23  N   UNL A   1      34.252  17.115  24.440  1.00  0.00    -0.204 NA
ATOM     24  C   UNL A   1      34.204  15.988  25.405  1.00  0.00     0.124 C 
ATOM     25  C   UNL A   1      34.386  16.620  23.052  1.00  0.00     0.124 C 
ENDBRANCH  20  23
ENDBRANCH  15  20
ENDBRANCH   8  14
ENDBRANCH   4   7
ENDBRANCH   2   3
ENDBRANCH   1   2
BRANCH   1  26
ATOM     26  C   UNL A   1      34.000  28.950  25.980  1.00  0.00     0.118 C 
BRANCH  26  27
ATOM     27  N   UNL A   1      33.873  30.265  26.601  1.00  0.00    -0.352 N 
ATOM     28  C   UNL A   1      34.589  30.873  27.603  1.00  0.00     0.251 C 
ATOM     29  H   UNL A   1      33.144  30.816  26.233  1.00  0.00     0.163 HD
ATOM     30  O   UNL A   1      34.160  31.920  28.084  1.00  0.00    -0.269 OA
BRANCH  28  31
ATOM     31  C   UNL A   1      35.856  30.298  28.111  1.00  0.00     0.039 A 
ATOM     32  C   UNL A   1      35.859  29.641  29.347  1.00  0.00     0.014 A 
ATOM     33  C   UNL A   1      37.055  30.458  27.415  1.00  0.00     0.014 A 
ATOM     34  C   UNL A   1      37.049  29.110  29.855  1.00  0.00     0.010 A 
ATOM     35  C   UNL A   1      38.214  29.839  27.868  1.00  0.00     0.010 A 
ATOM     36  C   UNL A   1      38.234  29.184  29.107  1.00  0.00    -0.014 A 
BRANCH  36  37
ATOM     37  C   UNL A   1      39.518  28.632  29.608  1.00  0.00     0.031 A 
ATOM     38  C   UNL A   1      40.241  29.321  30.739  1.00  0.00     0.074 A 
ATOM     39  C   UNL A   1      40.091  27.586  28.979  1.00  0.00     0.049 A 
ATOM     40  N   UNL A   1      41.420  29.066  31.243  1.00  0.00    -0.248 NA
ATOM     41  C   UNL A   1      39.566  30.477  31.354  1.00  0.00     0.031 C 
ATOM     42  C   UNL A   1      39.538  26.891  27.816  1.00  0.00     0.029 A 
ATOM     43  N   UNL A   1      41.282  26.947  29.213  1.00  0.00    -0.354 N 
ATOM     44  C   UNL A   1      41.651  30.061  32.188  1.00  0.00     0.074 A 
ATOM     45  C   UNL A   1      40.507  30.944  32.160  1.00  0.00     0.031 C 
ATOM     46  C   UNL A   1      40.387  25.921  27.439  1.00  0.00     0.029 A 
ATOM     47  C   UNL A   1      41.552  25.938  28.318  1.00  0.00     0.049 A 
ATOM     48  H   UNL A   1      41.887  27.186  29.953  1.00  0.00     0.167 HD
ATOM     49  C   UNL A   1      42.703  30.209  33.028  1.00  0.00     0.034 A 
ATOM     50  C   UNL A   1      42.618  25.120  28.217  1.00  0.00     0.034 A 
ATOM     51  C   UNL A   1      43.797  29.280  33.110  1.00  0.00     0.049 A 
ATOM     52  C   UNL A   1      43.722  25.235  29.233  1.00  0.00     0.074 A 
ATOM     53  C   UNL A   1      44.857  29.272  33.999  1.00  0.00     0.029 A 
ATOM     54  N   UNL A   1      43.965  28.185  32.277  1.00  0.00    -0.354 N 
ATOM     55  N   UNL A   1      43.846  26.085  30.224  1.00  0.00    -0.248 NA
ATOM     56  C   UNL A   1      44.811  24.251  29.147  1.00  0.00     0.031 C 
ATOM     57  C   UNL A   1      45.668  28.172  33.700  1.00  0.00     0.029 A 
ATOM     58  C   UNL A   1      45.106  27.489  32.633  1.00  0.00     0.049 A 
ATOM     59  H   UNL A   1      43.360  27.938  31.539  1.00  0.00     0.167 HD
ATOM     60  C   UNL A   1      45.003  25.717  30.901  1.00  0.00     0.074 A 
ATOM     61  C   UNL A   1      45.533  24.554  30.217  1.00  0.00     0.031 C 
ATOM     62  C   UNL A   1      45.584  26.297  31.981  1.00  0.00     0.034 A 
BRANCH  49  63
ATOM     63  C   UNL A   1      42.679  31.380  33.976  1.00  0.00     0.023 A 
ATOM     64  C   UNL A   1      43.351  32.569  33.626  1.00  0.00     0.012 A 
ATOM     65  C   UNL A   1      41.968  31.323  35.190  1.00  0.00     0.148 A 
ATOM     66  C   UNL A   1      43.356  33.665  34.487  1.00  0.00     0.002 A 
ATOM     67  C   UNL A   1      41.939  32.437  36.023  1.00  0.00     0.091 A 
ATOM     68  F   UNL A   1      41.354  30.179  35.522  1.00  0.00    -0.205 F 
ATOM     69  C   UNL A   1      42.643  33.603  35.680  1.00  0.00     0.022 A 
BRANCH  67  70
ATOM     70  S   UNL A   1      40.981  32.477  37.543  1.00  0.00     0.127 S 
ATOM     71  O   UNL A   1      40.761  33.913  37.717  1.00  0.00    -0.237 OA
ATOM     72  O   UNL A   1      39.783  31.720  37.176  1.00  0.00    -0.237 OA
ATOM     73  O   UNL A   1      41.812  31.838  38.553  1.00  0.00    -0.744 OA
ENDBRANCH  67  70
ENDBRANCH  49  63
BRANCH  50  74
ATOM     74  C   UNL A   1      42.633  24.055  27.176  1.00  0.00     0.023 A 
ATOM     75  C   UNL A   1      43.330  24.284  25.973  1.00  0.00     0.012 A 
ATOM     76  C   UNL A   1      42.016  22.807  27.386  1.00  0.00     0.148 A 
ATOM     77  C   UNL A   1      43.391  23.299  24.987  1.00  0.00     0.002 A 
ATOM     78  C   UNL A   1      42.123  21.812  26.419  1.00  0.00     0.091 A 
ATOM     79  F   UNL A   1      41.350  22.611  28.532  1.00  0.00    -0.205 F 
ATOM     80  C   UNL A   1      42.797  22.061  25.213  1.00  0.00     0.022 A 
BRANCH  78  81
ATOM     81  S   UNL A   1      41.502  20.145  26.679  1.00  0.00     0.127 S 
ATOM     82  O   UNL A   1      41.876  19.488  25.430  1.00  0.00    -0.237 OA
ATOM     83  O   UNL A   1      42.264  19.716  27.852  1.00  0.00    -0.237 OA
ATOM     84  O   UNL A   1      40.072  20.292  26.915  1.00  0.00    -0.744 OA
ENDBRANCH  78  81
ENDBRANCH  50  74
BRANCH  62  85
ATOM     85  C   UNL A   1      46.839  25.668  32.521  1.00  0.00     0.023 A 
ATOM     86  C   UNL A   1      48.095  26.098  32.048  1.00  0.00     0.012 A 
ATOM     87  C   UNL A   1      46.778  24.712  33.554  1.00  0.00     0.148 A 
ATOM     88  C   UNL A   1      49.269  25.564  32.576  1.00  0.00     0.002 A 
ATOM     89  C   UNL A   1      47.954  24.219  34.107  1.00  0.00     0.091 A 
ATOM     90  F   UNL A   1      45.573  24.299  33.976  1.00  0.00    -0.205 F 
ATOM     91  C   UNL A   1      49.200  24.635  33.612  1.00  0.00     0.022 A 
BRANCH  89  92
ATOM     92  S   UNL A   1      47.950  23.093  35.507  1.00  0.00     0.127 S 
ATOM     93  O   UNL A   1      48.951  23.699  36.382  1.00  0.00    -0.237 OA
ATOM     94  O   UNL A   1      46.573  23.198  35.992  1.00  0.00    -0.237 OA
ATOM     95  O   UNL A   1      48.295  21.786  34.962  1.00  0.00    -0.744 OA
ENDBRANCH  89  92
ENDBRANCH  62  85
ENDBRANCH  36  37
ENDBRANCH  28  31
ENDBRANCH  26  27
ENDBRANCH   1  26
TORSDOF 16
ENDMDL
MODEL 2
REMARK VINA RESULT:     -12.2      5.706      8.877
REMARK SMILES CN(C)S(=O)(=O)c1cccc(-c2cc(Cl)cc(C(=O)NCCCNC(=O)c3ccc(-c4c5nc(c(-c6cccc(S(=O)(=O)[O-])c6F)c6ccc([nH]6)c(-c6cccc(S(=O)(=O)[O-])c6F)c6nc(c(-c7cccc(S(=O)(=O)[O-])c7F)c7ccc4[nH]7)C=C6)C=C5)cc3)c2)c1
REMARK SMILES IDX 22 1 21 2 20 3 18 4 19 5 17 7 12 8 13 9 90 10 14 11 15 12
REMARK SMILES IDX 16 13 11 14 7 15 8 16 91 17 9 18 10 19 4 20 5 21 6 22 2 23
REMARK SMILES IDX 1 24 3 25 23 26 24 27 25 28 26 30 27 31 28 32 89 33 29 34
REMARK SMILES IDX 88 35 30 36 31 37 32 38 82 39 33 40 87 41 81 42 83 43 34 44
REMARK SMILES IDX 86 45 80 46 79 47 35 49 67 50 47 51 66 52 48 53 51 54 65 55
REMARK SMILES IDX 84 56 49 57 50 58 64 60 85 61 52 62 36 63 37 64 45 65 38 66
REMARK SMILES IDX 40 67 46 68 39 69 41 70 42 71 43 72 44 73 68 74 69 75 77 76
REMARK SMILES IDX 70 77 72 78 78 79 71 80 73 81 74 82 75 83 76 84 53 85 54 86
REMARK SMILES IDX 62 87 55 88 57 89 63 90 56 91 58 92 59 93 60 94 61 95
REMARK H PARENT 20 6 24 29 83 48 51 59
REMARK Flexibility Score: inf
ROOT
ATOM      1  C   UNL A   1      38.200  19.947  24.898  1.00  0.00     0.042 C 
ENDROOT
BRANCH   1   2
ATOM      2  C   UNL A   1      37.398  21.183  24.529  1.00  0.00     0.118 C 
BRANCH   2   3
ATOM      3  N   UNL A   1      37.903  22.429  25.108  1.00  0.00    -0.352 N 
ATOM      4  C   UNL A   1      37.333  23.523  25.718  1.00  0.00     0.251 C 
ATOM      5  O   UNL A   1      38.085  24.420  26.103  1.00  0.00    -0.269 OA
ATOM      6  H   UNL A   1      38.883  22.503  25.043  1.00  0.00     0.163 HD
BRANCH   4   7
ATOM      7  C   UNL A   1      35.868  23.710  25.902  1.00  0.00     0.041 A 
ATOM      8  C   UNL A   1      33.858  25.106  25.737  1.00  0.00    -0.016 A 
ATOM      9  C   UNL A   1      33.165  24.167  26.507  1.00  0.00     0.029 A 
ATOM     10  C   UNL A   1      35.166  24.773  25.346  1.00  0.00     0.022 A 
ATOM     11  C   UNL A   1      33.801  22.996  26.930  1.00  0.00     0.042 A 
ATOM     12  Cl  UNL A   1      32.912  21.826  27.826  1.00  0.00    -0.084 Cl
ATOM     13  C   UNL A   1      35.156  22.785  26.670  1.00  0.00     0.034 A 
BRANCH   8  14
ATOM     14  C   UNL A   1      33.343  26.464  25.446  1.00  0.00    -0.017 A 
ATOM     15  C   UNL A   1      31.971  27.945  24.061  1.00  0.00     0.083 A 
ATOM     16  C   UNL A   1      32.645  29.066  24.539  1.00  0.00     0.022 A 
ATOM     17  C   UNL A   1      32.311  26.665  24.514  1.00  0.00     0.030 A 
ATOM     18  C   UNL A   1      33.651  28.895  25.489  1.00  0.00     0.002 A 
ATOM     19  C   UNL A   1      33.995  27.611  25.934  1.00  0.00     0.009 A 
BRANCH  15  20
ATOM     20  S   UNL A   1      30.828  28.091  22.708  1.00  0.00     0.242 S 
ATOM     21  O   UNL A   1      30.978  26.906  21.882  1.00  0.00    -0.207 OA
ATOM     22  O   UNL A   1      30.966  29.413  22.143  1.00  0.00    -0.207 OA
BRANCH  20  23
ATOM     23  N   UNL A   1      29.284  28.002  23.453  1.00  0.00    -0.204 NA
ATOM     24  C   UNL A   1      28.275  28.800  22.714  1.00  0.00     0.124 C 
ATOM     25  C   UNL A   1      28.784  26.636  23.726  1.00  0.00     0.124 C 
ENDBRANCH  20  23
ENDBRANCH  15  20
ENDBRANCH   8  14
ENDBRANCH   4   7
ENDBRANCH   2   3
ENDBRANCH   1   2
BRANCH   1  26
ATOM     26  C   UNL A   1      39.158  20.145  26.061  1.00  0.00     0.118 C 
BRANCH  26  27
ATOM     27  N   UNL A   1      40.311  19.253  26.002  1.00  0.00    -0.352 N 
ATOM     28  C   UNL A   1      41.661  19.504  26.036  1.00  0.00     0.251 C 
ATOM     29  H   UNL A   1      40.079  18.298  25.928  1.00  0.00     0.163 HD
ATOM     30  O   UNL A   1      42.439  18.588  25.774  1.00  0.00    -0.269 OA
BRANCH  28  31
ATOM     31  C   UNL A   1      42.194  20.842  26.377  1.00  0.00     0.039 A 
ATOM     32  C   UNL A   1      42.275  21.819  25.376  1.00  0.00     0.014 A 
ATOM     33  C   UNL A   1      42.678  21.126  27.654  1.00  0.00     0.014 A 
ATOM     34  C   UNL A   1      42.795  23.083  25.673  1.00  0.00     0.010 A 
ATOM     35  C   UNL A   1      43.095  22.413  27.974  1.00  0.00     0.010 A 
ATOM     36  C   UNL A   1      43.188  23.399  26.982  1.00  0.00    -0.014 A 
BRANCH  36  37
ATOM     37  C   UNL A   1      43.744  24.729  27.340  1.00  0.00     0.031 A 
ATOM     38  C   UNL A   1      42.831  25.804  27.876  1.00  0.00     0.074 A 
ATOM     39  C   UNL A   1      45.036  25.009  27.081  1.00  0.00     0.049 A 
ATOM     40  N   UNL A   1      43.095  27.057  28.141  1.00  0.00    -0.248 NA
ATOM     41  C   UNL A   1      41.423  25.430  28.103  1.00  0.00     0.031 C 
ATOM     42  C   UNL A   1      45.998  24.086  26.479  1.00  0.00     0.029 A 
ATOM     43  N   UNL A   1      45.754  26.164  27.264  1.00  0.00    -0.354 N 
ATOM     44  C   UNL A   1      41.882  27.631  28.505  1.00  0.00     0.074 A 
ATOM     45  C   UNL A   1      40.875  26.600  28.392  1.00  0.00     0.031 C 
ATOM     46  C   UNL A   1      47.181  24.708  26.343  1.00  0.00     0.029 A 
ATOM     47  C   UNL A   1      47.056  26.079  26.828  1.00  0.00     0.049 A 
ATOM     48  H   UNL A   1      45.374  26.977  27.670  1.00  0.00     0.167 HD
ATOM     49  C   UNL A   1      41.632  28.893  28.930  1.00  0.00     0.034 A 
ATOM     50  C   UNL A   1      48.037  27.002  26.821  1.00  0.00     0.034 A 
ATOM     51  C   UNL A   1      42.651  29.888  29.121  1.00  0.00     0.049 A 
ATOM     52  C   UNL A   1      47.760  28.364  27.401  1.00  0.00     0.074 A 
ATOM     53  C   UNL A   1      42.524  31.160  29.651  1.00  0.00     0.029 A 
ATOM     54  N   UNL A   1      43.988  29.719  28.800  1.00  0.00    -0.354 N 
ATOM     55  N   UNL A   1      46.641  28.839  27.891  1.00  0.00    -0.248 NA
ATOM     56  C   UNL A   1      48.891  29.300  27.468  1.00  0.00     0.031 C 
ATOM     57  C   UNL A   1      43.788  31.761  29.646  1.00  0.00     0.029 A 
ATOM     58  C   UNL A   1      44.702  30.859  29.125  1.00  0.00     0.049 A 
ATOM     59  H   UNL A   1      44.374  28.906  28.399  1.00  0.00     0.167 HD
ATOM     60  C   UNL A   1      46.940  30.113  28.359  1.00  0.00     0.074 A 
ATOM     61  C   UNL A   1      48.351  30.328  28.110  1.00  0.00     0.031 C 
ATOM     62  C   UNL A   1      46.118  31.030  28.929  1.00  0.00     0.034 A 
BRANCH  49  63
ATOM     63  C   UNL A   1      40.209  29.239  29.285  1.00  0.00     0.023 A 
ATOM     64  C   UNL A   1      39.305  29.593  28.262  1.00  0.00     0.012 A 
ATOM     65  C   UNL A   1      39.754  29.182  30.616  1.00  0.00     0.148 A 
ATOM     66  C   UNL A   1      37.986  29.929  28.562  1.00  0.00     0.002 A 
ATOM     67  C   UNL A   1      38.424  29.474  30.902  1.00  0.00     0.091 A 
ATOM     68  F   UNL A   1      40.629  28.868  31.582  1.00  0.00    -0.205 F 
ATOM     69  C   UNL A   1      37.543  29.860  29.879  1.00  0.00     0.022 A 
BRANCH  67  70
ATOM     70  S   UNL A   1      37.743  29.335  32.559  1.00  0.00     0.127 S 
ATOM     71  O   UNL A   1      37.968  27.921  32.855  1.00  0.00    -0.237 OA
ATOM     72  O   UNL A   1      38.587  30.257  33.321  1.00  0.00    -0.237 OA
ATOM     73  O   UNL A   1      36.350  29.743  32.451  1.00  0.00    -0.744 OA
ENDBRANCH  67  70
ENDBRANCH  49  63
BRANCH  50  74
ATOM     74  C   UNL A   1      49.397  26.629  26.341  1.00  0.00     0.023 A 
ATOM     75  C   UNL A   1      50.164  25.722  27.098  1.00  0.00     0.012 A 
ATOM     76  C   UNL A   1      49.912  27.116  25.125  1.00  0.00     0.148 A 
ATOM     77  C   UNL A   1      51.430  25.326  26.667  1.00  0.00     0.002 A 
ATOM     78  C   UNL A   1      51.153  26.679  24.675  1.00  0.00     0.091 A 
ATOM     79  F   UNL A   1      49.171  27.986  24.423  1.00  0.00    -0.205 F 
ATOM     80  C   UNL A   1      51.920  25.796  25.452  1.00  0.00     0.022 A 
BRANCH  78  81
ATOM     81  S   UNL A   1      51.808  27.128  23.062  1.00  0.00     0.127 S 
ATOM     82  O   UNL A   1      52.034  28.562  23.220  1.00  0.00    -0.237 OA
ATOM     83  O   UNL A   1      53.024  26.318  22.991  1.00  0.00    -0.237 OA
ATOM     84  O   UNL A   1      50.779  26.749  22.103  1.00  0.00    -0.744 OA
ENDBRANCH  78  81
ENDBRANCH  50  74
BRANCH  62  85
ATOM     85  C   UNL A   1      46.724  32.338  29.362  1.00  0.00     0.023 A 
ATOM     86  C   UNL A   1      47.286  32.455  30.648  1.00  0.00     0.012 A 
ATOM     87  C   UNL A   1      46.808  33.423  28.467  1.00  0.00     0.148 A 
ATOM     88  C   UNL A   1      47.898  33.642  31.046  1.00  0.00     0.002 A 
ATOM     89  C   UNL A   1      47.460  34.587  28.855  1.00  0.00     0.091 A 
ATOM     90  F   UNL A   1      46.246  33.299  27.255  1.00  0.00    -0.205 F 
ATOM     91  C   UNL A   1      47.997  34.703  30.147  1.00  0.00     0.022 A 
BRANCH  89  92
ATOM     92  S   UNL A   1      47.711  35.961  27.725  1.00  0.00     0.127 S 
ATOM     93  O   UNL A   1      48.452  36.904  28.560  1.00  0.00    -0.237 OA
ATOM     94  O   UNL A   1      48.497  35.348  26.654  1.00  0.00    -0.237 OA
ATOM     95  O   UNL A   1      46.378  36.387  27.321  1.00  0.00    -0.744 OA
ENDBRANCH  89  92
ENDBRANCH  62  85
ENDBRANCH  36  37
ENDBRANCH  28  31
ENDBRANCH  26  27
ENDBRANCH   1  26
TORSDOF 16
ENDMDL
MODEL 3
REMARK VINA RESULT:     -12.1      2.338      3.194
REMARK SMILES CN(C)S(=O)(=O)c1cccc(-c2cc(Cl)cc(C(=O)NCCCNC(=O)c3ccc(-c4c5nc(c(-c6cccc(S(=O)(=O)[O-])c6F)c6ccc([nH]6)c(-c6cccc(S(=O)(=O)[O-])c6F)c6nc(c(-c7cccc(S(=O)(=O)[O-])c7F)c7ccc4[nH]7)C=C6)C=C5)cc3)c2)c1
REMARK SMILES IDX 22 1 21 2 20 3 18 4 19 5 17 7 12 8 13 9 90 10 14 11 15 12
REMARK SMILES IDX 16 13 11 14 7 15 8 16 91 17 9 18 10 19 4 20 5 21 6 22 2 23
REMARK SMILES IDX 1 24 3 25 23 26 24 27 25 28 26 30 27 31 28 32 89 33 29 34
REMARK SMILES IDX 88 35 30 36 31 37 32 38 82 39 33 40 87 41 81 42 83 43 34 44
REMARK SMILES IDX 86 45 80 46 79 47 35 49 67 50 47 51 66 52 48 53 51 54 65 55
REMARK SMILES IDX 84 56 49 57 50 58 64 60 85 61 52 62 36 63 37 64 45 65 38 66
REMARK SMILES IDX 40 67 46 68 39 69 41 70 42 71 43 72 44 73 68 74 69 75 77 76
REMARK SMILES IDX 70 77 72 78 78 79 71 80 73 81 74 82 75 83 76 84 53 85 54 86
REMARK SMILES IDX 62 87 55 88 57 89 63 90 56 91 58 92 59 93 60 94 61 95
REMARK H PARENT 20 6 24 29 83 48 51 59
REMARK Flexibility Score: inf
ROOT
ATOM      1  C   UNL A   1      31.818  28.238  26.324  1.00  0.00     0.042 C 
ENDROOT
BRANCH   1   2
ATOM      2  C   UNL A   1      31.199  27.123  25.498  1.00  0.00     0.118 C 
BRANCH   2   3
ATOM      3  N   UNL A   1      30.658  26.014  26.287  1.00  0.00    -0.352 N 
ATOM      4  C   UNL A   1      30.999  24.694  26.474  1.00  0.00     0.251 C 
ATOM      5  O   UNL A   1      30.302  24.027  27.241  1.00  0.00    -0.269 OA
ATOM      6  H   UNL A   1      29.862  26.274  26.804  1.00  0.00     0.163 HD
BRANCH   4   7
ATOM      7  C   UNL A   1      32.124  24.012  25.778  1.00  0.00     0.041 A 
ATOM      8  C   UNL A   1      32.967  22.209  24.344  1.00  0.00    -0.016 A 
ATOM      9  C   UNL A   1      34.273  22.565  24.697  1.00  0.00     0.029 A 
ATOM     10  C   UNL A   1      31.931  23.043  24.800  1.00  0.00     0.022 A 
ATOM     11  C   UNL A   1      34.502  23.655  25.542  1.00  0.00     0.042 A 
ATOM     12  Cl  UNL A   1      36.119  24.112  25.915  1.00  0.00    -0.084 Cl
ATOM     13  C   UNL A   1      33.437  24.350  26.116  1.00  0.00     0.034 A 
BRANCH   8  14
ATOM     14  C   UNL A   1      32.622  20.945  23.653  1.00  0.00    -0.017 A 
ATOM     15  C   UNL A   1      33.013  18.551  23.323  1.00  0.00     0.083 A 
ATOM     16  C   UNL A   1      32.349  18.581  22.100  1.00  0.00     0.022 A 
ATOM     17  C   UNL A   1      33.141  19.715  24.091  1.00  0.00     0.030 A 
ATOM     18  C   UNL A   1      31.798  19.782  21.660  1.00  0.00     0.002 A 
ATOM     19  C   UNL A   1      31.935  20.948  22.426  1.00  0.00     0.009 A 
BRANCH  15  20
ATOM     20  S   UNL A   1      33.904  17.099  23.829  1.00  0.00     0.242 S 
ATOM     21  O   UNL A   1      35.077  17.541  24.562  1.00  0.00    -0.207 OA
ATOM     22  O   UNL A   1      34.027  16.225  22.686  1.00  0.00    -0.207 OA
BRANCH  20  23
ATOM     23  N   UNL A   1      32.856  16.337  24.956  1.00  0.00    -0.204 NA
ATOM     24  C   UNL A   1      33.380  15.014  25.378  1.00  0.00     0.124 C 
ATOM     25  C   UNL A   1      32.475  17.155  26.128  1.00  0.00     0.124 C 
ENDBRANCH  20  23
ENDBRANCH  15  20
ENDBRANCH   8  14
ENDBRANCH   4   7
ENDBRANCH   2   3
ENDBRANCH   1   2
BRANCH   1  26
ATOM     26  C   UNL A   1      32.588  29.267  25.512  1.00  0.00     0.118 C 
BRANCH  26  27
ATOM     27  N   UNL A   1      32.320  30.638  25.935  1.00  0.00    -0.352 N 
ATOM     28  C   UNL A   1      32.880  31.414  26.920  1.00  0.00     0.251 C 
ATOM     29  H   UNL A   1      31.610  31.087  25.420  1.00  0.00     0.163 HD
ATOM     30  O   UNL A   1      32.342  32.482  27.208  1.00  0.00    -0.269 OA
BRANCH  28  31
ATOM     31  C   UNL A   1      34.107  30.996  27.635  1.00  0.00     0.039 A 
ATOM     32  C   UNL A   1      34.250  29.656  28.016  1.00  0.00     0.014 A 
ATOM     33  C   UNL A   1      35.087  31.921  27.996  1.00  0.00     0.014 A 
ATOM     34  C   UNL A   1      35.392  29.244  28.711  1.00  0.00     0.010 A 
ATOM     35  C   UNL A   1      36.268  31.492  28.591  1.00  0.00     0.010 A 
ATOM     36  C   UNL A   1      36.423  30.156  28.984  1.00  0.00    -0.014 A 
BRANCH  36  37
ATOM     37  C   UNL A   1      37.652  29.761  29.718  1.00  0.00     0.031 A 
ATOM     38  C   UNL A   1      37.894  30.282  31.113  1.00  0.00     0.074 A 
ATOM     39  C   UNL A   1      38.599  29.030  29.098  1.00  0.00     0.049 A 
ATOM     40  N   UNL A   1      38.947  30.149  31.875  1.00  0.00    -0.248 NA
ATOM     41  C   UNL A   1      36.824  31.101  31.712  1.00  0.00     0.031 C 
ATOM     42  C   UNL A   1      38.527  28.543  27.720  1.00  0.00     0.029 A 
ATOM     43  N   UNL A   1      39.825  28.598  29.538  1.00  0.00    -0.354 N 
ATOM     44  C   UNL A   1      38.694  30.910  33.010  1.00  0.00     0.074 A 
ATOM     45  C   UNL A   1      37.403  31.533  32.822  1.00  0.00     0.031 C 
ATOM     46  C   UNL A   1      39.656  27.878  27.428  1.00  0.00     0.029 A 
ATOM     47  C   UNL A   1      40.541  27.909  28.588  1.00  0.00     0.049 A 
ATOM     48  H   UNL A   1      40.160  28.764  30.450  1.00  0.00     0.167 HD
ATOM     49  C   UNL A   1      39.449  31.052  34.126  1.00  0.00     0.034 A 
ATOM     50  C   UNL A   1      41.772  27.363  28.645  1.00  0.00     0.034 A 
ATOM     51  C   UNL A   1      40.691  30.363  34.343  1.00  0.00     0.049 A 
ATOM     52  C   UNL A   1      42.543  27.442  29.935  1.00  0.00     0.074 A 
ATOM     53  C   UNL A   1      41.482  30.348  35.479  1.00  0.00     0.029 A 
ATOM     54  N   UNL A   1      41.319  29.557  33.406  1.00  0.00    -0.354 N 
ATOM     55  N   UNL A   1      42.215  28.034  31.057  1.00  0.00    -0.248 NA
ATOM     56  C   UNL A   1      43.834  26.740  29.982  1.00  0.00     0.031 C 
ATOM     57  C   UNL A   1      42.591  29.533  35.226  1.00  0.00     0.029 A 
ATOM     58  C   UNL A   1      42.483  29.032  33.938  1.00  0.00     0.049 A 
ATOM     59  H   UNL A   1      40.985  29.383  32.496  1.00  0.00     0.167 HD
ATOM     60  C   UNL A   1      43.236  27.746  31.955  1.00  0.00     0.074 A 
ATOM     61  C   UNL A   1      44.187  26.910  31.250  1.00  0.00     0.031 C 
ATOM     62  C   UNL A   1      43.384  28.149  33.241  1.00  0.00     0.034 A 
BRANCH  49  63
ATOM     63  C   UNL A   1      38.910  31.932  35.225  1.00  0.00     0.023 A 
ATOM     64  C   UNL A   1      38.934  33.333  35.066  1.00  0.00     0.012 A 
ATOM     65  C   UNL A   1      38.351  31.381  36.393  1.00  0.00     0.148 A 
ATOM     66  C   UNL A   1      38.453  34.172  36.070  1.00  0.00     0.002 A 
ATOM     67  C   UNL A   1      37.831  32.224  37.371  1.00  0.00     0.091 A 
ATOM     68  F   UNL A   1      38.356  30.049  36.542  1.00  0.00    -0.205 F 
ATOM     69  C   UNL A   1      37.893  33.618  37.217  1.00  0.00     0.022 A 
BRANCH  67  70
ATOM     70  S   UNL A   1      37.017  31.599  38.847  1.00  0.00     0.127 S 
ATOM     71  O   UNL A   1      36.644  30.248  38.430  1.00  0.00    -0.237 OA
ATOM     72  O   UNL A   1      38.092  31.653  39.840  1.00  0.00    -0.237 OA
ATOM     73  O   UNL A   1      35.911  32.509  39.105  1.00  0.00    -0.744 OA
ENDBRANCH  67  70
ENDBRANCH  49  63
BRANCH  50  74
ATOM     74  C   UNL A   1      42.297  26.605  27.475  1.00  0.00     0.023 A 
ATOM     75  C   UNL A   1      43.095  27.277  26.528  1.00  0.00     0.012 A 
ATOM     76  C   UNL A   1      42.062  25.226  27.321  1.00  0.00     0.148 A 
ATOM     77  C   UNL A   1      43.629  26.594  25.434  1.00  0.00     0.002 A 
ATOM     78  C   UNL A   1      42.639  24.541  26.256  1.00  0.00     0.091 A 
ATOM     79  F   UNL A   1      41.292  24.607  28.228  1.00  0.00    -0.205 F 
ATOM     80  C   UNL A   1      43.410  25.226  25.304  1.00  0.00     0.022 A 
BRANCH  78  81
ATOM     81  S   UNL A   1      42.518  22.756  26.080  1.00  0.00     0.127 S 
ATOM     82  O   UNL A   1      43.263  22.289  27.244  1.00  0.00    -0.237 OA
ATOM     83  O   UNL A   1      41.072  22.541  26.147  1.00  0.00    -0.237 OA
ATOM     84  O   UNL A   1      43.109  22.450  24.783  1.00  0.00    -0.744 OA
ENDBRANCH  78  81
ENDBRANCH  50  74
BRANCH  62  85
ATOM     85  C   UNL A   1      44.596  27.665  33.991  1.00  0.00     0.023 A 
ATOM     86  C   UNL A   1      45.772  28.441  33.992  1.00  0.00     0.012 A 
ATOM     87  C   UNL A   1      44.543  26.486  34.760  1.00  0.00     0.148 A 
ATOM     88  C   UNL A   1      46.886  28.035  34.724  1.00  0.00     0.002 A 
ATOM     89  C   UNL A   1      45.642  26.112  35.523  1.00  0.00     0.091 A 
ATOM     90  F   UNL A   1      43.422  25.749  34.728  1.00  0.00    -0.205 F 
ATOM     91  C   UNL A   1      46.818  26.879  35.499  1.00  0.00     0.022 A 
BRANCH  89  92
ATOM     92  S   UNL A   1      45.601  24.689  36.620  1.00  0.00     0.127 S 
ATOM     93  O   UNL A   1      46.210  23.653  35.789  1.00  0.00    -0.237 OA
ATOM     94  O   UNL A   1      46.427  25.134  37.743  1.00  0.00    -0.237 OA
ATOM     95  O   UNL A   1      44.197  24.489  36.952  1.00  0.00    -0.744 OA
ENDBRANCH  89  92
ENDBRANCH  62  85
ENDBRANCH  36  37
ENDBRANCH  28  31
ENDBRANCH  26  27
ENDBRANCH   1  26
TORSDOF 16
ENDMDL
