MODEL 1
REMARK VINA RESULT:     -11.5      0.000      0.000
REMARK SMILES O=C(NCCCNC(=O)[C@H]1CC[C@@H](CNc2cccc(F)c2[N+](=O)[O-])O1)c1ccc(-c2c3nc(c(-c4cccc(S(=O)(=O)[O-])c4F)c4ccc([nH]4)c(-c4cccc(S(=O)(=O)[O-])c4F)c4nc(c(-c5cccc(S(=O)(=O)[O-])c5F)c5ccc2[nH]5)C=C4)C=C3)cc1
REMARK SMILES IDX 5 1 4 2 3 3 1 4 2 5 27 7 28 8 89 9 29 10 88 11 30 12 31 13
REMARK SMILES IDX 32 14 82 15 33 16 87 17 81 18 83 19 34 20 86 21 80 22 79 23
REMARK SMILES IDX 35 25 67 26 47 27 66 28 48 29 51 30 65 31 84 32 49 33 50 34
REMARK SMILES IDX 64 36 85 37 52 38 36 39 37 40 45 41 38 42 40 43 46 44 39 45
REMARK SMILES IDX 41 46 42 47 43 48 44 49 68 50 69 51 77 52 70 53 72 54 78 55
REMARK SMILES IDX 71 56 73 57 74 58 75 59 76 60 53 61 54 62 62 63 55 64 57 65
REMARK SMILES IDX 63 66 56 67 58 68 59 69 60 70 61 71 6 72 7 73 8 74 9 76
REMARK SMILES IDX 10 77 11 78 26 79 12 80 13 81 14 82 15 83 16 85 17 86 22 87
REMARK SMILES IDX 18 88 20 89 19 90 21 91 23 92 24 93 25 94
REMARK H PARENT 3 6 83 24 51 35 7 75 15 84
REMARK Flexibility Score: inf
ROOT
ATOM      1  C   UNL A   1      31.085  32.281  26.497  1.00  0.00     0.042 C 
ENDROOT
BRANCH   1   2
ATOM      2  C   UNL A   1      32.471  32.580  27.055  1.00  0.00     0.118 C 
BRANCH   2   3
ATOM      3  N   UNL A   1      32.611  33.965  27.487  1.00  0.00    -0.352 N 
ATOM      4  O   UNL A   1      33.294  35.667  28.784  1.00  0.00    -0.269 OA
ATOM      5  C   UNL A   1      33.473  34.510  28.403  1.00  0.00     0.251 C 
ATOM      6  H   UNL A   1      31.998  34.602  27.056  1.00  0.00     0.163 HD
BRANCH   5   7
ATOM      7  C   UNL A   1      34.601  33.716  28.932  1.00  0.00     0.039 A 
ATOM      8  C   UNL A   1      35.922  34.093  28.673  1.00  0.00     0.014 A 
ATOM      9  C   UNL A   1      34.335  32.607  29.741  1.00  0.00     0.014 A 
ATOM     10  C   UNL A   1      36.972  33.304  29.126  1.00  0.00     0.010 A 
ATOM     11  C   UNL A   1      35.394  31.864  30.269  1.00  0.00     0.010 A 
ATOM     12  C   UNL A   1      36.719  32.204  29.959  1.00  0.00    -0.014 A 
BRANCH  12  13
ATOM     13  C   UNL A   1      37.853  31.519  30.625  1.00  0.00     0.031 A 
ATOM     14  C   UNL A   1      38.259  31.848  32.031  1.00  0.00     0.074 A 
ATOM     15  C   UNL A   1      38.535  30.599  29.916  1.00  0.00     0.049 A 
ATOM     16  N   UNL A   1      39.237  31.346  32.738  1.00  0.00    -0.248 NA
ATOM     17  C   UNL A   1      37.472  32.872  32.733  1.00  0.00     0.031 C 
ATOM     18  C   UNL A   1      38.238  30.222  28.531  1.00  0.00     0.029 A 
ATOM     19  N   UNL A   1      39.610  29.818  30.249  1.00  0.00    -0.354 N 
ATOM     20  C   UNL A   1      39.203  32.005  33.960  1.00  0.00     0.074 A 
ATOM     21  C   UNL A   1      38.114  32.957  33.890  1.00  0.00     0.031 C 
ATOM     22  C   UNL A   1      39.086  29.261  28.145  1.00  0.00     0.029 A 
ATOM     23  C   UNL A   1      40.028  29.001  29.226  1.00  0.00     0.049 A 
ATOM     24  H   UNL A   1      40.040  29.840  31.134  1.00  0.00     0.167 HD
ATOM     25  C   UNL A   1      40.000  31.819  35.041  1.00  0.00     0.034 A 
ATOM     26  C   UNL A   1      41.065  28.147  29.154  1.00  0.00     0.034 A 
ATOM     27  C   UNL A   1      41.084  30.870  35.089  1.00  0.00     0.049 A 
ATOM     28  C   UNL A   1      41.945  27.976  30.354  1.00  0.00     0.074 A 
ATOM     29  C   UNL A   1      41.940  30.595  36.140  1.00  0.00     0.029 A 
ATOM     30  N   UNL A   1      41.469  30.047  34.038  1.00  0.00    -0.354 N 
ATOM     31  N   UNL A   1      41.856  28.555  31.526  1.00  0.00    -0.248 NA
ATOM     32  C   UNL A   1      43.049  27.016  30.235  1.00  0.00     0.031 C 
ATOM     33  C   UNL A   1      42.860  29.629  35.717  1.00  0.00     0.029 A 
ATOM     34  C   UNL A   1      42.551  29.266  34.416  1.00  0.00     0.049 A 
ATOM     35  H   UNL A   1      41.038  30.022  33.154  1.00  0.00     0.167 HD
ATOM     36  C   UNL A   1      42.868  28.004  32.301  1.00  0.00     0.074 A 
ATOM     37  C   UNL A   1      43.551  27.037  31.463  1.00  0.00     0.031 C 
ATOM     38  C   UNL A   1      43.198  28.278  33.588  1.00  0.00     0.034 A 
BRANCH  25  39
ATOM     39  C   UNL A   1      39.711  32.639  36.275  1.00  0.00     0.023 A 
ATOM     40  C   UNL A   1      40.356  33.882  36.452  1.00  0.00     0.012 A 
ATOM     41  C   UNL A   1      38.759  32.219  37.226  1.00  0.00     0.148 A 
ATOM     42  C   UNL A   1      40.088  34.673  37.569  1.00  0.00     0.002 A 
ATOM     43  C   UNL A   1      38.461  33.036  38.312  1.00  0.00     0.091 A 
ATOM     44  F   UNL A   1      38.169  31.028  37.057  1.00  0.00    -0.205 F 
ATOM     45  C   UNL A   1      39.133  34.256  38.492  1.00  0.00     0.022 A 
BRANCH  43  46
ATOM     46  S   UNL A   1      37.180  32.631  39.507  1.00  0.00     0.127 S 
ATOM     47  O   UNL A   1      37.622  31.320  39.980  1.00  0.00    -0.237 OA
ATOM     48  O   UNL A   1      37.319  33.709  40.487  1.00  0.00    -0.237 OA
ATOM     49  O   UNL A   1      35.926  32.642  38.768  1.00  0.00    -0.744 OA
ENDBRANCH  43  46
ENDBRANCH  25  39
BRANCH  26  50
ATOM     50  C   UNL A   1      41.250  27.344  27.913  1.00  0.00     0.023 A 
ATOM     51  C   UNL A   1      41.881  27.937  26.804  1.00  0.00     0.012 A 
ATOM     52  C   UNL A   1      40.923  25.975  27.873  1.00  0.00     0.148 A 
ATOM     53  C   UNL A   1      42.183  27.178  25.673  1.00  0.00     0.002 A 
ATOM     54  C   UNL A   1      41.279  25.213  26.768  1.00  0.00     0.091 A 
ATOM     55  F   UNL A   1      40.324  25.435  28.945  1.00  0.00    -0.205 F 
ATOM     56  C   UNL A   1      41.897  25.815  25.660  1.00  0.00     0.022 A 
BRANCH  54  57
ATOM     57  S   UNL A   1      41.091  23.427  26.720  1.00  0.00     0.127 S 
ATOM     58  O   UNL A   1      39.645  23.283  26.575  1.00  0.00    -0.237 OA
ATOM     59  O   UNL A   1      41.867  23.080  25.528  1.00  0.00    -0.237 OA
ATOM     60  O   UNL A   1      41.647  22.933  27.971  1.00  0.00    -0.744 OA
ENDBRANCH  54  57
ENDBRANCH  26  50
BRANCH  38  61
ATOM     61  C   UNL A   1      44.328  27.490  34.198  1.00  0.00     0.023 A 
ATOM     62  C   UNL A   1      45.650  27.972  34.126  1.00  0.00     0.012 A 
ATOM     63  C   UNL A   1      44.064  26.305  34.913  1.00  0.00     0.148 A 
ATOM     64  C   UNL A   1      46.695  27.269  34.727  1.00  0.00     0.002 A 
ATOM     65  C   UNL A   1      45.100  25.640  35.556  1.00  0.00     0.091 A 
ATOM     66  F   UNL A   1      42.803  25.848  34.951  1.00  0.00    -0.205 F 
ATOM     67  C   UNL A   1      46.418  26.111  35.452  1.00  0.00     0.022 A 
BRANCH  65  68
ATOM     68  S   UNL A   1      44.819  24.204  36.599  1.00  0.00     0.127 S 
ATOM     69  O   UNL A   1      44.019  24.773  37.682  1.00  0.00    -0.237 OA
ATOM     70  O   UNL A   1      44.083  23.310  35.703  1.00  0.00    -0.237 OA
ATOM     71  O   UNL A   1      46.139  23.722  36.981  1.00  0.00    -0.744 OA
ENDBRANCH  65  68
ENDBRANCH  38  61
ENDBRANCH  12  13
ENDBRANCH   5   7
ENDBRANCH   2   3
ENDBRANCH   1   2
BRANCH   1  72
ATOM     72  C   UNL A   1      31.055  31.116  25.517  1.00  0.00     0.117 C 
BRANCH  72  73
ATOM     73  N   UNL A   1      31.850  29.990  25.983  1.00  0.00    -0.354 N 
ATOM     74  C   UNL A   1      32.262  28.896  25.272  1.00  0.00     0.249 C 
ATOM     75  H   UNL A   1      32.127  30.019  26.927  1.00  0.00     0.163 HD
ATOM     76  O   UNL A   1      32.890  28.012  25.857  1.00  0.00    -0.272 OA
BRANCH  74  77
ATOM     77  C   UNL A   1      31.956  28.845  23.763  1.00  0.00     0.207 C 
ATOM     78  C   UNL A   1      33.200  28.838  22.891  1.00  0.00     0.045 C 
ATOM     79  O   UNL A   1      31.241  27.645  23.445  1.00  0.00    -0.363 OA
ATOM     80  C   UNL A   1      33.500  27.364  22.755  1.00  0.00     0.037 C 
ATOM     81  C   UNL A   1      32.112  26.753  22.717  1.00  0.00     0.138 C 
BRANCH  81  82
ATOM     82  C   UNL A   1      32.046  25.342  23.325  1.00  0.00     0.145 C 
BRANCH  82  83
ATOM     83  N   UNL A   1      32.498  25.414  24.707  1.00  0.00    -0.377 N 
ATOM     84  H   UNL A   1      32.108  26.122  25.271  1.00  0.00     0.160 HD
BRANCH  83  85
ATOM     85  C   UNL A   1      33.427  24.580  25.298  1.00  0.00     0.116 A 
ATOM     86  C   UNL A   1      34.799  24.765  25.065  1.00  0.00     0.033 A 
ATOM     87  C   UNL A   1      33.060  23.490  26.119  1.00  0.00     0.327 A 
ATOM     88  C   UNL A   1      35.762  23.910  25.612  1.00  0.00     0.006 A 
ATOM     89  C   UNL A   1      34.019  22.633  26.663  1.00  0.00     0.202 A 
ATOM     90  C   UNL A   1      35.370  22.839  26.408  1.00  0.00     0.047 A 
ATOM     91  F   UNL A   1      33.681  21.600  27.447  1.00  0.00    -0.199 F 
BRANCH  87  92
ATOM     92  N   UNL A   1      31.659  23.197  26.388  1.00  0.00     0.068 N 
ATOM     93  O   UNL A   1      31.224  23.436  27.526  1.00  0.00    -0.258 OA
ATOM     94  O   UNL A   1      30.964  22.770  25.454  1.00  0.00    -0.258 OA
ENDBRANCH  87  92
ENDBRANCH  83  85
ENDBRANCH  82  83
ENDBRANCH  81  82
ENDBRANCH  74  77
ENDBRANCH  72  73
ENDBRANCH   1  72
TORSDOF 17
ENDMDL
MODEL 2
REMARK VINA RESULT:     -11.3      1.893      3.181
REMARK SMILES O=C(NCCCNC(=O)[C@H]1CC[C@@H](CNc2cccc(F)c2[N+](=O)[O-])O1)c1ccc(-c2c3nc(c(-c4cccc(S(=O)(=O)[O-])c4F)c4ccc([nH]4)c(-c4cccc(S(=O)(=O)[O-])c4F)c4nc(c(-c5cccc(S(=O)(=O)[O-])c5F)c5ccc2[nH]5)C=C4)C=C3)cc1
REMARK SMILES IDX 5 1 4 2 3 3 1 4 2 5 27 7 28 8 89 9 29 10 88 11 30 12 31 13
REMARK SMILES IDX 32 14 82 15 33 16 87 17 81 18 83 19 34 20 86 21 80 22 79 23
REMARK SMILES IDX 35 25 67 26 47 27 66 28 48 29 51 30 65 31 84 32 49 33 50 34
REMARK SMILES IDX 64 36 85 37 52 38 36 39 37 40 45 41 38 42 40 43 46 44 39 45
REMARK SMILES IDX 41 46 42 47 43 48 44 49 68 50 69 51 77 52 70 53 72 54 78 55
REMARK SMILES IDX 71 56 73 57 74 58 75 59 76 60 53 61 54 62 62 63 55 64 57 65
REMARK SMILES IDX 63 66 56 67 58 68 59 69 60 70 61 71 6 72 7 73 8 74 9 76
REMARK SMILES IDX 10 77 11 78 26 79 12 80 13 81 14 82 15 83 16 85 17 86 22 87
REMARK SMILES IDX 18 88 20 89 19 90 21 91 23 92 24 93 25 94
REMARK H PARENT 3 6 83 24 51 35 7 75 15 84
REMARK Flexibility Score: inf
ROOT
ATOM      1  C   UNL A   1      32.999  29.155  25.613  1.00  0.00     0.042 C 
ENDROOT
BRANCH   1   2
ATOM      2  C   UNL A   1      32.640  29.755  26.966  1.00  0.00     0.118 C 
BRANCH   2   3
ATOM      3  N   UNL A   1      32.693  31.211  26.962  1.00  0.00    -0.352 N 
ATOM      4  O   UNL A   1      33.371  33.257  27.596  1.00  0.00    -0.269 OA
ATOM      5  C   UNL A   1      33.615  32.053  27.530  1.00  0.00     0.251 C 
ATOM      6  H   UNL A   1      31.960  31.656  26.481  1.00  0.00     0.163 HD
BRANCH   5   7
ATOM      7  C   UNL A   1      34.886  31.518  28.062  1.00  0.00     0.039 A 
ATOM      8  C   UNL A   1      36.016  32.335  28.163  1.00  0.00     0.014 A 
ATOM      9  C   UNL A   1      34.935  30.196  28.514  1.00  0.00     0.014 A 
ATOM     10  C   UNL A   1      37.220  31.804  28.609  1.00  0.00     0.010 A 
ATOM     11  C   UNL A   1      36.123  29.687  29.043  1.00  0.00     0.010 A 
ATOM     12  C   UNL A   1      37.276  30.486  29.089  1.00  0.00    -0.014 A 
BRANCH  12  13
ATOM     13  C   UNL A   1      38.500  30.014  29.778  1.00  0.00     0.031 A 
ATOM     14  C   UNL A   1      38.885  30.518  31.137  1.00  0.00     0.074 A 
ATOM     15  C   UNL A   1      39.281  29.127  29.133  1.00  0.00     0.049 A 
ATOM     16  N   UNL A   1      39.932  30.210  31.856  1.00  0.00    -0.248 NA
ATOM     17  C   UNL A   1      37.985  31.494  31.769  1.00  0.00     0.031 C 
ATOM     18  C   UNL A   1      39.011  28.591  27.796  1.00  0.00     0.029 A 
ATOM     19  N   UNL A   1      40.453  28.522  29.502  1.00  0.00    -0.354 N 
ATOM     20  C   UNL A   1      39.836  30.968  33.016  1.00  0.00     0.074 A 
ATOM     21  C   UNL A   1      38.632  31.765  32.895  1.00  0.00     0.031 C 
ATOM     22  C   UNL A   1      39.968  27.713  27.471  1.00  0.00     0.029 A 
ATOM     23  C   UNL A   1      40.955  27.674  28.542  1.00  0.00     0.049 A 
ATOM     24  H   UNL A   1      40.893  28.678  30.368  1.00  0.00     0.167 HD
ATOM     25  C   UNL A   1      40.669  30.983  34.085  1.00  0.00     0.034 A 
ATOM     26  C   UNL A   1      42.091  26.955  28.515  1.00  0.00     0.034 A 
ATOM     27  C   UNL A   1      41.867  30.186  34.185  1.00  0.00     0.049 A 
ATOM     28  C   UNL A   1      43.008  27.006  29.699  1.00  0.00     0.074 A 
ATOM     29  C   UNL A   1      42.770  30.119  35.231  1.00  0.00     0.029 A 
ATOM     30  N   UNL A   1      42.336  29.327  33.200  1.00  0.00    -0.354 N 
ATOM     31  N   UNL A   1      42.866  27.674  30.818  1.00  0.00    -0.248 NA
ATOM     32  C   UNL A   1      44.223  26.187  29.633  1.00  0.00     0.031 C 
ATOM     33  C   UNL A   1      43.798  29.242  34.867  1.00  0.00     0.029 A 
ATOM     34  C   UNL A   1      43.515  28.726  33.612  1.00  0.00     0.049 A 
ATOM     35  H   UNL A   1      41.895  29.168  32.334  1.00  0.00     0.167 HD
ATOM     36  C   UNL A   1      43.953  27.327  31.609  1.00  0.00     0.074 A 
ATOM     37  C   UNL A   1      44.740  26.383  30.839  1.00  0.00     0.031 C 
ATOM     38  C   UNL A   1      44.269  27.757  32.856  1.00  0.00     0.034 A 
BRANCH  25  39
ATOM     39  C   UNL A   1      40.299  31.868  35.251  1.00  0.00     0.023 A 
ATOM     40  C   UNL A   1      40.911  33.133  35.386  1.00  0.00     0.012 A 
ATOM     41  C   UNL A   1      39.306  31.486  36.174  1.00  0.00     0.148 A 
ATOM     42  C   UNL A   1      40.569  33.983  36.437  1.00  0.00     0.002 A 
ATOM     43  C   UNL A   1      38.935  32.360  37.191  1.00  0.00     0.091 A 
ATOM     44  F   UNL A   1      38.746  30.275  36.047  1.00  0.00    -0.205 F 
ATOM     45  C   UNL A   1      39.573  33.602  37.332  1.00  0.00     0.022 A 
BRANCH  43  46
ATOM     46  S   UNL A   1      37.599  31.999  38.339  1.00  0.00     0.127 S 
ATOM     47  O   UNL A   1      38.244  32.242  39.628  1.00  0.00    -0.237 OA
ATOM     48  O   UNL A   1      36.593  32.995  37.966  1.00  0.00    -0.237 OA
ATOM     49  O   UNL A   1      37.211  30.620  38.081  1.00  0.00    -0.744 OA
ENDBRANCH  43  46
ENDBRANCH  25  39
BRANCH  26  50
ATOM     50  C   UNL A   1      42.355  26.073  27.345  1.00  0.00     0.023 A 
ATOM     51  C   UNL A   1      43.146  26.559  26.288  1.00  0.00     0.012 A 
ATOM     52  C   UNL A   1      41.939  24.727  27.336  1.00  0.00     0.148 A 
ATOM     53  C   UNL A   1      43.517  25.719  25.237  1.00  0.00     0.002 A 
ATOM     54  C   UNL A   1      42.360  23.882  26.318  1.00  0.00     0.091 A 
ATOM     55  F   UNL A   1      41.188  24.289  28.356  1.00  0.00    -0.205 F 
ATOM     56  C   UNL A   1      43.138  24.379  25.259  1.00  0.00     0.022 A 
BRANCH  54  57
ATOM     57  S   UNL A   1      42.052  22.112  26.336  1.00  0.00     0.127 S 
ATOM     58  O   UNL A   1      42.512  21.743  27.672  1.00  0.00    -0.237 OA
ATOM     59  O   UNL A   1      40.602  22.063  26.147  1.00  0.00    -0.237 OA
ATOM     60  O   UNL A   1      42.828  21.561  25.233  1.00  0.00    -0.744 OA
ENDBRANCH  54  57
ENDBRANCH  26  50
BRANCH  38  61
ATOM     61  C   UNL A   1      45.502  27.177  33.499  1.00  0.00     0.023 A 
ATOM     62  C   UNL A   1      46.735  27.852  33.409  1.00  0.00     0.012 A 
ATOM     63  C   UNL A   1      45.416  25.995  34.263  1.00  0.00     0.148 A 
ATOM     64  C   UNL A   1      47.870  27.342  34.041  1.00  0.00     0.002 A 
ATOM     65  C   UNL A   1      46.537  25.523  34.933  1.00  0.00     0.091 A 
ATOM     66  F   UNL A   1      44.240  25.352  34.317  1.00  0.00    -0.205 F 
ATOM     67  C   UNL A   1      47.768  26.187  34.812  1.00  0.00     0.022 A 
BRANCH  65  68
ATOM     68  S   UNL A   1      46.471  24.104  36.034  1.00  0.00     0.127 S 
ATOM     69  O   UNL A   1      46.113  23.028  35.113  1.00  0.00    -0.237 OA
ATOM     70  O   UNL A   1      47.843  24.041  36.540  1.00  0.00    -0.237 OA
ATOM     71  O   UNL A   1      45.470  24.425  37.042  1.00  0.00    -0.744 OA
ENDBRANCH  65  68
ENDBRANCH  38  61
ENDBRANCH  12  13
ENDBRANCH   5   7
ENDBRANCH   2   3
ENDBRANCH   1   2
BRANCH   1  72
ATOM     72  C   UNL A   1      33.453  27.703  25.685  1.00  0.00     0.117 C 
BRANCH  72  73
ATOM     73  N   UNL A   1      32.446  26.846  26.290  1.00  0.00    -0.354 N 
ATOM     74  C   UNL A   1      32.442  25.480  26.379  1.00  0.00     0.249 C 
ATOM     75  H   UNL A   1      31.670  27.305  26.687  1.00  0.00     0.163 HD
ATOM     76  O   UNL A   1      31.466  24.923  26.885  1.00  0.00    -0.272 OA
BRANCH  74  77
ATOM     77  C   UNL A   1      33.677  24.710  25.876  1.00  0.00     0.207 C 
ATOM     78  C   UNL A   1      33.894  23.383  26.585  1.00  0.00     0.045 C 
ATOM     79  O   UNL A   1      33.534  24.399  24.486  1.00  0.00    -0.363 OA
ATOM     80  C   UNL A   1      33.101  22.420  25.734  1.00  0.00     0.037 C 
ATOM     81  C   UNL A   1      33.300  22.982  24.338  1.00  0.00     0.138 C 
BRANCH  81  82
ATOM     82  C   UNL A   1      32.103  22.742  23.403  1.00  0.00     0.145 C 
BRANCH  82  83
ATOM     83  N   UNL A   1      31.970  23.892  22.520  1.00  0.00    -0.377 N 
ATOM     84  H   UNL A   1      32.359  23.813  21.618  1.00  0.00     0.160 HD
BRANCH  83  85
ATOM     85  C   UNL A   1      31.350  25.085  22.835  1.00  0.00     0.116 A 
ATOM     86  C   UNL A   1      30.167  25.093  23.592  1.00  0.00     0.033 A 
ATOM     87  C   UNL A   1      31.831  26.337  22.390  1.00  0.00     0.327 A 
ATOM     88  C   UNL A   1      29.490  26.281  23.890  1.00  0.00     0.006 A 
ATOM     89  C   UNL A   1      31.156  27.523  22.684  1.00  0.00     0.202 A 
ATOM     90  C   UNL A   1      29.983  27.497  23.430  1.00  0.00     0.047 A 
ATOM     91  F   UNL A   1      31.608  28.715  22.271  1.00  0.00    -0.199 F 
BRANCH  87  92
ATOM     92  N   UNL A   1      33.031  26.425  21.569  1.00  0.00     0.068 N 
ATOM     93  O   UNL A   1      33.047  25.799  20.496  1.00  0.00    -0.258 OA
ATOM     94  O   UNL A   1      33.953  27.155  21.961  1.00  0.00    -0.258 OA
ENDBRANCH  87  92
ENDBRANCH  83  85
ENDBRANCH  82  83
ENDBRANCH  81  82
ENDBRANCH  74  77
ENDBRANCH  72  73
ENDBRANCH   1  72
TORSDOF 17
ENDMDL
MODEL 3
REMARK VINA RESULT:     -11.3      5.569     11.078
REMARK SMILES O=C(NCCCNC(=O)[C@H]1CC[C@@H](CNc2cccc(F)c2[N+](=O)[O-])O1)c1ccc(-c2c3nc(c(-c4cccc(S(=O)(=O)[O-])c4F)c4ccc([nH]4)c(-c4cccc(S(=O)(=O)[O-])c4F)c4nc(c(-c5cccc(S(=O)(=O)[O-])c5F)c5ccc2[nH]5)C=C4)C=C3)cc1
REMARK SMILES IDX 5 1 4 2 3 3 1 4 2 5 27 7 28 8 89 9 29 10 88 11 30 12 31 13
REMARK SMILES IDX 32 14 82 15 33 16 87 17 81 18 83 19 34 20 86 21 80 22 79 23
REMARK SMILES IDX 35 25 67 26 47 27 66 28 48 29 51 30 65 31 84 32 49 33 50 34
REMARK SMILES IDX 64 36 85 37 52 38 36 39 37 40 45 41 38 42 40 43 46 44 39 45
REMARK SMILES IDX 41 46 42 47 43 48 44 49 68 50 69 51 77 52 70 53 72 54 78 55
REMARK SMILES IDX 71 56 73 57 74 58 75 59 76 60 53 61 54 62 62 63 55 64 57 65
REMARK SMILES IDX 63 66 56 67 58 68 59 69 60 70 61 71 6 72 7 73 8 74 9 76
REMARK SMILES IDX 10 77 11 78 26 79 12 80 13 81 14 82 15 83 16 85 17 86 22 87
REMARK SMILES IDX 18 88 20 89 19 90 21 91 23 92 24 93 25 94
REMARK H PARENT 3 6 83 24 51 35 7 75 15 84
REMARK Flexibility Score: inf
ROOT
ATOM      1  C   UNL A   1      37.866  19.535  24.918  1.00  0.00     0.042 C 
ENDROOT
BRANCH   1   2
ATOM      2  C   UNL A   1      38.861  20.287  25.792  1.00  0.00     0.118 C 
BRANCH   2   3
ATOM      3  N   UNL A   1      40.041  19.492  26.104  1.00  0.00    -0.352 N 
ATOM      4  O   UNL A   1      42.221  19.077  26.457  1.00  0.00    -0.269 OA
ATOM      5  C   UNL A   1      41.308  19.902  26.435  1.00  0.00     0.251 C 
ATOM      6  H   UNL A   1      39.910  18.517  26.074  1.00  0.00     0.163 HD
BRANCH   5   7
ATOM      7  C   UNL A   1      41.574  21.319  26.756  1.00  0.00     0.039 A 
ATOM      8  C   UNL A   1      42.042  21.688  28.021  1.00  0.00     0.014 A 
ATOM      9  C   UNL A   1      41.401  22.288  25.763  1.00  0.00     0.014 A 
ATOM     10  C   UNL A   1      42.230  23.030  28.328  1.00  0.00     0.010 A 
ATOM     11  C   UNL A   1      41.675  23.628  26.047  1.00  0.00     0.010 A 
ATOM     12  C   UNL A   1      42.086  24.009  27.333  1.00  0.00    -0.014 A 
BRANCH  12  13
ATOM     13  C   UNL A   1      42.519  25.398  27.612  1.00  0.00     0.031 A 
ATOM     14  C   UNL A   1      43.899  25.878  27.272  1.00  0.00     0.074 A 
ATOM     15  C   UNL A   1      41.638  26.224  28.208  1.00  0.00     0.049 A 
ATOM     16  N   UNL A   1      44.426  27.058  27.469  1.00  0.00    -0.248 NA
ATOM     17  C   UNL A   1      44.805  24.912  26.633  1.00  0.00     0.031 C 
ATOM     18  C   UNL A   1      40.278  25.850  28.604  1.00  0.00     0.029 A 
ATOM     19  N   UNL A   1      41.746  27.535  28.588  1.00  0.00    -0.354 N 
ATOM     20  C   UNL A   1      45.732  26.976  27.003  1.00  0.00     0.074 A 
ATOM     21  C   UNL A   1      45.922  25.622  26.527  1.00  0.00     0.031 C 
ATOM     22  C   UNL A   1      39.666  26.914  29.139  1.00  0.00     0.029 A 
ATOM     23  C   UNL A   1      40.609  28.024  29.188  1.00  0.00     0.049 A 
ATOM     24  H   UNL A   1      42.556  28.075  28.446  1.00  0.00     0.167 HD
ATOM     25  C   UNL A   1      46.677  27.948  26.966  1.00  0.00     0.034 A 
ATOM     26  C   UNL A   1      40.354  29.227  29.734  1.00  0.00     0.034 A 
ATOM     27  C   UNL A   1      46.471  29.290  27.451  1.00  0.00     0.049 A 
ATOM     28  C   UNL A   1      41.421  30.277  29.702  1.00  0.00     0.074 A 
ATOM     29  C   UNL A   1      47.358  30.352  27.445  1.00  0.00     0.029 A 
ATOM     30  N   UNL A   1      45.301  29.754  28.039  1.00  0.00    -0.354 N 
ATOM     31  N   UNL A   1      42.627  30.205  29.193  1.00  0.00    -0.248 NA
ATOM     32  C   UNL A   1      41.088  31.580  30.289  1.00  0.00     0.031 C 
ATOM     33  C   UNL A   1      46.736  31.448  28.054  1.00  0.00     0.029 A 
ATOM     34  C   UNL A   1      45.444  31.085  28.400  1.00  0.00     0.049 A 
ATOM     35  H   UNL A   1      44.489  29.217  28.178  1.00  0.00     0.167 HD
ATOM     36  C   UNL A   1      43.187  31.465  29.363  1.00  0.00     0.074 A 
ATOM     37  C   UNL A   1      42.181  32.280  30.015  1.00  0.00     0.031 C 
ATOM     38  C   UNL A   1      44.423  31.900  29.012  1.00  0.00     0.034 A 
BRANCH  25  39
ATOM     39  C   UNL A   1      48.012  27.606  26.352  1.00  0.00     0.023 A 
ATOM     40  C   UNL A   1      49.066  27.164  27.180  1.00  0.00     0.012 A 
ATOM     41  C   UNL A   1      48.211  27.655  24.958  1.00  0.00     0.148 A 
ATOM     42  C   UNL A   1      50.303  26.814  26.637  1.00  0.00     0.002 A 
ATOM     43  C   UNL A   1      49.431  27.258  24.420  1.00  0.00     0.091 A 
ATOM     44  F   UNL A   1      47.210  28.096  24.184  1.00  0.00    -0.205 F 
ATOM     45  C   UNL A   1      50.481  26.850  25.258  1.00  0.00     0.022 A 
BRANCH  43  46
ATOM     46  S   UNL A   1      49.729  27.182  22.648  1.00  0.00     0.127 S 
ATOM     47  O   UNL A   1      49.499  28.569  22.250  1.00  0.00    -0.237 OA
ATOM     48  O   UNL A   1      51.129  26.756  22.589  1.00  0.00    -0.237 OA
ATOM     49  O   UNL A   1      48.779  26.211  22.124  1.00  0.00    -0.744 OA
ENDBRANCH  43  46
ENDBRANCH  25  39
BRANCH  26  50
ATOM     50  C   UNL A   1      38.993  29.494  30.278  1.00  0.00     0.023 A 
ATOM     51  C   UNL A   1      38.711  29.153  31.613  1.00  0.00     0.012 A 
ATOM     52  C   UNL A   1      38.031  30.195  29.525  1.00  0.00     0.148 A 
ATOM     53  C   UNL A   1      37.491  29.504  32.191  1.00  0.00     0.002 A 
ATOM     54  C   UNL A   1      36.842  30.592  30.124  1.00  0.00     0.091 A 
ATOM     55  F   UNL A   1      38.325  30.509  28.255  1.00  0.00    -0.205 F 
ATOM     56  C   UNL A   1      36.564  30.235  31.453  1.00  0.00     0.022 A 
BRANCH  54  57
ATOM     57  S   UNL A   1      35.654  31.663  29.306  1.00  0.00     0.127 S 
ATOM     58  O   UNL A   1      34.752  32.001  30.404  1.00  0.00    -0.237 OA
ATOM     59  O   UNL A   1      36.510  32.761  28.852  1.00  0.00    -0.237 OA
ATOM     60  O   UNL A   1      35.069  30.867  28.237  1.00  0.00    -0.744 OA
ENDBRANCH  54  57
ENDBRANCH  26  50
BRANCH  38  61
ATOM     61  C   UNL A   1      44.753  33.345  29.282  1.00  0.00     0.023 A 
ATOM     62  C   UNL A   1      45.293  33.730  30.525  1.00  0.00     0.012 A 
ATOM     63  C   UNL A   1      44.599  34.311  28.267  1.00  0.00     0.148 A 
ATOM     64  C   UNL A   1      45.642  35.059  30.765  1.00  0.00     0.002 A 
ATOM     65  C   UNL A   1      45.000  35.621  28.495  1.00  0.00     0.091 A 
ATOM     66  F   UNL A   1      44.061  33.932  27.098  1.00  0.00    -0.205 F 
ATOM     67  C   UNL A   1      45.508  36.001  29.747  1.00  0.00     0.022 A 
BRANCH  65  68
ATOM     68  S   UNL A   1      44.963  36.874  27.207  1.00  0.00     0.127 S 
ATOM     69  O   UNL A   1      45.498  38.039  27.908  1.00  0.00    -0.237 OA
ATOM     70  O   UNL A   1      45.859  36.307  26.198  1.00  0.00    -0.237 OA
ATOM     71  O   UNL A   1      43.572  36.978  26.789  1.00  0.00    -0.744 OA
ENDBRANCH  65  68
ENDBRANCH  38  61
ENDBRANCH  12  13
ENDBRANCH   5   7
ENDBRANCH   2   3
ENDBRANCH   1   2
BRANCH   1  72
ATOM     72  C   UNL A   1      36.484  20.173  24.871  1.00  0.00     0.117 C 
BRANCH  72  73
ATOM     73  N   UNL A   1      36.503  21.551  25.336  1.00  0.00    -0.354 N 
ATOM     74  C   UNL A   1      35.456  22.301  25.800  1.00  0.00     0.249 C 
ATOM     75  H   UNL A   1      37.379  22.001  25.315  1.00  0.00     0.163 HD
ATOM     76  O   UNL A   1      35.659  23.478  26.101  1.00  0.00    -0.272 OA
BRANCH  74  77
ATOM     77  C   UNL A   1      34.083  21.621  25.960  1.00  0.00     0.207 C 
ATOM     78  C   UNL A   1      33.737  21.287  27.401  1.00  0.00     0.045 C 
ATOM     79  O   UNL A   1      33.045  22.489  25.493  1.00  0.00    -0.363 OA
ATOM     80  C   UNL A   1      33.034  22.538  27.871  1.00  0.00     0.037 C 
ATOM     81  C   UNL A   1      32.294  22.982  26.623  1.00  0.00     0.138 C 
BRANCH  81  82
ATOM     82  C   UNL A   1      32.127  24.507  26.518  1.00  0.00     0.145 C 
BRANCH  82  83
ATOM     83  N   UNL A   1      33.272  25.048  25.799  1.00  0.00    -0.377 N 
ATOM     84  H   UNL A   1      34.040  24.446  25.661  1.00  0.00     0.160 HD
BRANCH  83  85
ATOM     85  C   UNL A   1      33.378  26.329  25.295  1.00  0.00     0.116 A 
ATOM     86  C   UNL A   1      33.566  27.420  26.160  1.00  0.00     0.033 A 
ATOM     87  C   UNL A   1      33.263  26.620  23.917  1.00  0.00     0.327 A 
ATOM     88  C   UNL A   1      33.631  28.735  25.686  1.00  0.00     0.006 A 
ATOM     89  C   UNL A   1      33.325  27.931  23.442  1.00  0.00     0.202 A 
ATOM     90  C   UNL A   1      33.505  28.990  24.324  1.00  0.00     0.047 A 
ATOM     91  F   UNL A   1      33.223  28.215  22.136  1.00  0.00    -0.199 F 
BRANCH  87  92
ATOM     92  N   UNL A   1      33.031  25.557  22.949  1.00  0.00     0.068 N 
ATOM     93  O   UNL A   1      33.951  25.276  22.163  1.00  0.00    -0.258 OA
ATOM     94  O   UNL A   1      31.946  24.958  22.990  1.00  0.00    -0.258 OA
ENDBRANCH  87  92
ENDBRANCH  83  85
ENDBRANCH  82  83
ENDBRANCH  81  82
ENDBRANCH  74  77
ENDBRANCH  72  73
ENDBRANCH   1  72
TORSDOF 17
ENDMDL
