MODEL 1
REMARK VINA RESULT:     -11.5      0.000      0.000
REMARK SMILES N#C/C(=C/c1cc(Br)ccc1OCC(=O)NCCCNC(=O)c1ccc(-c2c3nc(c(-c4cccc(S(=O)(=O)[O-])c4F)c4ccc([nH]4)c(-c4cccc(S(=O)(=O)[O-])c4F)c4nc(c(-c5cccc(S(=O)(=O)[O-])c5F)c5ccc2[nH]5)C=C4)C=C3)cc1)c1ccc(F)cc1
REMARK SMILES IDX 17 1 16 2 14 3 15 4 13 6 12 7 11 8 5 9 6 10 7 11 10 12 8 13
REMARK SMILES IDX 9 14 4 15 3 16 2 17 1 18 86 19 87 20 92 21 88 22 91 23 89 24
REMARK SMILES IDX 90 25 18 26 19 27 20 28 21 29 22 31 23 32 24 33 85 34 25 35
REMARK SMILES IDX 84 36 26 37 27 38 28 39 78 40 29 41 83 42 77 43 79 44 30 45
REMARK SMILES IDX 82 46 76 47 75 48 31 50 63 51 43 52 62 53 44 54 47 55 61 56
REMARK SMILES IDX 80 57 45 58 46 59 60 61 81 62 48 63 32 64 33 65 41 66 34 67
REMARK SMILES IDX 36 68 42 69 35 70 37 71 38 72 39 73 40 74 64 75 65 76 73 77
REMARK SMILES IDX 66 78 68 79 74 80 67 81 69 82 70 83 71 84 72 85 49 86 50 87
REMARK SMILES IDX 58 88 51 89 53 90 59 91 52 92 54 93 55 94 56 95 57 96
REMARK H PARENT 16 5 20 30 79 49 47 60
REMARK Flexibility Score: inf
ROOT
ATOM      1  C   UNL A   1      37.320  21.201  24.460  1.00  0.00     0.117 C 
ENDROOT
BRANCH   1   2
ATOM      2  N   UNL A   1      37.883  22.340  25.154  1.00  0.00    -0.353 N 
ATOM      3  C   UNL A   1      37.255  23.491  25.520  1.00  0.00     0.257 C 
ATOM      4  O   UNL A   1      37.805  24.211  26.356  1.00  0.00    -0.271 OA
ATOM      5  H   UNL A   1      38.837  22.274  25.389  1.00  0.00     0.163 HD
BRANCH   3   6
ATOM      6  C   UNL A   1      35.891  23.860  24.921  1.00  0.00     0.329 C 
BRANCH   6   7
ATOM      7  O   UNL A   1      35.052  24.750  25.626  1.00  0.00    -0.483 OA
BRANCH   7   8
ATOM      8  C   UNL A   1      33.758  24.473  25.969  1.00  0.00     0.127 A 
ATOM      9  C   UNL A   1      32.675  25.337  26.222  1.00  0.00     0.019 A 
ATOM     10  C   UNL A   1      31.412  24.784  26.515  1.00  0.00     0.027 A 
ATOM     11  C   UNL A   1      31.245  23.405  26.640  1.00  0.00     0.018 A 
ATOM     12  C   UNL A   1      33.555  23.086  26.080  1.00  0.00     0.048 A 
ATOM     13  Br  UNL A   1      29.570  22.706  27.166  1.00  0.00    -0.051 Br
ATOM     14  C   UNL A   1      32.315  22.551  26.429  1.00  0.00     0.019 A 
BRANCH   9  15
ATOM     15  C   UNL A   1      32.813  26.798  26.310  1.00  0.00     0.032 C 
ATOM     16  C   UNL A   1      32.514  27.685  25.340  1.00  0.00     0.060 C 
BRANCH  16  17
ATOM     17  C   UNL A   1      32.584  29.170  25.656  1.00  0.00     0.100 C 
ATOM     18  N   UNL A   1      32.641  30.402  25.918  1.00  0.00    -0.192 NA
ENDBRANCH  16  17
BRANCH  16  19
ATOM     19  C   UNL A   1      32.392  27.286  23.915  1.00  0.00    -0.008 A 
ATOM     20  C   UNL A   1      31.160  26.998  23.305  1.00  0.00     0.012 A 
ATOM     21  C   UNL A   1      33.577  27.019  23.199  1.00  0.00     0.012 A 
ATOM     22  C   UNL A   1      31.120  26.386  22.048  1.00  0.00     0.040 A 
ATOM     23  C   UNL A   1      33.534  26.427  21.937  1.00  0.00     0.040 A 
ATOM     24  C   UNL A   1      32.306  26.098  21.381  1.00  0.00     0.123 A 
ATOM     25  F   UNL A   1      32.265  25.481  20.193  1.00  0.00    -0.207 F 
ENDBRANCH  16  19
ENDBRANCH   9  15
ENDBRANCH   7   8
ENDBRANCH   6   7
ENDBRANCH   3   6
ENDBRANCH   1   2
BRANCH   1  26
ATOM     26  C   UNL A   1      38.084  19.903  24.680  1.00  0.00     0.042 C 
BRANCH  26  27
ATOM     27  C   UNL A   1      38.720  19.750  26.058  1.00  0.00     0.118 C 
BRANCH  27  28
ATOM     28  N   UNL A   1      39.982  19.022  26.033  1.00  0.00    -0.352 N 
ATOM     29  C   UNL A   1      41.279  19.463  26.133  1.00  0.00     0.251 C 
ATOM     30  H   UNL A   1      39.889  18.048  25.926  1.00  0.00     0.163 HD
ATOM     31  O   UNL A   1      42.195  18.677  25.911  1.00  0.00    -0.269 OA
BRANCH  29  32
ATOM     32  C   UNL A   1      41.581  20.869  26.482  1.00  0.00     0.039 A 
ATOM     33  C   UNL A   1      42.084  21.150  27.755  1.00  0.00     0.014 A 
ATOM     34  C   UNL A   1      41.348  21.911  25.581  1.00  0.00     0.014 A 
ATOM     35  C   UNL A   1      42.420  22.463  28.098  1.00  0.00     0.010 A 
ATOM     36  C   UNL A   1      41.761  23.206  25.894  1.00  0.00     0.010 A 
ATOM     37  C   UNL A   1      42.300  23.497  27.155  1.00  0.00    -0.014 A 
BRANCH  37  38
ATOM     38  C   UNL A   1      42.763  24.878  27.463  1.00  0.00     0.031 A 
ATOM     39  C   UNL A   1      41.838  25.867  28.121  1.00  0.00     0.074 A 
ATOM     40  C   UNL A   1      43.990  25.269  27.061  1.00  0.00     0.049 A 
ATOM     41  N   UNL A   1      42.050  27.126  28.406  1.00  0.00    -0.248 NA
ATOM     42  C   UNL A   1      40.492  25.393  28.483  1.00  0.00     0.031 C 
ATOM     43  C   UNL A   1      44.950  24.434  26.336  1.00  0.00     0.029 A 
ATOM     44  N   UNL A   1      44.628  26.481  27.173  1.00  0.00    -0.354 N 
ATOM     45  C   UNL A   1      40.858  27.605  28.935  1.00  0.00     0.074 A 
ATOM     46  C   UNL A   1      39.917  26.507  28.917  1.00  0.00     0.031 C 
ATOM     47  C   UNL A   1      46.048  25.156  26.062  1.00  0.00     0.029 A 
ATOM     48  C   UNL A   1      45.860  26.515  26.558  1.00  0.00     0.049 A 
ATOM     49  H   UNL A   1      44.242  27.251  27.649  1.00  0.00     0.167 HD
ATOM     50  C   UNL A   1      40.576  28.841  29.408  1.00  0.00     0.034 A 
ATOM     51  C   UNL A   1      46.730  27.530  26.389  1.00  0.00     0.034 A 
ATOM     52  C   UNL A   1      41.527  29.919  29.470  1.00  0.00     0.049 A 
ATOM     53  C   UNL A   1      46.408  28.878  26.976  1.00  0.00     0.074 A 
ATOM     54  C   UNL A   1      41.368  31.168  30.044  1.00  0.00     0.029 A 
ATOM     55  N   UNL A   1      42.800  29.886  28.928  1.00  0.00    -0.354 N 
ATOM     56  N   UNL A   1      45.342  29.254  27.640  1.00  0.00    -0.248 NA
ATOM     57  C   UNL A   1      47.421  29.933  26.821  1.00  0.00     0.031 C 
ATOM     58  C   UNL A   1      42.531  31.907  29.811  1.00  0.00     0.029 A 
ATOM     59  C   UNL A   1      43.430  31.101  29.132  1.00  0.00     0.049 A 
ATOM     60  H   UNL A   1      43.198  29.113  28.466  1.00  0.00     0.167 HD
ATOM     61  C   UNL A   1      45.573  30.574  28.014  1.00  0.00     0.074 A 
ATOM     62  C   UNL A   1      46.889  30.923  27.524  1.00  0.00     0.031 C 
ATOM     63  C   UNL A   1      44.761  31.424  28.688  1.00  0.00     0.034 A 
BRANCH  50  64
ATOM     64  C   UNL A   1      39.190  29.107  29.935  1.00  0.00     0.023 A 
ATOM     65  C   UNL A   1      38.887  28.833  31.284  1.00  0.00     0.012 A 
ATOM     66  C   UNL A   1      38.224  29.730  29.121  1.00  0.00     0.148 A 
ATOM     67  C   UNL A   1      37.637  29.158  31.809  1.00  0.00     0.002 A 
ATOM     68  C   UNL A   1      36.998  30.094  29.664  1.00  0.00     0.091 A 
ATOM     69  F   UNL A   1      38.526  29.965  27.837  1.00  0.00    -0.205 F 
ATOM     70  C   UNL A   1      36.699  29.800  31.005  1.00  0.00     0.022 A 
BRANCH  68  71
ATOM     71  S   UNL A   1      35.756  31.002  28.737  1.00  0.00     0.127 S 
ATOM     72  O   UNL A   1      34.996  29.915  28.119  1.00  0.00    -0.237 OA
ATOM     73  O   UNL A   1      35.044  31.715  29.799  1.00  0.00    -0.237 OA
ATOM     74  O   UNL A   1      36.485  31.854  27.810  1.00  0.00    -0.744 OA
ENDBRANCH  68  71
ENDBRANCH  50  64
BRANCH  51  75
ATOM     75  C   UNL A   1      48.009  27.309  25.652  1.00  0.00     0.023 A 
ATOM     76  C   UNL A   1      49.159  26.900  26.353  1.00  0.00     0.012 A 
ATOM     77  C   UNL A   1      48.089  27.508  24.260  1.00  0.00     0.148 A 
ATOM     78  C   UNL A   1      50.377  26.740  25.691  1.00  0.00     0.002 A 
ATOM     79  C   UNL A   1      49.289  27.287  23.597  1.00  0.00     0.091 A 
ATOM     80  F   UNL A   1      46.987  27.911  23.611  1.00  0.00    -0.205 F 
ATOM     81  C   UNL A   1      50.440  26.925  24.312  1.00  0.00     0.022 A 
BRANCH  79  82
ATOM     82  S   UNL A   1      49.420  27.365  21.807  1.00  0.00     0.127 S 
ATOM     83  O   UNL A   1      49.140  28.774  21.547  1.00  0.00    -0.237 OA
ATOM     84  O   UNL A   1      50.810  26.961  21.587  1.00  0.00    -0.237 OA
ATOM     85  O   UNL A   1      48.438  26.415  21.301  1.00  0.00    -0.744 OA
ENDBRANCH  79  82
ENDBRANCH  51  75
BRANCH  63  86
ATOM     86  C   UNL A   1      45.282  32.806  28.985  1.00  0.00     0.023 A 
ATOM     87  C   UNL A   1      45.948  33.065  30.199  1.00  0.00     0.012 A 
ATOM     88  C   UNL A   1      45.173  33.830  28.024  1.00  0.00     0.148 A 
ATOM     89  C   UNL A   1      46.465  34.332  30.467  1.00  0.00     0.002 A 
ATOM     90  C   UNL A   1      45.738  35.074  28.275  1.00  0.00     0.091 A 
ATOM     91  F   UNL A   1      44.521  33.569  26.881  1.00  0.00    -0.205 F 
ATOM     92  C   UNL A   1      46.371  35.332  29.501  1.00  0.00     0.022 A 
BRANCH  90  93
ATOM     93  S   UNL A   1      45.755  36.389  27.051  1.00  0.00     0.127 S 
ATOM     94  O   UNL A   1      44.335  36.724  26.955  1.00  0.00    -0.237 OA
ATOM     95  O   UNL A   1      46.580  37.407  27.702  1.00  0.00    -0.237 OA
ATOM     96  O   UNL A   1      46.342  35.813  25.849  1.00  0.00    -0.744 OA
ENDBRANCH  90  93
ENDBRANCH  63  86
ENDBRANCH  37  38
ENDBRANCH  29  32
ENDBRANCH  27  28
ENDBRANCH  26  27
ENDBRANCH   1  26
TORSDOF 18
ENDMDL
MODEL 2
REMARK VINA RESULT:     -10.9      1.499      1.995
REMARK SMILES N#C/C(=C/c1cc(Br)ccc1OCC(=O)NCCCNC(=O)c1ccc(-c2c3nc(c(-c4cccc(S(=O)(=O)[O-])c4F)c4ccc([nH]4)c(-c4cccc(S(=O)(=O)[O-])c4F)c4nc(c(-c5cccc(S(=O)(=O)[O-])c5F)c5ccc2[nH]5)C=C4)C=C3)cc1)c1ccc(F)cc1
REMARK SMILES IDX 17 1 16 2 14 3 15 4 13 6 12 7 11 8 5 9 6 10 7 11 10 12 8 13
REMARK SMILES IDX 9 14 4 15 3 16 2 17 1 18 86 19 87 20 92 21 88 22 91 23 89 24
REMARK SMILES IDX 90 25 18 26 19 27 20 28 21 29 22 31 23 32 24 33 85 34 25 35
REMARK SMILES IDX 84 36 26 37 27 38 28 39 78 40 29 41 83 42 77 43 79 44 30 45
REMARK SMILES IDX 82 46 76 47 75 48 31 50 63 51 43 52 62 53 44 54 47 55 61 56
REMARK SMILES IDX 80 57 45 58 46 59 60 61 81 62 48 63 32 64 33 65 41 66 34 67
REMARK SMILES IDX 36 68 42 69 35 70 37 71 38 72 39 73 40 74 64 75 65 76 73 77
REMARK SMILES IDX 66 78 68 79 74 80 67 81 69 82 70 83 71 84 72 85 49 86 50 87
REMARK SMILES IDX 58 88 51 89 53 90 59 91 52 92 54 93 55 94 56 95 57 96
REMARK H PARENT 16 5 20 30 79 49 47 60
REMARK Flexibility Score: inf
ROOT
ATOM      1  C   UNL A   1      36.510  19.891  24.950  1.00  0.00     0.117 C 
ENDROOT
BRANCH   1   2
ATOM      2  N   UNL A   1      36.605  21.329  25.096  1.00  0.00    -0.353 N 
ATOM      3  C   UNL A   1      35.634  22.194  25.496  1.00  0.00     0.257 C 
ATOM      4  O   UNL A   1      35.975  23.326  25.847  1.00  0.00    -0.271 OA
ATOM      5  H   UNL A   1      37.478  21.728  24.879  1.00  0.00     0.163 HD
BRANCH   3   6
ATOM      6  C   UNL A   1      34.164  21.758  25.529  1.00  0.00     0.329 C 
BRANCH   6   7
ATOM      7  O   UNL A   1      33.155  22.734  25.381  1.00  0.00    -0.483 OA
BRANCH   7   8
ATOM      8  C   UNL A   1      33.028  23.545  24.288  1.00  0.00     0.127 A 
ATOM      9  C   UNL A   1      32.959  24.948  24.194  1.00  0.00     0.019 A 
ATOM     10  C   UNL A   1      32.875  25.546  22.920  1.00  0.00     0.027 A 
ATOM     11  C   UNL A   1      32.775  24.767  21.768  1.00  0.00     0.018 A 
ATOM     12  C   UNL A   1      32.948  22.785  23.107  1.00  0.00     0.048 A 
ATOM     13  Br  UNL A   1      32.528  25.599  20.089  1.00  0.00    -0.051 Br
ATOM     14  C   UNL A   1      32.805  23.384  21.856  1.00  0.00     0.019 A 
BRANCH   9  15
ATOM     15  C   UNL A   1      32.854  25.830  25.365  1.00  0.00     0.032 C 
ATOM     16  C   UNL A   1      31.792  26.593  25.694  1.00  0.00     0.060 C 
BRANCH  16  17
ATOM     17  C   UNL A   1      31.803  27.335  27.020  1.00  0.00     0.100 C 
ATOM     18  N   UNL A   1      31.812  27.951  28.121  1.00  0.00    -0.192 NA
ENDBRANCH  16  17
BRANCH  16  19
ATOM     19  C   UNL A   1      30.746  26.959  24.705  1.00  0.00    -0.008 A 
ATOM     20  C   UNL A   1      30.802  28.131  23.933  1.00  0.00     0.012 A 
ATOM     21  C   UNL A   1      29.570  26.183  24.670  1.00  0.00     0.012 A 
ATOM     22  C   UNL A   1      29.681  28.554  23.211  1.00  0.00     0.040 A 
ATOM     23  C   UNL A   1      28.461  26.598  23.932  1.00  0.00     0.040 A 
ATOM     24  C   UNL A   1      28.520  27.790  23.225  1.00  0.00     0.123 A 
ATOM     25  F   UNL A   1      27.438  28.217  22.560  1.00  0.00    -0.207 F 
ENDBRANCH  16  19
ENDBRANCH   9  15
ENDBRANCH   7   8
ENDBRANCH   6   7
ENDBRANCH   3   6
ENDBRANCH   1   2
BRANCH   1  26
ATOM     26  C   UNL A   1      37.842  19.167  25.087  1.00  0.00     0.042 C 
BRANCH  26  27
ATOM     27  C   UNL A   1      38.994  20.019  25.612  1.00  0.00     0.118 C 
BRANCH  27  28
ATOM     28  N   UNL A   1      40.162  19.237  25.994  1.00  0.00    -0.352 N 
ATOM     29  C   UNL A   1      41.404  19.628  26.429  1.00  0.00     0.251 C 
ATOM     30  H   UNL A   1      40.038  18.262  25.931  1.00  0.00     0.163 HD
ATOM     31  O   UNL A   1      42.293  18.786  26.529  1.00  0.00    -0.269 OA
BRANCH  29  32
ATOM     32  C   UNL A   1      41.689  21.043  26.753  1.00  0.00     0.039 A 
ATOM     33  C   UNL A   1      42.178  21.353  28.025  1.00  0.00     0.014 A 
ATOM     34  C   UNL A   1      41.452  22.065  25.832  1.00  0.00     0.014 A 
ATOM     35  C   UNL A   1      42.498  22.676  28.346  1.00  0.00     0.010 A 
ATOM     36  C   UNL A   1      41.848  23.370  26.124  1.00  0.00     0.010 A 
ATOM     37  C   UNL A   1      42.375  23.690  27.383  1.00  0.00    -0.014 A 
BRANCH  37  38
ATOM     38  C   UNL A   1      42.820  25.082  27.669  1.00  0.00     0.031 A 
ATOM     39  C   UNL A   1      41.875  26.077  28.289  1.00  0.00     0.074 A 
ATOM     40  C   UNL A   1      44.051  25.475  27.281  1.00  0.00     0.049 A 
ATOM     41  N   UNL A   1      42.071  27.343  28.551  1.00  0.00    -0.248 NA
ATOM     42  C   UNL A   1      40.527  25.598  28.638  1.00  0.00     0.031 C 
ATOM     43  C   UNL A   1      45.030  24.633  26.591  1.00  0.00     0.029 A 
ATOM     44  N   UNL A   1      44.676  26.695  27.378  1.00  0.00    -0.354 N 
ATOM     45  C   UNL A   1      40.866  27.823  29.048  1.00  0.00     0.074 A 
ATOM     46  C   UNL A   1      39.935  26.716  29.038  1.00  0.00     0.031 C 
ATOM     47  C   UNL A   1      46.127  25.359  26.321  1.00  0.00     0.029 A 
ATOM     48  C   UNL A   1      45.918  26.727  26.784  1.00  0.00     0.049 A 
ATOM     49  H   UNL A   1      44.275  27.472  27.830  1.00  0.00     0.167 HD
ATOM     50  C   UNL A   1      40.565  29.067  29.489  1.00  0.00     0.034 A 
ATOM     51  C   UNL A   1      46.783  27.745  26.608  1.00  0.00     0.034 A 
ATOM     52  C   UNL A   1      41.505  30.153  29.545  1.00  0.00     0.049 A 
ATOM     53  C   UNL A   1      46.438  29.103  27.159  1.00  0.00     0.074 A 
ATOM     54  C   UNL A   1      41.326  31.413  30.089  1.00  0.00     0.029 A 
ATOM     55  N   UNL A   1      42.788  30.120  29.026  1.00  0.00    -0.354 N 
ATOM     56  N   UNL A   1      45.358  29.483  27.797  1.00  0.00    -0.248 NA
ATOM     57  C   UNL A   1      47.446  30.163  27.000  1.00  0.00     0.031 C 
ATOM     58  C   UNL A   1      42.486  32.158  29.860  1.00  0.00     0.029 A 
ATOM     59  C   UNL A   1      43.404  31.345  29.214  1.00  0.00     0.049 A 
ATOM     60  H   UNL A   1      43.201  29.341  28.588  1.00  0.00     0.167 HD
ATOM     61  C   UNL A   1      45.571  30.813  28.146  1.00  0.00     0.074 A 
ATOM     62  C   UNL A   1      46.893  31.164  27.672  1.00  0.00     0.031 C 
ATOM     63  C   UNL A   1      44.740  31.670  28.788  1.00  0.00     0.034 A 
BRANCH  50  64
ATOM     64  C   UNL A   1      39.168  29.331  29.986  1.00  0.00     0.023 A 
ATOM     65  C   UNL A   1      38.831  29.039  31.323  1.00  0.00     0.012 A 
ATOM     66  C   UNL A   1      38.224  29.970  29.158  1.00  0.00     0.148 A 
ATOM     67  C   UNL A   1      37.570  29.363  31.823  1.00  0.00     0.002 A 
ATOM     68  C   UNL A   1      36.987  30.332  29.676  1.00  0.00     0.091 A 
ATOM     69  F   UNL A   1      38.559  30.222  27.885  1.00  0.00    -0.205 F 
ATOM     70  C   UNL A   1      36.655  30.021  31.005  1.00  0.00     0.022 A 
BRANCH  68  71
ATOM     71  S   UNL A   1      35.772  31.258  28.732  1.00  0.00     0.127 S 
ATOM     72  O   UNL A   1      35.166  30.205  27.917  1.00  0.00    -0.237 OA
ATOM     73  O   UNL A   1      34.905  31.787  29.786  1.00  0.00    -0.237 OA
ATOM     74  O   UNL A   1      36.517  32.265  27.990  1.00  0.00    -0.744 OA
ENDBRANCH  68  71
ENDBRANCH  50  64
BRANCH  51  75
ATOM     75  C   UNL A   1      48.076  27.520  25.899  1.00  0.00     0.023 A 
ATOM     76  C   UNL A   1      49.241  27.242  26.639  1.00  0.00     0.012 A 
ATOM     77  C   UNL A   1      48.155  27.586  24.494  1.00  0.00     0.148 A 
ATOM     78  C   UNL A   1      50.470  27.082  25.997  1.00  0.00     0.002 A 
ATOM     79  C   UNL A   1      49.369  27.363  23.858  1.00  0.00     0.091 A 
ATOM     80  F   UNL A   1      47.039  27.865  23.806  1.00  0.00    -0.205 F 
ATOM     81  C   UNL A   1      50.533  27.133  24.607  1.00  0.00     0.022 A 
BRANCH  79  82
ATOM     82  S   UNL A   1      49.509  27.272  22.069  1.00  0.00     0.127 S 
ATOM     83  O   UNL A   1      48.579  26.193  21.751  1.00  0.00    -0.237 OA
ATOM     84  O   UNL A   1      49.068  28.607  21.662  1.00  0.00    -0.237 OA
ATOM     85  O   UNL A   1      50.916  27.003  21.800  1.00  0.00    -0.744 OA
ENDBRANCH  79  82
ENDBRANCH  51  75
BRANCH  63  86
ATOM     86  C   UNL A   1      45.244  33.063  29.063  1.00  0.00     0.023 A 
ATOM     87  C   UNL A   1      45.969  33.332  30.240  1.00  0.00     0.012 A 
ATOM     88  C   UNL A   1      45.059  34.089  28.115  1.00  0.00     0.148 A 
ATOM     89  C   UNL A   1      46.470  34.610  30.487  1.00  0.00     0.002 A 
ATOM     90  C   UNL A   1      45.607  35.344  28.342  1.00  0.00     0.091 A 
ATOM     91  F   UNL A   1      44.352  33.816  27.008  1.00  0.00    -0.205 F 
ATOM     92  C   UNL A   1      46.300  35.611  29.533  1.00  0.00     0.022 A 
BRANCH  90  93
ATOM     93  S   UNL A   1      45.526  36.664  27.127  1.00  0.00     0.127 S 
ATOM     94  O   UNL A   1      46.260  36.081  26.004  1.00  0.00    -0.237 OA
ATOM     95  O   UNL A   1      44.085  36.798  26.910  1.00  0.00    -0.237 OA
ATOM     96  O   UNL A   1      46.154  37.823  27.748  1.00  0.00    -0.744 OA
ENDBRANCH  90  93
ENDBRANCH  63  86
ENDBRANCH  37  38
ENDBRANCH  29  32
ENDBRANCH  27  28
ENDBRANCH  26  27
ENDBRANCH   1  26
TORSDOF 18
ENDMDL
MODEL 3
REMARK VINA RESULT:     -10.9      1.962      7.779
REMARK SMILES N#C/C(=C/c1cc(Br)ccc1OCC(=O)NCCCNC(=O)c1ccc(-c2c3nc(c(-c4cccc(S(=O)(=O)[O-])c4F)c4ccc([nH]4)c(-c4cccc(S(=O)(=O)[O-])c4F)c4nc(c(-c5cccc(S(=O)(=O)[O-])c5F)c5ccc2[nH]5)C=C4)C=C3)cc1)c1ccc(F)cc1
REMARK SMILES IDX 17 1 16 2 14 3 15 4 13 6 12 7 11 8 5 9 6 10 7 11 10 12 8 13
REMARK SMILES IDX 9 14 4 15 3 16 2 17 1 18 86 19 87 20 92 21 88 22 91 23 89 24
REMARK SMILES IDX 90 25 18 26 19 27 20 28 21 29 22 31 23 32 24 33 85 34 25 35
REMARK SMILES IDX 84 36 26 37 27 38 28 39 78 40 29 41 83 42 77 43 79 44 30 45
REMARK SMILES IDX 82 46 76 47 75 48 31 50 63 51 43 52 62 53 44 54 47 55 61 56
REMARK SMILES IDX 80 57 45 58 46 59 60 61 81 62 48 63 32 64 33 65 41 66 34 67
REMARK SMILES IDX 36 68 42 69 35 70 37 71 38 72 39 73 40 74 64 75 65 76 73 77
REMARK SMILES IDX 66 78 68 79 74 80 67 81 69 82 70 83 71 84 72 85 49 86 50 87
REMARK SMILES IDX 58 88 51 89 53 90 59 91 52 92 54 93 55 94 56 95 57 96
REMARK H PARENT 16 5 20 30 79 49 47 60
REMARK Flexibility Score: inf
ROOT
ATOM      1  C   UNL A   1      33.742  21.499  25.862  1.00  0.00     0.117 C 
ENDROOT
BRANCH   1   2
ATOM      2  N   UNL A   1      32.639  21.846  26.734  1.00  0.00    -0.353 N 
ATOM      3  C   UNL A   1      32.041  23.059  26.882  1.00  0.00     0.257 C 
ATOM      4  O   UNL A   1      30.940  23.099  27.436  1.00  0.00    -0.271 OA
ATOM      5  H   UNL A   1      32.280  21.116  27.288  1.00  0.00     0.163 HD
BRANCH   3   6
ATOM      6  C   UNL A   1      32.713  24.332  26.350  1.00  0.00     0.329 C 
BRANCH   6   7
ATOM      7  O   UNL A   1      33.652  24.224  25.301  1.00  0.00    -0.483 OA
BRANCH   7   8
ATOM      8  C   UNL A   1      33.450  24.707  24.039  1.00  0.00     0.127 A 
ATOM      9  C   UNL A   1      33.620  26.005  23.520  1.00  0.00     0.019 A 
ATOM     10  C   UNL A   1      33.384  26.230  22.148  1.00  0.00     0.027 A 
ATOM     11  C   UNL A   1      32.907  25.209  21.326  1.00  0.00     0.018 A 
ATOM     12  C   UNL A   1      32.990  23.692  23.181  1.00  0.00     0.048 A 
ATOM     13  Br  UNL A   1      32.473  25.580  19.524  1.00  0.00    -0.051 Br
ATOM     14  C   UNL A   1      32.703  23.938  21.839  1.00  0.00     0.019 A 
BRANCH   9  15
ATOM     15  C   UNL A   1      33.922  27.175  24.357  1.00  0.00     0.032 C 
ATOM     16  C   UNL A   1      33.021  27.961  24.981  1.00  0.00     0.060 C 
BRANCH  16  17
ATOM     17  C   UNL A   1      33.519  29.044  25.923  1.00  0.00     0.100 C 
ATOM     18  N   UNL A   1      33.932  29.943  26.705  1.00  0.00    -0.192 NA
ENDBRANCH  16  17
BRANCH  16  19
ATOM     19  C   UNL A   1      31.592  27.997  24.578  1.00  0.00    -0.008 A 
ATOM     20  C   UNL A   1      30.726  26.903  24.739  1.00  0.00     0.012 A 
ATOM     21  C   UNL A   1      31.139  29.115  23.849  1.00  0.00     0.012 A 
ATOM     22  C   UNL A   1      29.472  26.899  24.118  1.00  0.00     0.040 A 
ATOM     23  C   UNL A   1      29.880  29.116  23.248  1.00  0.00     0.040 A 
ATOM     24  C   UNL A   1      29.066  27.999  23.372  1.00  0.00     0.123 A 
ATOM     25  F   UNL A   1      27.879  27.977  22.751  1.00  0.00    -0.207 F 
ENDBRANCH  16  19
ENDBRANCH   9  15
ENDBRANCH   7   8
ENDBRANCH   6   7
ENDBRANCH   3   6
ENDBRANCH   1   2
BRANCH   1  26
ATOM     26  C   UNL A   1      35.102  21.524  26.545  1.00  0.00     0.042 C 
BRANCH  26  27
ATOM     27  C   UNL A   1      36.276  21.894  25.643  1.00  0.00     0.118 C 
BRANCH  27  28
ATOM     28  N   UNL A   1      37.369  20.933  25.697  1.00  0.00    -0.352 N 
ATOM     29  C   UNL A   1      38.713  21.109  25.919  1.00  0.00     0.251 C 
ATOM     30  H   UNL A   1      37.098  19.998  25.551  1.00  0.00     0.163 HD
ATOM     31  O   UNL A   1      39.475  20.162  25.747  1.00  0.00    -0.269 OA
BRANCH  29  32
ATOM     32  C   UNL A   1      39.252  22.422  26.338  1.00  0.00     0.039 A 
ATOM     33  C   UNL A   1      40.338  22.451  27.216  1.00  0.00     0.014 A 
ATOM     34  C   UNL A   1      38.680  23.619  25.900  1.00  0.00     0.014 A 
ATOM     35  C   UNL A   1      40.897  23.676  27.595  1.00  0.00     0.010 A 
ATOM     36  C   UNL A   1      39.288  24.834  26.211  1.00  0.00     0.010 A 
ATOM     37  C   UNL A   1      40.402  24.877  27.062  1.00  0.00    -0.014 A 
BRANCH  37  38
ATOM     38  C   UNL A   1      41.057  26.180  27.362  1.00  0.00     0.031 A 
ATOM     39  C   UNL A   1      42.476  26.441  26.930  1.00  0.00     0.074 A 
ATOM     40  C   UNL A   1      40.403  27.092  28.109  1.00  0.00     0.049 A 
ATOM     41  N   UNL A   1      43.224  27.489  27.159  1.00  0.00    -0.248 NA
ATOM     42  C   UNL A   1      43.153  25.381  26.166  1.00  0.00     0.031 C 
ATOM     43  C   UNL A   1      39.058  26.925  28.664  1.00  0.00     0.029 A 
ATOM     44  N   UNL A   1      40.794  28.329  28.563  1.00  0.00    -0.354 N 
ATOM     45  C   UNL A   1      44.468  27.199  26.611  1.00  0.00     0.074 A 
ATOM     46  C   UNL A   1      44.382  25.868  26.051  1.00  0.00     0.031 C 
ATOM     47  C   UNL A   1      38.739  28.011  29.387  1.00  0.00     0.029 A 
ATOM     48  C   UNL A   1      39.867  28.936  29.380  1.00  0.00     0.049 A 
ATOM     49  H   UNL A   1      41.655  28.742  28.326  1.00  0.00     0.167 HD
ATOM     50  C   UNL A   1      45.575  27.975  26.563  1.00  0.00     0.034 A 
ATOM     51  C   UNL A   1      39.924  30.094  30.066  1.00  0.00     0.034 A 
ATOM     52  C   UNL A   1      45.644  29.317  27.075  1.00  0.00     0.049 A 
ATOM     53  C   UNL A   1      41.150  30.959  29.946  1.00  0.00     0.074 A 
ATOM     54  C   UNL A   1      46.684  30.224  26.963  1.00  0.00     0.029 A 
ATOM     55  N   UNL A   1      44.649  29.938  27.810  1.00  0.00    -0.354 N 
ATOM     56  N   UNL A   1      42.247  30.741  29.262  1.00  0.00    -0.248 NA
ATOM     57  C   UNL A   1      41.134  32.244  30.661  1.00  0.00     0.031 C 
ATOM     58  C   UNL A   1      46.335  31.379  27.668  1.00  0.00     0.029 A 
ATOM     59  C   UNL A   1      45.058  31.208  28.180  1.00  0.00     0.049 A 
ATOM     60  H   UNL A   1      43.779  29.537  28.036  1.00  0.00     0.167 HD
ATOM     61  C   UNL A   1      43.034  31.875  29.435  1.00  0.00     0.074 A 
ATOM     62  C   UNL A   1      42.277  32.787  30.266  1.00  0.00     0.031 C 
ATOM     63  C   UNL A   1      44.277  32.131  28.961  1.00  0.00     0.034 A 
BRANCH  50  64
ATOM     64  C   UNL A   1      46.810  27.420  25.902  1.00  0.00     0.023 A 
ATOM     65  C   UNL A   1      47.585  26.448  26.566  1.00  0.00     0.012 A 
ATOM     66  C   UNL A   1      47.137  27.782  24.581  1.00  0.00     0.148 A 
ATOM     67  C   UNL A   1      48.677  25.858  25.932  1.00  0.00     0.002 A 
ATOM     68  C   UNL A   1      48.198  27.156  23.938  1.00  0.00     0.091 A 
ATOM     69  F   UNL A   1      46.398  28.722  23.975  1.00  0.00    -0.205 F 
ATOM     70  C   UNL A   1      48.975  26.201  24.615  1.00  0.00     0.022 A 
BRANCH  68  71
ATOM     71  S   UNL A   1      48.609  27.463  22.217  1.00  0.00     0.127 S 
ATOM     72  O   UNL A   1      47.487  28.300  21.791  1.00  0.00    -0.237 OA
ATOM     73  O   UNL A   1      49.887  28.169  22.330  1.00  0.00    -0.237 OA
ATOM     74  O   UNL A   1      48.685  26.157  21.579  1.00  0.00    -0.744 OA
ENDBRANCH  68  71
ENDBRANCH  50  64
BRANCH  51  75
ATOM     75  C   UNL A   1      38.773  30.525  30.913  1.00  0.00     0.023 A 
ATOM     76  C   UNL A   1      38.756  30.208  32.285  1.00  0.00     0.012 A 
ATOM     77  C   UNL A   1      37.694  31.243  30.361  1.00  0.00     0.148 A 
ATOM     78  C   UNL A   1      37.664  30.555  33.082  1.00  0.00     0.002 A 
ATOM     79  C   UNL A   1      36.639  31.640  31.173  1.00  0.00     0.091 A 
ATOM     80  F   UNL A   1      37.721  31.525  29.051  1.00  0.00    -0.205 F 
ATOM     81  C   UNL A   1      36.611  31.279  32.529  1.00  0.00     0.022 A 
BRANCH  79  82
ATOM     82  S   UNL A   1      35.314  32.694  30.572  1.00  0.00     0.127 S 
ATOM     83  O   UNL A   1      34.838  31.945  29.413  1.00  0.00    -0.237 OA
ATOM     84  O   UNL A   1      34.398  32.711  31.714  1.00  0.00    -0.237 OA
ATOM     85  O   UNL A   1      35.936  33.980  30.289  1.00  0.00    -0.744 OA
ENDBRANCH  79  82
ENDBRANCH  51  75
BRANCH  63  86
ATOM     86  C   UNL A   1      44.891  33.468  29.283  1.00  0.00     0.023 A 
ATOM     87  C   UNL A   1      45.614  33.644  30.480  1.00  0.00     0.012 A 
ATOM     88  C   UNL A   1      44.812  34.530  28.361  1.00  0.00     0.148 A 
ATOM     89  C   UNL A   1      46.216  34.867  30.770  1.00  0.00     0.002 A 
ATOM     90  C   UNL A   1      45.460  35.728  28.632  1.00  0.00     0.091 A 
ATOM     91  F   UNL A   1      44.106  34.348  27.235  1.00  0.00    -0.205 F 
ATOM     92  C   UNL A   1      46.150  35.905  29.842  1.00  0.00     0.022 A 
BRANCH  90  93
ATOM     93  S   UNL A   1      45.515  37.082  27.452  1.00  0.00     0.127 S 
ATOM     94  O   UNL A   1      44.101  37.436  27.340  1.00  0.00    -0.237 OA
ATOM     95  O   UNL A   1      46.338  38.069  28.152  1.00  0.00    -0.237 OA
ATOM     96  O   UNL A   1      46.120  36.539  26.243  1.00  0.00    -0.744 OA
ENDBRANCH  90  93
ENDBRANCH  63  86
ENDBRANCH  37  38
ENDBRANCH  29  32
ENDBRANCH  27  28
ENDBRANCH  26  27
ENDBRANCH   1  26
TORSDOF 18
ENDMDL
