MODEL 1
REMARK VINA RESULT:     -11.4      0.000      0.000
REMARK SMILES CC[N@@H+]1CCO[C@H](c2nc(C)c(C(=O)NCCCNC(=O)c3ccc(-c4c5nc(c(-c6cccc(S(=O)(=O)[O-])c6F)c6ccc([nH]6)c(-c6cccc(S(=O)(=O)[O-])c6F)c6nc(c(-c7cccc(S(=O)(=O)[O-])c7F)c7ccc4[nH]7)C=C6)C=C5)cc3)s2)C1
REMARK SMILES IDX 17 1 16 2 15 3 13 4 14 5 12 7 8 8 9 9 85 10 10 11 11 12 7 13
REMARK SMILES IDX 3 14 4 15 86 16 5 18 6 19 2 20 1 21 18 22 19 23 20 24 21 26
REMARK SMILES IDX 22 27 23 28 84 29 24 30 83 31 25 32 26 33 27 34 77 35 28 36
REMARK SMILES IDX 82 37 76 38 78 39 29 40 81 41 75 42 74 43 30 45 62 46 42 47
REMARK SMILES IDX 61 48 43 49 46 50 60 51 79 52 44 53 45 54 59 56 80 57 47 58
REMARK SMILES IDX 31 59 32 60 40 61 33 62 35 63 41 64 34 65 36 66 37 67 38 68
REMARK SMILES IDX 39 69 63 70 64 71 72 72 65 73 67 74 73 75 66 76 68 77 69 78
REMARK SMILES IDX 70 79 71 80 48 81 49 82 57 83 50 84 52 85 58 86 51 87 53 88
REMARK SMILES IDX 54 89 55 90 56 91
REMARK H PARENT 15 6 3 17 19 25 78 44 46 55
REMARK Flexibility Score: inf
ROOT
ATOM      1  C   UNL A   1      31.776  28.551  25.812  1.00  0.00     0.042 C 
ENDROOT
BRANCH   1   2
ATOM      2  C   UNL A   1      32.138  27.342  26.667  1.00  0.00     0.118 C 
BRANCH   2   3
ATOM      3  N   UNL A   1      30.984  26.496  26.837  1.00  0.00    -0.351 N 
ATOM      4  C   UNL A   1      30.304  25.659  25.994  1.00  0.00     0.263 C 
ATOM      5  O   UNL A   1      29.262  25.224  26.503  1.00  0.00    -0.268 OA
ATOM      6  H   UNL A   1      30.607  26.528  27.747  1.00  0.00     0.163 HD
BRANCH   4   7
ATOM      7  C   UNL A   1      30.791  25.207  24.697  1.00  0.00     0.115 A 
ATOM      8  C   UNL A   1      32.106  23.710  23.281  1.00  0.00     0.128 A 
ATOM      9  N   UNL A   1      31.942  24.872  22.688  1.00  0.00    -0.243 NA
ATOM     10  S   UNL A   1      31.028  23.478  24.589  1.00  0.00    -0.110 S 
ATOM     11  C   UNL A   1      31.111  25.708  23.436  1.00  0.00     0.062 A 
ATOM     12  C   UNL A   1      30.788  26.984  22.751  1.00  0.00     0.068 C 
BRANCH   8  13
ATOM     13  C   UNL A   1      33.070  22.629  22.853  1.00  0.00     0.232 C 
ATOM     14  N   UNL A   1      34.263  21.869  25.019  1.00  0.00    -0.331 N 
ATOM     15  C   UNL A   1      35.437  22.587  24.517  1.00  0.00     0.291 C 
ATOM     16  C   UNL A   1      33.354  21.526  23.906  1.00  0.00     0.302 C 
ATOM     17  H   UNL A   1      34.619  20.995  25.405  1.00  0.00     0.348 HD
ATOM     18  C   UNL A   1      35.123  23.692  23.494  1.00  0.00     0.222 C 
ATOM     19  O   UNL A   1      34.318  23.217  22.407  1.00  0.00    -0.359 OA
BRANCH  14  20
ATOM     20  C   UNL A   1      33.624  22.392  26.229  1.00  0.00     0.258 C 
ATOM     21  C   UNL A   1      34.027  21.834  27.591  1.00  0.00     0.071 C 
ENDBRANCH  14  20
ENDBRANCH   8  13
ENDBRANCH   4   7
ENDBRANCH   2   3
ENDBRANCH   1   2
BRANCH   1  22
ATOM     22  C   UNL A   1      32.967  29.459  25.540  1.00  0.00     0.118 C 
BRANCH  22  23
ATOM     23  N   UNL A   1      32.667  30.836  25.900  1.00  0.00    -0.352 N 
ATOM     24  C   UNL A   1      33.120  31.580  26.961  1.00  0.00     0.251 C 
ATOM     25  H   UNL A   1      32.049  31.303  25.294  1.00  0.00     0.163 HD
ATOM     26  O   UNL A   1      32.527  32.616  27.256  1.00  0.00    -0.269 OA
BRANCH  24  27
ATOM     27  C   UNL A   1      34.307  31.156  27.743  1.00  0.00     0.039 A 
ATOM     28  C   UNL A   1      35.338  32.078  27.955  1.00  0.00     0.014 A 
ATOM     29  C   UNL A   1      34.446  29.844  28.204  1.00  0.00     0.014 A 
ATOM     30  C   UNL A   1      36.491  31.688  28.644  1.00  0.00     0.010 A 
ATOM     31  C   UNL A   1      35.554  29.484  28.968  1.00  0.00     0.010 A 
ATOM     32  C   UNL A   1      36.603  30.391  29.168  1.00  0.00    -0.014 A 
BRANCH  32  33
ATOM     33  C   UNL A   1      37.826  29.951  29.886  1.00  0.00     0.031 A 
ATOM     34  C   UNL A   1      38.117  30.472  31.272  1.00  0.00     0.074 A 
ATOM     35  C   UNL A   1      38.710  29.143  29.271  1.00  0.00     0.049 A 
ATOM     36  N   UNL A   1      39.147  30.238  32.042  1.00  0.00    -0.248 NA
ATOM     37  C   UNL A   1      37.135  31.401  31.857  1.00  0.00     0.031 C 
ATOM     38  C   UNL A   1      38.586  28.641  27.901  1.00  0.00     0.029 A 
ATOM     39  N   UNL A   1      39.901  28.620  29.709  1.00  0.00    -0.354 N 
ATOM     40  C   UNL A   1      38.961  31.019  33.177  1.00  0.00     0.074 A 
ATOM     41  C   UNL A   1      37.737  31.763  32.980  1.00  0.00     0.031 C 
ATOM     42  C   UNL A   1      39.652  27.877  27.614  1.00  0.00     0.029 A 
ATOM     43  C   UNL A   1      40.546  27.853  28.768  1.00  0.00     0.049 A 
ATOM     44  H   UNL A   1      40.260  28.780  30.612  1.00  0.00     0.167 HD
ATOM     45  C   UNL A   1      39.719  31.087  34.298  1.00  0.00     0.034 A 
ATOM     46  C   UNL A   1      41.725  27.202  28.828  1.00  0.00     0.034 A 
ATOM     47  C   UNL A   1      40.902  30.300  34.514  1.00  0.00     0.049 A 
ATOM     48  C   UNL A   1      42.510  27.233  30.112  1.00  0.00     0.074 A 
ATOM     49  C   UNL A   1      41.692  30.225  35.648  1.00  0.00     0.029 A 
ATOM     50  N   UNL A   1      41.466  29.448  33.577  1.00  0.00    -0.354 N 
ATOM     51  N   UNL A   1      42.232  27.854  31.233  1.00  0.00    -0.248 NA
ATOM     52  C   UNL A   1      43.745  26.439  30.155  1.00  0.00     0.031 C 
ATOM     53  C   UNL A   1      42.741  29.336  35.391  1.00  0.00     0.029 A 
ATOM     54  C   UNL A   1      42.592  28.842  34.104  1.00  0.00     0.049 A 
ATOM     55  H   UNL A   1      41.117  29.297  32.669  1.00  0.00     0.167 HD
ATOM     56  C   UNL A   1      43.236  27.495  32.125  1.00  0.00     0.074 A 
ATOM     57  C   UNL A   1      44.115  26.585  31.420  1.00  0.00     0.031 C 
ATOM     58  C   UNL A   1      43.423  27.893  33.408  1.00  0.00     0.034 A 
BRANCH  45  59
ATOM     59  C   UNL A   1      39.255  32.001  35.404  1.00  0.00     0.023 A 
ATOM     60  C   UNL A   1      38.317  31.529  36.346  1.00  0.00     0.012 A 
ATOM     61  C   UNL A   1      39.778  33.301  35.545  1.00  0.00     0.148 A 
ATOM     62  C   UNL A   1      37.880  32.347  37.388  1.00  0.00     0.002 A 
ATOM     63  C   UNL A   1      39.372  34.095  36.612  1.00  0.00     0.091 A 
ATOM     64  F   UNL A   1      40.652  33.741  34.629  1.00  0.00    -0.205 F 
ATOM     65  C   UNL A   1      38.414  33.624  37.526  1.00  0.00     0.022 A 
BRANCH  63  66
ATOM     66  S   UNL A   1      40.059  35.725  36.925  1.00  0.00     0.127 S 
ATOM     67  O   UNL A   1      39.653  36.452  35.723  1.00  0.00    -0.237 OA
ATOM     68  O   UNL A   1      39.358  36.126  38.146  1.00  0.00    -0.237 OA
ATOM     69  O   UNL A   1      41.493  35.531  37.085  1.00  0.00    -0.744 OA
ENDBRANCH  63  66
ENDBRANCH  45  59
BRANCH  46  70
ATOM     70  C   UNL A   1      42.187  26.393  27.664  1.00  0.00     0.023 A 
ATOM     71  C   UNL A   1      43.047  26.979  26.715  1.00  0.00     0.012 A 
ATOM     72  C   UNL A   1      41.813  25.045  27.511  1.00  0.00     0.148 A 
ATOM     73  C   UNL A   1      43.498  26.249  25.617  1.00  0.00     0.002 A 
ATOM     74  C   UNL A   1      42.312  24.306  26.444  1.00  0.00     0.091 A 
ATOM     75  F   UNL A   1      40.986  24.507  28.419  1.00  0.00    -0.205 F 
ATOM     76  C   UNL A   1      43.140  24.910  25.487  1.00  0.00     0.022 A 
BRANCH  74  77
ATOM     77  S   UNL A   1      42.010  22.542  26.275  1.00  0.00     0.127 S 
ATOM     78  O   UNL A   1      42.662  22.249  25.000  1.00  0.00    -0.237 OA
ATOM     79  O   UNL A   1      42.695  22.005  27.453  1.00  0.00    -0.237 OA
ATOM     80  O   UNL A   1      40.565  22.388  26.299  1.00  0.00    -0.744 OA
ENDBRANCH  74  77
ENDBRANCH  46  70
BRANCH  58  81
ATOM     81  C   UNL A   1      44.599  27.318  34.152  1.00  0.00     0.023 A 
ATOM     82  C   UNL A   1      45.848  27.965  34.098  1.00  0.00     0.012 A 
ATOM     83  C   UNL A   1      44.447  26.172  34.958  1.00  0.00     0.148 A 
ATOM     84  C   UNL A   1      46.938  27.462  34.806  1.00  0.00     0.002 A 
ATOM     85  C   UNL A   1      45.525  25.705  35.700  1.00  0.00     0.091 A 
ATOM     86  F   UNL A   1      43.255  25.557  34.981  1.00  0.00    -0.205 F 
ATOM     87  C   UNL A   1      46.774  26.340  35.616  1.00  0.00     0.022 A 
BRANCH  85  88
ATOM     88  S   UNL A   1      45.374  24.325  36.840  1.00  0.00     0.127 S 
ATOM     89  O   UNL A   1      45.053  23.223  35.936  1.00  0.00    -0.237 OA
ATOM     90  O   UNL A   1      46.710  24.259  37.433  1.00  0.00    -0.237 OA
ATOM     91  O   UNL A   1      44.322  24.698  37.776  1.00  0.00    -0.744 OA
ENDBRANCH  85  88
ENDBRANCH  58  81
ENDBRANCH  32  33
ENDBRANCH  24  27
ENDBRANCH  22  23
ENDBRANCH   1  22
TORSDOF 15
ENDMDL
MODEL 2
REMARK VINA RESULT:     -11.4      2.225      3.004
REMARK SMILES CC[N@@H+]1CCO[C@H](c2nc(C)c(C(=O)NCCCNC(=O)c3ccc(-c4c5nc(c(-c6cccc(S(=O)(=O)[O-])c6F)c6ccc([nH]6)c(-c6cccc(S(=O)(=O)[O-])c6F)c6nc(c(-c7cccc(S(=O)(=O)[O-])c7F)c7ccc4[nH]7)C=C6)C=C5)cc3)s2)C1
REMARK SMILES IDX 17 1 16 2 15 3 13 4 14 5 12 7 8 8 9 9 85 10 10 11 11 12 7 13
REMARK SMILES IDX 3 14 4 15 86 16 5 18 6 19 2 20 1 21 18 22 19 23 20 24 21 26
REMARK SMILES IDX 22 27 23 28 84 29 24 30 83 31 25 32 26 33 27 34 77 35 28 36
REMARK SMILES IDX 82 37 76 38 78 39 29 40 81 41 75 42 74 43 30 45 62 46 42 47
REMARK SMILES IDX 61 48 43 49 46 50 60 51 79 52 44 53 45 54 59 56 80 57 47 58
REMARK SMILES IDX 31 59 32 60 40 61 33 62 35 63 41 64 34 65 36 66 37 67 38 68
REMARK SMILES IDX 39 69 63 70 64 71 72 72 65 73 67 74 73 75 66 76 68 77 69 78
REMARK SMILES IDX 70 79 71 80 48 81 49 82 57 83 50 84 52 85 58 86 51 87 53 88
REMARK SMILES IDX 54 89 55 90 56 91
REMARK H PARENT 15 6 3 17 19 25 78 44 46 55
REMARK Flexibility Score: inf
ROOT
ATOM      1  C   UNL A   1      33.384  29.065  24.759  1.00  0.00     0.042 C 
ENDROOT
BRANCH   1   2
ATOM      2  C   UNL A   1      31.875  29.285  24.725  1.00  0.00     0.118 C 
BRANCH   2   3
ATOM      3  N   UNL A   1      31.303  28.597  23.596  1.00  0.00    -0.351 N 
ATOM      4  C   UNL A   1      31.478  27.341  23.078  1.00  0.00     0.263 C 
ATOM      5  O   UNL A   1      30.897  27.195  21.995  1.00  0.00    -0.268 OA
ATOM      6  H   UNL A   1      30.654  29.142  23.094  1.00  0.00     0.163 HD
BRANCH   4   7
ATOM      7  C   UNL A   1      32.150  26.244  23.761  1.00  0.00     0.115 A 
ATOM      8  C   UNL A   1      33.343  24.110  23.776  1.00  0.00     0.128 A 
ATOM      9  N   UNL A   1      32.723  24.294  24.921  1.00  0.00    -0.243 NA
ATOM     10  S   UNL A   1      33.477  25.548  22.859  1.00  0.00    -0.110 S 
ATOM     11  C   UNL A   1      32.117  25.551  24.970  1.00  0.00     0.062 A 
ATOM     12  C   UNL A   1      31.512  25.862  26.289  1.00  0.00     0.068 C 
BRANCH   8  13
ATOM     13  C   UNL A   1      33.959  22.814  23.304  1.00  0.00     0.232 C 
ATOM     14  N   UNL A   1      35.149  21.821  25.375  1.00  0.00    -0.331 N 
ATOM     15  C   UNL A   1      36.404  22.212  24.729  1.00  0.00     0.291 C 
ATOM     16  C   UNL A   1      34.072  21.695  24.373  1.00  0.00     0.302 C 
ATOM     17  H   UNL A   1      35.317  20.892  25.762  1.00  0.00     0.348 HD
ATOM     18  C   UNL A   1      36.267  23.342  23.693  1.00  0.00     0.222 C 
ATOM     19  O   UNL A   1      35.259  23.062  22.712  1.00  0.00    -0.359 OA
BRANCH  14  20
ATOM     20  C   UNL A   1      34.791  22.509  26.617  1.00  0.00     0.258 C 
ATOM     21  C   UNL A   1      33.733  21.901  27.533  1.00  0.00     0.071 C 
ENDBRANCH  14  20
ENDBRANCH   8  13
ENDBRANCH   4   7
ENDBRANCH   2   3
ENDBRANCH   1   2
BRANCH   1  22
ATOM     22  C   UNL A   1      33.948  29.073  26.173  1.00  0.00     0.118 C 
BRANCH  22  23
ATOM     23  N   UNL A   1      33.838  30.394  26.772  1.00  0.00    -0.352 N 
ATOM     24  C   UNL A   1      34.567  30.955  27.791  1.00  0.00     0.251 C 
ATOM     25  H   UNL A   1      33.138  30.971  26.389  1.00  0.00     0.163 HD
ATOM     26  O   UNL A   1      34.131  31.961  28.348  1.00  0.00    -0.269 OA
BRANCH  24  27
ATOM     27  C   UNL A   1      35.861  30.371  28.219  1.00  0.00     0.039 A 
ATOM     28  C   UNL A   1      35.909  29.646  29.415  1.00  0.00     0.014 A 
ATOM     29  C   UNL A   1      37.035  30.589  27.494  1.00  0.00     0.014 A 
ATOM     30  C   UNL A   1      37.127  29.128  29.867  1.00  0.00     0.010 A 
ATOM     31  C   UNL A   1      38.229  29.996  27.899  1.00  0.00     0.010 A 
ATOM     32  C   UNL A   1      38.295  29.288  29.107  1.00  0.00    -0.014 A 
BRANCH  32  33
ATOM     33  C   UNL A   1      39.602  28.762  29.578  1.00  0.00     0.031 A 
ATOM     34  C   UNL A   1      40.333  29.450  30.703  1.00  0.00     0.074 A 
ATOM     35  C   UNL A   1      40.165  27.710  28.952  1.00  0.00     0.049 A 
ATOM     36  N   UNL A   1      41.497  29.167  31.227  1.00  0.00    -0.248 NA
ATOM     37  C   UNL A   1      39.684  30.631  31.298  1.00  0.00     0.031 C 
ATOM     38  C   UNL A   1      39.599  27.011  27.797  1.00  0.00     0.029 A 
ATOM     39  N   UNL A   1      41.351  27.060  29.184  1.00  0.00    -0.354 N 
ATOM     40  C   UNL A   1      41.739  30.153  32.177  1.00  0.00     0.074 A 
ATOM     41  C   UNL A   1      40.618  31.064  32.133  1.00  0.00     0.031 C 
ATOM     42  C   UNL A   1      40.433  26.026  27.427  1.00  0.00     0.029 A 
ATOM     43  C   UNL A   1      41.602  26.037  28.301  1.00  0.00     0.049 A 
ATOM     44  H   UNL A   1      41.965  27.304  29.914  1.00  0.00     0.167 HD
ATOM     45  C   UNL A   1      42.781  30.272  33.034  1.00  0.00     0.034 A 
ATOM     46  C   UNL A   1      42.654  25.201  28.207  1.00  0.00     0.034 A 
ATOM     47  C   UNL A   1      43.864  29.330  33.115  1.00  0.00     0.049 A 
ATOM     48  C   UNL A   1      43.763  25.308  29.219  1.00  0.00     0.074 A 
ATOM     49  C   UNL A   1      44.921  29.307  34.008  1.00  0.00     0.029 A 
ATOM     50  N   UNL A   1      44.027  28.240  32.273  1.00  0.00    -0.354 N 
ATOM     51  N   UNL A   1      43.893  26.153  30.213  1.00  0.00    -0.248 NA
ATOM     52  C   UNL A   1      44.846  24.319  29.125  1.00  0.00     0.031 C 
ATOM     53  C   UNL A   1      45.731  28.210  33.696  1.00  0.00     0.029 A 
ATOM     54  C   UNL A   1      45.166  27.537  32.624  1.00  0.00     0.049 A 
ATOM     55  H   UNL A   1      43.422  28.002  31.535  1.00  0.00     0.167 HD
ATOM     56  C   UNL A   1      45.050  25.774  30.885  1.00  0.00     0.074 A 
ATOM     57  C   UNL A   1      45.569  24.610  30.197  1.00  0.00     0.031 C 
ATOM     58  C   UNL A   1      45.637  26.346  31.965  1.00  0.00     0.034 A 
BRANCH  45  59
ATOM     59  C   UNL A   1      42.768  31.432  33.997  1.00  0.00     0.023 A 
ATOM     60  C   UNL A   1      43.400  32.641  33.636  1.00  0.00     0.012 A 
ATOM     61  C   UNL A   1      42.093  31.349  35.230  1.00  0.00     0.148 A 
ATOM     62  C   UNL A   1      43.393  33.734  34.501  1.00  0.00     0.002 A 
ATOM     63  C   UNL A   1      42.051  32.459  36.068  1.00  0.00     0.091 A 
ATOM     64  F   UNL A   1      41.516  30.187  35.567  1.00  0.00    -0.205 F 
ATOM     65  C   UNL A   1      42.711  33.646  35.711  1.00  0.00     0.022 A 
BRANCH  63  66
ATOM     66  S   UNL A   1      41.133  32.474  37.612  1.00  0.00     0.127 S 
ATOM     67  O   UNL A   1      42.040  31.751  38.502  1.00  0.00    -0.237 OA
ATOM     68  O   UNL A   1      41.020  33.906  37.889  1.00  0.00    -0.237 OA
ATOM     69  O   UNL A   1      39.868  31.808  37.331  1.00  0.00    -0.744 OA
ENDBRANCH  63  66
ENDBRANCH  45  59
BRANCH  46  70
ATOM     70  C   UNL A   1      42.663  24.132  27.167  1.00  0.00     0.023 A 
ATOM     71  C   UNL A   1      43.336  24.359  25.951  1.00  0.00     0.012 A 
ATOM     72  C   UNL A   1      42.045  22.887  27.387  1.00  0.00     0.148 A 
ATOM     73  C   UNL A   1      43.365  23.379  24.959  1.00  0.00     0.002 A 
ATOM     74  C   UNL A   1      42.125  21.894  26.417  1.00  0.00     0.091 A 
ATOM     75  F   UNL A   1      41.401  22.693  28.547  1.00  0.00    -0.205 F 
ATOM     76  C   UNL A   1      42.769  22.144  25.196  1.00  0.00     0.022 A 
BRANCH  74  77
ATOM     77  S   UNL A   1      41.503  20.231  26.693  1.00  0.00     0.127 S 
ATOM     78  O   UNL A   1      42.255  19.825  27.880  1.00  0.00    -0.237 OA
ATOM     79  O   UNL A   1      40.077  20.476  26.923  1.00  0.00    -0.237 OA
ATOM     80  O   UNL A   1      41.795  19.496  25.474  1.00  0.00    -0.744 OA
ENDBRANCH  74  77
ENDBRANCH  46  70
BRANCH  58  81
ATOM     81  C   UNL A   1      46.887  25.701  32.502  1.00  0.00     0.023 A 
ATOM     82  C   UNL A   1      48.147  26.100  32.014  1.00  0.00     0.012 A 
ATOM     83  C   UNL A   1      46.816  24.747  33.537  1.00  0.00     0.148 A 
ATOM     84  C   UNL A   1      49.315  25.533  32.522  1.00  0.00     0.002 A 
ATOM     85  C   UNL A   1      47.986  24.224  34.072  1.00  0.00     0.091 A 
ATOM     86  F   UNL A   1      45.607  24.364  33.973  1.00  0.00    -0.205 F 
ATOM     87  C   UNL A   1      49.236  24.606  33.559  1.00  0.00     0.022 A 
BRANCH  85  88
ATOM     88  S   UNL A   1      47.976  23.098  35.472  1.00  0.00     0.127 S 
ATOM     89  O   UNL A   1      47.548  21.848  34.847  1.00  0.00    -0.237 OA
ATOM     90  O   UNL A   1      49.375  23.117  35.901  1.00  0.00    -0.237 OA
ATOM     91  O   UNL A   1      47.046  23.671  36.435  1.00  0.00    -0.744 OA
ENDBRANCH  85  88
ENDBRANCH  58  81
ENDBRANCH  32  33
ENDBRANCH  24  27
ENDBRANCH  22  23
ENDBRANCH   1  22
TORSDOF 15
ENDMDL
MODEL 3
REMARK VINA RESULT:     -11.4      2.562      8.123
REMARK SMILES CC[N@@H+]1CCO[C@H](c2nc(C)c(C(=O)NCCCNC(=O)c3ccc(-c4c5nc(c(-c6cccc(S(=O)(=O)[O-])c6F)c6ccc([nH]6)c(-c6cccc(S(=O)(=O)[O-])c6F)c6nc(c(-c7cccc(S(=O)(=O)[O-])c7F)c7ccc4[nH]7)C=C6)C=C5)cc3)s2)C1
REMARK SMILES IDX 17 1 16 2 15 3 13 4 14 5 12 7 8 8 9 9 85 10 10 11 11 12 7 13
REMARK SMILES IDX 3 14 4 15 86 16 5 18 6 19 2 20 1 21 18 22 19 23 20 24 21 26
REMARK SMILES IDX 22 27 23 28 84 29 24 30 83 31 25 32 26 33 27 34 77 35 28 36
REMARK SMILES IDX 82 37 76 38 78 39 29 40 81 41 75 42 74 43 30 45 62 46 42 47
REMARK SMILES IDX 61 48 43 49 46 50 60 51 79 52 44 53 45 54 59 56 80 57 47 58
REMARK SMILES IDX 31 59 32 60 40 61 33 62 35 63 41 64 34 65 36 66 37 67 38 68
REMARK SMILES IDX 39 69 63 70 64 71 72 72 65 73 67 74 73 75 66 76 68 77 69 78
REMARK SMILES IDX 70 79 71 80 48 81 49 82 57 83 50 84 52 85 58 86 51 87 53 88
REMARK SMILES IDX 54 89 55 90 56 91
REMARK H PARENT 15 6 3 17 19 25 78 44 46 55
REMARK Flexibility Score: inf
ROOT
ATOM      1  C   UNL A   1      31.482  31.999  26.463  1.00  0.00     0.042 C 
ENDROOT
BRANCH   1   2
ATOM      2  C   UNL A   1      31.592  30.538  26.042  1.00  0.00     0.118 C 
BRANCH   2   3
ATOM      3  N   UNL A   1      30.937  30.340  24.774  1.00  0.00    -0.351 N 
ATOM      4  C   UNL A   1      30.936  29.311  23.870  1.00  0.00     0.263 C 
ATOM      5  O   UNL A   1      30.348  29.608  22.821  1.00  0.00    -0.268 OA
ATOM      6  H   UNL A   1      30.376  31.103  24.501  1.00  0.00     0.163 HD
BRANCH   4   7
ATOM      7  C   UNL A   1      31.439  27.970  24.134  1.00  0.00     0.115 A 
ATOM      8  C   UNL A   1      32.114  25.732  23.419  1.00  0.00     0.128 A 
ATOM      9  N   UNL A   1      31.727  25.712  24.676  1.00  0.00    -0.243 NA
ATOM     10  S   UNL A   1      32.428  27.314  22.849  1.00  0.00    -0.110 S 
ATOM     11  C   UNL A   1      31.431  26.998  25.133  1.00  0.00     0.062 A 
ATOM     12  C   UNL A   1      31.113  27.049  26.582  1.00  0.00     0.068 C 
BRANCH   8  13
ATOM     13  C   UNL A   1      32.348  24.520  22.549  1.00  0.00     0.232 C 
ATOM     14  N   UNL A   1      32.634  22.538  24.186  1.00  0.00    -0.331 N 
ATOM     15  C   UNL A   1      34.060  22.583  23.849  1.00  0.00     0.291 C 
ATOM     16  C   UNL A   1      31.833  23.172  23.120  1.00  0.00     0.302 C 
ATOM     17  H   UNL A   1      32.388  21.548  24.207  1.00  0.00     0.348 HD
ATOM     18  C   UNL A   1      34.548  23.939  23.311  1.00  0.00     0.222 C 
ATOM     19  O   UNL A   1      33.754  24.407  22.212  1.00  0.00    -0.359 OA
BRANCH  14  20
ATOM     20  C   UNL A   1      32.258  22.881  25.560  1.00  0.00     0.258 C 
ATOM     21  C   UNL A   1      30.856  22.544  26.059  1.00  0.00     0.071 C 
ENDBRANCH  14  20
ENDBRANCH   8  13
ENDBRANCH   4   7
ENDBRANCH   2   3
ENDBRANCH   1   2
BRANCH   1  22
ATOM     22  C   UNL A   1      32.699  32.481  27.240  1.00  0.00     0.118 C 
BRANCH  22  23
ATOM     23  N   UNL A   1      32.585  33.895  27.563  1.00  0.00    -0.352 N 
ATOM     24  C   UNL A   1      33.154  34.606  28.590  1.00  0.00     0.251 C 
ATOM     25  H   UNL A   1      32.017  34.420  26.954  1.00  0.00     0.163 HD
ATOM     26  O   UNL A   1      32.704  35.717  28.864  1.00  0.00    -0.269 OA
BRANCH  24  27
ATOM     27  C   UNL A   1      34.295  34.056  29.361  1.00  0.00     0.039 A 
ATOM     28  C   UNL A   1      35.596  34.410  28.983  1.00  0.00     0.014 A 
ATOM     29  C   UNL A   1      34.102  33.143  30.401  1.00  0.00     0.014 A 
ATOM     30  C   UNL A   1      36.691  33.865  29.660  1.00  0.00     0.010 A 
ATOM     31  C   UNL A   1      35.190  32.672  31.132  1.00  0.00     0.010 A 
ATOM     32  C   UNL A   1      36.497  33.001  30.749  1.00  0.00    -0.014 A 
BRANCH  32  33
ATOM     33  C   UNL A   1      37.647  32.397  31.470  1.00  0.00     0.031 A 
ATOM     34  C   UNL A   1      38.423  31.266  30.842  1.00  0.00     0.074 A 
ATOM     35  C   UNL A   1      37.951  32.815  32.714  1.00  0.00     0.049 A 
ATOM     36  N   UNL A   1      39.428  30.586  31.329  1.00  0.00    -0.248 NA
ATOM     37  C   UNL A   1      37.994  30.822  29.506  1.00  0.00     0.031 C 
ATOM     38  C   UNL A   1      37.223  33.840  33.463  1.00  0.00     0.029 A 
ATOM     39  N   UNL A   1      38.937  32.410  33.578  1.00  0.00    -0.354 N 
ATOM     40  C   UNL A   1      39.722  29.610  30.382  1.00  0.00     0.074 A 
ATOM     41  C   UNL A   1      38.766  29.763  29.309  1.00  0.00     0.031 C 
ATOM     42  C   UNL A   1      37.792  33.990  34.670  1.00  0.00     0.029 A 
ATOM     43  C   UNL A   1      38.908  33.058  34.791  1.00  0.00     0.049 A 
ATOM     44  H   UNL A   1      39.603  31.721  33.351  1.00  0.00     0.167 HD
ATOM     45  C   UNL A   1      40.719  28.693  30.386  1.00  0.00     0.034 A 
ATOM     46  C   UNL A   1      39.694  32.918  35.876  1.00  0.00     0.034 A 
ATOM     47  C   UNL A   1      41.704  28.584  31.428  1.00  0.00     0.049 A 
ATOM     48  C   UNL A   1      40.840  31.943  35.826  1.00  0.00     0.074 A 
ATOM     49  C   UNL A   1      42.808  27.752  31.486  1.00  0.00     0.029 A 
ATOM     50  N   UNL A   1      41.707  29.335  32.594  1.00  0.00    -0.354 N 
ATOM     51  N   UNL A   1      41.197  31.140  34.853  1.00  0.00    -0.248 NA
ATOM     52  C   UNL A   1      41.718  31.889  37.003  1.00  0.00     0.031 C 
ATOM     53  C   UNL A   1      43.471  27.991  32.695  1.00  0.00     0.029 A 
ATOM     54  C   UNL A   1      42.792  28.987  33.378  1.00  0.00     0.049 A 
ATOM     55  H   UNL A   1      41.035  30.015  32.828  1.00  0.00     0.167 HD
ATOM     56  C   UNL A   1      42.361  30.514  35.284  1.00  0.00     0.074 A 
ATOM     57  C   UNL A   1      42.660  31.049  36.596  1.00  0.00     0.031 C 
ATOM     58  C   UNL A   1      43.108  29.572  34.657  1.00  0.00     0.034 A 
BRANCH  45  59
ATOM     59  C   UNL A   1      40.830  27.773  29.197  1.00  0.00     0.023 A 
ATOM     60  C   UNL A   1      40.030  26.612  29.140  1.00  0.00     0.012 A 
ATOM     61  C   UNL A   1      41.682  28.076  28.117  1.00  0.00     0.148 A 
ATOM     62  C   UNL A   1      40.103  25.750  28.046  1.00  0.00     0.002 A 
ATOM     63  C   UNL A   1      41.716  27.235  27.009  1.00  0.00     0.091 A 
ATOM     64  F   UNL A   1      42.451  29.171  28.197  1.00  0.00    -0.205 F 
ATOM     65  C   UNL A   1      40.937  26.067  26.978  1.00  0.00     0.022 A 
BRANCH  63  66
ATOM     66  S   UNL A   1      42.696  27.595  25.548  1.00  0.00     0.127 S 
ATOM     67  O   UNL A   1      42.041  28.801  25.043  1.00  0.00    -0.237 OA
ATOM     68  O   UNL A   1      44.027  27.817  26.117  1.00  0.00    -0.237 OA
ATOM     69  O   UNL A   1      42.590  26.420  24.695  1.00  0.00    -0.744 OA
ENDBRANCH  63  66
ENDBRANCH  45  59
BRANCH  46  70
ATOM     70  C   UNL A   1      39.475  33.785  37.069  1.00  0.00     0.023 A 
ATOM     71  C   UNL A   1      39.895  35.129  37.030  1.00  0.00     0.012 A 
ATOM     72  C   UNL A   1      38.827  33.302  38.221  1.00  0.00     0.148 A 
ATOM     73  C   UNL A   1      39.703  35.967  38.128  1.00  0.00     0.002 A 
ATOM     74  C   UNL A   1      38.589  34.157  39.291  1.00  0.00     0.091 A 
ATOM     75  F   UNL A   1      38.444  32.017  38.243  1.00  0.00    -0.205 F 
ATOM     76  C   UNL A   1      39.042  35.484  39.253  1.00  0.00     0.022 A 
BRANCH  74  77
ATOM     77  S   UNL A   1      37.626  33.657  40.723  1.00  0.00     0.127 S 
ATOM     78  O   UNL A   1      38.507  32.669  41.344  1.00  0.00    -0.237 OA
ATOM     79  O   UNL A   1      37.500  34.918  41.458  1.00  0.00    -0.237 OA
ATOM     80  O   UNL A   1      36.373  33.145  40.192  1.00  0.00    -0.744 OA
ENDBRANCH  74  77
ENDBRANCH  46  70
BRANCH  58  81
ATOM     81  C   UNL A   1      44.346  29.082  35.359  1.00  0.00     0.023 A 
ATOM     82  C   UNL A   1      45.587  29.700  35.106  1.00  0.00     0.012 A 
ATOM     83  C   UNL A   1      44.268  28.054  36.320  1.00  0.00     0.148 A 
ATOM     84  C   UNL A   1      46.737  29.277  35.771  1.00  0.00     0.002 A 
ATOM     85  C   UNL A   1      45.409  27.673  37.014  1.00  0.00     0.091 A 
ATOM     86  F   UNL A   1      43.082  27.464  36.532  1.00  0.00    -0.205 F 
ATOM     87  C   UNL A   1      46.646  28.274  36.733  1.00  0.00     0.022 A 
BRANCH  85  88
ATOM     88  S   UNL A   1      45.361  26.457  38.336  1.00  0.00     0.127 S 
ATOM     89  O   UNL A   1      45.004  25.240  37.610  1.00  0.00    -0.237 OA
ATOM     90  O   UNL A   1      46.735  26.486  38.839  1.00  0.00    -0.237 OA
ATOM     91  O   UNL A   1      44.366  26.940  39.283  1.00  0.00    -0.744 OA
ENDBRANCH  85  88
ENDBRANCH  58  81
ENDBRANCH  32  33
ENDBRANCH  24  27
ENDBRANCH  22  23
ENDBRANCH   1  22
TORSDOF 15
ENDMDL
