MODEL 1
REMARK VINA RESULT:     -12.4      0.000      0.000
REMARK SMILES COc1cccc(-c2ccc(=O)n(CC(=O)N[C@@H](C(=O)NCCCNC(=O)c3ccc(-c4c5nc(c(-c6cccc(S(=O)(=O)[O-])c6F)c6ccc([nH]6)c(-c6cccc(S(=O)(=O)[O-])c6F)c6nc(c(-c7cccc(S(=O)(=O)[O-])c7F)c7ccc4[nH]7)C=C6)C=C5)cc3)C(C)C)n2)c1
REMARK SMILES IDX 22 1 21 2 19 3 20 4 18 6 17 7 15 8 16 9 14 11 13 12 8 13
REMARK SMILES IDX 9 14 94 15 10 16 11 17 12 18 7 19 3 20 4 21 95 22 5 23 6 24
REMARK SMILES IDX 2 25 1 26 91 27 92 28 93 29 23 30 24 31 25 32 26 33 27 35
REMARK SMILES IDX 28 36 29 37 90 38 30 39 89 40 31 41 32 42 33 43 83 44 34 45
REMARK SMILES IDX 88 46 82 47 84 48 35 49 87 50 81 51 80 52 36 54 68 55 48 56
REMARK SMILES IDX 67 57 49 58 52 59 66 60 85 61 50 62 51 63 65 65 86 66 53 67
REMARK SMILES IDX 37 68 38 69 46 70 39 71 41 72 47 73 40 74 42 75 43 76 44 77
REMARK SMILES IDX 45 78 69 79 70 80 78 81 71 82 73 83 79 84 72 85 74 86 75 87
REMARK SMILES IDX 76 88 77 89 54 90 55 91 63 92 56 93 58 94 64 95 57 96 59 97
REMARK SMILES IDX 60 98 61 99 62 100
REMARK H PARENT 21 5 17 10 25 34 84 53 52 64
REMARK Flexibility Score: inf
ROOT
ATOM      1  C   UNL A   1      35.880  20.305  24.923  1.00  0.00     0.117 C 
ENDROOT
BRANCH   1   2
ATOM      2  N   UNL A   1      34.700  19.533  25.220  1.00  0.00    -0.354 N 
ATOM      3  C   UNL A   1      33.395  19.921  25.075  1.00  0.00     0.242 C 
ATOM      4  O   UNL A   1      32.546  19.030  25.154  1.00  0.00    -0.273 OA
ATOM      5  H   UNL A   1      34.850  18.624  25.567  1.00  0.00     0.163 HD
BRANCH   3   6
ATOM      6  C   UNL A   1      33.044  21.403  24.711  1.00  0.00     0.173 C 
BRANCH   6   7
ATOM      7  N   UNL A   1      31.743  21.741  25.302  1.00  0.00    -0.342 N 
ATOM      8  C   UNL A   1      31.349  22.773  26.106  1.00  0.00     0.242 C 
ATOM      9  O   UNL A   1      30.141  22.837  26.354  1.00  0.00    -0.273 OA
ATOM     10  H   UNL A   1      31.023  21.107  25.078  1.00  0.00     0.164 HD
BRANCH   8  11
ATOM     11  C   UNL A   1      32.303  23.880  26.584  1.00  0.00     0.248 C 
BRANCH  11  12
ATOM     12  N   UNL A   1      32.483  25.001  25.664  1.00  0.00    -0.220 N 
ATOM     13  C   UNL A   1      31.477  26.572  24.349  1.00  0.00     0.091 A 
ATOM     14  C   UNL A   1      32.754  27.039  23.786  1.00  0.00     0.036 A 
ATOM     15  N   UNL A   1      31.337  25.624  25.217  1.00  0.00    -0.169 NA
ATOM     16  C   UNL A   1      33.854  26.485  24.299  1.00  0.00     0.075 A 
ATOM     17  C   UNL A   1      33.767  25.432  25.340  1.00  0.00     0.267 A 
ATOM     18  O   UNL A   1      34.803  24.969  25.801  1.00  0.00    -0.268 OA
BRANCH  13  19
ATOM     19  C   UNL A   1      30.280  27.289  23.894  1.00  0.00     0.006 A 
ATOM     20  C   UNL A   1      29.330  29.348  23.088  1.00  0.00     0.119 A 
ATOM     21  C   UNL A   1      28.063  28.761  23.145  1.00  0.00     0.046 A 
ATOM     22  C   UNL A   1      30.443  28.615  23.486  1.00  0.00     0.056 A 
ATOM     23  C   UNL A   1      27.908  27.434  23.561  1.00  0.00     0.005 A 
ATOM     24  C   UNL A   1      29.022  26.687  23.940  1.00  0.00     0.011 A 
BRANCH  20  25
ATOM     25  O   UNL A   1      29.366  30.651  22.671  1.00  0.00    -0.497 OA
ATOM     26  C   UNL A   1      28.573  31.554  23.440  1.00  0.00     0.278 C 
ENDBRANCH  20  25
ENDBRANCH  13  19
ENDBRANCH  11  12
ENDBRANCH   8  11
ENDBRANCH   6   7
BRANCH   6  27
ATOM     27  C   UNL A   1      33.050  21.593  23.169  1.00  0.00     0.015 C 
ATOM     28  C   UNL A   1      31.737  21.192  22.489  1.00  0.00     0.010 C 
ATOM     29  C   UNL A   1      33.358  23.055  22.809  1.00  0.00     0.010 C 
ENDBRANCH   6  27
ENDBRANCH   3   6
ENDBRANCH   1   2
BRANCH   1  30
ATOM     30  C   UNL A   1      37.165  19.501  24.929  1.00  0.00     0.042 C 
BRANCH  30  31
ATOM     31  C   UNL A   1      38.291  20.208  25.662  1.00  0.00     0.118 C 
BRANCH  31  32
ATOM     32  N   UNL A   1      39.486  19.372  25.791  1.00  0.00    -0.352 N 
ATOM     33  C   UNL A   1      40.783  19.718  26.102  1.00  0.00     0.251 C 
ATOM     34  H   UNL A   1      39.340  18.413  25.631  1.00  0.00     0.163 HD
ATOM     35  O   UNL A   1      41.672  18.891  25.964  1.00  0.00    -0.269 OA
BRANCH  33  36
ATOM     36  C   UNL A   1      41.084  21.087  26.580  1.00  0.00     0.039 A 
ATOM     37  C   UNL A   1      41.820  21.254  27.756  1.00  0.00     0.014 A 
ATOM     38  C   UNL A   1      40.665  22.202  25.853  1.00  0.00     0.014 A 
ATOM     39  C   UNL A   1      42.215  22.537  28.146  1.00  0.00     0.010 A 
ATOM     40  C   UNL A   1      41.150  23.461  26.181  1.00  0.00     0.010 A 
ATOM     41  C   UNL A   1      41.930  23.646  27.331  1.00  0.00    -0.014 A 
BRANCH  41  42
ATOM     42  C   UNL A   1      42.458  25.002  27.633  1.00  0.00     0.031 A 
ATOM     43  C   UNL A   1      41.564  26.040  28.262  1.00  0.00     0.074 A 
ATOM     44  C   UNL A   1      43.697  25.340  27.218  1.00  0.00     0.049 A 
ATOM     45  N   UNL A   1      41.805  27.304  28.490  1.00  0.00    -0.248 NA
ATOM     46  C   UNL A   1      40.207  25.613  28.645  1.00  0.00     0.031 C 
ATOM     47  C   UNL A   1      44.621  24.458  26.499  1.00  0.00     0.029 A 
ATOM     48  N   UNL A   1      44.378  26.529  27.304  1.00  0.00    -0.354 N 
ATOM     49  C   UNL A   1      40.621  27.834  28.989  1.00  0.00     0.074 A 
ATOM     50  C   UNL A   1      39.652  26.762  29.006  1.00  0.00     0.031 C 
ATOM     51  C   UNL A   1      45.743  25.136  26.209  1.00  0.00     0.029 A 
ATOM     52  C   UNL A   1      45.609  26.506  26.688  1.00  0.00     0.049 A 
ATOM     53  H   UNL A   1      44.019  27.323  27.763  1.00  0.00     0.167 HD
ATOM     54  C   UNL A   1      40.370  29.091  29.422  1.00  0.00     0.034 A 
ATOM     55  C   UNL A   1      46.521  27.483  26.516  1.00  0.00     0.034 A 
ATOM     56  C   UNL A   1      41.357  30.135  29.473  1.00  0.00     0.049 A 
ATOM     57  C   UNL A   1      46.244  28.849  27.083  1.00  0.00     0.074 A 
ATOM     58  C   UNL A   1      41.241  31.400  30.019  1.00  0.00     0.029 A 
ATOM     59  N   UNL A   1      42.638  30.037  28.955  1.00  0.00    -0.354 N 
ATOM     60  N   UNL A   1      45.185  29.275  27.727  1.00  0.00    -0.248 NA
ATOM     61  C   UNL A   1      47.302  29.858  26.932  1.00  0.00     0.031 C 
ATOM     62  C   UNL A   1      42.445  32.078  29.810  1.00  0.00     0.029 A 
ATOM     63  C   UNL A   1      43.319  31.225  29.156  1.00  0.00     0.049 A 
ATOM     64  H   UNL A   1      43.009  29.240  28.509  1.00  0.00     0.167 HD
ATOM     65  C   UNL A   1      45.460  30.589  28.084  1.00  0.00     0.074 A 
ATOM     66  C   UNL A   1      46.797  30.881  27.610  1.00  0.00     0.031 C 
ATOM     67  C   UNL A   1      44.670  31.482  28.728  1.00  0.00     0.034 A 
BRANCH  54  68
ATOM     68  C   UNL A   1      38.989  29.402  29.938  1.00  0.00     0.023 A 
ATOM     69  C   UNL A   1      38.647  29.057  31.261  1.00  0.00     0.012 A 
ATOM     70  C   UNL A   1      38.065  30.112  29.148  1.00  0.00     0.148 A 
ATOM     71  C   UNL A   1      37.397  29.389  31.781  1.00  0.00     0.002 A 
ATOM     72  C   UNL A   1      36.838  30.479  29.687  1.00  0.00     0.091 A 
ATOM     73  F   UNL A   1      38.403  30.415  27.885  1.00  0.00    -0.205 F 
ATOM     74  C   UNL A   1      36.499  30.110  30.999  1.00  0.00     0.022 A 
BRANCH  72  75
ATOM     75  S   UNL A   1      35.642  31.478  28.793  1.00  0.00     0.127 S 
ATOM     76  O   UNL A   1      35.149  30.526  27.798  1.00  0.00    -0.237 OA
ATOM     77  O   UNL A   1      34.680  31.816  29.843  1.00  0.00    -0.237 OA
ATOM     78  O   UNL A   1      36.382  32.611  28.257  1.00  0.00    -0.744 OA
ENDBRANCH  72  75
ENDBRANCH  54  68
BRANCH  55  79
ATOM     79  C   UNL A   1      47.807  27.193  25.818  1.00  0.00     0.023 A 
ATOM     80  C   UNL A   1      48.888  26.669  26.553  1.00  0.00     0.012 A 
ATOM     81  C   UNL A   1      47.960  27.419  24.437  1.00  0.00     0.148 A 
ATOM     82  C   UNL A   1      50.112  26.412  25.932  1.00  0.00     0.002 A 
ATOM     83  C   UNL A   1      49.165  27.109  23.815  1.00  0.00     0.091 A 
ATOM     84  F   UNL A   1      46.924  27.930  23.758  1.00  0.00    -0.205 F 
ATOM     85  C   UNL A   1      50.247  26.623  24.564  1.00  0.00     0.022 A 
BRANCH  83  86
ATOM     86  S   UNL A   1      49.385  27.233  22.037  1.00  0.00     0.127 S 
ATOM     87  O   UNL A   1      48.555  26.132  21.555  1.00  0.00    -0.237 OA
ATOM     88  O   UNL A   1      48.858  28.570  21.758  1.00  0.00    -0.237 OA
ATOM     89  O   UNL A   1      50.818  27.095  21.814  1.00  0.00    -0.744 OA
ENDBRANCH  83  86
ENDBRANCH  55  79
BRANCH  67  90
ATOM     90  C   UNL A   1      45.233  32.853  28.992  1.00  0.00     0.023 A 
ATOM     91  C   UNL A   1      45.983  33.088  30.162  1.00  0.00     0.012 A 
ATOM     92  C   UNL A   1      45.089  33.883  28.042  1.00  0.00     0.148 A 
ATOM     93  C   UNL A   1      46.554  34.337  30.397  1.00  0.00     0.002 A 
ATOM     94  C   UNL A   1      45.704  35.110  28.259  1.00  0.00     0.091 A 
ATOM     95  F   UNL A   1      44.359  33.644  26.943  1.00  0.00    -0.205 F 
ATOM     96  C   UNL A   1      46.426  35.343  29.441  1.00  0.00     0.022 A 
BRANCH  94  97
ATOM     97  S   UNL A   1      45.676  36.429  27.040  1.00  0.00     0.127 S 
ATOM     98  O   UNL A   1      44.246  36.713  26.941  1.00  0.00    -0.237 OA
ATOM     99  O   UNL A   1      46.461  37.476  27.696  1.00  0.00    -0.237 OA
ATOM    100  O   UNL A   1      46.289  35.879  25.839  1.00  0.00    -0.744 OA
ENDBRANCH  94  97
ENDBRANCH  67  90
ENDBRANCH  41  42
ENDBRANCH  33  36
ENDBRANCH  31  32
ENDBRANCH  30  31
ENDBRANCH   1  30
TORSDOF 19
ENDMDL
MODEL 2
REMARK VINA RESULT:     -11.9      1.769      2.231
REMARK SMILES COc1cccc(-c2ccc(=O)n(CC(=O)N[C@@H](C(=O)NCCCNC(=O)c3ccc(-c4c5nc(c(-c6cccc(S(=O)(=O)[O-])c6F)c6ccc([nH]6)c(-c6cccc(S(=O)(=O)[O-])c6F)c6nc(c(-c7cccc(S(=O)(=O)[O-])c7F)c7ccc4[nH]7)C=C6)C=C5)cc3)C(C)C)n2)c1
REMARK SMILES IDX 22 1 21 2 19 3 20 4 18 6 17 7 15 8 16 9 14 11 13 12 8 13
REMARK SMILES IDX 9 14 94 15 10 16 11 17 12 18 7 19 3 20 4 21 95 22 5 23 6 24
REMARK SMILES IDX 2 25 1 26 91 27 92 28 93 29 23 30 24 31 25 32 26 33 27 35
REMARK SMILES IDX 28 36 29 37 90 38 30 39 89 40 31 41 32 42 33 43 83 44 34 45
REMARK SMILES IDX 88 46 82 47 84 48 35 49 87 50 81 51 80 52 36 54 68 55 48 56
REMARK SMILES IDX 67 57 49 58 52 59 66 60 85 61 50 62 51 63 65 65 86 66 53 67
REMARK SMILES IDX 37 68 38 69 46 70 39 71 41 72 47 73 40 74 42 75 43 76 44 77
REMARK SMILES IDX 45 78 69 79 70 80 78 81 71 82 73 83 79 84 72 85 74 86 75 87
REMARK SMILES IDX 76 88 77 89 54 90 55 91 63 92 56 93 58 94 64 95 57 96 59 97
REMARK SMILES IDX 60 98 61 99 62 100
REMARK H PARENT 21 5 17 10 25 34 84 53 52 64
REMARK Flexibility Score: inf
ROOT
ATOM      1  C   UNL A   1      36.658  21.644  25.149  1.00  0.00     0.117 C 
ENDROOT
BRANCH   1   2
ATOM      2  N   UNL A   1      35.833  21.438  26.312  1.00  0.00    -0.354 N 
ATOM      3  C   UNL A   1      34.565  21.908  26.525  1.00  0.00     0.242 C 
ATOM      4  O   UNL A   1      33.951  21.418  27.475  1.00  0.00    -0.273 OA
ATOM      5  H   UNL A   1      36.227  20.899  27.035  1.00  0.00     0.163 HD
BRANCH   3   6
ATOM      6  C   UNL A   1      33.919  22.927  25.527  1.00  0.00     0.173 C 
BRANCH   6   7
ATOM      7  N   UNL A   1      32.884  23.692  26.234  1.00  0.00    -0.342 N 
ATOM      8  C   UNL A   1      32.499  25.000  26.145  1.00  0.00     0.242 C 
ATOM      9  O   UNL A   1      31.509  25.320  26.810  1.00  0.00    -0.273 OA
ATOM     10  H   UNL A   1      32.375  23.166  26.893  1.00  0.00     0.164 HD
BRANCH   8  11
ATOM     11  C   UNL A   1      33.153  26.007  25.186  1.00  0.00     0.248 C 
BRANCH  11  12
ATOM     12  N   UNL A   1      32.646  27.376  25.264  1.00  0.00    -0.220 N 
ATOM     13  C   UNL A   1      31.116  28.890  24.506  1.00  0.00     0.091 A 
ATOM     14  C   UNL A   1      31.730  30.006  25.245  1.00  0.00     0.036 A 
ATOM     15  N   UNL A   1      31.534  27.667  24.503  1.00  0.00    -0.169 NA
ATOM     16  C   UNL A   1      32.748  29.684  26.045  1.00  0.00     0.075 A 
ATOM     17  C   UNL A   1      33.242  28.288  26.131  1.00  0.00     0.267 A 
ATOM     18  O   UNL A   1      34.163  28.034  26.898  1.00  0.00    -0.268 OA
BRANCH  13  19
ATOM     19  C   UNL A   1      29.903  29.220  23.748  1.00  0.00     0.006 A 
ATOM     20  C   UNL A   1      28.545  30.926  22.729  1.00  0.00     0.119 A 
ATOM     21  C   UNL A   1      27.585  29.955  22.433  1.00  0.00     0.046 A 
ATOM     22  C   UNL A   1      29.702  30.560  23.410  1.00  0.00     0.056 A 
ATOM     23  C   UNL A   1      27.791  28.615  22.781  1.00  0.00     0.005 A 
ATOM     24  C   UNL A   1      28.959  28.239  23.443  1.00  0.00     0.011 A 
BRANCH  20  25
ATOM     25  O   UNL A   1      28.240  32.205  22.349  1.00  0.00    -0.497 OA
ATOM     26  C   UNL A   1      27.951  32.369  20.962  1.00  0.00     0.278 C 
ENDBRANCH  20  25
ENDBRANCH  13  19
ENDBRANCH  11  12
ENDBRANCH   8  11
ENDBRANCH   6   7
BRANCH   6  27
ATOM     27  C   UNL A   1      33.347  22.178  24.291  1.00  0.00     0.015 C 
ATOM     28  C   UNL A   1      31.835  21.942  24.354  1.00  0.00     0.010 C 
ATOM     29  C   UNL A   1      33.667  22.950  23.001  1.00  0.00     0.010 C 
ENDBRANCH   6  27
ENDBRANCH   3   6
ENDBRANCH   1   2
BRANCH   1  30
ATOM     30  C   UNL A   1      37.752  20.610  24.973  1.00  0.00     0.042 C 
BRANCH  30  31
ATOM     31  C   UNL A   1      39.004  20.944  25.767  1.00  0.00     0.118 C 
BRANCH  31  32
ATOM     32  N   UNL A   1      39.894  19.792  25.920  1.00  0.00    -0.352 N 
ATOM     33  C   UNL A   1      41.257  19.743  26.113  1.00  0.00     0.251 C 
ATOM     34  H   UNL A   1      39.449  18.917  25.879  1.00  0.00     0.163 HD
ATOM     35  O   UNL A   1      41.836  18.671  26.018  1.00  0.00    -0.269 OA
BRANCH  33  36
ATOM     36  C   UNL A   1      42.003  20.987  26.414  1.00  0.00     0.039 A 
ATOM     37  C   UNL A   1      42.386  21.825  25.364  1.00  0.00     0.014 A 
ATOM     38  C   UNL A   1      42.298  21.336  27.732  1.00  0.00     0.014 A 
ATOM     39  C   UNL A   1      42.978  23.059  25.649  1.00  0.00     0.010 A 
ATOM     40  C   UNL A   1      42.785  22.605  28.016  1.00  0.00     0.010 A 
ATOM     41  C   UNL A   1      43.132  23.483  26.979  1.00  0.00    -0.014 A 
BRANCH  41  42
ATOM     42  C   UNL A   1      43.620  24.845  27.321  1.00  0.00     0.031 A 
ATOM     43  C   UNL A   1      42.665  25.877  27.863  1.00  0.00     0.074 A 
ATOM     44  C   UNL A   1      44.888  25.192  27.015  1.00  0.00     0.049 A 
ATOM     45  N   UNL A   1      42.875  27.144  28.107  1.00  0.00    -0.248 NA
ATOM     46  C   UNL A   1      41.284  25.440  28.127  1.00  0.00     0.031 C 
ATOM     47  C   UNL A   1      45.880  24.316  26.384  1.00  0.00     0.029 A 
ATOM     48  N   UNL A   1      45.549  26.387  27.156  1.00  0.00    -0.354 N 
ATOM     49  C   UNL A   1      41.647  27.665  28.497  1.00  0.00     0.074 A 
ATOM     50  C   UNL A   1      40.689  26.585  28.433  1.00  0.00     0.031 C 
ATOM     51  C   UNL A   1      47.017  25.002  26.192  1.00  0.00     0.029 A 
ATOM     52  C   UNL A   1      46.830  26.373  26.652  1.00  0.00     0.049 A 
ATOM     53  H   UNL A   1      45.144  27.180  27.579  1.00  0.00     0.167 HD
ATOM     54  C   UNL A   1      41.348  28.922  28.901  1.00  0.00     0.034 A 
ATOM     55  C   UNL A   1      47.746  27.357  26.557  1.00  0.00     0.034 A 
ATOM     56  C   UNL A   1      42.318  29.974  29.034  1.00  0.00     0.049 A 
ATOM     57  C   UNL A   1      47.408  28.722  27.091  1.00  0.00     0.074 A 
ATOM     58  C   UNL A   1      42.144  31.240  29.563  1.00  0.00     0.029 A 
ATOM     59  N   UNL A   1      43.641  29.886  28.632  1.00  0.00    -0.354 N 
ATOM     60  N   UNL A   1      46.293  29.141  27.638  1.00  0.00    -0.248 NA
ATOM     61  C   UNL A   1      48.467  29.740  27.031  1.00  0.00     0.031 C 
ATOM     62  C   UNL A   1      43.356  31.927  29.459  1.00  0.00     0.029 A 
ATOM     63  C   UNL A   1      44.292  31.079  28.888  1.00  0.00     0.049 A 
ATOM     64  H   UNL A   1      44.056  29.091  28.225  1.00  0.00     0.167 HD
ATOM     65  C   UNL A   1      46.524  30.459  28.012  1.00  0.00     0.074 A 
ATOM     66  C   UNL A   1      47.895  30.761  27.657  1.00  0.00     0.031 C 
ATOM     67  C   UNL A   1      45.673  31.347  28.581  1.00  0.00     0.034 A 
BRANCH  54  68
ATOM     68  C   UNL A   1      39.925  29.223  29.292  1.00  0.00     0.023 A 
ATOM     69  C   UNL A   1      38.936  29.328  28.293  1.00  0.00     0.012 A 
ATOM     70  C   UNL A   1      39.551  29.312  30.647  1.00  0.00     0.148 A 
ATOM     71  C   UNL A   1      37.602  29.545  28.634  1.00  0.00     0.002 A 
ATOM     72  C   UNL A   1      38.213  29.484  30.982  1.00  0.00     0.091 A 
ATOM     73  F   UNL A   1      40.510  29.228  31.581  1.00  0.00    -0.205 F 
ATOM     74  C   UNL A   1      37.240  29.610  29.976  1.00  0.00     0.022 A 
BRANCH  72  75
ATOM     75  S   UNL A   1      37.630  29.499  32.680  1.00  0.00     0.127 S 
ATOM     76  O   UNL A   1      38.705  30.228  33.353  1.00  0.00    -0.237 OA
ATOM     77  O   UNL A   1      36.372  30.238  32.565  1.00  0.00    -0.237 OA
ATOM     78  O   UNL A   1      37.485  28.105  33.071  1.00  0.00    -0.744 OA
ENDBRANCH  72  75
ENDBRANCH  54  68
BRANCH  55  79
ATOM     79  C   UNL A   1      49.090  27.076  25.977  1.00  0.00     0.023 A 
ATOM     80  C   UNL A   1      50.067  26.446  26.772  1.00  0.00     0.012 A 
ATOM     81  C   UNL A   1      49.402  27.414  24.646  1.00  0.00     0.148 A 
ATOM     82  C   UNL A   1      51.343  26.193  26.265  1.00  0.00     0.002 A 
ATOM     83  C   UNL A   1      50.656  27.110  24.131  1.00  0.00     0.091 A 
ATOM     84  F   UNL A   1      48.463  28.025  23.910  1.00  0.00    -0.205 F 
ATOM     85  C   UNL A   1      51.634  26.516  24.943  1.00  0.00     0.022 A 
BRANCH  83  86
ATOM     86  S   UNL A   1      51.075  27.379  22.404  1.00  0.00     0.127 S 
ATOM     87  O   UNL A   1      51.072  28.837  22.320  1.00  0.00    -0.237 OA
ATOM     88  O   UNL A   1      52.397  26.759  22.312  1.00  0.00    -0.237 OA
ATOM     89  O   UNL A   1      50.037  26.696  21.645  1.00  0.00    -0.744 OA
ENDBRANCH  83  86
ENDBRANCH  55  79
BRANCH  67  90
ATOM     90  C   UNL A   1      46.199  32.723  28.888  1.00  0.00     0.023 A 
ATOM     91  C   UNL A   1      46.972  32.934  30.046  1.00  0.00     0.012 A 
ATOM     92  C   UNL A   1      45.996  33.787  27.986  1.00  0.00     0.148 A 
ATOM     93  C   UNL A   1      47.510  34.191  30.320  1.00  0.00     0.002 A 
ATOM     94  C   UNL A   1      46.578  35.023  28.240  1.00  0.00     0.091 A 
ATOM     95  F   UNL A   1      45.244  33.570  26.898  1.00  0.00    -0.205 F 
ATOM     96  C   UNL A   1      47.323  35.231  29.411  1.00  0.00     0.022 A 
BRANCH  94  97
ATOM     97  S   UNL A   1      46.474  36.391  27.079  1.00  0.00     0.127 S 
ATOM     98  O   UNL A   1      47.079  35.812  25.882  1.00  0.00    -0.237 OA
ATOM     99  O   UNL A   1      45.030  36.612  26.987  1.00  0.00    -0.237 OA
ATOM    100  O   UNL A   1      47.215  37.489  27.685  1.00  0.00    -0.744 OA
ENDBRANCH  94  97
ENDBRANCH  67  90
ENDBRANCH  41  42
ENDBRANCH  33  36
ENDBRANCH  31  32
ENDBRANCH  30  31
ENDBRANCH   1  30
TORSDOF 19
ENDMDL
MODEL 3
REMARK VINA RESULT:     -11.8      5.347     10.775
REMARK SMILES COc1cccc(-c2ccc(=O)n(CC(=O)N[C@@H](C(=O)NCCCNC(=O)c3ccc(-c4c5nc(c(-c6cccc(S(=O)(=O)[O-])c6F)c6ccc([nH]6)c(-c6cccc(S(=O)(=O)[O-])c6F)c6nc(c(-c7cccc(S(=O)(=O)[O-])c7F)c7ccc4[nH]7)C=C6)C=C5)cc3)C(C)C)n2)c1
REMARK SMILES IDX 22 1 21 2 19 3 20 4 18 6 17 7 15 8 16 9 14 11 13 12 8 13
REMARK SMILES IDX 9 14 94 15 10 16 11 17 12 18 7 19 3 20 4 21 95 22 5 23 6 24
REMARK SMILES IDX 2 25 1 26 91 27 92 28 93 29 23 30 24 31 25 32 26 33 27 35
REMARK SMILES IDX 28 36 29 37 90 38 30 39 89 40 31 41 32 42 33 43 83 44 34 45
REMARK SMILES IDX 88 46 82 47 84 48 35 49 87 50 81 51 80 52 36 54 68 55 48 56
REMARK SMILES IDX 67 57 49 58 52 59 66 60 85 61 50 62 51 63 65 65 86 66 53 67
REMARK SMILES IDX 37 68 38 69 46 70 39 71 41 72 47 73 40 74 42 75 43 76 44 77
REMARK SMILES IDX 45 78 69 79 70 80 78 81 71 82 73 83 79 84 72 85 74 86 75 87
REMARK SMILES IDX 76 88 77 89 54 90 55 91 63 92 56 93 58 94 64 95 57 96 59 97
REMARK SMILES IDX 60 98 61 99 62 100
REMARK H PARENT 21 5 17 10 25 34 84 53 52 64
REMARK Flexibility Score: inf
ROOT
ATOM      1  C   UNL A   1      33.392  29.166  25.586  1.00  0.00     0.117 C 
ENDROOT
BRANCH   1   2
ATOM      2  N   UNL A   1      33.983  29.013  24.281  1.00  0.00    -0.354 N 
ATOM      3  C   UNL A   1      33.647  28.099  23.319  1.00  0.00     0.242 C 
ATOM      4  O   UNL A   1      34.106  28.296  22.191  1.00  0.00    -0.273 OA
ATOM      5  H   UNL A   1      34.710  29.637  24.057  1.00  0.00     0.163 HD
BRANCH   3   6
ATOM      6  C   UNL A   1      32.638  26.945  23.638  1.00  0.00     0.173 C 
BRANCH   6   7
ATOM      7  N   UNL A   1      32.794  25.887  22.632  1.00  0.00    -0.342 N 
ATOM      8  C   UNL A   1      33.614  24.794  22.581  1.00  0.00     0.242 C 
ATOM      9  O   UNL A   1      33.430  24.023  21.634  1.00  0.00    -0.273 OA
ATOM     10  H   UNL A   1      32.200  25.982  21.853  1.00  0.00     0.164 HD
BRANCH   8  11
ATOM     11  C   UNL A   1      34.625  24.447  23.685  1.00  0.00     0.248 C 
BRANCH  11  12
ATOM     12  N   UNL A   1      34.147  23.526  24.714  1.00  0.00    -0.220 N 
ATOM     13  C   UNL A   1      33.768  21.354  25.305  1.00  0.00     0.091 A 
ATOM     14  C   UNL A   1      33.106  21.726  26.566  1.00  0.00     0.036 A 
ATOM     15  N   UNL A   1      34.251  22.179  24.435  1.00  0.00    -0.169 NA
ATOM     16  C   UNL A   1      33.098  23.028  26.858  1.00  0.00     0.075 A 
ATOM     17  C   UNL A   1      33.685  24.024  25.929  1.00  0.00     0.267 A 
ATOM     18  O   UNL A   1      33.678  25.207  26.250  1.00  0.00    -0.268 OA
BRANCH  13  19
ATOM     19  C   UNL A   1      33.911  19.914  25.061  1.00  0.00     0.006 A 
ATOM     20  C   UNL A   1      32.906  17.729  25.155  1.00  0.00     0.119 A 
ATOM     21  C   UNL A   1      34.126  17.175  24.756  1.00  0.00     0.046 A 
ATOM     22  C   UNL A   1      32.804  19.105  25.329  1.00  0.00     0.056 A 
ATOM     23  C   UNL A   1      35.231  17.992  24.495  1.00  0.00     0.005 A 
ATOM     24  C   UNL A   1      35.128  19.373  24.647  1.00  0.00     0.011 A 
BRANCH  20  25
ATOM     25  O   UNL A   1      31.892  16.839  25.387  1.00  0.00    -0.497 OA
ATOM     26  C   UNL A   1      32.313  15.525  25.748  1.00  0.00     0.278 C 
ENDBRANCH  20  25
ENDBRANCH  13  19
ENDBRANCH  11  12
ENDBRANCH   8  11
ENDBRANCH   6   7
BRANCH   6  27
ATOM     27  C   UNL A   1      31.187  27.498  23.681  1.00  0.00     0.015 C 
ATOM     28  C   UNL A   1      30.496  27.535  22.315  1.00  0.00     0.010 C 
ATOM     29  C   UNL A   1      30.323  26.664  24.641  1.00  0.00     0.010 C 
ENDBRANCH   6  27
ENDBRANCH   3   6
ENDBRANCH   1   2
BRANCH   1  30
ATOM     30  C   UNL A   1      32.236  30.145  25.633  1.00  0.00     0.042 C 
BRANCH  30  31
ATOM     31  C   UNL A   1      32.013  30.718  27.022  1.00  0.00     0.118 C 
BRANCH  31  32
ATOM     32  N   UNL A   1      32.065  32.181  27.039  1.00  0.00    -0.352 N 
ATOM     33  C   UNL A   1      33.020  33.029  27.554  1.00  0.00     0.251 C 
ATOM     34  H   UNL A   1      31.298  32.628  26.617  1.00  0.00     0.163 HD
ATOM     35  O   UNL A   1      32.775  34.224  27.640  1.00  0.00    -0.269 OA
BRANCH  33  36
ATOM     36  C   UNL A   1      34.319  32.484  28.012  1.00  0.00     0.039 A 
ATOM     37  C   UNL A   1      35.455  33.296  27.967  1.00  0.00     0.014 A 
ATOM     38  C   UNL A   1      34.407  31.184  28.512  1.00  0.00     0.014 A 
ATOM     39  C   UNL A   1      36.656  32.831  28.513  1.00  0.00     0.010 A 
ATOM     40  C   UNL A   1      35.567  30.768  29.150  1.00  0.00     0.010 A 
ATOM     41  C   UNL A   1      36.707  31.585  29.159  1.00  0.00    -0.014 A 
BRANCH  41  42
ATOM     42  C   UNL A   1      37.922  31.120  29.879  1.00  0.00     0.031 A 
ATOM     43  C   UNL A   1      38.827  30.091  29.252  1.00  0.00     0.074 A 
ATOM     44  C   UNL A   1      38.133  31.520  31.150  1.00  0.00     0.049 A 
ATOM     45  N   UNL A   1      39.859  29.479  29.769  1.00  0.00    -0.248 NA
ATOM     46  C   UNL A   1      38.507  29.664  27.879  1.00  0.00     0.031 C 
ATOM     47  C   UNL A   1      37.268  32.428  31.910  1.00  0.00     0.029 A 
ATOM     48  N   UNL A   1      39.120  31.183  32.044  1.00  0.00    -0.354 N 
ATOM     49  C   UNL A   1      40.276  28.560  28.813  1.00  0.00     0.074 A 
ATOM     50  C   UNL A   1      39.369  28.674  27.693  1.00  0.00     0.031 C 
ATOM     51  C   UNL A   1      37.760  32.573  33.150  1.00  0.00     0.029 A 
ATOM     52  C   UNL A   1      38.953  31.746  33.289  1.00  0.00     0.049 A 
ATOM     53  H   UNL A   1      39.875  30.595  31.815  1.00  0.00     0.167 HD
ATOM     54  C   UNL A   1      41.334  27.717  28.851  1.00  0.00     0.034 A 
ATOM     55  C   UNL A   1      39.671  31.601  34.421  1.00  0.00     0.034 A 
ATOM     56  C   UNL A   1      42.275  27.659  29.934  1.00  0.00     0.049 A 
ATOM     57  C   UNL A   1      40.890  30.719  34.403  1.00  0.00     0.074 A 
ATOM     58  C   UNL A   1      43.455  26.940  30.010  1.00  0.00     0.029 A 
ATOM     59  N   UNL A   1      42.144  28.341  31.133  1.00  0.00    -0.354 N 
ATOM     60  N   UNL A   1      41.376  30.005  33.417  1.00  0.00    -0.248 NA
ATOM     61  C   UNL A   1      41.680  30.653  35.641  1.00  0.00     0.031 C 
ATOM     62  C   UNL A   1      44.025  27.167  31.265  1.00  0.00     0.029 A 
ATOM     63  C   UNL A   1      43.214  28.049  31.961  1.00  0.00     0.049 A 
ATOM     64  H   UNL A   1      41.400  28.945  31.362  1.00  0.00     0.167 HD
ATOM     65  C   UNL A   1      42.543  29.428  33.905  1.00  0.00     0.074 A 
ATOM     66  C   UNL A   1      42.706  29.899  35.265  1.00  0.00     0.031 C 
ATOM     67  C   UNL A   1      43.393  28.570  33.291  1.00  0.00     0.034 A 
BRANCH  54  68
ATOM     68  C   UNL A   1      41.576  26.828  27.659  1.00  0.00     0.023 A 
ATOM     69  C   UNL A   1      42.245  27.343  26.531  1.00  0.00     0.012 A 
ATOM     70  C   UNL A   1      41.221  25.465  27.691  1.00  0.00     0.148 A 
ATOM     71  C   UNL A   1      42.535  26.523  25.441  1.00  0.00     0.002 A 
ATOM     72  C   UNL A   1      41.553  24.643  26.620  1.00  0.00     0.091 A 
ATOM     73  F   UNL A   1      40.568  24.999  28.765  1.00  0.00    -0.205 F 
ATOM     74  C   UNL A   1      42.200  25.173  25.491  1.00  0.00     0.022 A 
BRANCH  72  75
ATOM     75  S   UNL A   1      41.240  22.875  26.618  1.00  0.00     0.127 S 
ATOM     76  O   UNL A   1      41.999  22.444  25.444  1.00  0.00    -0.237 OA
ATOM     77  O   UNL A   1      41.813  22.461  27.900  1.00  0.00    -0.237 OA
ATOM     78  O   UNL A   1      39.797  22.720  26.517  1.00  0.00    -0.744 OA
ENDBRANCH  72  75
ENDBRANCH  54  68
BRANCH  55  79
ATOM     79  C   UNL A   1      39.287  32.347  35.653  1.00  0.00     0.023 A 
ATOM     80  C   UNL A   1      38.456  31.726  36.606  1.00  0.00     0.012 A 
ATOM     81  C   UNL A   1      39.748  33.656  35.892  1.00  0.00     0.148 A 
ATOM     82  C   UNL A   1      38.059  32.409  37.756  1.00  0.00     0.002 A 
ATOM     83  C   UNL A   1      39.393  34.310  37.066  1.00  0.00     0.091 A 
ATOM     84  F   UNL A   1      40.527  34.234  34.968  1.00  0.00    -0.205 F 
ATOM     85  C   UNL A   1      38.534  33.696  37.991  1.00  0.00     0.022 A 
BRANCH  83  86
ATOM     86  S   UNL A   1      40.059  35.919  37.506  1.00  0.00     0.127 S 
ATOM     87  O   UNL A   1      41.486  35.631  37.622  1.00  0.00    -0.237 OA
ATOM     88  O   UNL A   1      39.686  36.730  36.345  1.00  0.00    -0.237 OA
ATOM     89  O   UNL A   1      39.383  36.293  38.741  1.00  0.00    -0.744 OA
ENDBRANCH  83  86
ENDBRANCH  55  79
BRANCH  67  90
ATOM     90  C   UNL A   1      44.597  28.103  34.065  1.00  0.00     0.023 A 
ATOM     91  C   UNL A   1      45.784  28.860  34.034  1.00  0.00     0.012 A 
ATOM     92  C   UNL A   1      44.524  26.960  34.886  1.00  0.00     0.148 A 
ATOM     93  C   UNL A   1      46.892  28.470  34.785  1.00  0.00     0.002 A 
ATOM     94  C   UNL A   1      45.615  26.606  35.670  1.00  0.00     0.091 A 
ATOM     95  F   UNL A   1      43.390  26.244  34.888  1.00  0.00    -0.205 F 
ATOM     96  C   UNL A   1      46.803  27.351  35.611  1.00  0.00     0.022 A 
BRANCH  94  97
ATOM     97  S   UNL A   1      45.558  25.241  36.836  1.00  0.00     0.127 S 
ATOM     98  O   UNL A   1      46.939  24.766  36.807  1.00  0.00    -0.237 OA
ATOM     99  O   UNL A   1      45.169  25.909  38.079  1.00  0.00    -0.237 OA
ATOM    100  O   UNL A   1      44.565  24.310  36.316  1.00  0.00    -0.744 OA
ENDBRANCH  94  97
ENDBRANCH  67  90
ENDBRANCH  41  42
ENDBRANCH  33  36
ENDBRANCH  31  32
ENDBRANCH  30  31
ENDBRANCH   1  30
TORSDOF 19
ENDMDL
