MODEL 1
REMARK VINA RESULT:     -12.9      0.000      0.000
REMARK SMILES CCOc1ccccc1NC(=O)[C@H]1[C@@H]2C=C[C@@H]([C@@H]3C[C@H]23)[C@@H]1C(=O)NCCCNC(=O)c1ccc(-c2c3nc(c(-c4cccc(S(=O)(=O)[O-])c4F)c4ccc([nH]4)c(-c4cccc(S(=O)(=O)[O-])c4F)c4nc(c(-c5cccc(S(=O)(=O)[O-])c5F)c5ccc2[nH]5)C=C4)C=C3)cc1
REMARK SMILES IDX 25 1 24 2 22 3 23 4 21 6 13 7 14 8 15 9 20 10 17 11 16 12
REMARK SMILES IDX 18 13 19 14 11 15 10 16 12 18 9 19 4 20 5 21 6 22 8 23 7 24
REMARK SMILES IDX 3 25 2 26 1 27 26 28 27 29 28 30 29 31 30 33 31 34 32 35
REMARK SMILES IDX 93 36 33 37 92 38 34 39 35 40 36 41 86 42 37 43 91 44 85 45
REMARK SMILES IDX 87 46 38 47 90 48 84 49 83 50 39 52 71 53 51 54 70 55 52 56
REMARK SMILES IDX 55 57 69 58 88 59 53 60 54 61 68 63 89 64 56 65 40 66 41 67
REMARK SMILES IDX 49 68 42 69 44 70 50 71 43 72 45 73 46 74 47 75 48 76 72 77
REMARK SMILES IDX 73 78 81 79 74 80 76 81 82 82 75 83 77 84 78 85 79 86 80 87
REMARK SMILES IDX 57 88 58 89 66 90 59 91 61 92 67 93 60 94 62 95 63 96 64 97
REMARK SMILES IDX 65 98
REMARK H PARENT 24 5 10 17 28 32 87 51 55 62
REMARK Flexibility Score: inf
ROOT
ATOM      1  C   UNL A   1      35.150  23.853  24.568  1.00  0.00     0.117 C 
ENDROOT
BRANCH   1   2
ATOM      2  N   UNL A   1      34.729  24.368  23.279  1.00  0.00    -0.356 N 
ATOM      3  C   UNL A   1      33.737  25.239  22.947  1.00  0.00     0.224 C 
ATOM      4  O   UNL A   1      33.644  25.547  21.757  1.00  0.00    -0.275 OA
ATOM      5  H   UNL A   1      35.249  24.031  22.514  1.00  0.00     0.163 HD
BRANCH   3   6
ATOM      6  C   UNL A   1      32.849  25.843  24.030  1.00  0.00     0.098 C 
ATOM      7  C   UNL A   1      31.485  26.375  23.454  1.00  0.00     0.099 C 
ATOM      8  C   UNL A   1      31.333  27.876  23.855  1.00  0.00     0.028 C 
ATOM      9  C   UNL A   1      32.521  28.569  23.176  1.00  0.00    -0.026 C 
ATOM     10  C   UNL A   1      31.486  28.109  25.371  1.00  0.00     0.001 C 
ATOM     11  C   UNL A   1      33.635  27.037  24.677  1.00  0.00     0.028 C 
ATOM     12  C   UNL A   1      33.721  28.136  23.610  1.00  0.00    -0.026 C 
ATOM     13  C   UNL A   1      32.851  27.636  25.850  1.00  0.00     0.001 C 
ATOM     14  C   UNL A   1      31.603  27.074  26.471  1.00  0.00     0.009 C 
BRANCH   7  15
ATOM     15  C   UNL A   1      30.311  25.551  23.948  1.00  0.00     0.229 C 
ATOM     16  N   UNL A   1      30.452  24.310  24.479  1.00  0.00    -0.323 N 
ATOM     17  H   UNL A   1      29.935  24.178  25.307  1.00  0.00     0.170 HD
ATOM     18  O   UNL A   1      29.157  25.995  23.930  1.00  0.00    -0.274 OA
BRANCH  16  19
ATOM     19  C   UNL A   1      31.185  23.171  24.091  1.00  0.00     0.083 A 
ATOM     20  C   UNL A   1      31.602  22.341  25.153  1.00  0.00     0.142 A 
ATOM     21  C   UNL A   1      32.269  21.137  24.927  1.00  0.00     0.048 A 
ATOM     22  C   UNL A   1      32.528  20.739  23.618  1.00  0.00     0.004 A 
ATOM     23  C   UNL A   1      31.449  22.752  22.794  1.00  0.00     0.030 A 
ATOM     24  C   UNL A   1      32.128  21.550  22.558  1.00  0.00     0.002 A 
BRANCH  20  25
ATOM     25  O   UNL A   1      31.382  22.763  26.444  1.00  0.00    -0.492 OA
BRANCH  25  26
ATOM     26  C   UNL A   1      32.552  23.323  27.058  1.00  0.00     0.226 C 
ATOM     27  C   UNL A   1      33.162  22.291  27.996  1.00  0.00     0.049 C 
ENDBRANCH  25  26
ENDBRANCH  20  25
ENDBRANCH  16  19
ENDBRANCH   7  15
ENDBRANCH   3   6
ENDBRANCH   1   2
BRANCH   1  28
ATOM     28  C   UNL A   1      35.654  22.414  24.485  1.00  0.00     0.042 C 
BRANCH  28  29
ATOM     29  C   UNL A   1      36.194  21.838  25.793  1.00  0.00     0.118 C 
BRANCH  29  30
ATOM     30  N   UNL A   1      37.258  20.860  25.600  1.00  0.00    -0.352 N 
ATOM     31  C   UNL A   1      38.619  20.982  25.751  1.00  0.00     0.251 C 
ATOM     32  H   UNL A   1      36.952  19.969  25.315  1.00  0.00     0.163 HD
ATOM     33  O   UNL A   1      39.348  20.060  25.400  1.00  0.00    -0.269 OA
BRANCH  31  34
ATOM     34  C   UNL A   1      39.212  22.222  26.306  1.00  0.00     0.039 A 
ATOM     35  C   UNL A   1      40.315  22.113  27.159  1.00  0.00     0.014 A 
ATOM     36  C   UNL A   1      38.687  23.480  26.004  1.00  0.00     0.014 A 
ATOM     37  C   UNL A   1      40.940  23.268  27.640  1.00  0.00     0.010 A 
ATOM     38  C   UNL A   1      39.356  24.630  26.423  1.00  0.00     0.010 A 
ATOM     39  C   UNL A   1      40.495  24.537  27.238  1.00  0.00    -0.014 A 
BRANCH  39  40
ATOM     40  C   UNL A   1      41.234  25.772  27.618  1.00  0.00     0.031 A 
ATOM     41  C   UNL A   1      40.547  26.878  28.372  1.00  0.00     0.074 A 
ATOM     42  C   UNL A   1      42.503  25.939  27.193  1.00  0.00     0.049 A 
ATOM     43  N   UNL A   1      41.012  28.051  28.718  1.00  0.00    -0.248 NA
ATOM     44  C   UNL A   1      39.149  26.647  28.769  1.00  0.00     0.031 C 
ATOM     45  C   UNL A   1      43.260  24.975  26.391  1.00  0.00     0.029 A 
ATOM     46  N   UNL A   1      43.371  26.994  27.348  1.00  0.00    -0.354 N 
ATOM     47  C   UNL A   1      39.959  28.712  29.337  1.00  0.00     0.074 A 
ATOM     48  C   UNL A   1      38.822  27.819  29.297  1.00  0.00     0.031 C 
ATOM     49  C   UNL A   1      44.474  25.481  26.123  1.00  0.00     0.029 A 
ATOM     50  C   UNL A   1      44.571  26.820  26.696  1.00  0.00     0.049 A 
ATOM     51  H   UNL A   1      43.155  27.797  27.873  1.00  0.00     0.167 HD
ATOM     52  C   UNL A   1      39.943  29.941  29.907  1.00  0.00     0.034 A 
ATOM     53  C   UNL A   1      45.623  27.649  26.557  1.00  0.00     0.034 A 
ATOM     54  C   UNL A   1      41.083  30.817  29.973  1.00  0.00     0.049 A 
ATOM     55  C   UNL A   1      45.587  29.002  27.213  1.00  0.00     0.074 A 
ATOM     56  C   UNL A   1      41.191  32.040  30.611  1.00  0.00     0.029 A 
ATOM     57  N   UNL A   1      42.306  30.576  29.365  1.00  0.00    -0.354 N 
ATOM     58  N   UNL A   1      44.636  29.542  27.935  1.00  0.00    -0.248 NA
ATOM     59  C   UNL A   1      46.782  29.846  27.065  1.00  0.00     0.031 C 
ATOM     60  C   UNL A   1      42.466  32.558  30.355  1.00  0.00     0.029 A 
ATOM     61  C   UNL A   1      43.166  31.637  29.594  1.00  0.00     0.049 A 
ATOM     62  H   UNL A   1      42.529  29.769  28.848  1.00  0.00     0.167 HD
ATOM     63  C   UNL A   1      45.128  30.773  28.353  1.00  0.00     0.074 A 
ATOM     64  C   UNL A   1      46.470  30.890  27.822  1.00  0.00     0.031 C 
ATOM     65  C   UNL A   1      44.517  31.726  29.099  1.00  0.00     0.034 A 
BRANCH  52  66
ATOM     66  C   UNL A   1      38.657  30.405  30.542  1.00  0.00     0.023 A 
ATOM     67  C   UNL A   1      38.451  30.219  31.925  1.00  0.00     0.012 A 
ATOM     68  C   UNL A   1      37.679  31.080  29.784  1.00  0.00     0.148 A 
ATOM     69  C   UNL A   1      37.278  30.661  32.535  1.00  0.00     0.002 A 
ATOM     70  C   UNL A   1      36.534  31.560  30.409  1.00  0.00     0.091 A 
ATOM     71  F   UNL A   1      37.882  31.233  28.468  1.00  0.00    -0.205 F 
ATOM     72  C   UNL A   1      36.326  31.341  31.780  1.00  0.00     0.022 A 
BRANCH  70  73
ATOM     73  S   UNL A   1      35.286  32.519  29.543  1.00  0.00     0.127 S 
ATOM     74  O   UNL A   1      36.078  33.635  29.026  1.00  0.00    -0.237 OA
ATOM     75  O   UNL A   1      34.828  31.575  28.523  1.00  0.00    -0.237 OA
ATOM     76  O   UNL A   1      34.285  32.872  30.538  1.00  0.00    -0.744 OA
ENDBRANCH  70  73
ENDBRANCH  52  66
BRANCH  53  77
ATOM     77  C   UNL A   1      46.824  27.202  25.793  1.00  0.00     0.023 A 
ATOM     78  C   UNL A   1      47.727  26.297  26.385  1.00  0.00     0.012 A 
ATOM     79  C   UNL A   1      47.059  27.646  24.477  1.00  0.00     0.148 A 
ATOM     80  C   UNL A   1      48.859  25.867  25.692  1.00  0.00     0.002 A 
ATOM     81  C   UNL A   1      48.158  27.168  23.771  1.00  0.00     0.091 A 
ATOM     82  F   UNL A   1      46.193  28.514  23.936  1.00  0.00    -0.205 F 
ATOM     83  C   UNL A   1      49.068  26.293  24.383  1.00  0.00     0.022 A 
BRANCH  81  84
ATOM     84  S   UNL A   1      48.435  27.557  22.040  1.00  0.00     0.127 S 
ATOM     85  O   UNL A   1      49.625  28.400  22.110  1.00  0.00    -0.237 OA
ATOM     86  O   UNL A   1      48.652  26.228  21.466  1.00  0.00    -0.237 OA
ATOM     87  O   UNL A   1      47.220  28.218  21.583  1.00  0.00    -0.744 OA
ENDBRANCH  81  84
ENDBRANCH  53  77
BRANCH  65  88
ATOM     88  C   UNL A   1      45.300  32.972  29.427  1.00  0.00     0.023 A 
ATOM     89  C   UNL A   1      46.087  33.024  30.594  1.00  0.00     0.012 A 
ATOM     90  C   UNL A   1      45.314  34.064  28.535  1.00  0.00     0.148 A 
ATOM     91  C   UNL A   1      46.852  34.153  30.884  1.00  0.00     0.002 A 
ATOM     92  C   UNL A   1      46.120  35.163  28.803  1.00  0.00     0.091 A 
ATOM     93  F   UNL A   1      44.545  34.003  27.438  1.00  0.00    -0.205 F 
ATOM     94  C   UNL A   1      46.879  35.216  29.984  1.00  0.00     0.022 A 
BRANCH  92  95
ATOM     95  S   UNL A   1      46.295  36.536  27.658  1.00  0.00     0.127 S 
ATOM     96  O   UNL A   1      44.904  36.945  27.469  1.00  0.00    -0.237 OA
ATOM     97  O   UNL A   1      47.109  37.478  28.427  1.00  0.00    -0.237 OA
ATOM     98  O   UNL A   1      46.950  35.994  26.475  1.00  0.00    -0.744 OA
ENDBRANCH  92  95
ENDBRANCH  65  88
ENDBRANCH  39  40
ENDBRANCH  31  34
ENDBRANCH  29  30
ENDBRANCH  28  29
ENDBRANCH   1  28
TORSDOF 17
ENDMDL
MODEL 2
REMARK VINA RESULT:     -12.8      5.064      9.724
REMARK SMILES CCOc1ccccc1NC(=O)[C@H]1[C@@H]2C=C[C@@H]([C@@H]3C[C@H]23)[C@@H]1C(=O)NCCCNC(=O)c1ccc(-c2c3nc(c(-c4cccc(S(=O)(=O)[O-])c4F)c4ccc([nH]4)c(-c4cccc(S(=O)(=O)[O-])c4F)c4nc(c(-c5cccc(S(=O)(=O)[O-])c5F)c5ccc2[nH]5)C=C4)C=C3)cc1
REMARK SMILES IDX 25 1 24 2 22 3 23 4 21 6 13 7 14 8 15 9 20 10 17 11 16 12
REMARK SMILES IDX 18 13 19 14 11 15 10 16 12 18 9 19 4 20 5 21 6 22 8 23 7 24
REMARK SMILES IDX 3 25 2 26 1 27 26 28 27 29 28 30 29 31 30 33 31 34 32 35
REMARK SMILES IDX 93 36 33 37 92 38 34 39 35 40 36 41 86 42 37 43 91 44 85 45
REMARK SMILES IDX 87 46 38 47 90 48 84 49 83 50 39 52 71 53 51 54 70 55 52 56
REMARK SMILES IDX 55 57 69 58 88 59 53 60 54 61 68 63 89 64 56 65 40 66 41 67
REMARK SMILES IDX 49 68 42 69 44 70 50 71 43 72 45 73 46 74 47 75 48 76 72 77
REMARK SMILES IDX 73 78 81 79 74 80 76 81 82 82 75 83 77 84 78 85 79 86 80 87
REMARK SMILES IDX 57 88 58 89 66 90 59 91 61 92 67 93 60 94 62 95 63 96 64 97
REMARK SMILES IDX 65 98
REMARK H PARENT 24 5 10 17 28 32 87 51 55 62
REMARK Flexibility Score: inf
ROOT
ATOM      1  C   UNL A   1      32.484  27.174  25.838  1.00  0.00     0.117 C 
ENDROOT
BRANCH   1   2
ATOM      2  N   UNL A   1      31.810  26.105  26.551  1.00  0.00    -0.356 N 
ATOM      3  C   UNL A   1      31.916  24.753  26.437  1.00  0.00     0.224 C 
ATOM      4  O   UNL A   1      31.255  24.076  27.227  1.00  0.00    -0.275 OA
ATOM      5  H   UNL A   1      31.167  26.409  27.232  1.00  0.00     0.163 HD
BRANCH   3   6
ATOM      6  C   UNL A   1      32.874  24.139  25.422  1.00  0.00     0.098 C 
ATOM      7  C   UNL A   1      32.371  22.743  24.896  1.00  0.00     0.099 C 
ATOM      8  C   UNL A   1      33.495  21.689  25.141  1.00  0.00     0.028 C 
ATOM      9  C   UNL A   1      33.666  21.669  26.665  1.00  0.00    -0.026 C 
ATOM     10  C   UNL A   1      34.853  22.111  24.545  1.00  0.00     0.001 C 
ATOM     11  C   UNL A   1      34.262  23.950  26.132  1.00  0.00     0.028 C 
ATOM     12  C   UNL A   1      34.072  22.846  27.181  1.00  0.00    -0.026 C 
ATOM     13  C   UNL A   1      35.314  23.431  25.145  1.00  0.00     0.001 C 
ATOM     14  C   UNL A   1      35.157  23.300  23.657  1.00  0.00     0.009 C 
BRANCH   7  15
ATOM     15  C   UNL A   1      31.984  22.806  23.430  1.00  0.00     0.229 C 
ATOM     16  N   UNL A   1      31.724  23.972  22.785  1.00  0.00    -0.323 N 
ATOM     17  H   UNL A   1      32.162  24.038  21.906  1.00  0.00     0.170 HD
ATOM     18  O   UNL A   1      31.931  21.787  22.732  1.00  0.00    -0.274 OA
BRANCH  16  19
ATOM     19  C   UNL A   1      30.956  25.107  23.114  1.00  0.00     0.083 A 
ATOM     20  C   UNL A   1      31.379  26.307  22.506  1.00  0.00     0.142 A 
ATOM     21  C   UNL A   1      30.677  27.501  22.670  1.00  0.00     0.048 A 
ATOM     22  C   UNL A   1      29.524  27.510  23.450  1.00  0.00     0.004 A 
ATOM     23  C   UNL A   1      29.801  25.137  23.882  1.00  0.00     0.030 A 
ATOM     24  C   UNL A   1      29.095  26.333  24.062  1.00  0.00     0.002 A 
BRANCH  20  25
ATOM     25  O   UNL A   1      32.544  26.301  21.773  1.00  0.00    -0.492 OA
BRANCH  25  26
ATOM     26  C   UNL A   1      33.684  26.734  22.530  1.00  0.00     0.226 C 
ATOM     27  C   UNL A   1      34.004  28.176  22.159  1.00  0.00     0.049 C 
ENDBRANCH  25  26
ENDBRANCH  20  25
ENDBRANCH  16  19
ENDBRANCH   7  15
ENDBRANCH   3   6
ENDBRANCH   1   2
BRANCH   1  28
ATOM     28  C   UNL A   1      32.055  28.557  26.322  1.00  0.00     0.042 C 
BRANCH  28  29
ATOM     29  C   UNL A   1      32.754  29.731  25.637  1.00  0.00     0.118 C 
BRANCH  29  30
ATOM     30  N   UNL A   1      32.399  31.027  26.203  1.00  0.00    -0.352 N 
ATOM     31  C   UNL A   1      33.026  31.782  27.167  1.00  0.00     0.251 C 
ATOM     32  H   UNL A   1      31.577  31.426  25.836  1.00  0.00     0.163 HD
ATOM     33  O   UNL A   1      32.475  32.790  27.595  1.00  0.00    -0.269 OA
BRANCH  31  34
ATOM     34  C   UNL A   1      34.344  31.373  27.710  1.00  0.00     0.039 A 
ATOM     35  C   UNL A   1      35.330  32.350  27.880  1.00  0.00     0.014 A 
ATOM     36  C   UNL A   1      34.617  30.045  28.040  1.00  0.00     0.014 A 
ATOM     37  C   UNL A   1      36.557  32.009  28.457  1.00  0.00     0.010 A 
ATOM     38  C   UNL A   1      35.811  29.721  28.684  1.00  0.00     0.010 A 
ATOM     39  C   UNL A   1      36.791  30.701  28.908  1.00  0.00    -0.014 A 
BRANCH  39  40
ATOM     40  C   UNL A   1      38.028  30.350  29.657  1.00  0.00     0.031 A 
ATOM     41  C   UNL A   1      39.015  29.363  29.094  1.00  0.00     0.074 A 
ATOM     42  C   UNL A   1      38.213  30.848  30.896  1.00  0.00     0.049 A 
ATOM     43  N   UNL A   1      40.103  28.884  29.639  1.00  0.00    -0.248 NA
ATOM     44  C   UNL A   1      38.730  28.826  27.754  1.00  0.00     0.031 C 
ATOM     45  C   UNL A   1      37.296  31.756  31.589  1.00  0.00     0.029 A 
ATOM     46  N   UNL A   1      39.219  30.635  31.809  1.00  0.00    -0.354 N 
ATOM     47  C   UNL A   1      40.613  27.965  28.731  1.00  0.00     0.074 A 
ATOM     48  C   UNL A   1      39.700  27.934  27.609  1.00  0.00     0.031 C 
ATOM     49  C   UNL A   1      37.777  32.021  32.813  1.00  0.00     0.029 A 
ATOM     50  C   UNL A   1      39.014  31.272  33.012  1.00  0.00     0.049 A 
ATOM     51  H   UNL A   1      40.009  30.080  31.621  1.00  0.00     0.167 HD
ATOM     52  C   UNL A   1      41.748  27.229  28.812  1.00  0.00     0.034 A 
ATOM     53  C   UNL A   1      39.727  31.244  34.155  1.00  0.00     0.034 A 
ATOM     54  C   UNL A   1      42.670  27.283  29.915  1.00  0.00     0.049 A 
ATOM     55  C   UNL A   1      40.993  30.432  34.212  1.00  0.00     0.074 A 
ATOM     56  C   UNL A   1      43.893  26.647  30.045  1.00  0.00     0.029 A 
ATOM     57  N   UNL A   1      42.466  27.997  31.086  1.00  0.00    -0.354 N 
ATOM     58  N   UNL A   1      41.542  29.695  33.279  1.00  0.00    -0.248 NA
ATOM     59  C   UNL A   1      41.754  30.473  35.470  1.00  0.00     0.031 C 
ATOM     60  C   UNL A   1      44.409  26.943  31.311  1.00  0.00     0.029 A 
ATOM     61  C   UNL A   1      43.529  27.799  31.952  1.00  0.00     0.049 A 
ATOM     62  H   UNL A   1      41.682  28.562  31.274  1.00  0.00     0.167 HD
ATOM     63  C   UNL A   1      42.727  29.212  33.822  1.00  0.00     0.074 A 
ATOM     64  C   UNL A   1      42.826  29.758  35.160  1.00  0.00     0.031 C 
ATOM     65  C   UNL A   1      43.642  28.381  33.266  1.00  0.00     0.034 A 
BRANCH  52  66
ATOM     66  C   UNL A   1      42.081  26.322  27.655  1.00  0.00     0.023 A 
ATOM     67  C   UNL A   1      42.836  26.817  26.571  1.00  0.00     0.012 A 
ATOM     68  C   UNL A   1      41.701  24.965  27.668  1.00  0.00     0.148 A 
ATOM     69  C   UNL A   1      43.173  25.987  25.502  1.00  0.00     0.002 A 
ATOM     70  C   UNL A   1      42.083  24.133  26.622  1.00  0.00     0.091 A 
ATOM     71  F   UNL A   1      40.969  24.515  28.697  1.00  0.00    -0.205 F 
ATOM     72  C   UNL A   1      42.806  24.644  25.533  1.00  0.00     0.022 A 
BRANCH  70  73
ATOM     73  S   UNL A   1      41.730  22.371  26.606  1.00  0.00     0.127 S 
ATOM     74  O   UNL A   1      42.388  21.928  27.835  1.00  0.00    -0.237 OA
ATOM     75  O   UNL A   1      40.268  22.351  26.657  1.00  0.00    -0.237 OA
ATOM     76  O   UNL A   1      42.303  21.857  25.371  1.00  0.00    -0.744 OA
ENDBRANCH  70  73
ENDBRANCH  52  66
BRANCH  53  77
ATOM     77  C   UNL A   1      39.281  32.047  35.329  1.00  0.00     0.023 A 
ATOM     78  C   UNL A   1      38.411  31.471  36.275  1.00  0.00     0.012 A 
ATOM     79  C   UNL A   1      39.735  33.366  35.527  1.00  0.00     0.148 A 
ATOM     80  C   UNL A   1      37.977  32.203  37.381  1.00  0.00     0.002 A 
ATOM     81  C   UNL A   1      39.344  34.070  36.661  1.00  0.00     0.091 A 
ATOM     82  F   UNL A   1      40.554  33.899  34.610  1.00  0.00    -0.205 F 
ATOM     83  C   UNL A   1      38.451  33.497  37.579  1.00  0.00     0.022 A 
BRANCH  81  84
ATOM     84  S   UNL A   1      40.008  35.688  37.067  1.00  0.00     0.127 S 
ATOM     85  O   UNL A   1      41.431  35.397  37.223  1.00  0.00    -0.237 OA
ATOM     86  O   UNL A   1      39.662  36.462  35.874  1.00  0.00    -0.237 OA
ATOM     87  O   UNL A   1      39.314  36.107  38.278  1.00  0.00    -0.744 OA
ENDBRANCH  81  84
ENDBRANCH  53  77
BRANCH  65  88
ATOM     88  C   UNL A   1      44.862  28.032  34.082  1.00  0.00     0.023 A 
ATOM     89  C   UNL A   1      45.994  28.869  34.051  1.00  0.00     0.012 A 
ATOM     90  C   UNL A   1      44.853  26.913  34.939  1.00  0.00     0.148 A 
ATOM     91  C   UNL A   1      47.110  28.583  34.837  1.00  0.00     0.002 A 
ATOM     92  C   UNL A   1      45.947  26.663  35.758  1.00  0.00     0.091 A 
ATOM     93  F   UNL A   1      43.772  26.118  34.941  1.00  0.00    -0.205 F 
ATOM     94  C   UNL A   1      47.082  27.488  35.698  1.00  0.00     0.022 A 
BRANCH  92  95
ATOM     95  S   UNL A   1      45.964  25.336  36.969  1.00  0.00     0.127 S 
ATOM     96  O   UNL A   1      45.913  24.151  36.114  1.00  0.00    -0.237 OA
ATOM     97  O   UNL A   1      47.246  25.549  37.642  1.00  0.00    -0.237 OA
ATOM     98  O   UNL A   1      44.795  25.545  37.813  1.00  0.00    -0.744 OA
ENDBRANCH  92  95
ENDBRANCH  65  88
ENDBRANCH  39  40
ENDBRANCH  31  34
ENDBRANCH  29  30
ENDBRANCH  28  29
ENDBRANCH   1  28
TORSDOF 17
ENDMDL
MODEL 3
REMARK VINA RESULT:     -12.8      4.990      7.417
REMARK SMILES CCOc1ccccc1NC(=O)[C@H]1[C@@H]2C=C[C@@H]([C@@H]3C[C@H]23)[C@@H]1C(=O)NCCCNC(=O)c1ccc(-c2c3nc(c(-c4cccc(S(=O)(=O)[O-])c4F)c4ccc([nH]4)c(-c4cccc(S(=O)(=O)[O-])c4F)c4nc(c(-c5cccc(S(=O)(=O)[O-])c5F)c5ccc2[nH]5)C=C4)C=C3)cc1
REMARK SMILES IDX 25 1 24 2 22 3 23 4 21 6 13 7 14 8 15 9 20 10 17 11 16 12
REMARK SMILES IDX 18 13 19 14 11 15 10 16 12 18 9 19 4 20 5 21 6 22 8 23 7 24
REMARK SMILES IDX 3 25 2 26 1 27 26 28 27 29 28 30 29 31 30 33 31 34 32 35
REMARK SMILES IDX 93 36 33 37 92 38 34 39 35 40 36 41 86 42 37 43 91 44 85 45
REMARK SMILES IDX 87 46 38 47 90 48 84 49 83 50 39 52 71 53 51 54 70 55 52 56
REMARK SMILES IDX 55 57 69 58 88 59 53 60 54 61 68 63 89 64 56 65 40 66 41 67
REMARK SMILES IDX 49 68 42 69 44 70 50 71 43 72 45 73 46 74 47 75 48 76 72 77
REMARK SMILES IDX 73 78 81 79 74 80 76 81 82 82 75 83 77 84 78 85 79 86 80 87
REMARK SMILES IDX 57 88 58 89 66 90 59 91 61 92 67 93 60 94 62 95 63 96 64 97
REMARK SMILES IDX 65 98
REMARK H PARENT 24 5 10 17 28 32 87 51 55 62
REMARK Flexibility Score: inf
ROOT
ATOM      1  C   UNL A   1      32.691  27.226  26.386  1.00  0.00     0.117 C 
ENDROOT
BRANCH   1   2
ATOM      2  N   UNL A   1      31.829  26.140  26.815  1.00  0.00    -0.356 N 
ATOM      3  C   UNL A   1      31.806  24.827  26.459  1.00  0.00     0.224 C 
ATOM      4  O   UNL A   1      30.988  24.109  27.038  1.00  0.00    -0.275 OA
ATOM      5  H   UNL A   1      31.146  26.397  27.475  1.00  0.00     0.163 HD
BRANCH   3   6
ATOM      6  C   UNL A   1      32.808  24.286  25.444  1.00  0.00     0.098 C 
ATOM      7  C   UNL A   1      32.367  22.895  24.855  1.00  0.00     0.099 C 
ATOM      8  C   UNL A   1      33.524  21.873  25.087  1.00  0.00     0.028 C 
ATOM      9  C   UNL A   1      33.662  21.801  26.613  1.00  0.00    -0.026 C 
ATOM     10  C   UNL A   1      34.877  22.366  24.538  1.00  0.00     0.001 C 
ATOM     11  C   UNL A   1      34.185  24.121  26.179  1.00  0.00     0.028 C 
ATOM     12  C   UNL A   1      34.013  22.972  27.181  1.00  0.00    -0.026 C 
ATOM     13  C   UNL A   1      35.277  23.677  25.198  1.00  0.00     0.001 C 
ATOM     14  C   UNL A   1      35.157  23.598  23.703  1.00  0.00     0.009 C 
BRANCH   7  15
ATOM     15  C   UNL A   1      32.010  22.999  23.384  1.00  0.00     0.229 C 
ATOM     16  N   UNL A   1      31.753  24.182  22.770  1.00  0.00    -0.323 N 
ATOM     17  H   UNL A   1      32.209  24.279  21.902  1.00  0.00     0.170 HD
ATOM     18  O   UNL A   1      31.981  22.002  22.654  1.00  0.00    -0.274 OA
BRANCH  16  19
ATOM     19  C   UNL A   1      30.968  25.300  23.116  1.00  0.00     0.083 A 
ATOM     20  C   UNL A   1      31.465  26.539  22.660  1.00  0.00     0.142 A 
ATOM     21  C   UNL A   1      30.763  27.729  22.856  1.00  0.00     0.048 A 
ATOM     22  C   UNL A   1      29.536  27.694  23.514  1.00  0.00     0.004 A 
ATOM     23  C   UNL A   1      29.741  25.287  23.765  1.00  0.00     0.030 A 
ATOM     24  C   UNL A   1      29.034  26.478  23.975  1.00  0.00     0.002 A 
BRANCH  20  25
ATOM     25  O   UNL A   1      32.698  26.572  22.051  1.00  0.00    -0.492 OA
BRANCH  25  26
ATOM     26  C   UNL A   1      33.725  27.117  22.893  1.00  0.00     0.226 C 
ATOM     27  C   UNL A   1      34.142  28.476  22.346  1.00  0.00     0.049 C 
ENDBRANCH  25  26
ENDBRANCH  20  25
ENDBRANCH  16  19
ENDBRANCH   7  15
ENDBRANCH   3   6
ENDBRANCH   1   2
BRANCH   1  28
ATOM     28  C   UNL A   1      31.941  28.549  26.256  1.00  0.00     0.042 C 
BRANCH  28  29
ATOM     29  C   UNL A   1      32.718  29.671  25.569  1.00  0.00     0.118 C 
BRANCH  29  30
ATOM     30  N   UNL A   1      32.446  30.990  26.127  1.00  0.00    -0.352 N 
ATOM     31  C   UNL A   1      33.113  31.705  27.094  1.00  0.00     0.251 C 
ATOM     32  H   UNL A   1      31.656  31.442  25.751  1.00  0.00     0.163 HD
ATOM     33  O   UNL A   1      32.627  32.749  27.514  1.00  0.00    -0.269 OA
BRANCH  31  34
ATOM     34  C   UNL A   1      34.395  31.210  27.651  1.00  0.00     0.039 A 
ATOM     35  C   UNL A   1      35.426  32.129  27.877  1.00  0.00     0.014 A 
ATOM     36  C   UNL A   1      34.592  29.859  27.940  1.00  0.00     0.014 A 
ATOM     37  C   UNL A   1      36.619  31.705  28.469  1.00  0.00     0.010 A 
ATOM     38  C   UNL A   1      35.753  29.452  28.598  1.00  0.00     0.010 A 
ATOM     39  C   UNL A   1      36.775  30.371  28.878  1.00  0.00    -0.014 A 
BRANCH  39  40
ATOM     40  C   UNL A   1      37.975  29.931  29.641  1.00  0.00     0.031 A 
ATOM     41  C   UNL A   1      38.252  30.471  31.018  1.00  0.00     0.074 A 
ATOM     42  C   UNL A   1      38.873  29.118  29.048  1.00  0.00     0.049 A 
ATOM     43  N   UNL A   1      39.284  30.258  31.794  1.00  0.00    -0.248 NA
ATOM     44  C   UNL A   1      37.252  31.387  31.589  1.00  0.00     0.031 C 
ATOM     45  C   UNL A   1      38.761  28.583  27.689  1.00  0.00     0.029 A 
ATOM     46  N   UNL A   1      40.074  28.624  29.499  1.00  0.00    -0.354 N 
ATOM     47  C   UNL A   1      39.079  31.038  32.925  1.00  0.00     0.074 A 
ATOM     48  C   UNL A   1      37.836  31.750  32.723  1.00  0.00     0.031 C 
ATOM     49  C   UNL A   1      39.845  27.840  27.416  1.00  0.00     0.029 A 
ATOM     50  C   UNL A   1      40.749  27.876  28.562  1.00  0.00     0.049 A 
ATOM     51  H   UNL A   1      40.418  28.790  30.406  1.00  0.00     0.167 HD
ATOM     52  C   UNL A   1      39.843  31.138  34.040  1.00  0.00     0.034 A 
ATOM     53  C   UNL A   1      41.966  27.300  28.607  1.00  0.00     0.034 A 
ATOM     54  C   UNL A   1      41.064  30.406  34.251  1.00  0.00     0.049 A 
ATOM     55  C   UNL A   1      42.787  27.412  29.863  1.00  0.00     0.074 A 
ATOM     56  C   UNL A   1      41.857  30.369  35.385  1.00  0.00     0.029 A 
ATOM     57  N   UNL A   1      41.680  29.600  33.307  1.00  0.00    -0.354 N 
ATOM     58  N   UNL A   1      42.497  28.025  30.984  1.00  0.00    -0.248 NA
ATOM     59  C   UNL A   1      44.088  26.726  29.871  1.00  0.00     0.031 C 
ATOM     60  C   UNL A   1      42.974  29.573  35.112  1.00  0.00     0.029 A 
ATOM     61  C   UNL A   1      42.855  29.079  33.824  1.00  0.00     0.049 A 
ATOM     62  H   UNL A   1      41.333  29.423  32.403  1.00  0.00     0.167 HD
ATOM     63  C   UNL A   1      43.562  27.772  31.842  1.00  0.00     0.074 A 
ATOM     64  C   UNL A   1      44.493  26.932  31.117  1.00  0.00     0.031 C 
ATOM     65  C   UNL A   1      43.755  28.208  33.111  1.00  0.00     0.034 A 
BRANCH  52  66
ATOM     66  C   UNL A   1      39.363  32.049  35.141  1.00  0.00     0.023 A 
ATOM     67  C   UNL A   1      39.531  33.444  35.018  1.00  0.00     0.012 A 
ATOM     68  C   UNL A   1      38.692  31.532  36.266  1.00  0.00     0.148 A 
ATOM     69  C   UNL A   1      39.073  34.306  36.014  1.00  0.00     0.002 A 
ATOM     70  C   UNL A   1      38.196  32.401  37.231  1.00  0.00     0.091 A 
ATOM     71  F   UNL A   1      38.557  30.203  36.376  1.00  0.00    -0.205 F 
ATOM     72  C   UNL A   1      38.397  33.785  37.114  1.00  0.00     0.022 A 
BRANCH  70  73
ATOM     73  S   UNL A   1      37.241  31.837  38.645  1.00  0.00     0.127 S 
ATOM     74  O   UNL A   1      38.186  32.044  39.741  1.00  0.00    -0.237 OA
ATOM     75  O   UNL A   1      36.106  32.761  38.636  1.00  0.00    -0.237 OA
ATOM     76  O   UNL A   1      36.897  30.449  38.371  1.00  0.00    -0.744 OA
ENDBRANCH  70  73
ENDBRANCH  52  66
BRANCH  53  77
ATOM     77  C   UNL A   1      42.465  26.526  27.435  1.00  0.00     0.023 A 
ATOM     78  C   UNL A   1      43.276  27.163  26.475  1.00  0.00     0.012 A 
ATOM     79  C   UNL A   1      42.164  25.158  27.282  1.00  0.00     0.148 A 
ATOM     80  C   UNL A   1      43.752  26.460  25.367  1.00  0.00     0.002 A 
ATOM     81  C   UNL A   1      42.690  24.450  26.207  1.00  0.00     0.091 A 
ATOM     82  F   UNL A   1      41.384  24.573  28.201  1.00  0.00    -0.205 F 
ATOM     83  C   UNL A   1      43.469  25.103  25.239  1.00  0.00     0.022 A 
BRANCH  81  84
ATOM     84  S   UNL A   1      42.490  22.674  26.032  1.00  0.00     0.127 S 
ATOM     85  O   UNL A   1      41.036  22.534  26.042  1.00  0.00    -0.237 OA
ATOM     86  O   UNL A   1      43.125  22.427  24.737  1.00  0.00    -0.237 OA
ATOM     87  O   UNL A   1      43.187  22.083  27.166  1.00  0.00    -0.744 OA
ENDBRANCH  81  84
ENDBRANCH  53  77
BRANCH  65  88
ATOM     88  C   UNL A   1      45.005  27.758  33.826  1.00  0.00     0.023 A 
ATOM     89  C   UNL A   1      46.106  28.630  33.937  1.00  0.00     0.012 A 
ATOM     90  C   UNL A   1      45.055  26.498  34.456  1.00  0.00     0.148 A 
ATOM     91  C   UNL A   1      47.249  28.244  34.635  1.00  0.00     0.002 A 
ATOM     92  C   UNL A   1      46.176  26.141  35.195  1.00  0.00     0.091 A 
ATOM     93  F   UNL A   1      44.003  25.676  34.325  1.00  0.00    -0.205 F 
ATOM     94  C   UNL A   1      47.279  27.006  35.274  1.00  0.00     0.022 A 
BRANCH  92  95
ATOM     95  S   UNL A   1      46.268  24.611  36.133  1.00  0.00     0.127 S 
ATOM     96  O   UNL A   1      47.666  24.610  36.563  1.00  0.00    -0.237 OA
ATOM     97  O   UNL A   1      45.300  24.847  37.205  1.00  0.00    -0.237 OA
ATOM     98  O   UNL A   1      45.900  23.548  35.208  1.00  0.00    -0.744 OA
ENDBRANCH  92  95
ENDBRANCH  65  88
ENDBRANCH  39  40
ENDBRANCH  31  34
ENDBRANCH  29  30
ENDBRANCH  28  29
ENDBRANCH   1  28
TORSDOF 17
ENDMDL
