MODEL 1
REMARK VINA RESULT:     -13.2      0.000      0.000
REMARK SMILES O=C(NCCCNC(=O)c1cccn1CC(=O)N1CCc2ccccc2C1)c1ccc(-c2c3nc(c(-c4cccc(S(=O)(=O)[O-])c4F)c4ccc([nH]4)c(-c4cccc(S(=O)(=O)[O-])c4F)c4nc(c(-c5cccc(S(=O)(=O)[O-])c5F)c5ccc2[nH]5)C=C4)C=C3)cc1
REMARK SMILES IDX 5 1 4 2 3 3 1 4 2 5 28 7 29 8 90 9 30 10 89 11 31 12 32 13
REMARK SMILES IDX 33 14 83 15 34 16 88 17 82 18 84 19 35 20 87 21 81 22 80 23
REMARK SMILES IDX 36 25 68 26 48 27 67 28 49 29 52 30 66 31 85 32 50 33 51 34
REMARK SMILES IDX 65 36 86 37 53 38 37 39 38 40 46 41 39 42 41 43 47 44 40 45
REMARK SMILES IDX 42 46 43 47 44 48 45 49 69 50 70 51 78 52 71 53 73 54 79 55
REMARK SMILES IDX 72 56 74 57 75 58 76 59 77 60 54 61 55 62 63 63 56 64 58 65
REMARK SMILES IDX 64 66 57 67 59 68 60 69 61 70 62 71 6 72 7 73 8 74 9 76
REMARK SMILES IDX 10 77 11 78 14 79 12 80 13 81 15 82 16 83 17 84 18 85 19 86
REMARK SMILES IDX 27 87 20 88 26 89 21 90 25 91 22 92 24 93 23 94
REMARK H PARENT 3 6 84 24 52 35 7 75
REMARK Flexibility Score: inf
ROOT
ATOM      1  C   UNL A   1      33.181  29.152  26.373  1.00  0.00     0.042 C 
ENDROOT
BRANCH   1   2
ATOM      2  C   UNL A   1      34.347  28.983  27.340  1.00  0.00     0.118 C 
BRANCH   2   3
ATOM      3  N   UNL A   1      34.749  30.178  28.049  1.00  0.00    -0.352 N 
ATOM      4  O   UNL A   1      35.984  31.766  28.987  1.00  0.00    -0.269 OA
ATOM      5  C   UNL A   1      35.962  30.634  28.504  1.00  0.00     0.251 C 
ATOM      6  H   UNL A   1      34.002  30.789  28.244  1.00  0.00     0.163 HD
BRANCH   5   7
ATOM      7  C   UNL A   1      37.199  29.810  28.501  1.00  0.00     0.039 A 
ATOM      8  C   UNL A   1      38.151  29.838  27.480  1.00  0.00     0.014 A 
ATOM      9  C   UNL A   1      37.433  29.012  29.634  1.00  0.00     0.014 A 
ATOM     10  C   UNL A   1      39.297  29.043  27.564  1.00  0.00     0.010 A 
ATOM     11  C   UNL A   1      38.584  28.227  29.730  1.00  0.00     0.010 A 
ATOM     12  C   UNL A   1      39.527  28.254  28.699  1.00  0.00    -0.014 A 
BRANCH  12  13
ATOM     13  C   UNL A   1      40.891  27.687  28.883  1.00  0.00     0.031 A 
ATOM     14  C   UNL A   1      40.952  26.208  28.416  1.00  0.00     0.074 A 
ATOM     15  C   UNL A   1      41.835  28.482  29.476  1.00  0.00     0.049 A 
ATOM     16  N   UNL A   1      41.652  25.208  28.871  1.00  0.00    -0.248 NA
ATOM     17  C   UNL A   1      39.998  25.746  27.367  1.00  0.00     0.031 C 
ATOM     18  C   UNL A   1      41.643  29.910  29.817  1.00  0.00     0.029 A 
ATOM     19  N   UNL A   1      43.135  28.278  29.909  1.00  0.00    -0.354 N 
ATOM     20  C   UNL A   1      41.398  24.099  28.019  1.00  0.00     0.074 A 
ATOM     21  C   UNL A   1      40.267  24.448  27.223  1.00  0.00     0.031 C 
ATOM     22  C   UNL A   1      42.725  30.407  30.460  1.00  0.00     0.029 A 
ATOM     23  C   UNL A   1      43.740  29.375  30.581  1.00  0.00     0.049 A 
ATOM     24  H   UNL A   1      43.610  27.428  29.760  1.00  0.00     0.167 HD
ATOM     25  C   UNL A   1      42.231  23.019  27.912  1.00  0.00     0.034 A 
ATOM     26  C   UNL A   1      44.955  29.444  31.217  1.00  0.00     0.034 A 
ATOM     27  C   UNL A   1      43.356  23.207  28.763  1.00  0.00     0.049 A 
ATOM     28  C   UNL A   1      45.637  28.184  30.904  1.00  0.00     0.074 A 
ATOM     29  C   UNL A   1      43.544  23.097  30.113  1.00  0.00     0.029 A 
ATOM     30  N   UNL A   1      44.412  23.880  28.197  1.00  0.00    -0.354 N 
ATOM     31  N   UNL A   1      46.169  27.905  29.752  1.00  0.00    -0.248 NA
ATOM     32  C   UNL A   1      45.679  27.125  31.919  1.00  0.00     0.031 C 
ATOM     33  C   UNL A   1      44.526  24.068  30.388  1.00  0.00     0.029 A 
ATOM     34  C   UNL A   1      45.002  24.615  29.189  1.00  0.00     0.049 A 
ATOM     35  H   UNL A   1      44.692  23.840  27.255  1.00  0.00     0.167 HD
ATOM     36  C   UNL A   1      46.259  26.538  29.809  1.00  0.00     0.074 A 
ATOM     37  C   UNL A   1      46.301  26.188  31.210  1.00  0.00     0.031 C 
ATOM     38  C   UNL A   1      45.733  25.796  28.801  1.00  0.00     0.034 A 
BRANCH  25  39
ATOM     39  C   UNL A   1      42.329  21.850  26.954  1.00  0.00     0.023 A 
ATOM     40  C   UNL A   1      41.305  20.863  27.087  1.00  0.00     0.012 A 
ATOM     41  C   UNL A   1      43.451  21.502  26.183  1.00  0.00     0.148 A 
ATOM     42  C   UNL A   1      41.436  19.567  26.593  1.00  0.00     0.002 A 
ATOM     43  C   UNL A   1      43.554  20.213  25.644  1.00  0.00     0.091 A 
ATOM     44  F   UNL A   1      44.449  22.380  26.041  1.00  0.00    -0.205 F 
ATOM     45  C   UNL A   1      42.572  19.238  25.880  1.00  0.00     0.022 A 
BRANCH  43  46
ATOM     46  S   UNL A   1      44.940  19.686  24.626  1.00  0.00     0.127 S 
ATOM     47  O   UNL A   1      46.072  20.307  25.310  1.00  0.00    -0.237 OA
ATOM     48  O   UNL A   1      44.877  18.229  24.762  1.00  0.00    -0.237 OA
ATOM     49  O   UNL A   1      44.647  20.169  23.284  1.00  0.00    -0.744 OA
ENDBRANCH  43  46
ENDBRANCH  25  39
BRANCH  26  50
ATOM     50  C   UNL A   1      45.698  30.385  32.151  1.00  0.00     0.023 A 
ATOM     51  C   UNL A   1      46.880  31.060  31.823  1.00  0.00     0.012 A 
ATOM     52  C   UNL A   1      45.154  30.694  33.441  1.00  0.00     0.148 A 
ATOM     53  C   UNL A   1      47.423  32.047  32.675  1.00  0.00     0.002 A 
ATOM     54  C   UNL A   1      45.613  31.752  34.219  1.00  0.00     0.091 A 
ATOM     55  F   UNL A   1      44.191  29.930  33.962  1.00  0.00    -0.205 F 
ATOM     56  C   UNL A   1      46.768  32.428  33.845  1.00  0.00     0.022 A 
BRANCH  54  57
ATOM     57  S   UNL A   1      44.670  32.378  35.628  1.00  0.00     0.127 S 
ATOM     58  O   UNL A   1      43.317  32.472  35.084  1.00  0.00    -0.237 OA
ATOM     59  O   UNL A   1      44.866  31.307  36.605  1.00  0.00    -0.237 OA
ATOM     60  O   UNL A   1      45.275  33.650  35.999  1.00  0.00    -0.744 OA
ENDBRANCH  54  57
ENDBRANCH  26  50
BRANCH  38  61
ATOM     61  C   UNL A   1      45.683  26.514  27.452  1.00  0.00     0.023 A 
ATOM     62  C   UNL A   1      44.428  26.993  27.027  1.00  0.00     0.012 A 
ATOM     63  C   UNL A   1      46.760  26.624  26.541  1.00  0.00     0.148 A 
ATOM     64  C   UNL A   1      44.245  27.544  25.754  1.00  0.00     0.002 A 
ATOM     65  C   UNL A   1      46.577  27.164  25.264  1.00  0.00     0.091 A 
ATOM     66  F   UNL A   1      47.962  26.194  26.921  1.00  0.00    -0.205 F 
ATOM     67  C   UNL A   1      45.316  27.628  24.873  1.00  0.00     0.022 A 
BRANCH  65  68
ATOM     68  S   UNL A   1      47.876  27.247  24.013  1.00  0.00     0.127 S 
ATOM     69  O   UNL A   1      48.964  27.918  24.731  1.00  0.00    -0.237 OA
ATOM     70  O   UNL A   1      48.126  25.836  23.735  1.00  0.00    -0.237 OA
ATOM     71  O   UNL A   1      47.336  28.020  22.901  1.00  0.00    -0.744 OA
ENDBRANCH  65  68
ENDBRANCH  38  61
ENDBRANCH  12  13
ENDBRANCH   5   7
ENDBRANCH   2   3
ENDBRANCH   1   2
BRANCH   1  72
ATOM     72  C   UNL A   1      31.798  28.828  26.932  1.00  0.00     0.118 C 
BRANCH  72  73
ATOM     73  N   UNL A   1      31.540  27.395  26.951  1.00  0.00    -0.351 N 
ATOM     74  C   UNL A   1      30.991  26.551  26.015  1.00  0.00     0.267 C 
ATOM     75  H   UNL A   1      31.808  26.950  27.787  1.00  0.00     0.163 HD
ATOM     76  O   UNL A   1      30.720  25.413  26.386  1.00  0.00    -0.268 OA
BRANCH  74  77
ATOM     77  C   UNL A   1      30.732  27.017  24.664  1.00  0.00     0.107 A 
ATOM     78  C   UNL A   1      29.571  27.567  24.140  1.00  0.00     0.033 A 
ATOM     79  N   UNL A   1      31.676  27.058  23.639  1.00  0.00    -0.334 N 
ATOM     80  C   UNL A   1      29.811  27.935  22.796  1.00  0.00     0.020 A 
ATOM     81  C   UNL A   1      31.122  27.626  22.518  1.00  0.00     0.087 A 
BRANCH  79  82
ATOM     82  C   UNL A   1      33.069  26.635  23.739  1.00  0.00     0.222 C 
BRANCH  82  83
ATOM     83  C   UNL A   1      33.568  25.493  22.862  1.00  0.00     0.242 C 
ATOM     84  O   UNL A   1      33.652  25.705  21.642  1.00  0.00    -0.273 OA
BRANCH  83  85
ATOM     85  N   UNL A   1      34.106  24.331  23.406  1.00  0.00    -0.336 N 
ATOM     86  C   UNL A   1      33.790  22.982  22.942  1.00  0.00     0.124 C 
ATOM     87  C   UNL A   1      35.235  24.490  24.337  1.00  0.00     0.155 C 
ATOM     88  C   UNL A   1      34.064  21.880  23.953  1.00  0.00     0.057 C 
ATOM     89  C   UNL A   1      36.007  23.240  24.690  1.00  0.00    -0.025 A 
ATOM     90  C   UNL A   1      35.454  21.970  24.482  1.00  0.00    -0.041 A 
ATOM     91  C   UNL A   1      37.268  23.329  25.291  1.00  0.00     0.006 A 
ATOM     92  C   UNL A   1      36.158  20.812  24.831  1.00  0.00     0.004 A 
ATOM     93  C   UNL A   1      37.971  22.173  25.642  1.00  0.00     0.000 A 
ATOM     94  C   UNL A   1      37.420  20.915  25.402  1.00  0.00     0.000 A 
ENDBRANCH  83  85
ENDBRANCH  82  83
ENDBRANCH  79  82
ENDBRANCH  74  77
ENDBRANCH  72  73
ENDBRANCH   1  72
TORSDOF 16
ENDMDL
MODEL 2
REMARK VINA RESULT:     -13.0      1.546      2.064
REMARK SMILES O=C(NCCCNC(=O)c1cccn1CC(=O)N1CCc2ccccc2C1)c1ccc(-c2c3nc(c(-c4cccc(S(=O)(=O)[O-])c4F)c4ccc([nH]4)c(-c4cccc(S(=O)(=O)[O-])c4F)c4nc(c(-c5cccc(S(=O)(=O)[O-])c5F)c5ccc2[nH]5)C=C4)C=C3)cc1
REMARK SMILES IDX 5 1 4 2 3 3 1 4 2 5 28 7 29 8 90 9 30 10 89 11 31 12 32 13
REMARK SMILES IDX 33 14 83 15 34 16 88 17 82 18 84 19 35 20 87 21 81 22 80 23
REMARK SMILES IDX 36 25 68 26 48 27 67 28 49 29 52 30 66 31 85 32 50 33 51 34
REMARK SMILES IDX 65 36 86 37 53 38 37 39 38 40 46 41 39 42 41 43 47 44 40 45
REMARK SMILES IDX 42 46 43 47 44 48 45 49 69 50 70 51 78 52 71 53 73 54 79 55
REMARK SMILES IDX 72 56 74 57 75 58 76 59 77 60 54 61 55 62 63 63 56 64 58 65
REMARK SMILES IDX 64 66 57 67 59 68 60 69 61 70 62 71 6 72 7 73 8 74 9 76
REMARK SMILES IDX 10 77 11 78 14 79 12 80 13 81 15 82 16 83 17 84 18 85 19 86
REMARK SMILES IDX 27 87 20 88 26 89 21 90 25 91 22 92 24 93 23 94
REMARK H PARENT 3 6 84 24 52 35 7 75
REMARK Flexibility Score: inf
ROOT
ATOM      1  C   UNL A   1      33.081  28.911  26.475  1.00  0.00     0.042 C 
ENDROOT
BRANCH   1   2
ATOM      2  C   UNL A   1      34.303  28.818  27.382  1.00  0.00     0.118 C 
BRANCH   2   3
ATOM      3  N   UNL A   1      34.717  30.058  28.001  1.00  0.00    -0.352 N 
ATOM      4  O   UNL A   1      35.969  31.708  28.800  1.00  0.00    -0.269 OA
ATOM      5  C   UNL A   1      35.939  30.546  28.393  1.00  0.00     0.251 C 
ATOM      6  H   UNL A   1      33.973  30.677  28.176  1.00  0.00     0.163 HD
BRANCH   5   7
ATOM      7  C   UNL A   1      37.180  29.727  28.411  1.00  0.00     0.039 A 
ATOM      8  C   UNL A   1      38.137  29.741  27.393  1.00  0.00     0.014 A 
ATOM      9  C   UNL A   1      37.412  28.951  29.560  1.00  0.00     0.014 A 
ATOM     10  C   UNL A   1      39.285  28.953  27.498  1.00  0.00     0.010 A 
ATOM     11  C   UNL A   1      38.566  28.173  29.675  1.00  0.00     0.010 A 
ATOM     12  C   UNL A   1      39.514  28.185  28.648  1.00  0.00    -0.014 A 
BRANCH  12  13
ATOM     13  C   UNL A   1      40.879  27.628  28.849  1.00  0.00     0.031 A 
ATOM     14  C   UNL A   1      40.946  26.138  28.420  1.00  0.00     0.074 A 
ATOM     15  C   UNL A   1      41.820  28.441  29.423  1.00  0.00     0.049 A 
ATOM     16  N   UNL A   1      41.648  25.152  28.901  1.00  0.00    -0.248 NA
ATOM     17  C   UNL A   1      39.995  25.647  27.381  1.00  0.00     0.031 C 
ATOM     18  C   UNL A   1      41.622  29.876  29.728  1.00  0.00     0.029 A 
ATOM     19  N   UNL A   1      43.119  28.252  29.864  1.00  0.00    -0.354 N 
ATOM     20  C   UNL A   1      41.400  24.021  28.077  1.00  0.00     0.074 A 
ATOM     21  C   UNL A   1      40.269  24.346  27.271  1.00  0.00     0.031 C 
ATOM     22  C   UNL A   1      42.701  30.392  30.360  1.00  0.00     0.029 A 
ATOM     23  C   UNL A   1      43.719  29.367  30.509  1.00  0.00     0.049 A 
ATOM     24  H   UNL A   1      43.597  27.400  29.738  1.00  0.00     0.167 HD
ATOM     25  C   UNL A   1      42.236  22.942  27.999  1.00  0.00     0.034 A 
ATOM     26  C   UNL A   1      44.932  29.456  31.146  1.00  0.00     0.034 A 
ATOM     27  C   UNL A   1      43.359  23.155  28.847  1.00  0.00     0.049 A 
ATOM     28  C   UNL A   1      45.619  28.192  30.866  1.00  0.00     0.074 A 
ATOM     29  C   UNL A   1      43.545  23.080  30.199  1.00  0.00     0.029 A 
ATOM     30  N   UNL A   1      44.414  23.816  28.267  1.00  0.00    -0.354 N 
ATOM     31  N   UNL A   1      46.154  27.885  29.722  1.00  0.00    -0.248 NA
ATOM     32  C   UNL A   1      45.663  27.159  31.908  1.00  0.00     0.031 C 
ATOM     33  C   UNL A   1      44.522  24.061  30.452  1.00  0.00     0.029 A 
ATOM     34  C   UNL A   1      45.000  24.578  29.241  1.00  0.00     0.049 A 
ATOM     35  H   UNL A   1      44.696  23.754  27.326  1.00  0.00     0.167 HD
ATOM     36  C   UNL A   1      46.249  26.520  29.813  1.00  0.00     0.074 A 
ATOM     37  C   UNL A   1      46.289  26.206  31.223  1.00  0.00     0.031 C 
ATOM     38  C   UNL A   1      45.727  25.752  28.824  1.00  0.00     0.034 A 
BRANCH  25  39
ATOM     39  C   UNL A   1      42.340  21.748  27.071  1.00  0.00     0.023 A 
ATOM     40  C   UNL A   1      41.507  20.639  27.407  1.00  0.00     0.012 A 
ATOM     41  C   UNL A   1      43.354  21.519  26.126  1.00  0.00     0.148 A 
ATOM     42  C   UNL A   1      41.739  19.349  26.934  1.00  0.00     0.002 A 
ATOM     43  C   UNL A   1      43.551  20.230  25.613  1.00  0.00     0.091 A 
ATOM     44  F   UNL A   1      44.176  22.517  25.789  1.00  0.00    -0.205 F 
ATOM     45  C   UNL A   1      42.774  19.142  26.043  1.00  0.00     0.022 A 
BRANCH  43  46
ATOM     46  S   UNL A   1      44.807  19.848  24.384  1.00  0.00     0.127 S 
ATOM     47  O   UNL A   1      44.530  20.839  23.348  1.00  0.00    -0.237 OA
ATOM     48  O   UNL A   1      46.044  20.087  25.133  1.00  0.00    -0.237 OA
ATOM     49  O   UNL A   1      44.593  18.454  24.025  1.00  0.00    -0.744 OA
ENDBRANCH  43  46
ENDBRANCH  25  39
BRANCH  26  50
ATOM     50  C   UNL A   1      45.670  30.423  32.057  1.00  0.00     0.023 A 
ATOM     51  C   UNL A   1      45.326  30.675  33.391  1.00  0.00     0.012 A 
ATOM     52  C   UNL A   1      46.849  31.092  31.592  1.00  0.00     0.148 A 
ATOM     53  C   UNL A   1      46.155  31.456  34.229  1.00  0.00     0.002 A 
ATOM     54  C   UNL A   1      47.729  31.751  32.445  1.00  0.00     0.091 A 
ATOM     55  F   UNL A   1      47.122  31.135  30.285  1.00  0.00    -0.205 F 
ATOM     56  C   UNL A   1      47.376  31.951  33.773  1.00  0.00     0.022 A 
BRANCH  54  57
ATOM     57  S   UNL A   1      49.390  32.227  31.917  1.00  0.00     0.127 S 
ATOM     58  O   UNL A   1      49.125  33.335  31.003  1.00  0.00    -0.237 OA
ATOM     59  O   UNL A   1      49.999  32.613  33.190  1.00  0.00    -0.237 OA
ATOM     60  O   UNL A   1      49.983  31.048  31.299  1.00  0.00    -0.744 OA
ENDBRANCH  54  57
ENDBRANCH  26  50
BRANCH  38  61
ATOM     61  C   UNL A   1      45.677  26.435  27.457  1.00  0.00     0.023 A 
ATOM     62  C   UNL A   1      44.420  26.890  27.013  1.00  0.00     0.012 A 
ATOM     63  C   UNL A   1      46.758  26.533  26.550  1.00  0.00     0.148 A 
ATOM     64  C   UNL A   1      44.238  27.406  25.726  1.00  0.00     0.002 A 
ATOM     65  C   UNL A   1      46.577  27.039  25.259  1.00  0.00     0.091 A 
ATOM     66  F   UNL A   1      47.962  26.126  26.947  1.00  0.00    -0.205 F 
ATOM     67  C   UNL A   1      45.314  27.480  24.849  1.00  0.00     0.022 A 
BRANCH  65  68
ATOM     68  S   UNL A   1      47.883  27.106  24.013  1.00  0.00     0.127 S 
ATOM     69  O   UNL A   1      47.254  27.876  22.936  1.00  0.00    -0.237 OA
ATOM     70  O   UNL A   1      48.943  27.822  24.717  1.00  0.00    -0.237 OA
ATOM     71  O   UNL A   1      48.188  25.726  23.654  1.00  0.00    -0.744 OA
ENDBRANCH  65  68
ENDBRANCH  38  61
ENDBRANCH  12  13
ENDBRANCH   5   7
ENDBRANCH   2   3
ENDBRANCH   1   2
BRANCH   1  72
ATOM     72  C   UNL A   1      31.766  28.418  27.073  1.00  0.00     0.118 C 
BRANCH  72  73
ATOM     73  N   UNL A   1      31.458  27.054  26.665  1.00  0.00    -0.351 N 
ATOM     74  C   UNL A   1      30.988  26.537  25.482  1.00  0.00     0.267 C 
ATOM     75  H   UNL A   1      31.616  26.380  27.365  1.00  0.00     0.163 HD
ATOM     76  O   UNL A   1      30.638  25.361  25.491  1.00  0.00    -0.268 OA
BRANCH  74  77
ATOM     77  C   UNL A   1      30.898  27.371  24.297  1.00  0.00     0.107 A 
ATOM     78  C   UNL A   1      29.854  28.186  23.883  1.00  0.00     0.033 A 
ATOM     79  N   UNL A   1      31.923  27.558  23.371  1.00  0.00    -0.334 N 
ATOM     80  C   UNL A   1      30.245  28.860  22.704  1.00  0.00     0.020 A 
ATOM     81  C   UNL A   1      31.532  28.468  22.420  1.00  0.00     0.087 A 
BRANCH  79  82
ATOM     82  C   UNL A   1      33.246  26.946  23.424  1.00  0.00     0.222 C 
BRANCH  82  83
ATOM     83  C   UNL A   1      33.545  25.734  22.548  1.00  0.00     0.242 C 
ATOM     84  O   UNL A   1      33.653  25.925  21.327  1.00  0.00    -0.273 OA
BRANCH  83  85
ATOM     85  N   UNL A   1      33.889  24.501  23.095  1.00  0.00    -0.336 N 
ATOM     86  C   UNL A   1      34.783  24.329  24.237  1.00  0.00     0.124 C 
ATOM     87  C   UNL A   1      33.118  23.332  22.643  1.00  0.00     0.155 C 
ATOM     88  C   UNL A   1      35.413  22.949  24.350  1.00  0.00     0.057 C 
ATOM     89  C   UNL A   1      33.279  22.061  23.443  1.00  0.00    -0.025 A 
ATOM     90  C   UNL A   1      34.378  21.880  24.293  1.00  0.00    -0.041 A 
ATOM     91  C   UNL A   1      32.364  21.011  23.303  1.00  0.00     0.006 A 
ATOM     92  C   UNL A   1      34.542  20.693  25.016  1.00  0.00     0.004 A 
ATOM     93  C   UNL A   1      32.528  19.824  24.023  1.00  0.00     0.000 A 
ATOM     94  C   UNL A   1      33.611  19.670  24.887  1.00  0.00     0.000 A 
ENDBRANCH  83  85
ENDBRANCH  82  83
ENDBRANCH  79  82
ENDBRANCH  74  77
ENDBRANCH  72  73
ENDBRANCH   1  72
TORSDOF 16
ENDMDL
MODEL 3
REMARK VINA RESULT:     -12.8      1.037      3.634
REMARK SMILES O=C(NCCCNC(=O)c1cccn1CC(=O)N1CCc2ccccc2C1)c1ccc(-c2c3nc(c(-c4cccc(S(=O)(=O)[O-])c4F)c4ccc([nH]4)c(-c4cccc(S(=O)(=O)[O-])c4F)c4nc(c(-c5cccc(S(=O)(=O)[O-])c5F)c5ccc2[nH]5)C=C4)C=C3)cc1
REMARK SMILES IDX 5 1 4 2 3 3 1 4 2 5 28 7 29 8 90 9 30 10 89 11 31 12 32 13
REMARK SMILES IDX 33 14 83 15 34 16 88 17 82 18 84 19 35 20 87 21 81 22 80 23
REMARK SMILES IDX 36 25 68 26 48 27 67 28 49 29 52 30 66 31 85 32 50 33 51 34
REMARK SMILES IDX 65 36 86 37 53 38 37 39 38 40 46 41 39 42 41 43 47 44 40 45
REMARK SMILES IDX 42 46 43 47 44 48 45 49 69 50 70 51 78 52 71 53 73 54 79 55
REMARK SMILES IDX 72 56 74 57 75 58 76 59 77 60 54 61 55 62 63 63 56 64 58 65
REMARK SMILES IDX 64 66 57 67 59 68 60 69 61 70 62 71 6 72 7 73 8 74 9 76
REMARK SMILES IDX 10 77 11 78 14 79 12 80 13 81 15 82 16 83 17 84 18 85 19 86
REMARK SMILES IDX 27 87 20 88 26 89 21 90 25 91 22 92 24 93 23 94
REMARK H PARENT 3 6 84 24 52 35 7 75
REMARK Flexibility Score: inf
ROOT
ATOM      1  C   UNL A   1      34.047  29.132  25.807  1.00  0.00     0.042 C 
ENDROOT
BRANCH   1   2
ATOM      2  C   UNL A   1      34.333  28.918  27.289  1.00  0.00     0.118 C 
BRANCH   2   3
ATOM      3  N   UNL A   1      34.703  30.103  28.032  1.00  0.00    -0.352 N 
ATOM      4  O   UNL A   1      35.896  31.687  29.030  1.00  0.00    -0.269 OA
ATOM      5  C   UNL A   1      35.899  30.565  28.523  1.00  0.00     0.251 C 
ATOM      6  H   UNL A   1      33.944  30.699  28.222  1.00  0.00     0.163 HD
BRANCH   5   7
ATOM      7  C   UNL A   1      37.146  29.756  28.532  1.00  0.00     0.039 A 
ATOM      8  C   UNL A   1      38.090  29.769  27.502  1.00  0.00     0.014 A 
ATOM      9  C   UNL A   1      37.400  28.992  29.683  1.00  0.00     0.014 A 
ATOM     10  C   UNL A   1      39.246  28.992  27.597  1.00  0.00     0.010 A 
ATOM     11  C   UNL A   1      38.562  28.224  29.790  1.00  0.00     0.010 A 
ATOM     12  C   UNL A   1      39.497  28.236  28.751  1.00  0.00    -0.014 A 
BRANCH  12  13
ATOM     13  C   UNL A   1      40.869  27.692  28.938  1.00  0.00     0.031 A 
ATOM     14  C   UNL A   1      40.949  26.206  28.497  1.00  0.00     0.074 A 
ATOM     15  C   UNL A   1      41.805  28.510  29.512  1.00  0.00     0.049 A 
ATOM     16  N   UNL A   1      41.665  25.224  28.966  1.00  0.00    -0.248 NA
ATOM     17  C   UNL A   1      39.996  25.712  27.461  1.00  0.00     0.031 C 
ATOM     18  C   UNL A   1      41.594  29.941  29.829  1.00  0.00     0.029 A 
ATOM     19  N   UNL A   1      43.109  28.332  29.943  1.00  0.00    -0.354 N 
ATOM     20  C   UNL A   1      41.423  24.097  28.135  1.00  0.00     0.074 A 
ATOM     21  C   UNL A   1      40.283  24.416  27.338  1.00  0.00     0.031 C 
ATOM     22  C   UNL A   1      42.672  30.464  30.458  1.00  0.00     0.029 A 
ATOM     23  C   UNL A   1      43.701  29.449  30.593  1.00  0.00     0.049 A 
ATOM     24  H   UNL A   1      43.595  27.487  29.806  1.00  0.00     0.167 HD
ATOM     25  C   UNL A   1      42.270  23.027  28.042  1.00  0.00     0.034 A 
ATOM     26  C   UNL A   1      44.918  29.546  31.221  1.00  0.00     0.034 A 
ATOM     27  C   UNL A   1      43.397  23.246  28.884  1.00  0.00     0.049 A 
ATOM     28  C   UNL A   1      45.617  28.291  30.927  1.00  0.00     0.074 A 
ATOM     29  C   UNL A   1      43.593  23.162  30.235  1.00  0.00     0.029 A 
ATOM     30  N   UNL A   1      44.440  23.923  28.302  1.00  0.00    -0.354 N 
ATOM     31  N   UNL A   1      46.147  27.999  29.777  1.00  0.00    -0.248 NA
ATOM     32  C   UNL A   1      45.678  27.250  31.960  1.00  0.00     0.031 C 
ATOM     33  C   UNL A   1      44.561  24.152  30.489  1.00  0.00     0.029 A 
ATOM     34  C   UNL A   1      45.025  24.684  29.278  1.00  0.00     0.049 A 
ATOM     35  H   UNL A   1      44.717  23.871  27.359  1.00  0.00     0.167 HD
ATOM     36  C   UNL A   1      46.257  26.634  29.858  1.00  0.00     0.074 A 
ATOM     37  C   UNL A   1      46.310  26.310  31.264  1.00  0.00     0.031 C 
ATOM     38  C   UNL A   1      45.737  25.868  28.865  1.00  0.00     0.034 A 
BRANCH  25  39
ATOM     39  C   UNL A   1      42.381  21.842  27.105  1.00  0.00     0.023 A 
ATOM     40  C   UNL A   1      41.565  20.719  27.440  1.00  0.00     0.012 A 
ATOM     41  C   UNL A   1      43.389  21.633  26.148  1.00  0.00     0.148 A 
ATOM     42  C   UNL A   1      41.809  19.436  26.955  1.00  0.00     0.002 A 
ATOM     43  C   UNL A   1      43.597  20.351  25.624  1.00  0.00     0.091 A 
ATOM     44  F   UNL A   1      44.194  22.645  25.810  1.00  0.00    -0.205 F 
ATOM     45  C   UNL A   1      42.839  19.250  26.053  1.00  0.00     0.022 A 
BRANCH  43  46
ATOM     46  S   UNL A   1      44.846  19.994  24.380  1.00  0.00     0.127 S 
ATOM     47  O   UNL A   1      44.541  20.984  23.350  1.00  0.00    -0.237 OA
ATOM     48  O   UNL A   1      46.087  20.251  25.116  1.00  0.00    -0.237 OA
ATOM     49  O   UNL A   1      44.651  18.598  24.017  1.00  0.00    -0.744 OA
ENDBRANCH  43  46
ENDBRANCH  25  39
BRANCH  26  50
ATOM     50  C   UNL A   1      45.652  30.514  32.135  1.00  0.00     0.023 A 
ATOM     51  C   UNL A   1      46.641  31.410  31.712  1.00  0.00     0.012 A 
ATOM     52  C   UNL A   1      45.292  30.607  33.520  1.00  0.00     0.148 A 
ATOM     53  C   UNL A   1      47.160  32.396  32.582  1.00  0.00     0.002 A 
ATOM     54  C   UNL A   1      45.706  31.655  34.338  1.00  0.00     0.091 A 
ATOM     55  F   UNL A   1      44.563  29.644  34.088  1.00  0.00    -0.205 F 
ATOM     56  C   UNL A   1      46.660  32.551  33.874  1.00  0.00     0.022 A 
BRANCH  54  57
ATOM     57  S   UNL A   1      44.928  31.978  35.936  1.00  0.00     0.127 S 
ATOM     58  O   UNL A   1      45.417  30.870  36.754  1.00  0.00    -0.237 OA
ATOM     59  O   UNL A   1      45.493  33.285  36.273  1.00  0.00    -0.237 OA
ATOM     60  O   UNL A   1      43.490  31.985  35.704  1.00  0.00    -0.744 OA
ENDBRANCH  54  57
ENDBRANCH  26  50
BRANCH  38  61
ATOM     61  C   UNL A   1      45.670  26.561  27.505  1.00  0.00     0.023 A 
ATOM     62  C   UNL A   1      44.407  27.014  27.076  1.00  0.00     0.012 A 
ATOM     63  C   UNL A   1      46.742  26.672  26.588  1.00  0.00     0.148 A 
ATOM     64  C   UNL A   1      44.210  27.539  25.795  1.00  0.00     0.002 A 
ATOM     65  C   UNL A   1      46.546  27.186  25.302  1.00  0.00     0.091 A 
ATOM     66  F   UNL A   1      47.952  26.267  26.970  1.00  0.00    -0.205 F 
ATOM     67  C   UNL A   1      45.276  27.624  24.908  1.00  0.00     0.022 A 
BRANCH  65  68
ATOM     68  S   UNL A   1      47.839  27.268  24.044  1.00  0.00     0.127 S 
ATOM     69  O   UNL A   1      48.926  27.951  24.751  1.00  0.00    -0.237 OA
ATOM     70  O   UNL A   1      48.096  25.855  23.777  1.00  0.00    -0.237 OA
ATOM     71  O   UNL A   1      47.288  28.027  22.928  1.00  0.00    -0.744 OA
ENDBRANCH  65  68
ENDBRANCH  38  61
ENDBRANCH  12  13
ENDBRANCH   5   7
ENDBRANCH   2   3
ENDBRANCH   1   2
BRANCH   1  72
ATOM     72  C   UNL A   1      33.254  28.028  25.113  1.00  0.00     0.118 C 
BRANCH  72  73
ATOM     73  N   UNL A   1      32.346  27.351  26.030  1.00  0.00    -0.351 N 
ATOM     74  C   UNL A   1      32.110  26.017  26.265  1.00  0.00     0.267 C 
ATOM     75  H   UNL A   1      31.804  27.959  26.581  1.00  0.00     0.163 HD
ATOM     76  O   UNL A   1      31.141  25.741  26.966  1.00  0.00    -0.268 OA
BRANCH  74  77
ATOM     77  C   UNL A   1      32.967  25.002  25.680  1.00  0.00     0.107 A 
ATOM     78  C   UNL A   1      34.120  24.430  26.200  1.00  0.00     0.033 A 
ATOM     79  N   UNL A   1      32.725  24.349  24.472  1.00  0.00    -0.334 N 
ATOM     80  C   UNL A   1      34.577  23.436  25.305  1.00  0.00     0.020 A 
ATOM     81  C   UNL A   1      33.688  23.395  24.257  1.00  0.00     0.087 A 
BRANCH  79  82
ATOM     82  C   UNL A   1      31.585  24.577  23.590  1.00  0.00     0.222 C 
BRANCH  82  83
ATOM     83  C   UNL A   1      31.518  25.863  22.773  1.00  0.00     0.242 C 
ATOM     84  O   UNL A   1      32.354  26.008  21.868  1.00  0.00    -0.273 OA
BRANCH  83  85
ATOM     85  N   UNL A   1      30.450  26.747  22.885  1.00  0.00    -0.336 N 
ATOM     86  C   UNL A   1      29.376  26.621  23.868  1.00  0.00     0.124 C 
ATOM     87  C   UNL A   1      30.543  28.006  22.127  1.00  0.00     0.155 C 
ATOM     88  C   UNL A   1      28.094  27.355  23.508  1.00  0.00     0.057 C 
ATOM     89  C   UNL A   1      29.545  29.085  22.476  1.00  0.00    -0.025 A 
ATOM     90  C   UNL A   1      28.366  28.779  23.169  1.00  0.00    -0.041 A 
ATOM     91  C   UNL A   1      29.750  30.405  22.058  1.00  0.00     0.006 A 
ATOM     92  C   UNL A   1      27.430  29.774  23.471  1.00  0.00     0.004 A 
ATOM     93  C   UNL A   1      28.814  31.399  22.358  1.00  0.00     0.000 A 
ATOM     94  C   UNL A   1      27.660  31.084  23.073  1.00  0.00     0.000 A 
ENDBRANCH  83  85
ENDBRANCH  82  83
ENDBRANCH  79  82
ENDBRANCH  74  77
ENDBRANCH  72  73
ENDBRANCH   1  72
TORSDOF 16
ENDMDL
