MODEL 1
REMARK VINA RESULT:     -11.2      0.000      0.000
REMARK SMILES CN(CC(C)(C)O)S(=O)(=O)c1ccc(C(=O)NCCCNC(=O)c2ccc(-c3c4nc(c(-c5cccc(S(=O)(=O)[O-])c5F)c5ccc([nH]5)c(-c5cccc(S(=O)(=O)[O-])c5F)c5nc(c(-c6cccc(S(=O)(=O)[O-])c6F)c6ccc3[nH]6)C=C5)C=C4)cc2)s1
REMARK SMILES IDX 18 1 17 2 15 3 16 4 14 6 11 7 12 8 87 9 13 10 8 11 9 12
REMARK SMILES IDX 10 13 2 14 1 15 3 16 4 17 5 18 6 19 7 20 19 22 20 23 21 24
REMARK SMILES IDX 22 25 23 27 24 28 25 29 86 30 26 31 85 32 27 33 28 34 29 35
REMARK SMILES IDX 79 36 30 37 84 38 78 39 80 40 31 41 83 42 77 43 76 44 32 46
REMARK SMILES IDX 64 47 44 48 63 49 45 50 48 51 62 52 81 53 46 54 47 55 61 57
REMARK SMILES IDX 82 58 49 59 33 60 34 61 42 62 35 63 37 64 43 65 36 66 38 67
REMARK SMILES IDX 39 68 40 69 41 70 65 71 66 72 74 73 67 74 69 75 75 76 68 77
REMARK SMILES IDX 70 78 71 79 72 80 73 81 50 82 51 83 59 84 52 85 54 86 60 87
REMARK SMILES IDX 53 88 55 89 56 90 57 91 58 92
REMARK H PARENT 17 5 7 21 21 26 80 45 48 56
REMARK Flexibility Score: inf
ROOT
ATOM      1  C   UNL A   1      31.631  30.611  25.808  1.00  0.00     0.118 C 
ENDROOT
BRANCH   1   2
ATOM      2  N   UNL A   1      30.668  30.489  24.732  1.00  0.00    -0.351 N 
ATOM      3  C   UNL A   1      30.556  29.597  23.693  1.00  0.00     0.261 C 
ATOM      4  O   UNL A   1      29.513  29.686  23.041  1.00  0.00    -0.268 OA
ATOM      5  H   UNL A   1      29.960  31.175  24.750  1.00  0.00     0.163 HD
BRANCH   3   6
ATOM      6  C   UNL A   1      31.601  28.620  23.401  1.00  0.00     0.093 A 
ATOM      7  C   UNL A   1      32.752  26.427  23.124  1.00  0.00     0.135 A 
ATOM      8  C   UNL A   1      33.501  27.481  22.643  1.00  0.00     0.034 A 
ATOM      9  S   UNL A   1      31.295  26.970  23.821  1.00  0.00    -0.117 S 
ATOM     10  C   UNL A   1      32.833  28.731  22.781  1.00  0.00     0.027 A 
BRANCH   7  11
ATOM     11  S   UNL A   1      33.057  24.675  23.102  1.00  0.00     0.252 S 
ATOM     12  O   UNL A   1      34.189  24.524  22.217  1.00  0.00    -0.206 OA
ATOM     13  O   UNL A   1      31.793  24.041  22.778  1.00  0.00    -0.206 OA
BRANCH  11  14
ATOM     14  N   UNL A   1      33.520  24.137  24.634  1.00  0.00    -0.197 NA
ATOM     15  C   UNL A   1      34.558  24.962  25.277  1.00  0.00     0.124 C 
BRANCH  14  16
ATOM     16  C   UNL A   1      32.567  23.473  25.562  1.00  0.00     0.136 C 
BRANCH  16  17
ATOM     17  C   UNL A   1      32.647  21.932  25.736  1.00  0.00     0.073 C 
ATOM     18  C   UNL A   1      33.324  21.208  24.574  1.00  0.00     0.043 C 
ATOM     19  C   UNL A   1      33.448  21.639  27.016  1.00  0.00     0.043 C 
BRANCH  17  20
ATOM     20  O   UNL A   1      31.341  21.381  25.951  1.00  0.00    -0.389 OA
ATOM     21  H   UNL A   1      30.897  21.262  25.097  1.00  0.00     0.211 HD
ENDBRANCH  17  20
ENDBRANCH  16  17
ENDBRANCH  14  16
ENDBRANCH  11  14
ENDBRANCH   7  11
ENDBRANCH   3   6
ENDBRANCH   1   2
BRANCH   1  22
ATOM     22  C   UNL A   1      31.413  31.874  26.636  1.00  0.00     0.042 C 
BRANCH  22  23
ATOM     23  C   UNL A   1      32.705  32.469  27.195  1.00  0.00     0.118 C 
BRANCH  23  24
ATOM     24  N   UNL A   1      32.552  33.874  27.556  1.00  0.00    -0.352 N 
ATOM     25  C   UNL A   1      33.134  34.604  28.560  1.00  0.00     0.251 C 
ATOM     26  H   UNL A   1      31.928  34.381  26.986  1.00  0.00     0.163 HD
ATOM     27  O   UNL A   1      32.676  35.710  28.838  1.00  0.00    -0.269 OA
BRANCH  25  28
ATOM     28  C   UNL A   1      34.299  34.077  29.302  1.00  0.00     0.039 A 
ATOM     29  C   UNL A   1      34.080  33.277  30.428  1.00  0.00     0.014 A 
ATOM     30  C   UNL A   1      35.603  34.406  28.923  1.00  0.00     0.014 A 
ATOM     31  C   UNL A   1      35.167  32.766  31.139  1.00  0.00     0.010 A 
ATOM     32  C   UNL A   1      36.684  33.830  29.584  1.00  0.00     0.010 A 
ATOM     33  C   UNL A   1      36.480  33.013  30.705  1.00  0.00    -0.014 A 
BRANCH  33  34
ATOM     34  C   UNL A   1      37.647  32.417  31.403  1.00  0.00     0.031 A 
ATOM     35  C   UNL A   1      38.398  31.267  30.788  1.00  0.00     0.074 A 
ATOM     36  C   UNL A   1      37.979  32.860  32.631  1.00  0.00     0.049 A 
ATOM     37  N   UNL A   1      39.402  30.585  31.272  1.00  0.00    -0.248 NA
ATOM     38  C   UNL A   1      37.944  30.803  29.464  1.00  0.00     0.031 C 
ATOM     39  C   UNL A   1      37.280  33.917  33.366  1.00  0.00     0.029 A 
ATOM     40  N   UNL A   1      38.970  32.459  33.493  1.00  0.00    -0.354 N 
ATOM     41  C   UNL A   1      39.678  29.593  30.338  1.00  0.00     0.074 A 
ATOM     42  C   UNL A   1      38.711  29.740  29.272  1.00  0.00     0.031 C 
ATOM     43  C   UNL A   1      37.867  34.086  34.562  1.00  0.00     0.029 A 
ATOM     44  C   UNL A   1      38.957  33.125  34.696  1.00  0.00     0.049 A 
ATOM     45  H   UNL A   1      39.627  31.760  33.270  1.00  0.00     0.167 HD
ATOM     46  C   UNL A   1      40.660  28.661  30.352  1.00  0.00     0.034 A 
ATOM     47  C   UNL A   1      39.728  32.971  35.791  1.00  0.00     0.034 A 
ATOM     48  C   UNL A   1      41.638  28.541  31.400  1.00  0.00     0.049 A 
ATOM     49  C   UNL A   1      40.829  31.947  35.769  1.00  0.00     0.074 A 
ATOM     50  C   UNL A   1      42.725  27.688  31.468  1.00  0.00     0.029 A 
ATOM     51  N   UNL A   1      41.639  29.284  32.570  1.00  0.00    -0.354 N 
ATOM     52  N   UNL A   1      41.169  31.122  34.808  1.00  0.00    -0.248 NA
ATOM     53  C   UNL A   1      41.676  31.857  36.967  1.00  0.00     0.031 C 
ATOM     54  C   UNL A   1      43.363  27.890  32.696  1.00  0.00     0.029 A 
ATOM     55  C   UNL A   1      42.699  28.900  33.374  1.00  0.00     0.049 A 
ATOM     56  H   UNL A   1      40.984  29.983  32.796  1.00  0.00     0.167 HD
ATOM     57  C   UNL A   1      42.292  30.443  35.269  1.00  0.00     0.074 A 
ATOM     58  C   UNL A   1      42.585  30.969  36.587  1.00  0.00     0.031 C 
ATOM     59  C   UNL A   1      43.008  29.465  34.662  1.00  0.00     0.034 A 
BRANCH  46  60
ATOM     60  C   UNL A   1      40.752  27.719  29.179  1.00  0.00     0.023 A 
ATOM     61  C   UNL A   1      39.933  26.571  29.137  1.00  0.00     0.012 A 
ATOM     62  C   UNL A   1      41.602  27.998  28.091  1.00  0.00     0.148 A 
ATOM     63  C   UNL A   1      39.988  25.696  28.053  1.00  0.00     0.002 A 
ATOM     64  C   UNL A   1      41.616  27.148  26.991  1.00  0.00     0.091 A 
ATOM     65  F   UNL A   1      42.387  29.083  28.155  1.00  0.00    -0.205 F 
ATOM     66  C   UNL A   1      40.821  25.990  26.976  1.00  0.00     0.022 A 
BRANCH  64  67
ATOM     67  S   UNL A   1      42.589  27.480  25.519  1.00  0.00     0.127 S 
ATOM     68  O   UNL A   1      43.942  27.544  26.068  1.00  0.00    -0.237 OA
ATOM     69  O   UNL A   1      42.319  26.297  24.700  1.00  0.00    -0.237 OA
ATOM     70  O   UNL A   1      42.078  28.729  24.971  1.00  0.00    -0.744 OA
ENDBRANCH  64  67
ENDBRANCH  46  60
BRANCH  47  71
ATOM     71  C   UNL A   1      39.518  33.846  36.980  1.00  0.00     0.023 A 
ATOM     72  C   UNL A   1      39.935  35.190  36.936  1.00  0.00     0.012 A 
ATOM     73  C   UNL A   1      38.890  33.359  38.143  1.00  0.00     0.148 A 
ATOM     74  C   UNL A   1      39.765  36.024  38.041  1.00  0.00     0.002 A 
ATOM     75  C   UNL A   1      38.670  34.211  39.219  1.00  0.00     0.091 A 
ATOM     76  F   UNL A   1      38.507  32.074  38.167  1.00  0.00    -0.205 F 
ATOM     77  C   UNL A   1      39.126  35.538  39.178  1.00  0.00     0.022 A 
BRANCH  75  78
ATOM     78  S   UNL A   1      37.734  33.711  40.667  1.00  0.00     0.127 S 
ATOM     79  O   UNL A   1      36.518  33.172  40.065  1.00  0.00    -0.237 OA
ATOM     80  O   UNL A   1      38.622  32.714  41.268  1.00  0.00    -0.237 OA
ATOM     81  O   UNL A   1      37.563  34.919  41.463  1.00  0.00    -0.744 OA
ENDBRANCH  75  78
ENDBRANCH  47  71
BRANCH  59  82
ATOM     82  C   UNL A   1      44.212  28.927  35.391  1.00  0.00     0.023 A 
ATOM     83  C   UNL A   1      45.474  29.528  35.212  1.00  0.00     0.012 A 
ATOM     84  C   UNL A   1      44.075  27.867  36.309  1.00  0.00     0.148 A 
ATOM     85  C   UNL A   1      46.588  29.058  35.907  1.00  0.00     0.002 A 
ATOM     86  C   UNL A   1      45.178  27.440  37.038  1.00  0.00     0.091 A 
ATOM     87  F   UNL A   1      42.870  27.297  36.453  1.00  0.00    -0.205 F 
ATOM     88  C   UNL A   1      46.437  28.023  36.828  1.00  0.00     0.022 A 
BRANCH  86  89
ATOM     89  S   UNL A   1      45.059  26.183  38.316  1.00  0.00     0.127 S 
ATOM     90  O   UNL A   1      44.310  26.886  39.357  1.00  0.00    -0.237 OA
ATOM     91  O   UNL A   1      44.315  25.122  37.638  1.00  0.00    -0.237 OA
ATOM     92  O   UNL A   1      46.429  25.832  38.665  1.00  0.00    -0.744 OA
ENDBRANCH  86  89
ENDBRANCH  59  82
ENDBRANCH  33  34
ENDBRANCH  25  28
ENDBRANCH  23  24
ENDBRANCH  22  23
ENDBRANCH   1  22
TORSDOF 18
ENDMDL
MODEL 2
REMARK VINA RESULT:     -11.0      5.626     10.712
REMARK SMILES CN(CC(C)(C)O)S(=O)(=O)c1ccc(C(=O)NCCCNC(=O)c2ccc(-c3c4nc(c(-c5cccc(S(=O)(=O)[O-])c5F)c5ccc([nH]5)c(-c5cccc(S(=O)(=O)[O-])c5F)c5nc(c(-c6cccc(S(=O)(=O)[O-])c6F)c6ccc3[nH]6)C=C5)C=C4)cc2)s1
REMARK SMILES IDX 18 1 17 2 15 3 16 4 14 6 11 7 12 8 87 9 13 10 8 11 9 12
REMARK SMILES IDX 10 13 2 14 1 15 3 16 4 17 5 18 6 19 7 20 19 22 20 23 21 24
REMARK SMILES IDX 22 25 23 27 24 28 25 29 86 30 26 31 85 32 27 33 28 34 29 35
REMARK SMILES IDX 79 36 30 37 84 38 78 39 80 40 31 41 83 42 77 43 76 44 32 46
REMARK SMILES IDX 64 47 44 48 63 49 45 50 48 51 62 52 81 53 46 54 47 55 61 57
REMARK SMILES IDX 82 58 49 59 33 60 34 61 42 62 35 63 37 64 43 65 36 66 38 67
REMARK SMILES IDX 39 68 40 69 41 70 65 71 66 72 74 73 67 74 69 75 75 76 68 77
REMARK SMILES IDX 70 78 71 79 72 80 73 81 50 82 51 83 59 84 52 85 54 86 60 87
REMARK SMILES IDX 53 88 55 89 56 90 57 91 58 92
REMARK H PARENT 17 5 7 21 21 26 80 45 48 56
REMARK Flexibility Score: inf
ROOT
ATOM      1  C   UNL A   1      34.059  21.974  24.170  1.00  0.00     0.118 C 
ENDROOT
BRANCH   1   2
ATOM      2  N   UNL A   1      33.277  22.274  25.353  1.00  0.00    -0.351 N 
ATOM      3  C   UNL A   1      32.687  23.433  25.796  1.00  0.00     0.261 C 
ATOM      4  O   UNL A   1      31.953  23.300  26.779  1.00  0.00    -0.268 OA
ATOM      5  H   UNL A   1      33.145  21.503  25.951  1.00  0.00     0.163 HD
BRANCH   3   6
ATOM      6  C   UNL A   1      32.916  24.715  25.137  1.00  0.00     0.093 A 
ATOM      7  C   UNL A   1      32.479  26.800  23.843  1.00  0.00     0.135 A 
ATOM      8  C   UNL A   1      33.732  26.789  24.420  1.00  0.00     0.034 A 
ATOM      9  S   UNL A   1      31.646  25.345  24.144  1.00  0.00    -0.117 S 
ATOM     10  C   UNL A   1      33.972  25.608  25.178  1.00  0.00     0.027 A 
BRANCH   7  11
ATOM     11  S   UNL A   1      31.640  28.054  22.900  1.00  0.00     0.252 S 
ATOM     12  O   UNL A   1      30.834  27.309  21.961  1.00  0.00    -0.206 OA
ATOM     13  O   UNL A   1      32.665  28.961  22.417  1.00  0.00    -0.206 OA
BRANCH  11  14
ATOM     14  N   UNL A   1      30.599  28.941  23.891  1.00  0.00    -0.197 NA
ATOM     15  C   UNL A   1      31.284  29.830  24.845  1.00  0.00     0.124 C 
BRANCH  14  16
ATOM     16  C   UNL A   1      29.269  29.410  23.422  1.00  0.00     0.136 C 
BRANCH  16  17
ATOM     17  C   UNL A   1      29.206  30.409  22.236  1.00  0.00     0.073 C 
ATOM     18  C   UNL A   1      28.081  30.127  21.243  1.00  0.00     0.043 C 
ATOM     19  C   UNL A   1      28.994  31.819  22.813  1.00  0.00     0.043 C 
BRANCH  17  20
ATOM     20  O   UNL A   1      30.460  30.449  21.543  1.00  0.00    -0.389 OA
ATOM     21  H   UNL A   1      31.185  30.462  22.188  1.00  0.00     0.211 HD
ENDBRANCH  17  20
ENDBRANCH  16  17
ENDBRANCH  14  16
ENDBRANCH  11  14
ENDBRANCH   7  11
ENDBRANCH   3   6
ENDBRANCH   1   2
BRANCH   1  22
ATOM     22  C   UNL A   1      35.528  22.352  24.340  1.00  0.00     0.042 C 
BRANCH  22  23
ATOM     23  C   UNL A   1      36.074  22.070  25.739  1.00  0.00     0.118 C 
BRANCH  23  24
ATOM     24  N   UNL A   1      37.078  21.013  25.734  1.00  0.00    -0.352 N 
ATOM     25  C   UNL A   1      38.441  21.079  25.869  1.00  0.00     0.251 C 
ATOM     26  H   UNL A   1      36.719  20.103  25.614  1.00  0.00     0.163 HD
ATOM     27  O   UNL A   1      39.119  20.094  25.587  1.00  0.00    -0.269 OA
BRANCH  25  28
ATOM     28  C   UNL A   1      39.096  22.316  26.349  1.00  0.00     0.039 A 
ATOM     29  C   UNL A   1      40.148  22.212  27.264  1.00  0.00     0.014 A 
ATOM     30  C   UNL A   1      38.647  23.573  25.940  1.00  0.00     0.014 A 
ATOM     31  C   UNL A   1      40.781  23.367  27.726  1.00  0.00     0.010 A 
ATOM     32  C   UNL A   1      39.332  24.718  26.338  1.00  0.00     0.010 A 
ATOM     33  C   UNL A   1      40.399  24.630  27.242  1.00  0.00    -0.014 A 
BRANCH  33  34
ATOM     34  C   UNL A   1      41.110  25.864  27.663  1.00  0.00     0.031 A 
ATOM     35  C   UNL A   1      40.379  26.949  28.407  1.00  0.00     0.074 A 
ATOM     36  C   UNL A   1      42.396  26.042  27.301  1.00  0.00     0.049 A 
ATOM     37  N   UNL A   1      40.817  28.114  28.806  1.00  0.00    -0.248 NA
ATOM     38  C   UNL A   1      38.960  26.704  28.724  1.00  0.00     0.031 C 
ATOM     39  C   UNL A   1      43.190  25.097  26.512  1.00  0.00     0.029 A 
ATOM     40  N   UNL A   1      43.253  27.091  27.522  1.00  0.00    -0.354 N 
ATOM     41  C   UNL A   1      39.728  28.756  29.383  1.00  0.00     0.074 A 
ATOM     42  C   UNL A   1      38.597  27.863  29.253  1.00  0.00     0.031 C 
ATOM     43  C   UNL A   1      44.418  25.605  26.322  1.00  0.00     0.029 A 
ATOM     44  C   UNL A   1      44.488  26.925  26.940  1.00  0.00     0.049 A 
ATOM     45  H   UNL A   1      43.007  27.886  28.048  1.00  0.00     0.167 HD
ATOM     46  C   UNL A   1      39.677  29.965  29.989  1.00  0.00     0.034 A 
ATOM     47  C   UNL A   1      45.554  27.749  26.896  1.00  0.00     0.034 A 
ATOM     48  C   UNL A   1      40.813  30.834  30.144  1.00  0.00     0.049 A 
ATOM     49  C   UNL A   1      45.479  29.075  27.601  1.00  0.00     0.074 A 
ATOM     50  C   UNL A   1      40.887  32.041  30.817  1.00  0.00     0.029 A 
ATOM     51  N   UNL A   1      42.068  30.599  29.607  1.00  0.00    -0.354 N 
ATOM     52  N   UNL A   1      44.483  29.595  28.276  1.00  0.00    -0.248 NA
ATOM     53  C   UNL A   1      46.687  29.912  27.570  1.00  0.00     0.031 C 
ATOM     54  C   UNL A   1      42.178  32.553  30.656  1.00  0.00     0.029 A 
ATOM     55  C   UNL A   1      42.921  31.644  29.919  1.00  0.00     0.049 A 
ATOM     56  H   UNL A   1      42.317  29.805  29.080  1.00  0.00     0.167 HD
ATOM     57  C   UNL A   1      44.955  30.801  28.783  1.00  0.00     0.074 A 
ATOM     58  C   UNL A   1      46.334  30.922  28.353  1.00  0.00     0.031 C 
ATOM     59  C   UNL A   1      44.304  31.729  29.525  1.00  0.00     0.034 A 
BRANCH  46  60
ATOM     60  C   UNL A   1      38.356  30.407  30.568  1.00  0.00     0.023 A 
ATOM     61  C   UNL A   1      38.031  30.078  31.900  1.00  0.00     0.012 A 
ATOM     62  C   UNL A   1      37.465  31.197  29.816  1.00  0.00     0.148 A 
ATOM     63  C   UNL A   1      36.823  30.493  32.462  1.00  0.00     0.002 A 
ATOM     64  C   UNL A   1      36.286  31.648  30.397  1.00  0.00     0.091 A 
ATOM     65  F   UNL A   1      37.781  31.485  28.546  1.00  0.00    -0.205 F 
ATOM     66  C   UNL A   1      35.957  31.286  31.714  1.00  0.00     0.022 A 
BRANCH  64  67
ATOM     67  S   UNL A   1      35.142  32.744  29.550  1.00  0.00     0.127 S 
ATOM     68  O   UNL A   1      34.175  33.035  30.608  1.00  0.00    -0.237 OA
ATOM     69  O   UNL A   1      36.006  33.867  29.188  1.00  0.00    -0.237 OA
ATOM     70  O   UNL A   1      34.621  31.987  28.421  1.00  0.00    -0.744 OA
ENDBRANCH  64  67
ENDBRANCH  46  60
BRANCH  47  71
ATOM     71  C   UNL A   1      46.802  27.318  26.203  1.00  0.00     0.023 A 
ATOM     72  C   UNL A   1      46.985  27.635  24.843  1.00  0.00     0.012 A 
ATOM     73  C   UNL A   1      47.813  26.617  26.887  1.00  0.00     0.148 A 
ATOM     74  C   UNL A   1      48.136  27.229  24.167  1.00  0.00     0.002 A 
ATOM     75  C   UNL A   1      48.983  26.267  26.223  1.00  0.00     0.091 A 
ATOM     76  F   UNL A   1      47.616  26.319  28.179  1.00  0.00    -0.205 F 
ATOM     77  C   UNL A   1      49.138  26.554  24.858  1.00  0.00     0.022 A 
BRANCH  75  78
ATOM     78  S   UNL A   1      50.381  25.519  27.065  1.00  0.00     0.127 S 
ATOM     79  O   UNL A   1      49.800  24.272  27.559  1.00  0.00    -0.237 OA
ATOM     80  O   UNL A   1      51.341  25.362  25.972  1.00  0.00    -0.237 OA
ATOM     81  O   UNL A   1      50.785  26.474  28.086  1.00  0.00    -0.744 OA
ENDBRANCH  75  78
ENDBRANCH  47  71
BRANCH  59  82
ATOM     82  C   UNL A   1      45.083  32.940  29.969  1.00  0.00     0.023 A 
ATOM     83  C   UNL A   1      45.827  32.905  31.165  1.00  0.00     0.012 A 
ATOM     84  C   UNL A   1      45.132  34.093  29.159  1.00  0.00     0.148 A 
ATOM     85  C   UNL A   1      46.577  34.009  31.566  1.00  0.00     0.002 A 
ATOM     86  C   UNL A   1      45.924  35.169  29.538  1.00  0.00     0.091 A 
ATOM     87  F   UNL A   1      44.404  34.114  28.033  1.00  0.00    -0.205 F 
ATOM     88  C   UNL A   1      46.635  35.136  30.748  1.00  0.00     0.022 A 
BRANCH  86  89
ATOM     89  S   UNL A   1      46.140  36.619  28.500  1.00  0.00     0.127 S 
ATOM     90  O   UNL A   1      46.848  36.060  27.350  1.00  0.00    -0.237 OA
ATOM     91  O   UNL A   1      44.757  37.015  28.232  1.00  0.00    -0.237 OA
ATOM     92  O   UNL A   1      46.899  37.574  29.295  1.00  0.00    -0.744 OA
ENDBRANCH  86  89
ENDBRANCH  59  82
ENDBRANCH  33  34
ENDBRANCH  25  28
ENDBRANCH  23  24
ENDBRANCH  22  23
ENDBRANCH   1  22
TORSDOF 18
ENDMDL
MODEL 3
REMARK VINA RESULT:     -11.0      2.157      2.934
REMARK SMILES CN(CC(C)(C)O)S(=O)(=O)c1ccc(C(=O)NCCCNC(=O)c2ccc(-c3c4nc(c(-c5cccc(S(=O)(=O)[O-])c5F)c5ccc([nH]5)c(-c5cccc(S(=O)(=O)[O-])c5F)c5nc(c(-c6cccc(S(=O)(=O)[O-])c6F)c6ccc3[nH]6)C=C5)C=C4)cc2)s1
REMARK SMILES IDX 18 1 17 2 15 3 16 4 14 6 11 7 12 8 87 9 13 10 8 11 9 12
REMARK SMILES IDX 10 13 2 14 1 15 3 16 4 17 5 18 6 19 7 20 19 22 20 23 21 24
REMARK SMILES IDX 22 25 23 27 24 28 25 29 86 30 26 31 85 32 27 33 28 34 29 35
REMARK SMILES IDX 79 36 30 37 84 38 78 39 80 40 31 41 83 42 77 43 76 44 32 46
REMARK SMILES IDX 64 47 44 48 63 49 45 50 48 51 62 52 81 53 46 54 47 55 61 57
REMARK SMILES IDX 82 58 49 59 33 60 34 61 42 62 35 63 37 64 43 65 36 66 38 67
REMARK SMILES IDX 39 68 40 69 41 70 65 71 66 72 74 73 67 74 69 75 75 76 68 77
REMARK SMILES IDX 70 78 71 79 72 80 73 81 50 82 51 83 59 84 52 85 54 86 60 87
REMARK SMILES IDX 53 88 55 89 56 90 57 91 58 92
REMARK H PARENT 17 5 7 21 21 26 80 45 48 56
REMARK Flexibility Score: inf
ROOT
ATOM      1  C   UNL A   1      32.513  29.193  24.453  1.00  0.00     0.118 C 
ENDROOT
BRANCH   1   2
ATOM      2  N   UNL A   1      31.697  29.310  23.261  1.00  0.00    -0.351 N 
ATOM      3  C   UNL A   1      30.945  28.393  22.567  1.00  0.00     0.261 C 
ATOM      4  O   UNL A   1      30.239  28.869  21.674  1.00  0.00    -0.268 OA
ATOM      5  H   UNL A   1      31.678  30.217  22.877  1.00  0.00     0.163 HD
BRANCH   3   6
ATOM      6  C   UNL A   1      30.985  26.968  22.881  1.00  0.00     0.093 A 
ATOM      7  C   UNL A   1      31.797  24.615  23.010  1.00  0.00     0.135 A 
ATOM      8  C   UNL A   1      30.668  24.827  23.774  1.00  0.00     0.034 A 
ATOM      9  S   UNL A   1      32.244  26.023  22.161  1.00  0.00    -0.117 S 
ATOM     10  C   UNL A   1      30.218  26.176  23.718  1.00  0.00     0.027 A 
BRANCH   7  11
ATOM     11  S   UNL A   1      32.816  23.170  22.811  1.00  0.00     0.252 S 
ATOM     12  O   UNL A   1      33.683  23.500  21.703  1.00  0.00    -0.206 OA
ATOM     13  O   UNL A   1      31.913  22.039  22.714  1.00  0.00    -0.206 OA
BRANCH  11  14
ATOM     14  N   UNL A   1      33.783  22.936  24.175  1.00  0.00    -0.197 NA
ATOM     15  C   UNL A   1      33.061  23.047  25.455  1.00  0.00     0.124 C 
BRANCH  14  16
ATOM     16  C   UNL A   1      34.941  22.005  24.174  1.00  0.00     0.136 C 
BRANCH  16  17
ATOM     17  C   UNL A   1      36.370  22.592  24.019  1.00  0.00     0.073 C 
ATOM     18  C   UNL A   1      36.664  23.770  24.945  1.00  0.00     0.043 C 
ATOM     19  C   UNL A   1      37.380  21.474  24.330  1.00  0.00     0.043 C 
BRANCH  17  20
ATOM     20  O   UNL A   1      36.612  22.977  22.660  1.00  0.00    -0.389 OA
ATOM     21  H   UNL A   1      37.303  22.411  22.282  1.00  0.00     0.211 HD
ENDBRANCH  17  20
ENDBRANCH  16  17
ENDBRANCH  14  16
ENDBRANCH  11  14
ENDBRANCH   7  11
ENDBRANCH   3   6
ENDBRANCH   1   2
BRANCH   1  22
ATOM     22  C   UNL A   1      31.677  29.233  25.729  1.00  0.00     0.042 C 
BRANCH  22  23
ATOM     23  C   UNL A   1      32.402  29.869  26.915  1.00  0.00     0.118 C 
BRANCH  23  24
ATOM     24  N   UNL A   1      32.434  31.325  26.822  1.00  0.00    -0.352 N 
ATOM     25  C   UNL A   1      33.291  32.234  27.387  1.00  0.00     0.251 C 
ATOM     26  H   UNL A   1      31.725  31.718  26.263  1.00  0.00     0.163 HD
ATOM     27  O   UNL A   1      32.988  33.425  27.379  1.00  0.00    -0.269 OA
BRANCH  25  28
ATOM     28  C   UNL A   1      34.565  31.797  27.997  1.00  0.00     0.039 A 
ATOM     29  C   UNL A   1      35.613  32.717  28.108  1.00  0.00     0.014 A 
ATOM     30  C   UNL A   1      34.747  30.477  28.415  1.00  0.00     0.014 A 
ATOM     31  C   UNL A   1      36.822  32.324  28.684  1.00  0.00     0.010 A 
ATOM     32  C   UNL A   1      35.923  30.110  29.063  1.00  0.00     0.010 A 
ATOM     33  C   UNL A   1      36.977  31.025  29.196  1.00  0.00    -0.014 A 
BRANCH  33  34
ATOM     34  C   UNL A   1      38.228  30.611  29.881  1.00  0.00     0.031 A 
ATOM     35  C   UNL A   1      39.166  29.630  29.230  1.00  0.00     0.074 A 
ATOM     36  C   UNL A   1      38.478  31.058  31.128  1.00  0.00     0.049 A 
ATOM     37  N   UNL A   1      40.271  29.112  29.697  1.00  0.00    -0.248 NA
ATOM     38  C   UNL A   1      38.800  29.146  27.887  1.00  0.00     0.031 C 
ATOM     39  C   UNL A   1      37.607  31.951  31.896  1.00  0.00     0.029 A 
ATOM     40  N   UNL A   1      39.521  30.800  31.982  1.00  0.00    -0.354 N 
ATOM     41  C   UNL A   1      40.713  28.218  28.729  1.00  0.00     0.074 A 
ATOM     42  C   UNL A   1      39.738  28.238  27.662  1.00  0.00     0.031 C 
ATOM     43  C   UNL A   1      38.154  32.172  33.101  1.00  0.00     0.029 A 
ATOM     44  C   UNL A   1      39.392  31.408  33.209  1.00  0.00     0.049 A 
ATOM     45  H   UNL A   1      40.288  30.233  31.739  1.00  0.00     0.167 HD
ATOM     46  C   UNL A   1      41.840  27.468  28.717  1.00  0.00     0.034 A 
ATOM     47  C   UNL A   1      40.176  31.347  34.304  1.00  0.00     0.034 A 
ATOM     48  C   UNL A   1      42.823  27.477  29.768  1.00  0.00     0.049 A 
ATOM     49  C   UNL A   1      41.436  30.527  34.253  1.00  0.00     0.074 A 
ATOM     50  C   UNL A   1      44.039  26.820  29.813  1.00  0.00     0.029 A 
ATOM     51  N   UNL A   1      42.695  28.164  30.964  1.00  0.00    -0.354 N 
ATOM     52  N   UNL A   1      41.914  29.809  33.265  1.00  0.00    -0.248 NA
ATOM     53  C   UNL A   1      42.284  30.537  35.453  1.00  0.00     0.031 C 
ATOM     54  C   UNL A   1      44.631  27.081  31.052  1.00  0.00     0.029 A 
ATOM     55  C   UNL A   1      43.804  27.937  31.762  1.00  0.00     0.049 A 
ATOM     56  H   UNL A   1      41.930  28.732  31.210  1.00  0.00     0.167 HD
ATOM     57  C   UNL A   1      43.135  29.315  33.710  1.00  0.00     0.074 A 
ATOM     58  C   UNL A   1      43.332  29.833  35.049  1.00  0.00     0.031 C 
ATOM     59  C   UNL A   1      44.009  28.497  33.073  1.00  0.00     0.034 A 
BRANCH  46  60
ATOM     60  C   UNL A   1      42.094  26.600  27.510  1.00  0.00     0.023 A 
ATOM     61  C   UNL A   1      42.742  27.143  26.381  1.00  0.00     0.012 A 
ATOM     62  C   UNL A   1      41.747  25.235  27.515  1.00  0.00     0.148 A 
ATOM     63  C   UNL A   1      43.004  26.354  25.262  1.00  0.00     0.002 A 
ATOM     64  C   UNL A   1      42.055  24.442  26.415  1.00  0.00     0.091 A 
ATOM     65  F   UNL A   1      41.115  24.739  28.588  1.00  0.00    -0.205 F 
ATOM     66  C   UNL A   1      42.671  25.002  25.283  1.00  0.00     0.022 A 
BRANCH  64  67
ATOM     67  S   UNL A   1      41.744  22.674  26.374  1.00  0.00     0.127 S 
ATOM     68  O   UNL A   1      40.291  22.634  26.220  1.00  0.00    -0.237 OA
ATOM     69  O   UNL A   1      42.495  22.258  25.189  1.00  0.00    -0.237 OA
ATOM     70  O   UNL A   1      42.253  22.147  27.633  1.00  0.00    -0.744 OA
ENDBRANCH  64  67
ENDBRANCH  46  60
BRANCH  47  71
ATOM     71  C   UNL A   1      39.818  32.127  35.522  1.00  0.00     0.023 A 
ATOM     72  C   UNL A   1      40.381  33.402  35.721  1.00  0.00     0.012 A 
ATOM     73  C   UNL A   1      38.908  31.622  36.471  1.00  0.00     0.148 A 
ATOM     74  C   UNL A   1      40.075  34.144  36.862  1.00  0.00     0.002 A 
ATOM     75  C   UNL A   1      38.561  32.392  37.575  1.00  0.00     0.091 A 
ATOM     76  F   UNL A   1      38.387  30.404  36.266  1.00  0.00    -0.205 F 
ATOM     77  C   UNL A   1      39.160  33.644  37.784  1.00  0.00     0.022 A 
BRANCH  75  78
ATOM     78  S   UNL A   1      37.290  31.889  38.740  1.00  0.00     0.127 S 
ATOM     79  O   UNL A   1      37.130  30.474  38.413  1.00  0.00    -0.237 OA
ATOM     80  O   UNL A   1      37.938  32.158  40.024  1.00  0.00    -0.237 OA
ATOM     81  O   UNL A   1      36.140  32.736  38.459  1.00  0.00    -0.744 OA
ENDBRANCH  75  78
ENDBRANCH  47  71
BRANCH  59  82
ATOM     82  C   UNL A   1      45.286  28.146  33.791  1.00  0.00     0.023 A 
ATOM     83  C   UNL A   1      46.417  28.979  33.673  1.00  0.00     0.012 A 
ATOM     84  C   UNL A   1      45.341  27.023  34.640  1.00  0.00     0.148 A 
ATOM     85  C   UNL A   1      47.592  28.679  34.360  1.00  0.00     0.002 A 
ATOM     86  C   UNL A   1      46.498  26.761  35.364  1.00  0.00     0.091 A 
ATOM     87  F   UNL A   1      44.261  26.233  34.726  1.00  0.00    -0.205 F 
ATOM     88  C   UNL A   1      47.629  27.578  35.213  1.00  0.00     0.022 A 
BRANCH  86  89
ATOM     89  S   UNL A   1      46.604  25.427  36.561  1.00  0.00     0.127 S 
ATOM     90  O   UNL A   1      45.674  25.879  37.595  1.00  0.00    -0.237 OA
ATOM     91  O   UNL A   1      46.141  24.277  35.783  1.00  0.00    -0.237 OA
ATOM     92  O   UNL A   1      48.001  25.359  36.967  1.00  0.00    -0.744 OA
ENDBRANCH  86  89
ENDBRANCH  59  82
ENDBRANCH  33  34
ENDBRANCH  25  28
ENDBRANCH  23  24
ENDBRANCH  22  23
ENDBRANCH   1  22
TORSDOF 18
ENDMDL
