MODEL 1
REMARK VINA RESULT:     -12.8      0.000      0.000
REMARK SMILES COc1ccc(-c2cc([C@@H]3CC[N@@H+](CC(=O)NCCCNC(=O)c4ccc(-c5c6nc(c(-c7cccc(S(=O)(=O)[O-])c7F)c7ccc([nH]7)c(-c7cccc(S(=O)(=O)[O-])c7F)c7nc(c(-c8cccc(S(=O)(=O)[O-])c8F)c8ccc5[nH]8)C=C7)C=C6)cc4)C3)ccn2)c2ccc(C)nc12
REMARK SMILES IDX 18 1 17 2 15 3 16 4 14 6 13 7 10 8 11 9 87 10 12 11 9 13
REMARK SMILES IDX 7 14 8 15 90 16 89 17 88 18 6 19 3 20 4 21 97 22 5 23 91 24
REMARK SMILES IDX 96 25 92 26 94 27 93 28 95 29 2 30 1 31 19 32 20 33 21 34
REMARK SMILES IDX 22 35 23 37 24 38 25 39 86 40 26 41 85 42 27 43 28 44 29 45
REMARK SMILES IDX 79 46 30 47 84 48 78 49 80 50 31 51 83 52 77 53 76 54 32 56
REMARK SMILES IDX 64 57 44 58 63 59 45 60 48 61 62 62 81 63 46 64 47 65 61 67
REMARK SMILES IDX 82 68 49 69 33 70 34 71 42 72 35 73 37 74 43 75 36 76 38 77
REMARK SMILES IDX 39 78 40 79 41 80 65 81 66 82 74 83 67 84 69 85 75 86 68 87
REMARK SMILES IDX 70 88 71 89 72 90 73 91 50 92 51 93 59 94 52 95 54 96 60 97
REMARK SMILES IDX 53 98 55 99 56 100 57 101 58 102
REMARK H PARENT 17 5 13 12 21 36 80 55 48 66
REMARK Flexibility Score: inf
ROOT
ATOM      1  C   UNL A   1      39.016  22.261  26.419  1.00  0.00     0.118 C 
ENDROOT
BRANCH   1   2
ATOM      2  N   UNL A   1      38.433  22.278  25.082  1.00  0.00    -0.351 N 
ATOM      3  C   UNL A   1      37.222  21.887  24.580  1.00  0.00     0.275 C 
ATOM      4  O   UNL A   1      37.043  22.053  23.369  1.00  0.00    -0.269 OA
ATOM      5  H   UNL A   1      39.036  22.651  24.399  1.00  0.00     0.163 HD
BRANCH   3   6
ATOM      6  C   UNL A   1      36.129  21.262  25.454  1.00  0.00     0.363 C 
BRANCH   6   7
ATOM      7  N   UNL A   1      35.080  22.188  25.944  1.00  0.00    -0.327 N 
ATOM      8  C   UNL A   1      32.869  22.318  24.887  1.00  0.00     0.080 C 
ATOM      9  C   UNL A   1      32.968  21.129  25.842  1.00  0.00     0.075 C 
ATOM     10  C   UNL A   1      34.302  22.907  24.910  1.00  0.00     0.271 C 
ATOM     11  C   UNL A   1      34.105  21.509  26.783  1.00  0.00     0.263 C 
ATOM     12  H   UNL A   1      35.634  22.873  26.457  1.00  0.00     0.348 HD
BRANCH   8  13
ATOM     13  C   UNL A   1      31.721  23.181  25.377  1.00  0.00    -0.035 A 
ATOM     14  C   UNL A   1      30.892  25.380  26.002  1.00  0.00     0.071 A 
ATOM     15  C   UNL A   1      31.794  24.573  25.309  1.00  0.00     0.033 A 
ATOM     16  N   UNL A   1      29.889  24.852  26.729  1.00  0.00    -0.256 NA
ATOM     17  C   UNL A   1      29.800  23.502  26.771  1.00  0.00     0.112 A 
ATOM     18  C   UNL A   1      30.675  22.638  26.124  1.00  0.00     0.024 A 
BRANCH  14  19
ATOM     19  C   UNL A   1      31.079  26.845  26.011  1.00  0.00     0.010 A 
ATOM     20  C   UNL A   1      31.772  29.550  25.884  1.00  0.00     0.145 A 
ATOM     21  C   UNL A   1      32.194  28.778  26.967  1.00  0.00     0.049 A 
ATOM     22  C   UNL A   1      31.008  29.017  24.835  1.00  0.00     0.113 A 
ATOM     23  C   UNL A   1      31.847  27.433  27.031  1.00  0.00     0.015 A 
ATOM     24  C   UNL A   1      30.620  27.664  24.931  1.00  0.00     0.013 A 
ATOM     25  N   UNL A   1      30.660  29.777  23.762  1.00  0.00    -0.249 NA
ATOM     26  C   UNL A   1      29.774  27.178  23.908  1.00  0.00     0.013 A 
ATOM     27  C   UNL A   1      29.903  29.252  22.775  1.00  0.00     0.038 A 
ATOM     28  C   UNL A   1      29.423  27.961  22.822  1.00  0.00     0.024 A 
ATOM     29  C   UNL A   1      29.555  30.155  21.635  1.00  0.00     0.067 C 
BRANCH  20  30
ATOM     30  O   UNL A   1      32.185  30.867  25.887  1.00  0.00    -0.494 OA
ATOM     31  C   UNL A   1      31.364  31.640  26.762  1.00  0.00     0.278 C 
ENDBRANCH  20  30
ENDBRANCH  14  19
ENDBRANCH   8  13
ENDBRANCH   6   7
ENDBRANCH   3   6
ENDBRANCH   1   2
BRANCH   1  32
ATOM     32  C   UNL A   1      39.958  21.078  26.727  1.00  0.00     0.042 C 
BRANCH  32  33
ATOM     33  C   UNL A   1      39.860  19.861  25.806  1.00  0.00     0.118 C 
BRANCH  33  34
ATOM     34  N   UNL A   1      40.915  18.912  26.090  1.00  0.00    -0.352 N 
ATOM     35  C   UNL A   1      42.272  19.124  26.134  1.00  0.00     0.251 C 
ATOM     36  H   UNL A   1      40.620  17.992  26.277  1.00  0.00     0.163 HD
ATOM     37  O   UNL A   1      43.021  18.155  26.021  1.00  0.00    -0.269 OA
BRANCH  35  38
ATOM     38  C   UNL A   1      42.847  20.481  26.329  1.00  0.00     0.039 A 
ATOM     39  C   UNL A   1      42.891  21.004  27.626  1.00  0.00     0.014 A 
ATOM     40  C   UNL A   1      43.225  21.290  25.250  1.00  0.00     0.014 A 
ATOM     41  C   UNL A   1      43.305  22.324  27.843  1.00  0.00     0.010 A 
ATOM     42  C   UNL A   1      43.682  22.596  25.474  1.00  0.00     0.010 A 
ATOM     43  C   UNL A   1      43.703  23.136  26.770  1.00  0.00    -0.014 A 
BRANCH  43  44
ATOM     44  C   UNL A   1      44.129  24.545  27.002  1.00  0.00     0.031 A 
ATOM     45  C   UNL A   1      43.159  25.573  27.528  1.00  0.00     0.074 A 
ATOM     46  C   UNL A   1      45.392  24.918  26.711  1.00  0.00     0.049 A 
ATOM     47  N   UNL A   1      43.366  26.836  27.811  1.00  0.00    -0.248 NA
ATOM     48  C   UNL A   1      41.773  25.134  27.752  1.00  0.00     0.031 C 
ATOM     49  C   UNL A   1      46.417  24.043  26.139  1.00  0.00     0.029 A 
ATOM     50  N   UNL A   1      46.024  26.131  26.838  1.00  0.00    -0.354 N 
ATOM     51  C   UNL A   1      42.138  27.347  28.217  1.00  0.00     0.074 A 
ATOM     52  C   UNL A   1      41.184  26.262  28.119  1.00  0.00     0.031 C 
ATOM     53  C   UNL A   1      47.548  24.746  25.969  1.00  0.00     0.029 A 
ATOM     54  C   UNL A   1      47.327  26.124  26.397  1.00  0.00     0.049 A 
ATOM     55  H   UNL A   1      45.585  26.931  27.209  1.00  0.00     0.167 HD
ATOM     56  C   UNL A   1      41.834  28.594  28.651  1.00  0.00     0.034 A 
ATOM     57  C   UNL A   1      48.241  27.113  26.341  1.00  0.00     0.034 A 
ATOM     58  C   UNL A   1      42.789  29.663  28.789  1.00  0.00     0.049 A 
ATOM     59  C   UNL A   1      47.885  28.481  26.858  1.00  0.00     0.074 A 
ATOM     60  C   UNL A   1      42.593  30.931  29.311  1.00  0.00     0.029 A 
ATOM     61  N   UNL A   1      44.115  29.599  28.391  1.00  0.00    -0.354 N 
ATOM     62  N   UNL A   1      46.765  28.894  27.398  1.00  0.00    -0.248 NA
ATOM     63  C   UNL A   1      48.933  29.510  26.791  1.00  0.00     0.031 C 
ATOM     64  C   UNL A   1      43.794  31.641  29.206  1.00  0.00     0.029 A 
ATOM     65  C   UNL A   1      44.745  30.808  28.641  1.00  0.00     0.049 A 
ATOM     66  H   UNL A   1      44.547  28.811  27.991  1.00  0.00     0.167 HD
ATOM     67  C   UNL A   1      46.982  30.217  27.766  1.00  0.00     0.074 A 
ATOM     68  C   UNL A   1      48.352  30.529  27.411  1.00  0.00     0.031 C 
ATOM     69  C   UNL A   1      46.122  31.098  28.333  1.00  0.00     0.034 A 
BRANCH  56  70
ATOM     70  C   UNL A   1      40.411  28.869  29.068  1.00  0.00     0.023 A 
ATOM     71  C   UNL A   1      39.441  29.147  28.084  1.00  0.00     0.012 A 
ATOM     72  C   UNL A   1      40.017  28.774  30.418  1.00  0.00     0.148 A 
ATOM     73  C   UNL A   1      38.108  29.356  28.438  1.00  0.00     0.002 A 
ATOM     74  C   UNL A   1      38.679  28.942  30.759  1.00  0.00     0.091 A 
ATOM     75  F   UNL A   1      40.955  28.525  31.343  1.00  0.00    -0.205 F 
ATOM     76  C   UNL A   1      37.725  29.243  29.772  1.00  0.00     0.022 A 
BRANCH  74  77
ATOM     77  S   UNL A   1      38.072  28.741  32.439  1.00  0.00     0.127 S 
ATOM     78  O   UNL A   1      38.219  27.300  32.634  1.00  0.00    -0.237 OA
ATOM     79  O   UNL A   1      39.013  29.558  33.206  1.00  0.00    -0.237 OA
ATOM     80  O   UNL A   1      36.704  29.236  32.433  1.00  0.00    -0.744 OA
ENDBRANCH  74  77
ENDBRANCH  56  70
BRANCH  57  81
ATOM     81  C   UNL A   1      49.613  26.827  25.833  1.00  0.00     0.023 A 
ATOM     82  C   UNL A   1      50.534  26.158  26.663  1.00  0.00     0.012 A 
ATOM     83  C   UNL A   1      50.003  27.188  24.529  1.00  0.00     0.148 A 
ATOM     84  C   UNL A   1      51.826  25.882  26.216  1.00  0.00     0.002 A 
ATOM     85  C   UNL A   1      51.273  26.857  24.069  1.00  0.00     0.091 A 
ATOM     86  F   UNL A   1      49.121  27.842  23.761  1.00  0.00    -0.205 F 
ATOM     87  C   UNL A   1      52.191  26.220  24.917  1.00  0.00     0.022 A 
BRANCH  85  88
ATOM     88  S   UNL A   1      51.773  27.127  22.366  1.00  0.00     0.127 S 
ATOM     89  O   UNL A   1      52.900  26.211  22.235  1.00  0.00    -0.237 OA
ATOM     90  O   UNL A   1      50.570  26.738  21.630  1.00  0.00    -0.237 OA
ATOM     91  O   UNL A   1      52.087  28.548  22.277  1.00  0.00    -0.744 OA
ENDBRANCH  85  88
ENDBRANCH  57  81
BRANCH  69  92
ATOM     92  C   UNL A   1      46.635  32.484  28.631  1.00  0.00     0.023 A 
ATOM     93  C   UNL A   1      47.266  32.746  29.864  1.00  0.00     0.012 A 
ATOM     94  C   UNL A   1      46.548  33.510  27.669  1.00  0.00     0.148 A 
ATOM     95  C   UNL A   1      47.768  34.016  30.149  1.00  0.00     0.002 A 
ATOM     96  C   UNL A   1      47.094  34.760  27.942  1.00  0.00     0.091 A 
ATOM     97  F   UNL A   1      45.927  33.250  26.509  1.00  0.00    -0.205 F 
ATOM     98  C   UNL A   1      47.692  35.018  29.186  1.00  0.00     0.022 A 
BRANCH  96  99
ATOM     99  S   UNL A   1      47.124  36.082  26.724  1.00  0.00     0.127 S 
ATOM    100  O   UNL A   1      47.817  35.442  25.608  1.00  0.00    -0.237 OA
ATOM    101  O   UNL A   1      45.701  36.330  26.497  1.00  0.00    -0.237 OA
ATOM    102  O   UNL A   1      47.835  37.187  27.353  1.00  0.00    -0.744 OA
ENDBRANCH  96  99
ENDBRANCH  69  92
ENDBRANCH  43  44
ENDBRANCH  35  38
ENDBRANCH  33  34
ENDBRANCH  32  33
ENDBRANCH   1  32
TORSDOF 17
ENDMDL
MODEL 2
REMARK VINA RESULT:     -12.1      2.298      3.340
REMARK SMILES COc1ccc(-c2cc([C@@H]3CC[N@@H+](CC(=O)NCCCNC(=O)c4ccc(-c5c6nc(c(-c7cccc(S(=O)(=O)[O-])c7F)c7ccc([nH]7)c(-c7cccc(S(=O)(=O)[O-])c7F)c7nc(c(-c8cccc(S(=O)(=O)[O-])c8F)c8ccc5[nH]8)C=C7)C=C6)cc4)C3)ccn2)c2ccc(C)nc12
REMARK SMILES IDX 18 1 17 2 15 3 16 4 14 6 13 7 10 8 11 9 87 10 12 11 9 13
REMARK SMILES IDX 7 14 8 15 90 16 89 17 88 18 6 19 3 20 4 21 97 22 5 23 91 24
REMARK SMILES IDX 96 25 92 26 94 27 93 28 95 29 2 30 1 31 19 32 20 33 21 34
REMARK SMILES IDX 22 35 23 37 24 38 25 39 86 40 26 41 85 42 27 43 28 44 29 45
REMARK SMILES IDX 79 46 30 47 84 48 78 49 80 50 31 51 83 52 77 53 76 54 32 56
REMARK SMILES IDX 64 57 44 58 63 59 45 60 48 61 62 62 81 63 46 64 47 65 61 67
REMARK SMILES IDX 82 68 49 69 33 70 34 71 42 72 35 73 37 74 43 75 36 76 38 77
REMARK SMILES IDX 39 78 40 79 41 80 65 81 66 82 74 83 67 84 69 85 75 86 68 87
REMARK SMILES IDX 70 88 71 89 72 90 73 91 50 92 51 93 59 94 52 95 54 96 60 97
REMARK SMILES IDX 53 98 55 99 56 100 57 101 58 102
REMARK H PARENT 17 5 13 12 21 36 80 55 48 66
REMARK Flexibility Score: inf
ROOT
ATOM      1  C   UNL A   1      34.969  20.708  25.675  1.00  0.00     0.118 C 
ENDROOT
BRANCH   1   2
ATOM      2  N   UNL A   1      34.018  19.607  25.569  1.00  0.00    -0.351 N 
ATOM      3  C   UNL A   1      32.685  19.542  25.269  1.00  0.00     0.275 C 
ATOM      4  O   UNL A   1      32.173  18.418  25.257  1.00  0.00    -0.269 OA
ATOM      5  H   UNL A   1      34.420  18.727  25.750  1.00  0.00     0.163 HD
BRANCH   3   6
ATOM      6  C   UNL A   1      31.844  20.788  24.969  1.00  0.00     0.363 C 
BRANCH   6   7
ATOM      7  N   UNL A   1      32.597  22.051  24.784  1.00  0.00    -0.327 N 
ATOM      8  C   UNL A   1      31.804  23.826  23.286  1.00  0.00     0.080 C 
ATOM      9  C   UNL A   1      31.088  23.867  24.636  1.00  0.00     0.075 C 
ATOM     10  C   UNL A   1      32.694  22.563  23.398  1.00  0.00     0.271 C 
ATOM     11  C   UNL A   1      32.039  23.137  25.577  1.00  0.00     0.263 C 
ATOM     12  H   UNL A   1      33.532  21.780  25.088  1.00  0.00     0.348 HD
BRANCH   8  13
ATOM     13  C   UNL A   1      32.475  25.175  23.105  1.00  0.00    -0.035 A 
ATOM     14  C   UNL A   1      32.547  27.549  23.627  1.00  0.00     0.071 A 
ATOM     15  C   UNL A   1      32.165  26.245  23.945  1.00  0.00     0.033 A 
ATOM     16  N   UNL A   1      33.267  27.822  22.522  1.00  0.00    -0.256 NA
ATOM     17  C   UNL A   1      33.593  26.780  21.723  1.00  0.00     0.112 A 
ATOM     18  C   UNL A   1      33.229  25.461  21.966  1.00  0.00     0.024 A 
BRANCH  14  19
ATOM     19  C   UNL A   1      32.090  28.671  24.471  1.00  0.00     0.010 A 
ATOM     20  C   UNL A   1      31.454  31.010  25.863  1.00  0.00     0.145 A 
ATOM     21  C   UNL A   1      32.601  30.291  26.206  1.00  0.00     0.049 A 
ATOM     22  C   UNL A   1      30.597  30.607  24.829  1.00  0.00     0.113 A 
ATOM     23  C   UNL A   1      32.915  29.127  25.514  1.00  0.00     0.015 A 
ATOM     24  C   UNL A   1      30.897  29.400  24.164  1.00  0.00     0.013 A 
ATOM     25  N   UNL A   1      29.519  31.359  24.477  1.00  0.00    -0.249 NA
ATOM     26  C   UNL A   1      29.967  28.971  23.189  1.00  0.00     0.013 A 
ATOM     27  C   UNL A   1      28.692  30.940  23.495  1.00  0.00     0.038 A 
ATOM     28  C   UNL A   1      28.870  29.741  22.841  1.00  0.00     0.024 A 
ATOM     29  C   UNL A   1      27.523  31.817  23.174  1.00  0.00     0.067 C 
BRANCH  20  30
ATOM     30  O   UNL A   1      31.234  32.167  26.582  1.00  0.00    -0.494 OA
ATOM     31  C   UNL A   1      32.378  32.480  27.378  1.00  0.00     0.278 C 
ENDBRANCH  20  30
ENDBRANCH  14  19
ENDBRANCH   8  13
ENDBRANCH   6   7
ENDBRANCH   3   6
ENDBRANCH   1   2
BRANCH   1  32
ATOM     32  C   UNL A   1      36.039  20.782  24.567  1.00  0.00     0.042 C 
BRANCH  32  33
ATOM     33  C   UNL A   1      37.398  21.366  24.957  1.00  0.00     0.118 C 
BRANCH  33  34
ATOM     34  N   UNL A   1      38.215  20.374  25.621  1.00  0.00    -0.352 N 
ATOM     35  C   UNL A   1      39.458  20.524  26.189  1.00  0.00     0.251 C 
ATOM     36  H   UNL A   1      37.828  19.470  25.675  1.00  0.00     0.163 HD
ATOM     37  O   UNL A   1      40.146  19.522  26.370  1.00  0.00    -0.269 OA
BRANCH  35  38
ATOM     38  C   UNL A   1      39.975  21.856  26.599  1.00  0.00     0.039 A 
ATOM     39  C   UNL A   1      39.437  22.995  25.990  1.00  0.00     0.014 A 
ATOM     40  C   UNL A   1      41.058  21.995  27.477  1.00  0.00     0.014 A 
ATOM     41  C   UNL A   1      39.979  24.259  26.250  1.00  0.00     0.010 A 
ATOM     42  C   UNL A   1      41.570  23.265  27.770  1.00  0.00     0.010 A 
ATOM     43  C   UNL A   1      41.053  24.410  27.142  1.00  0.00    -0.014 A 
BRANCH  43  44
ATOM     44  C   UNL A   1      41.638  25.755  27.406  1.00  0.00     0.031 A 
ATOM     45  C   UNL A   1      40.905  26.768  28.250  1.00  0.00     0.074 A 
ATOM     46  C   UNL A   1      42.825  26.087  26.860  1.00  0.00     0.049 A 
ATOM     47  N   UNL A   1      41.276  27.975  28.600  1.00  0.00    -0.248 NA
ATOM     48  C   UNL A   1      39.577  26.385  28.754  1.00  0.00     0.031 C 
ATOM     49  C   UNL A   1      43.612  25.228  25.974  1.00  0.00     0.029 A 
ATOM     50  N   UNL A   1      43.568  27.239  26.953  1.00  0.00    -0.354 N 
ATOM     51  C   UNL A   1      40.223  28.504  29.338  1.00  0.00     0.074 A 
ATOM     52  C   UNL A   1      39.185  27.495  29.364  1.00  0.00     0.031 C 
ATOM     53  C   UNL A   1      44.728  25.880  25.609  1.00  0.00     0.029 A 
ATOM     54  C   UNL A   1      44.728  27.209  26.214  1.00  0.00     0.049 A 
ATOM     55  H   UNL A   1      43.295  28.013  27.497  1.00  0.00     0.167 HD
ATOM     56  C   UNL A   1      40.133  29.707  29.956  1.00  0.00     0.034 A 
ATOM     57  C   UNL A   1      45.683  28.143  26.040  1.00  0.00     0.034 A 
ATOM     58  C   UNL A   1      41.179  30.696  29.967  1.00  0.00     0.049 A 
ATOM     59  C   UNL A   1      45.572  29.460  26.763  1.00  0.00     0.074 A 
ATOM     60  C   UNL A   1      41.216  31.903  30.646  1.00  0.00     0.029 A 
ATOM     61  N   UNL A   1      42.367  30.604  29.259  1.00  0.00    -0.354 N 
ATOM     62  N   UNL A   1      44.646  29.869  27.594  1.00  0.00    -0.248 NA
ATOM     63  C   UNL A   1      46.658  30.428  26.551  1.00  0.00     0.031 C 
ATOM     64  C   UNL A   1      42.415  32.551  30.329  1.00  0.00     0.029 A 
ATOM     65  C   UNL A   1      43.136  31.737  29.471  1.00  0.00     0.049 A 
ATOM     66  H   UNL A   1      42.627  29.844  28.690  1.00  0.00     0.167 HD
ATOM     67  C   UNL A   1      45.053  31.126  28.031  1.00  0.00     0.074 A 
ATOM     68  C   UNL A   1      46.323  31.399  27.390  1.00  0.00     0.031 C 
ATOM     69  C   UNL A   1      44.423  31.982  28.872  1.00  0.00     0.034 A 
BRANCH  56  70
ATOM     70  C   UNL A   1      38.873  30.012  30.727  1.00  0.00     0.023 A 
ATOM     71  C   UNL A   1      38.753  29.572  32.061  1.00  0.00     0.012 A 
ATOM     72  C   UNL A   1      37.847  30.798  30.164  1.00  0.00     0.148 A 
ATOM     73  C   UNL A   1      37.619  29.883  32.813  1.00  0.00     0.002 A 
ATOM     74  C   UNL A   1      36.740  31.139  30.933  1.00  0.00     0.091 A 
ATOM     75  F   UNL A   1      37.970  31.193  28.889  1.00  0.00    -0.205 F 
ATOM     76  C   UNL A   1      36.619  30.675  32.254  1.00  0.00     0.022 A 
BRANCH  74  77
ATOM     77  S   UNL A   1      35.434  32.216  30.329  1.00  0.00     0.127 S 
ATOM     78  O   UNL A   1      34.520  32.238  31.470  1.00  0.00    -0.237 OA
ATOM     79  O   UNL A   1      36.151  33.471  30.098  1.00  0.00    -0.237 OA
ATOM     80  O   UNL A   1      34.916  31.583  29.125  1.00  0.00    -0.744 OA
ENDBRANCH  74  77
ENDBRANCH  56  70
BRANCH  57  81
ATOM     81  C   UNL A   1      46.871  27.841  25.192  1.00  0.00     0.023 A 
ATOM     82  C   UNL A   1      46.800  28.052  23.801  1.00  0.00     0.012 A 
ATOM     83  C   UNL A   1      48.074  27.373  25.753  1.00  0.00     0.148 A 
ATOM     84  C   UNL A   1      47.894  27.773  22.982  1.00  0.00     0.002 A 
ATOM     85  C   UNL A   1      49.179  27.153  24.939  1.00  0.00     0.091 A 
ATOM     86  F   UNL A   1      48.116  27.159  27.076  1.00  0.00    -0.205 F 
ATOM     87  C   UNL A   1      49.086  27.336  23.551  1.00  0.00     0.022 A 
BRANCH  85  88
ATOM     88  S   UNL A   1      50.791  26.729  25.608  1.00  0.00     0.127 S 
ATOM     89  O   UNL A   1      50.526  25.437  26.231  1.00  0.00    -0.237 OA
ATOM     90  O   UNL A   1      51.617  26.677  24.403  1.00  0.00    -0.237 OA
ATOM     91  O   UNL A   1      51.132  27.820  26.513  1.00  0.00    -0.744 OA
ENDBRANCH  85  88
ENDBRANCH  57  81
BRANCH  69  92
ATOM     92  C   UNL A   1      45.106  33.291  29.177  1.00  0.00     0.023 A 
ATOM     93  C   UNL A   1      45.942  33.398  30.306  1.00  0.00     0.012 A 
ATOM     94  C   UNL A   1      44.966  34.397  28.314  1.00  0.00     0.148 A 
ATOM     95  C   UNL A   1      46.601  34.595  30.591  1.00  0.00     0.002 A 
ATOM     96  C   UNL A   1      45.664  35.570  28.579  1.00  0.00     0.091 A 
ATOM     97  F   UNL A   1      44.151  34.285  27.255  1.00  0.00    -0.205 F 
ATOM     98  C   UNL A   1      46.470  35.675  29.723  1.00  0.00     0.022 A 
BRANCH  96  99
ATOM     99  S   UNL A   1      45.629  36.981  27.465  1.00  0.00     0.127 S 
ATOM    100  O   UNL A   1      46.525  37.917  28.142  1.00  0.00    -0.237 OA
ATOM    101  O   UNL A   1      46.163  36.414  26.226  1.00  0.00    -0.237 OA
ATOM    102  O   UNL A   1      44.235  37.393  27.387  1.00  0.00    -0.744 OA
ENDBRANCH  96  99
ENDBRANCH  69  92
ENDBRANCH  43  44
ENDBRANCH  35  38
ENDBRANCH  33  34
ENDBRANCH  32  33
ENDBRANCH   1  32
TORSDOF 17
ENDMDL
MODEL 3
REMARK VINA RESULT:     -12.1      2.599      7.814
REMARK SMILES COc1ccc(-c2cc([C@@H]3CC[N@@H+](CC(=O)NCCCNC(=O)c4ccc(-c5c6nc(c(-c7cccc(S(=O)(=O)[O-])c7F)c7ccc([nH]7)c(-c7cccc(S(=O)(=O)[O-])c7F)c7nc(c(-c8cccc(S(=O)(=O)[O-])c8F)c8ccc5[nH]8)C=C7)C=C6)cc4)C3)ccn2)c2ccc(C)nc12
REMARK SMILES IDX 18 1 17 2 15 3 16 4 14 6 13 7 10 8 11 9 87 10 12 11 9 13
REMARK SMILES IDX 7 14 8 15 90 16 89 17 88 18 6 19 3 20 4 21 97 22 5 23 91 24
REMARK SMILES IDX 96 25 92 26 94 27 93 28 95 29 2 30 1 31 19 32 20 33 21 34
REMARK SMILES IDX 22 35 23 37 24 38 25 39 86 40 26 41 85 42 27 43 28 44 29 45
REMARK SMILES IDX 79 46 30 47 84 48 78 49 80 50 31 51 83 52 77 53 76 54 32 56
REMARK SMILES IDX 64 57 44 58 63 59 45 60 48 61 62 62 81 63 46 64 47 65 61 67
REMARK SMILES IDX 82 68 49 69 33 70 34 71 42 72 35 73 37 74 43 75 36 76 38 77
REMARK SMILES IDX 39 78 40 79 41 80 65 81 66 82 74 83 67 84 69 85 75 86 68 87
REMARK SMILES IDX 70 88 71 89 72 90 73 91 50 92 51 93 59 94 52 95 54 96 60 97
REMARK SMILES IDX 53 98 55 99 56 100 57 101 58 102
REMARK H PARENT 17 5 13 12 21 36 80 55 48 66
REMARK Flexibility Score: inf
ROOT
ATOM      1  C   UNL A   1      35.335  20.741  25.392  1.00  0.00     0.118 C 
ENDROOT
BRANCH   1   2
ATOM      2  N   UNL A   1      34.373  19.644  25.347  1.00  0.00    -0.351 N 
ATOM      3  C   UNL A   1      33.022  19.587  25.145  1.00  0.00     0.275 C 
ATOM      4  O   UNL A   1      32.504  18.465  25.162  1.00  0.00    -0.269 OA
ATOM      5  H   UNL A   1      34.783  18.761  25.491  1.00  0.00     0.163 HD
BRANCH   3   6
ATOM      6  C   UNL A   1      32.167  20.839  24.918  1.00  0.00     0.363 C 
BRANCH   6   7
ATOM      7  N   UNL A   1      32.908  22.113  24.759  1.00  0.00    -0.327 N 
ATOM      8  C   UNL A   1      31.941  24.038  23.584  1.00  0.00     0.080 C 
ATOM      9  C   UNL A   1      31.427  23.938  25.020  1.00  0.00     0.075 C 
ATOM     10  C   UNL A   1      32.814  22.767  23.434  1.00  0.00     0.271 C 
ATOM     11  C   UNL A   1      32.490  23.110  25.732  1.00  0.00     0.263 C 
ATOM     12  H   UNL A   1      33.872  21.808  24.894  1.00  0.00     0.348 HD
BRANCH   8  13
ATOM     13  C   UNL A   1      32.604  25.396  23.448  1.00  0.00    -0.035 A 
ATOM     14  C   UNL A   1      32.604  27.771  23.970  1.00  0.00     0.071 A 
ATOM     15  C   UNL A   1      32.219  26.462  24.262  1.00  0.00     0.033 A 
ATOM     16  N   UNL A   1      33.396  28.054  22.919  1.00  0.00    -0.256 NA
ATOM     17  C   UNL A   1      33.794  27.016  22.147  1.00  0.00     0.112 A 
ATOM     18  C   UNL A   1      33.432  25.692  22.366  1.00  0.00     0.024 A 
BRANCH  14  19
ATOM     19  C   UNL A   1      32.071  28.888  24.777  1.00  0.00     0.010 A 
ATOM     20  C   UNL A   1      31.324  31.212  26.138  1.00  0.00     0.145 A 
ATOM     21  C   UNL A   1      32.394  30.449  26.608  1.00  0.00     0.049 A 
ATOM     22  C   UNL A   1      30.599  30.861  24.990  1.00  0.00     0.113 A 
ATOM     23  C   UNL A   1      32.764  29.292  25.931  1.00  0.00     0.015 A 
ATOM     24  C   UNL A   1      30.950  29.661  24.336  1.00  0.00     0.013 A 
ATOM     25  N   UNL A   1      29.599  31.654  24.521  1.00  0.00    -0.249 NA
ATOM     26  C   UNL A   1      30.145  29.284  23.237  1.00  0.00     0.013 A 
ATOM     27  C   UNL A   1      28.897  31.285  23.427  1.00  0.00     0.038 A 
ATOM     28  C   UNL A   1      29.126  30.097  22.770  1.00  0.00     0.024 A 
ATOM     29  C   UNL A   1      27.806  32.206  22.980  1.00  0.00     0.067 C 
BRANCH  20  30
ATOM     30  O   UNL A   1      31.044  32.358  26.853  1.00  0.00    -0.494 OA
ATOM     31  C   UNL A   1      32.245  33.086  27.112  1.00  0.00     0.278 C 
ENDBRANCH  20  30
ENDBRANCH  14  19
ENDBRANCH   8  13
ENDBRANCH   6   7
ENDBRANCH   3   6
ENDBRANCH   1   2
BRANCH   1  32
ATOM     32  C   UNL A   1      36.670  20.495  24.660  1.00  0.00     0.042 C 
BRANCH  32  33
ATOM     33  C   UNL A   1      37.899  21.225  25.203  1.00  0.00     0.118 C 
BRANCH  33  34
ATOM     34  N   UNL A   1      38.834  20.293  25.795  1.00  0.00    -0.352 N 
ATOM     35  C   UNL A   1      40.065  20.547  26.350  1.00  0.00     0.251 C 
ATOM     36  H   UNL A   1      38.550  19.351  25.801  1.00  0.00     0.163 HD
ATOM     37  O   UNL A   1      40.863  19.618  26.461  1.00  0.00    -0.269 OA
BRANCH  35  38
ATOM     38  C   UNL A   1      40.442  21.903  26.831  1.00  0.00     0.039 A 
ATOM     39  C   UNL A   1      40.240  22.992  25.976  1.00  0.00     0.014 A 
ATOM     40  C   UNL A   1      41.101  22.102  28.051  1.00  0.00     0.014 A 
ATOM     41  C   UNL A   1      40.696  24.266  26.334  1.00  0.00     0.010 A 
ATOM     42  C   UNL A   1      41.517  23.386  28.427  1.00  0.00     0.010 A 
ATOM     43  C   UNL A   1      41.341  24.478  27.563  1.00  0.00    -0.014 A 
BRANCH  43  44
ATOM     44  C   UNL A   1      41.839  25.834  27.935  1.00  0.00     0.031 A 
ATOM     45  C   UNL A   1      43.260  26.245  27.645  1.00  0.00     0.074 A 
ATOM     46  C   UNL A   1      41.017  26.696  28.566  1.00  0.00     0.049 A 
ATOM     47  N   UNL A   1      43.852  27.391  27.879  1.00  0.00    -0.248 NA
ATOM     48  C   UNL A   1      44.138  25.238  27.030  1.00  0.00     0.031 C 
ATOM     49  C   UNL A   1      39.638  26.408  28.962  1.00  0.00     0.029 A 
ATOM     50  N   UNL A   1      41.226  27.983  29.001  1.00  0.00    -0.354 N 
ATOM     51  C   UNL A   1      45.171  27.235  27.467  1.00  0.00     0.074 A 
ATOM     52  C   UNL A   1      45.300  25.873  26.991  1.00  0.00     0.031 C 
ATOM     53  C   UNL A   1      39.124  27.485  29.577  1.00  0.00     0.029 A 
ATOM     54  C   UNL A   1      40.139  28.533  29.641  1.00  0.00     0.049 A 
ATOM     55  H   UNL A   1      42.075  28.465  28.870  1.00  0.00     0.167 HD
ATOM     56  C   UNL A   1      46.177  28.143  27.462  1.00  0.00     0.034 A 
ATOM     57  C   UNL A   1      39.976  29.741  30.214  1.00  0.00     0.034 A 
ATOM     58  C   UNL A   1      46.042  29.510  27.895  1.00  0.00     0.049 A 
ATOM     59  C   UNL A   1      41.101  30.741  30.168  1.00  0.00     0.074 A 
ATOM     60  C   UNL A   1      46.978  30.529  27.837  1.00  0.00     0.029 A 
ATOM     61  N   UNL A   1      44.906  30.049  28.478  1.00  0.00    -0.354 N 
ATOM     62  N   UNL A   1      42.284  30.627  29.617  1.00  0.00    -0.248 NA
ATOM     63  C   UNL A   1      40.852  32.050  30.790  1.00  0.00     0.031 C 
ATOM     64  C   UNL A   1      46.417  31.676  28.408  1.00  0.00     0.029 A 
ATOM     65  C   UNL A   1      45.122  31.379  28.800  1.00  0.00     0.049 A 
ATOM     66  H   UNL A   1      44.068  29.559  28.640  1.00  0.00     0.167 HD
ATOM     67  C   UNL A   1      42.909  31.857  29.796  1.00  0.00     0.074 A 
ATOM     68  C   UNL A   1      41.961  32.710  30.484  1.00  0.00     0.031 C 
ATOM     69  C   UNL A   1      44.158  32.240  29.437  1.00  0.00     0.034 A 
BRANCH  56  70
ATOM     70  C   UNL A   1      47.516  27.711  26.919  1.00  0.00     0.023 A 
ATOM     71  C   UNL A   1      47.752  27.762  25.531  1.00  0.00     0.012 A 
ATOM     72  C   UNL A   1      48.564  27.333  27.784  1.00  0.00     0.148 A 
ATOM     73  C   UNL A   1      48.997  27.414  25.007  1.00  0.00     0.002 A 
ATOM     74  C   UNL A   1      49.815  27.028  27.258  1.00  0.00     0.091 A 
ATOM     75  F   UNL A   1      48.318  27.274  29.100  1.00  0.00    -0.205 F 
ATOM     76  C   UNL A   1      50.031  27.059  25.870  1.00  0.00     0.022 A 
BRANCH  74  77
ATOM     77  S   UNL A   1      51.232  26.632  28.291  1.00  0.00     0.127 S 
ATOM     78  O   UNL A   1      52.279  26.434  27.290  1.00  0.00    -0.237 OA
ATOM     79  O   UNL A   1      51.378  27.848  29.092  1.00  0.00    -0.237 OA
ATOM     80  O   UNL A   1      50.857  25.448  29.048  1.00  0.00    -0.744 OA
ENDBRANCH  74  77
ENDBRANCH  56  70
BRANCH  57  81
ATOM     81  C   UNL A   1      38.665  30.101  30.827  1.00  0.00     0.023 A 
ATOM     82  C   UNL A   1      38.385  29.698  32.148  1.00  0.00     0.012 A 
ATOM     83  C   UNL A   1      37.709  30.857  30.124  1.00  0.00     0.148 A 
ATOM     84  C   UNL A   1      37.165  30.016  32.745  1.00  0.00     0.002 A 
ATOM     85  C   UNL A   1      36.520  31.221  30.745  1.00  0.00     0.091 A 
ATOM     86  F   UNL A   1      37.985  31.214  28.861  1.00  0.00    -0.205 F 
ATOM     87  C   UNL A   1      36.238  30.787  32.049  1.00  0.00     0.022 A 
BRANCH  85  88
ATOM     88  S   UNL A   1      35.338  32.331  29.973  1.00  0.00     0.127 S 
ATOM     89  O   UNL A   1      34.342  32.489  31.027  1.00  0.00    -0.237 OA
ATOM     90  O   UNL A   1      36.157  33.515  29.712  1.00  0.00    -0.237 OA
ATOM     91  O   UNL A   1      34.893  31.642  28.768  1.00  0.00    -0.744 OA
ENDBRANCH  85  88
ENDBRANCH  57  81
BRANCH  69  92
ATOM     92  C   UNL A   1      44.576  33.653  29.756  1.00  0.00     0.023 A 
ATOM     93  C   UNL A   1      45.292  33.920  30.940  1.00  0.00     0.012 A 
ATOM     94  C   UNL A   1      44.313  34.705  28.856  1.00  0.00     0.148 A 
ATOM     95  C   UNL A   1      45.708  35.218  31.241  1.00  0.00     0.002 A 
ATOM     96  C   UNL A   1      44.772  35.987  29.141  1.00  0.00     0.091 A 
ATOM     97  F   UNL A   1      43.613  34.437  27.744  1.00  0.00    -0.205 F 
ATOM     98  C   UNL A   1      45.457  36.247  30.338  1.00  0.00     0.022 A 
BRANCH  96  99
ATOM     99  S   UNL A   1      44.577  37.355  27.990  1.00  0.00     0.127 S 
ATOM    100  O   UNL A   1      45.421  38.380  28.601  1.00  0.00    -0.237 OA
ATOM    101  O   UNL A   1      45.104  36.793  26.746  1.00  0.00    -0.237 OA
ATOM    102  O   UNL A   1      43.152  37.651  27.961  1.00  0.00    -0.744 OA
ENDBRANCH  96  99
ENDBRANCH  69  92
ENDBRANCH  43  44
ENDBRANCH  35  38
ENDBRANCH  33  34
ENDBRANCH  32  33
ENDBRANCH   1  32
TORSDOF 17
ENDMDL
