MODEL 1
REMARK VINA RESULT:     -12.1      0.000      0.000
REMARK SMILES COC1CCN(c2nc(C(C)C)c(C(=O)NCCCNC(=O)c3ccc(-c4c5nc(c(-c6cccc(S(=O)(=O)[O-])c6F)c6ccc([nH]6)c(-c6cccc(S(=O)(=O)[O-])c6F)c6nc(c(-c7cccc(S(=O)(=O)[O-])c7F)c7ccc4[nH]7)C=C6)C=C5)cc3)s2)CC1
REMARK SMILES IDX 18 1 17 2 16 3 14 4 15 5 13 7 7 8 8 9 86 10 9 11 6 12 3 13
REMARK SMILES IDX 4 14 88 15 5 16 87 17 2 18 1 19 10 20 11 21 12 22 19 23
REMARK SMILES IDX 20 24 21 25 22 27 23 28 24 29 85 30 25 31 84 32 26 33 27 34
REMARK SMILES IDX 28 35 78 36 29 37 83 38 77 39 79 40 30 41 82 42 76 43 75 44
REMARK SMILES IDX 31 46 63 47 43 48 62 49 44 50 47 51 61 52 80 53 45 54 46 55
REMARK SMILES IDX 60 57 81 58 48 59 32 60 33 61 41 62 34 63 36 64 42 65 35 66
REMARK SMILES IDX 37 67 38 68 39 69 40 70 64 71 65 72 73 73 66 74 68 75 74 76
REMARK SMILES IDX 67 77 69 78 70 79 71 80 72 81 49 82 50 83 58 84 51 85 53 86
REMARK SMILES IDX 59 87 52 88 54 89 55 90 56 91 57 92
REMARK H PARENT 16 6 20 26 79 45 47 56
REMARK Flexibility Score: inf
ROOT
ATOM      1  C   UNL A   1      34.964  22.649  26.765  1.00  0.00     0.042 C 
ENDROOT
BRANCH   1   2
ATOM      2  C   UNL A   1      33.880  21.587  26.721  1.00  0.00     0.118 C 
BRANCH   2   3
ATOM      3  N   UNL A   1      32.646  22.058  27.270  1.00  0.00    -0.351 N 
ATOM      4  C   UNL A   1      31.648  22.864  26.798  1.00  0.00     0.263 C 
ATOM      5  O   UNL A   1      30.727  22.941  27.627  1.00  0.00    -0.268 OA
ATOM      6  H   UNL A   1      32.479  21.732  28.183  1.00  0.00     0.163 HD
BRANCH   4   7
ATOM      7  C   UNL A   1      31.587  23.537  25.496  1.00  0.00     0.117 A 
ATOM      8  C   UNL A   1      31.069  25.439  23.992  1.00  0.00     0.186 A 
ATOM      9  N   UNL A   1      31.537  24.432  23.317  1.00  0.00    -0.224 NA
ATOM     10  S   UNL A   1      30.818  25.109  25.639  1.00  0.00    -0.091 S 
ATOM     11  C   UNL A   1      31.979  23.405  24.154  1.00  0.00     0.069 A 
BRANCH   8  12
ATOM     12  N   UNL A   1      30.749  26.631  23.450  1.00  0.00    -0.348 N 
ATOM     13  C   UNL A   1      30.346  29.357  22.814  1.00  0.00     0.121 C 
ATOM     14  C   UNL A   1      31.727  28.690  22.710  1.00  0.00     0.053 C 
ATOM     15  C   UNL A   1      29.461  28.622  23.835  1.00  0.00     0.053 C 
ATOM     16  C   UNL A   1      31.585  27.206  22.410  1.00  0.00     0.121 C 
ATOM     17  C   UNL A   1      29.386  27.125  23.518  1.00  0.00     0.121 C 
BRANCH  13  18
ATOM     18  O   UNL A   1      29.614  29.382  21.581  1.00  0.00    -0.381 OA
ATOM     19  C   UNL A   1      28.395  30.107  21.619  1.00  0.00     0.195 C 
ENDBRANCH  13  18
ENDBRANCH   8  12
BRANCH  11  20
ATOM     20  C   UNL A   1      32.846  22.446  23.372  1.00  0.00     0.034 C 
ATOM     21  C   UNL A   1      32.371  20.998  23.480  1.00  0.00     0.014 C 
ATOM     22  C   UNL A   1      33.270  22.955  21.990  1.00  0.00     0.014 C 
ENDBRANCH  11  20
ENDBRANCH   4   7
ENDBRANCH   2   3
ENDBRANCH   1   2
BRANCH   1  23
ATOM     23  C   UNL A   1      35.846  22.618  25.534  1.00  0.00     0.118 C 
BRANCH  23  24
ATOM     24  N   UNL A   1      36.740  21.463  25.544  1.00  0.00    -0.352 N 
ATOM     25  C   UNL A   1      38.099  21.387  25.721  1.00  0.00     0.251 C 
ATOM     26  H   UNL A   1      36.295  20.596  25.402  1.00  0.00     0.163 HD
ATOM     27  O   UNL A   1      38.680  20.337  25.438  1.00  0.00    -0.269 OA
BRANCH  25  28
ATOM     28  C   UNL A   1      38.864  22.544  26.230  1.00  0.00     0.039 A 
ATOM     29  C   UNL A   1      40.007  22.329  27.006  1.00  0.00     0.014 A 
ATOM     30  C   UNL A   1      38.448  23.849  25.966  1.00  0.00     0.014 A 
ATOM     31  C   UNL A   1      40.754  23.419  27.459  1.00  0.00     0.010 A 
ATOM     32  C   UNL A   1      39.267  24.919  26.290  1.00  0.00     0.010 A 
ATOM     33  C   UNL A   1      40.410  24.725  27.072  1.00  0.00    -0.014 A 
BRANCH  33  34
ATOM     34  C   UNL A   1      41.197  25.911  27.498  1.00  0.00     0.031 A 
ATOM     35  C   UNL A   1      40.535  26.994  28.315  1.00  0.00     0.074 A 
ATOM     36  C   UNL A   1      42.465  26.066  27.069  1.00  0.00     0.049 A 
ATOM     37  N   UNL A   1      41.012  28.151  28.692  1.00  0.00    -0.248 NA
ATOM     38  C   UNL A   1      39.137  26.767  28.723  1.00  0.00     0.031 C 
ATOM     39  C   UNL A   1      43.187  25.133  26.199  1.00  0.00     0.029 A 
ATOM     40  N   UNL A   1      43.365  27.079  27.284  1.00  0.00    -0.354 N 
ATOM     41  C   UNL A   1      39.962  28.806  29.328  1.00  0.00     0.074 A 
ATOM     42  C   UNL A   1      38.809  27.940  29.241  1.00  0.00     0.031 C 
ATOM     43  C   UNL A   1      44.420  25.610  25.969  1.00  0.00     0.029 A 
ATOM     44  C   UNL A   1      44.567  26.896  26.641  1.00  0.00     0.049 A 
ATOM     45  H   UNL A   1      43.168  27.863  27.846  1.00  0.00     0.167 HD
ATOM     46  C   UNL A   1      39.964  30.001  29.963  1.00  0.00     0.034 A 
ATOM     47  C   UNL A   1      45.661  27.680  26.594  1.00  0.00     0.034 A 
ATOM     48  C   UNL A   1      41.132  30.824  30.106  1.00  0.00     0.049 A 
ATOM     49  C   UNL A   1      45.660  28.974  27.363  1.00  0.00     0.074 A 
ATOM     50  C   UNL A   1      41.273  32.002  30.817  1.00  0.00     0.029 A 
ATOM     51  N   UNL A   1      42.363  30.554  29.529  1.00  0.00    -0.354 N 
ATOM     52  N   UNL A   1      44.703  29.502  28.088  1.00  0.00    -0.248 NA
ATOM     53  C   UNL A   1      46.901  29.760  27.340  1.00  0.00     0.031 C 
ATOM     54  C   UNL A   1      42.584  32.456  30.649  1.00  0.00     0.029 A 
ATOM     55  C   UNL A   1      43.269  31.545  29.861  1.00  0.00     0.049 A 
ATOM     56  H   UNL A   1      42.562  29.772  28.966  1.00  0.00     0.167 HD
ATOM     57  C   UNL A   1      45.238  30.663  28.637  1.00  0.00     0.074 A 
ATOM     58  C   UNL A   1      46.609  30.746  28.178  1.00  0.00     0.031 C 
ATOM     59  C   UNL A   1      44.645  31.582  29.437  1.00  0.00     0.034 A 
BRANCH  46  60
ATOM     60  C   UNL A   1      38.677  30.460  30.600  1.00  0.00     0.023 A 
ATOM     61  C   UNL A   1      38.442  30.200  31.967  1.00  0.00     0.012 A 
ATOM     62  C   UNL A   1      37.721  31.187  29.864  1.00  0.00     0.148 A 
ATOM     63  C   UNL A   1      37.261  30.616  32.579  1.00  0.00     0.002 A 
ATOM     64  C   UNL A   1      36.569  31.644  30.495  1.00  0.00     0.091 A 
ATOM     65  F   UNL A   1      37.949  31.409  28.562  1.00  0.00    -0.205 F 
ATOM     66  C   UNL A   1      36.331  31.347  31.847  1.00  0.00     0.022 A 
BRANCH  64  67
ATOM     67  S   UNL A   1      35.347  32.666  29.663  1.00  0.00     0.127 S 
ATOM     68  O   UNL A   1      36.165  33.789  29.207  1.00  0.00    -0.237 OA
ATOM     69  O   UNL A   1      34.881  31.780  28.596  1.00  0.00    -0.237 OA
ATOM     70  O   UNL A   1      34.345  32.991  30.667  1.00  0.00    -0.744 OA
ENDBRANCH  64  67
ENDBRANCH  46  60
BRANCH  47  71
ATOM     71  C   UNL A   1      46.871  27.230  25.851  1.00  0.00     0.023 A 
ATOM     72  C   UNL A   1      47.794  26.374  26.486  1.00  0.00     0.012 A 
ATOM     73  C   UNL A   1      47.101  27.614  24.516  1.00  0.00     0.148 A 
ATOM     74  C   UNL A   1      48.940  25.940  25.819  1.00  0.00     0.002 A 
ATOM     75  C   UNL A   1      48.216  27.133  23.839  1.00  0.00     0.091 A 
ATOM     76  F   UNL A   1      46.217  28.434  23.930  1.00  0.00    -0.205 F 
ATOM     77  C   UNL A   1      49.146  26.310  24.494  1.00  0.00     0.022 A 
BRANCH  75  78
ATOM     78  S   UNL A   1      48.493  27.449  22.092  1.00  0.00     0.127 S 
ATOM     79  O   UNL A   1      47.281  28.179  21.724  1.00  0.00    -0.237 OA
ATOM     80  O   UNL A   1      49.713  28.256  22.121  1.00  0.00    -0.237 OA
ATOM     81  O   UNL A   1      48.654  26.139  21.477  1.00  0.00    -0.744 OA
ENDBRANCH  75  78
ENDBRANCH  47  71
BRANCH  59  82
ATOM     82  C   UNL A   1      45.483  32.740  29.909  1.00  0.00     0.023 A 
ATOM     83  C   UNL A   1      46.234  32.627  31.095  1.00  0.00     0.012 A 
ATOM     84  C   UNL A   1      45.586  33.911  29.133  1.00  0.00     0.148 A 
ATOM     85  C   UNL A   1      47.047  33.677  31.521  1.00  0.00     0.002 A 
ATOM     86  C   UNL A   1      46.438  34.931  29.535  1.00  0.00     0.091 A 
ATOM     87  F   UNL A   1      44.849  34.003  28.016  1.00  0.00    -0.205 F 
ATOM     88  C   UNL A   1      47.157  34.822  30.735  1.00  0.00     0.022 A 
BRANCH  86  89
ATOM     89  S   UNL A   1      46.722  36.396  28.536  1.00  0.00     0.127 S 
ATOM     90  O   UNL A   1      45.540  37.200  28.844  1.00  0.00    -0.237 OA
ATOM     91  O   UNL A   1      47.972  36.912  29.092  1.00  0.00    -0.237 OA
ATOM     92  O   UNL A   1      46.820  35.931  27.159  1.00  0.00    -0.744 OA
ENDBRANCH  86  89
ENDBRANCH  59  82
ENDBRANCH  33  34
ENDBRANCH  25  28
ENDBRANCH  23  24
ENDBRANCH   1  23
TORSDOF 16
ENDMDL
MODEL 2
REMARK VINA RESULT:     -12.0      1.342      7.737
REMARK SMILES COC1CCN(c2nc(C(C)C)c(C(=O)NCCCNC(=O)c3ccc(-c4c5nc(c(-c6cccc(S(=O)(=O)[O-])c6F)c6ccc([nH]6)c(-c6cccc(S(=O)(=O)[O-])c6F)c6nc(c(-c7cccc(S(=O)(=O)[O-])c7F)c7ccc4[nH]7)C=C6)C=C5)cc3)s2)CC1
REMARK SMILES IDX 18 1 17 2 16 3 14 4 15 5 13 7 7 8 8 9 86 10 9 11 6 12 3 13
REMARK SMILES IDX 4 14 88 15 5 16 87 17 2 18 1 19 10 20 11 21 12 22 19 23
REMARK SMILES IDX 20 24 21 25 22 27 23 28 24 29 85 30 25 31 84 32 26 33 27 34
REMARK SMILES IDX 28 35 78 36 29 37 83 38 77 39 79 40 30 41 82 42 76 43 75 44
REMARK SMILES IDX 31 46 63 47 43 48 62 49 44 50 47 51 61 52 80 53 45 54 46 55
REMARK SMILES IDX 60 57 81 58 48 59 32 60 33 61 41 62 34 63 36 64 42 65 35 66
REMARK SMILES IDX 37 67 38 68 39 69 40 70 64 71 65 72 73 73 66 74 68 75 74 76
REMARK SMILES IDX 67 77 69 78 70 79 71 80 72 81 49 82 50 83 58 84 51 85 53 86
REMARK SMILES IDX 59 87 52 88 54 89 55 90 56 91 57 92
REMARK H PARENT 16 6 20 26 79 45 47 56
REMARK Flexibility Score: inf
ROOT
ATOM      1  C   UNL A   1      34.594  21.640  26.715  1.00  0.00     0.042 C 
ENDROOT
BRANCH   1   2
ATOM      2  C   UNL A   1      33.725  20.967  25.668  1.00  0.00     0.118 C 
BRANCH   2   3
ATOM      3  N   UNL A   1      32.331  21.156  25.926  1.00  0.00    -0.351 N 
ATOM      4  C   UNL A   1      31.465  22.193  25.724  1.00  0.00     0.263 C 
ATOM      5  O   UNL A   1      30.314  21.867  26.056  1.00  0.00    -0.268 OA
ATOM      6  H   UNL A   1      31.903  20.371  26.336  1.00  0.00     0.163 HD
BRANCH   4   7
ATOM      7  C   UNL A   1      31.771  23.513  25.161  1.00  0.00     0.117 A 
ATOM      8  C   UNL A   1      32.000  25.980  25.260  1.00  0.00     0.186 A 
ATOM      9  N   UNL A   1      32.270  25.540  24.068  1.00  0.00    -0.224 NA
ATOM     10  S   UNL A   1      31.440  24.784  26.327  1.00  0.00    -0.091 S 
ATOM     11  C   UNL A   1      32.298  24.144  24.022  1.00  0.00     0.069 A 
BRANCH   8  12
ATOM     12  N   UNL A   1      32.092  27.274  25.628  1.00  0.00    -0.348 N 
ATOM     13  C   UNL A   1      32.834  29.956  26.132  1.00  0.00     0.121 C 
ATOM     14  C   UNL A   1      32.427  29.471  24.731  1.00  0.00     0.053 C 
ATOM     15  C   UNL A   1      33.378  28.790  26.975  1.00  0.00     0.053 C 
ATOM     16  C   UNL A   1      31.455  28.306  24.828  1.00  0.00     0.121 C 
ATOM     17  C   UNL A   1      32.385  27.625  27.006  1.00  0.00     0.121 C 
BRANCH  13  18
ATOM     18  O   UNL A   1      31.762  30.539  26.884  1.00  0.00    -0.381 OA
ATOM     19  C   UNL A   1      31.402  31.856  26.499  1.00  0.00     0.195 C 
ENDBRANCH  13  18
ENDBRANCH   8  12
BRANCH  11  20
ATOM     20  C   UNL A   1      32.976  23.687  22.752  1.00  0.00     0.034 C 
ATOM     21  C   UNL A   1      32.894  24.724  21.634  1.00  0.00     0.014 C 
ATOM     22  C   UNL A   1      34.318  22.977  22.967  1.00  0.00     0.014 C 
ENDBRANCH  11  20
ENDBRANCH   4   7
ENDBRANCH   2   3
ENDBRANCH   1   2
BRANCH   1  23
ATOM     23  C   UNL A   1      35.843  22.252  26.116  1.00  0.00     0.118 C 
BRANCH  23  24
ATOM     24  N   UNL A   1      36.898  21.256  25.944  1.00  0.00    -0.352 N 
ATOM     25  C   UNL A   1      38.262  21.399  25.902  1.00  0.00     0.251 C 
ATOM     26  H   UNL A   1      36.577  20.330  25.843  1.00  0.00     0.163 HD
ATOM     27  O   UNL A   1      38.948  20.458  25.494  1.00  0.00    -0.269 OA
BRANCH  25  28
ATOM     28  C   UNL A   1      38.907  22.658  26.325  1.00  0.00     0.039 A 
ATOM     29  C   UNL A   1      40.001  22.615  27.195  1.00  0.00     0.014 A 
ATOM     30  C   UNL A   1      38.426  23.891  25.886  1.00  0.00     0.014 A 
ATOM     31  C   UNL A   1      40.638  23.802  27.568  1.00  0.00     0.010 A 
ATOM     32  C   UNL A   1      39.144  25.049  26.139  1.00  0.00     0.010 A 
ATOM     33  C   UNL A   1      40.237  25.028  27.013  1.00  0.00    -0.014 A 
BRANCH  33  34
ATOM     34  C   UNL A   1      40.908  26.309  27.352  1.00  0.00     0.031 A 
ATOM     35  C   UNL A   1      42.337  26.542  26.925  1.00  0.00     0.074 A 
ATOM     36  C   UNL A   1      40.277  27.214  28.126  1.00  0.00     0.049 A 
ATOM     37  N   UNL A   1      43.133  27.538  27.213  1.00  0.00    -0.248 NA
ATOM     38  C   UNL A   1      42.972  25.494  26.105  1.00  0.00     0.031 C 
ATOM     39  C   UNL A   1      38.928  27.064  28.678  1.00  0.00     0.029 A 
ATOM     40  N   UNL A   1      40.697  28.429  28.605  1.00  0.00    -0.354 N 
ATOM     41  C   UNL A   1      44.367  27.211  26.660  1.00  0.00     0.074 A 
ATOM     42  C   UNL A   1      44.230  25.902  26.064  1.00  0.00     0.031 C 
ATOM     43  C   UNL A   1      38.627  28.152  29.406  1.00  0.00     0.029 A 
ATOM     44  C   UNL A   1      39.770  29.057  29.405  1.00  0.00     0.049 A 
ATOM     45  H   UNL A   1      41.578  28.814  28.397  1.00  0.00     0.167 HD
ATOM     46  C   UNL A   1      45.501  27.948  26.614  1.00  0.00     0.034 A 
ATOM     47  C   UNL A   1      39.838  30.228  30.067  1.00  0.00     0.034 A 
ATOM     48  C   UNL A   1      45.609  29.277  27.147  1.00  0.00     0.049 A 
ATOM     49  C   UNL A   1      41.087  31.059  29.945  1.00  0.00     0.074 A 
ATOM     50  C   UNL A   1      46.676  30.154  27.065  1.00  0.00     0.029 A 
ATOM     51  N   UNL A   1      44.611  29.924  27.860  1.00  0.00    -0.354 N 
ATOM     52  N   UNL A   1      42.190  30.798  29.286  1.00  0.00    -0.248 NA
ATOM     53  C   UNL A   1      41.086  32.361  30.626  1.00  0.00     0.031 C 
ATOM     54  C   UNL A   1      46.331  31.323  27.750  1.00  0.00     0.029 A 
ATOM     55  C   UNL A   1      45.038  31.186  28.230  1.00  0.00     0.049 A 
ATOM     56  H   UNL A   1      43.729  29.541  28.071  1.00  0.00     0.167 HD
ATOM     57  C   UNL A   1      43.000  31.918  29.442  1.00  0.00     0.074 A 
ATOM     58  C   UNL A   1      42.250  32.867  30.238  1.00  0.00     0.031 C 
ATOM     59  C   UNL A   1      44.255  32.137  28.978  1.00  0.00     0.034 A 
BRANCH  46  60
ATOM     60  C   UNL A   1      46.697  27.354  25.914  1.00  0.00     0.023 A 
ATOM     61  C   UNL A   1      47.477  26.378  26.569  1.00  0.00     0.012 A 
ATOM     62  C   UNL A   1      47.023  27.724  24.594  1.00  0.00     0.148 A 
ATOM     63  C   UNL A   1      48.586  25.812  25.941  1.00  0.00     0.002 A 
ATOM     64  C   UNL A   1      48.100  27.118  23.956  1.00  0.00     0.091 A 
ATOM     65  F   UNL A   1      46.284  28.667  23.993  1.00  0.00    -0.205 F 
ATOM     66  C   UNL A   1      48.890  26.174  24.633  1.00  0.00     0.022 A 
BRANCH  64  67
ATOM     67  S   UNL A   1      48.525  27.450  22.242  1.00  0.00     0.127 S 
ATOM     68  O   UNL A   1      47.384  28.255  21.807  1.00  0.00    -0.237 OA
ATOM     69  O   UNL A   1      49.778  28.194  22.376  1.00  0.00    -0.237 OA
ATOM     70  O   UNL A   1      48.653  26.150  21.600  1.00  0.00    -0.744 OA
ENDBRANCH  64  67
ENDBRANCH  46  60
BRANCH  47  71
ATOM     71  C   UNL A   1      38.663  30.717  30.842  1.00  0.00     0.023 A 
ATOM     72  C   UNL A   1      38.637  30.545  32.240  1.00  0.00     0.012 A 
ATOM     73  C   UNL A   1      37.589  31.376  30.213  1.00  0.00     0.148 A 
ATOM     74  C   UNL A   1      37.549  30.985  32.994  1.00  0.00     0.002 A 
ATOM     75  C   UNL A   1      36.534  31.863  30.976  1.00  0.00     0.091 A 
ATOM     76  F   UNL A   1      37.627  31.525  28.881  1.00  0.00    -0.205 F 
ATOM     77  C   UNL A   1      36.503  31.653  32.364  1.00  0.00     0.022 A 
BRANCH  75  78
ATOM     78  S   UNL A   1      35.209  32.850  30.270  1.00  0.00     0.127 S 
ATOM     79  O   UNL A   1      35.942  34.000  29.743  1.00  0.00    -0.237 OA
ATOM     80  O   UNL A   1      34.668  31.947  29.253  1.00  0.00    -0.237 OA
ATOM     81  O   UNL A   1      34.298  33.130  31.370  1.00  0.00    -0.744 OA
ENDBRANCH  75  78
ENDBRANCH  47  71
BRANCH  59  82
ATOM     82  C   UNL A   1      44.888  33.469  29.280  1.00  0.00     0.023 A 
ATOM     83  C   UNL A   1      45.609  33.650  30.476  1.00  0.00     0.012 A 
ATOM     84  C   UNL A   1      44.831  34.516  28.340  1.00  0.00     0.148 A 
ATOM     85  C   UNL A   1      46.235  34.866  30.748  1.00  0.00     0.002 A 
ATOM     86  C   UNL A   1      45.500  35.706  28.594  1.00  0.00     0.091 A 
ATOM     87  F   UNL A   1      44.125  34.328  27.216  1.00  0.00    -0.205 F 
ATOM     88  C   UNL A   1      46.190  35.888  29.803  1.00  0.00     0.022 A 
BRANCH  86  89
ATOM     89  S   UNL A   1      45.584  37.037  27.391  1.00  0.00     0.127 S 
ATOM     90  O   UNL A   1      46.070  36.335  26.204  1.00  0.00    -0.237 OA
ATOM     91  O   UNL A   1      44.191  37.473  27.314  1.00  0.00    -0.237 OA
ATOM     92  O   UNL A   1      46.497  38.026  27.948  1.00  0.00    -0.744 OA
ENDBRANCH  86  89
ENDBRANCH  59  82
ENDBRANCH  33  34
ENDBRANCH  25  28
ENDBRANCH  23  24
ENDBRANCH   1  23
TORSDOF 16
ENDMDL
MODEL 3
REMARK VINA RESULT:     -11.9      5.680     10.773
REMARK SMILES COC1CCN(c2nc(C(C)C)c(C(=O)NCCCNC(=O)c3ccc(-c4c5nc(c(-c6cccc(S(=O)(=O)[O-])c6F)c6ccc([nH]6)c(-c6cccc(S(=O)(=O)[O-])c6F)c6nc(c(-c7cccc(S(=O)(=O)[O-])c7F)c7ccc4[nH]7)C=C6)C=C5)cc3)s2)CC1
REMARK SMILES IDX 18 1 17 2 16 3 14 4 15 5 13 7 7 8 8 9 86 10 9 11 6 12 3 13
REMARK SMILES IDX 4 14 88 15 5 16 87 17 2 18 1 19 10 20 11 21 12 22 19 23
REMARK SMILES IDX 20 24 21 25 22 27 23 28 24 29 85 30 25 31 84 32 26 33 27 34
REMARK SMILES IDX 28 35 78 36 29 37 83 38 77 39 79 40 30 41 82 42 76 43 75 44
REMARK SMILES IDX 31 46 63 47 43 48 62 49 44 50 47 51 61 52 80 53 45 54 46 55
REMARK SMILES IDX 60 57 81 58 48 59 32 60 33 61 41 62 34 63 36 64 42 65 35 66
REMARK SMILES IDX 37 67 38 68 39 69 40 70 64 71 65 72 73 73 66 74 68 75 74 76
REMARK SMILES IDX 67 77 69 78 70 79 71 80 72 81 49 82 50 83 58 84 51 85 53 86
REMARK SMILES IDX 59 87 52 88 54 89 55 90 56 91 57 92
REMARK H PARENT 16 6 20 26 79 45 47 56
REMARK Flexibility Score: inf
ROOT
ATOM      1  C   UNL A   1      31.392  31.637  26.223  1.00  0.00     0.042 C 
ENDROOT
BRANCH   1   2
ATOM      2  C   UNL A   1      31.497  30.188  25.784  1.00  0.00     0.118 C 
BRANCH   2   3
ATOM      3  N   UNL A   1      32.514  30.000  24.795  1.00  0.00    -0.351 N 
ATOM      4  C   UNL A   1      32.844  28.970  23.962  1.00  0.00     0.263 C 
ATOM      5  O   UNL A   1      33.784  29.296  23.220  1.00  0.00    -0.268 OA
ATOM      6  H   UNL A   1      33.103  30.783  24.693  1.00  0.00     0.163 HD
BRANCH   4   7
ATOM      7  C   UNL A   1      32.197  27.655  23.871  1.00  0.00     0.117 A 
ATOM      8  C   UNL A   1      32.175  25.176  23.890  1.00  0.00     0.186 A 
ATOM      9  N   UNL A   1      30.985  25.646  23.659  1.00  0.00    -0.224 NA
ATOM     10  S   UNL A   1      33.385  26.365  23.959  1.00  0.00    -0.091 S 
ATOM     11  C   UNL A   1      30.939  27.036  23.794  1.00  0.00     0.069 A 
BRANCH   8  12
ATOM     12  N   UNL A   1      32.460  23.864  24.011  1.00  0.00    -0.348 N 
ATOM     13  C   UNL A   1      33.347  21.289  24.774  1.00  0.00     0.121 C 
ATOM     14  C   UNL A   1      32.200  22.007  25.504  1.00  0.00     0.053 C 
ATOM     15  C   UNL A   1      34.286  22.306  24.101  1.00  0.00     0.053 C 
ATOM     16  C   UNL A   1      31.472  22.952  24.560  1.00  0.00     0.121 C 
ATOM     17  C   UNL A   1      33.501  23.262  23.198  1.00  0.00     0.121 C 
BRANCH  13  18
ATOM     18  O   UNL A   1      32.914  20.390  23.745  1.00  0.00    -0.381 OA
ATOM     19  C   UNL A   1      32.445  19.132  24.202  1.00  0.00     0.195 C 
ENDBRANCH  13  18
ENDBRANCH   8  12
BRANCH  11  20
ATOM     20  C   UNL A   1      29.502  27.492  23.898  1.00  0.00     0.034 C 
ATOM     21  C   UNL A   1      29.191  28.673  22.981  1.00  0.00     0.014 C 
ATOM     22  C   UNL A   1      28.477  26.355  23.967  1.00  0.00     0.014 C 
ENDBRANCH  11  20
ENDBRANCH   4   7
ENDBRANCH   2   3
ENDBRANCH   1   2
BRANCH   1  23
ATOM     23  C   UNL A   1      32.499  32.028  27.179  1.00  0.00     0.118 C 
BRANCH  23  24
ATOM     24  N   UNL A   1      32.453  33.452  27.499  1.00  0.00    -0.352 N 
ATOM     25  C   UNL A   1      33.168  34.186  28.412  1.00  0.00     0.251 C 
ATOM     26  H   UNL A   1      31.802  33.972  26.973  1.00  0.00     0.163 HD
ATOM     27  O   UNL A   1      32.788  35.326  28.692  1.00  0.00    -0.269 OA
BRANCH  25  28
ATOM     28  C   UNL A   1      34.370  33.625  29.063  1.00  0.00     0.039 A 
ATOM     29  C   UNL A   1      35.607  34.255  28.889  1.00  0.00     0.014 A 
ATOM     30  C   UNL A   1      34.292  32.463  29.829  1.00  0.00     0.014 A 
ATOM     31  C   UNL A   1      36.740  33.749  29.533  1.00  0.00     0.010 A 
ATOM     32  C   UNL A   1      35.381  32.050  30.580  1.00  0.00     0.010 A 
ATOM     33  C   UNL A   1      36.628  32.662  30.415  1.00  0.00    -0.014 A 
BRANCH  33  34
ATOM     34  C   UNL A   1      37.798  32.115  31.149  1.00  0.00     0.031 A 
ATOM     35  C   UNL A   1      38.604  30.991  30.543  1.00  0.00     0.074 A 
ATOM     36  C   UNL A   1      38.073  32.550  32.395  1.00  0.00     0.049 A 
ATOM     37  N   UNL A   1      39.586  30.305  31.065  1.00  0.00    -0.248 NA
ATOM     38  C   UNL A   1      38.225  30.549  29.189  1.00  0.00     0.031 C 
ATOM     39  C   UNL A   1      37.312  33.566  33.127  1.00  0.00     0.029 A 
ATOM     40  N   UNL A   1      39.053  32.171  33.278  1.00  0.00    -0.354 N 
ATOM     41  C   UNL A   1      39.902  29.323  30.131  1.00  0.00     0.074 A 
ATOM     42  C   UNL A   1      38.974  29.468  29.034  1.00  0.00     0.031 C 
ATOM     43  C   UNL A   1      37.864  33.741  34.338  1.00  0.00     0.029 A 
ATOM     44  C   UNL A   1      38.990  32.827  34.486  1.00  0.00     0.049 A 
ATOM     45  H   UNL A   1      39.736  31.496  33.067  1.00  0.00     0.167 HD
ATOM     46  C   UNL A   1      40.898  28.408  30.163  1.00  0.00     0.034 A 
ATOM     47  C   UNL A   1      39.751  32.700  35.590  1.00  0.00     0.034 A 
ATOM     48  C   UNL A   1      41.860  28.315  31.225  1.00  0.00     0.049 A 
ATOM     49  C   UNL A   1      40.894  31.721  35.574  1.00  0.00     0.074 A 
ATOM     50  C   UNL A   1      42.972  27.496  31.310  1.00  0.00     0.029 A 
ATOM     51  N   UNL A   1      41.828  29.070  32.387  1.00  0.00    -0.354 N 
ATOM     52  N   UNL A   1      41.271  30.908  34.617  1.00  0.00    -0.248 NA
ATOM     53  C   UNL A   1      41.741  31.670  36.774  1.00  0.00     0.031 C 
ATOM     54  C   UNL A   1      43.597  27.739  32.536  1.00  0.00     0.029 A 
ATOM     55  C   UNL A   1      42.894  28.733  33.200  1.00  0.00     0.049 A 
ATOM     56  H   UNL A   1      41.145  29.746  32.601  1.00  0.00     0.167 HD
ATOM     57  C   UNL A   1      42.418  30.275  35.083  1.00  0.00     0.074 A 
ATOM     58  C   UNL A   1      42.686  30.818  36.399  1.00  0.00     0.031 C 
ATOM     59  C   UNL A   1      43.173  29.323  34.484  1.00  0.00     0.034 A 
BRANCH  46  60
ATOM     60  C   UNL A   1      41.032  27.474  28.986  1.00  0.00     0.023 A 
ATOM     61  C   UNL A   1      40.238  26.309  28.926  1.00  0.00     0.012 A 
ATOM     62  C   UNL A   1      41.904  27.769  27.921  1.00  0.00     0.148 A 
ATOM     63  C   UNL A   1      40.342  25.431  27.847  1.00  0.00     0.002 A 
ATOM     64  C   UNL A   1      41.965  26.916  26.825  1.00  0.00     0.091 A 
ATOM     65  F   UNL A   1      42.666  28.869  28.003  1.00  0.00    -0.205 F 
ATOM     66  C   UNL A   1      41.196  25.740  26.793  1.00  0.00     0.022 A 
BRANCH  64  67
ATOM     67  S   UNL A   1      42.969  27.265  25.376  1.00  0.00     0.127 S 
ATOM     68  O   UNL A   1      42.917  25.987  24.667  1.00  0.00    -0.237 OA
ATOM     69  O   UNL A   1      42.218  28.347  24.737  1.00  0.00    -0.237 OA
ATOM     70  O   UNL A   1      44.280  27.648  25.879  1.00  0.00    -0.744 OA
ENDBRANCH  64  67
ENDBRANCH  46  60
BRANCH  47  71
ATOM     71  C   UNL A   1      39.503  33.571  36.773  1.00  0.00     0.023 A 
ATOM     72  C   UNL A   1      39.898  34.924  36.730  1.00  0.00     0.012 A 
ATOM     73  C   UNL A   1      38.855  33.083  37.923  1.00  0.00     0.148 A 
ATOM     74  C   UNL A   1      39.685  35.764  37.823  1.00  0.00     0.002 A 
ATOM     75  C   UNL A   1      38.595  33.939  38.988  1.00  0.00     0.091 A 
ATOM     76  F   UNL A   1      38.493  31.793  37.949  1.00  0.00    -0.205 F 
ATOM     77  C   UNL A   1      39.026  35.275  38.947  1.00  0.00     0.022 A 
BRANCH  75  78
ATOM     78  S   UNL A   1      37.635  33.434  40.419  1.00  0.00     0.127 S 
ATOM     79  O   UNL A   1      38.426  32.315  40.929  1.00  0.00    -0.237 OA
ATOM     80  O   UNL A   1      37.671  34.640  41.248  1.00  0.00    -0.237 OA
ATOM     81  O   UNL A   1      36.315  33.095  39.907  1.00  0.00    -0.744 OA
ENDBRANCH  75  78
ENDBRANCH  47  71
BRANCH  59  82
ATOM     82  C   UNL A   1      44.391  28.832  35.221  1.00  0.00     0.023 A 
ATOM     83  C   UNL A   1      45.643  29.434  34.989  1.00  0.00     0.012 A 
ATOM     84  C   UNL A   1      44.276  27.826  36.200  1.00  0.00     0.148 A 
ATOM     85  C   UNL A   1      46.770  29.017  35.697  1.00  0.00     0.002 A 
ATOM     86  C   UNL A   1      45.392  27.452  36.938  1.00  0.00     0.091 A 
ATOM     87  F   UNL A   1      43.078  27.255  36.392  1.00  0.00    -0.205 F 
ATOM     88  C   UNL A   1      46.642  28.036  36.677  1.00  0.00     0.022 A 
BRANCH  86  89
ATOM     89  S   UNL A   1      45.300  26.273  38.290  1.00  0.00     0.127 S 
ATOM     90  O   UNL A   1      44.412  26.962  39.225  1.00  0.00    -0.237 OA
ATOM     91  O   UNL A   1      44.711  25.103  37.640  1.00  0.00    -0.237 OA
ATOM     92  O   UNL A   1      46.668  26.084  38.752  1.00  0.00    -0.744 OA
ENDBRANCH  86  89
ENDBRANCH  59  82
ENDBRANCH  33  34
ENDBRANCH  25  28
ENDBRANCH  23  24
ENDBRANCH   1  23
TORSDOF 16
ENDMDL
