MODEL 1
REMARK VINA RESULT:     -12.4      0.000      0.000
REMARK SMILES C[C@H]1[C@H](C(=O)NCCCNC(=O)c2ccc(-c3c4nc(c(-c5cccc(S(=O)(=O)[O-])c5F)c5ccc([nH]5)c(-c5cccc(S(=O)(=O)[O-])c5F)c5nc(c(-c6cccc(S(=O)(=O)[O-])c6F)c6ccc3[nH]6)C=C5)C=C4)cc2)CCN1c1ncnc2sccc12
REMARK SMILES IDX 9 1 8 2 7 3 6 4 4 5 5 6 3 8 1 9 2 10 78 11 76 12 77 13 79 14
REMARK SMILES IDX 80 15 87 16 81 17 83 18 86 19 82 20 84 21 85 22 10 23 11 24
REMARK SMILES IDX 12 26 13 27 14 28 75 29 15 30 74 31 16 32 17 33 18 34 68 35
REMARK SMILES IDX 19 36 73 37 67 38 69 39 20 40 72 41 66 42 65 43 21 45 53 46
REMARK SMILES IDX 33 47 52 48 34 49 37 50 51 51 70 52 35 53 36 54 50 56 71 57
REMARK SMILES IDX 38 58 22 59 23 60 31 61 24 62 26 63 32 64 25 65 27 66 28 67
REMARK SMILES IDX 29 68 30 69 54 70 55 71 63 72 56 73 58 74 64 75 57 76 59 77
REMARK SMILES IDX 60 78 61 79 62 80 39 81 40 82 48 83 41 84 43 85 49 86 42 87
REMARK SMILES IDX 44 88 45 89 46 90 47 91
REMARK H PARENT 6 7 10 25 69 44 37 55
REMARK Flexibility Score: inf
ROOT
ATOM      1  C   UNL A   1      32.753  32.812  27.239  1.00  0.00     0.118 C 
ENDROOT
BRANCH   1   2
ATOM      2  C   UNL A   1      31.526  32.189  26.586  1.00  0.00     0.042 C 
BRANCH   2   3
ATOM      3  C   UNL A   1      31.648  30.689  26.344  1.00  0.00     0.117 C 
BRANCH   3   4
ATOM      4  N   UNL A   1      31.152  30.290  25.036  1.00  0.00    -0.356 N 
ATOM      5  C   UNL A   1      31.631  29.398  24.130  1.00  0.00     0.225 C 
ATOM      6  O   UNL A   1      30.988  29.255  23.084  1.00  0.00    -0.275 OA
ATOM      7  H   UNL A   1      30.324  30.744  24.761  1.00  0.00     0.163 HD
BRANCH   5   8
ATOM      8  C   UNL A   1      32.876  28.559  24.371  1.00  0.00     0.102 C 
ATOM      9  C   UNL A   1      33.767  27.962  26.648  1.00  0.00     0.032 C 
ATOM     10  C   UNL A   1      32.742  27.608  25.567  1.00  0.00     0.093 C 
ATOM     11  N   UNL A   1      32.997  26.272  25.013  1.00  0.00    -0.352 N 
ATOM     12  C   UNL A   1      33.281  27.726  23.161  1.00  0.00     0.037 C 
ATOM     13  C   UNL A   1      33.510  26.307  23.663  1.00  0.00     0.119 C 
BRANCH  11  14
ATOM     14  C   UNL A   1      32.660  25.136  25.719  1.00  0.00     0.141 A 
ATOM     15  N   UNL A   1      31.354  25.000  26.078  1.00  0.00    -0.219 NA
ATOM     16  C   UNL A   1      33.540  24.079  26.088  1.00  0.00     0.054 A 
ATOM     17  C   UNL A   1      30.942  23.917  26.757  1.00  0.00     0.225 A 
ATOM     18  C   UNL A   1      32.968  23.014  26.774  1.00  0.00     0.128 A 
ATOM     19  C   UNL A   1      34.952  23.830  25.922  1.00  0.00     0.026 A 
ATOM     20  N   UNL A   1      31.686  22.885  27.139  1.00  0.00    -0.225 NA
ATOM     21  S   UNL A   1      34.074  21.771  27.153  1.00  0.00    -0.124 S 
ATOM     22  C   UNL A   1      35.362  22.616  26.428  1.00  0.00     0.068 A 
ENDBRANCH  11  14
ENDBRANCH   5   8
ENDBRANCH   3   4
ENDBRANCH   2   3
ENDBRANCH   1   2
BRANCH   1  23
ATOM     23  N   UNL A   1      32.525  34.186  27.667  1.00  0.00    -0.352 N 
ATOM     24  C   UNL A   1      33.092  34.899  28.694  1.00  0.00     0.251 C 
ATOM     25  H   UNL A   1      31.861  34.681  27.135  1.00  0.00     0.163 HD
ATOM     26  O   UNL A   1      32.612  35.989  29.003  1.00  0.00    -0.269 OA
BRANCH  24  27
ATOM     27  C   UNL A   1      34.256  34.366  29.433  1.00  0.00     0.039 A 
ATOM     28  C   UNL A   1      34.041  33.710  30.649  1.00  0.00     0.014 A 
ATOM     29  C   UNL A   1      35.558  34.535  28.956  1.00  0.00     0.014 A 
ATOM     30  C   UNL A   1      35.122  33.172  31.351  1.00  0.00     0.010 A 
ATOM     31  C   UNL A   1      36.625  33.926  29.613  1.00  0.00     0.010 A 
ATOM     32  C   UNL A   1      36.421  33.248  30.822  1.00  0.00    -0.014 A 
BRANCH  32  33
ATOM     33  C   UNL A   1      37.571  32.610  31.515  1.00  0.00     0.031 A 
ATOM     34  C   UNL A   1      38.300  31.455  30.882  1.00  0.00     0.074 A 
ATOM     35  C   UNL A   1      37.907  33.019  32.754  1.00  0.00     0.049 A 
ATOM     36  N   UNL A   1      39.300  30.754  31.354  1.00  0.00    -0.248 NA
ATOM     37  C   UNL A   1      37.829  31.008  29.562  1.00  0.00     0.031 C 
ATOM     38  C   UNL A   1      37.216  34.062  33.516  1.00  0.00     0.029 A 
ATOM     39  N   UNL A   1      38.895  32.589  33.603  1.00  0.00    -0.354 N 
ATOM     40  C   UNL A   1      39.555  29.769  30.408  1.00  0.00     0.074 A 
ATOM     41  C   UNL A   1      38.579  29.936  29.353  1.00  0.00     0.031 C 
ATOM     42  C   UNL A   1      37.804  34.193  34.716  1.00  0.00     0.029 A 
ATOM     43  C   UNL A   1      38.895  33.231  34.820  1.00  0.00     0.049 A 
ATOM     44  H   UNL A   1      39.544  31.888  33.364  1.00  0.00     0.167 HD
ATOM     45  C   UNL A   1      40.534  28.832  30.398  1.00  0.00     0.034 A 
ATOM     46  C   UNL A   1      39.685  33.062  35.899  1.00  0.00     0.034 A 
ATOM     47  C   UNL A   1      41.530  28.696  31.427  1.00  0.00     0.049 A 
ATOM     48  C   UNL A   1      40.802  32.059  35.838  1.00  0.00     0.074 A 
ATOM     49  C   UNL A   1      42.614  27.837  31.467  1.00  0.00     0.029 A 
ATOM     50  N   UNL A   1      41.562  29.435  32.600  1.00  0.00    -0.354 N 
ATOM     51  N   UNL A   1      41.131  31.249  34.860  1.00  0.00    -0.248 NA
ATOM     52  C   UNL A   1      41.684  31.974  37.011  1.00  0.00     0.031 C 
ATOM     53  C   UNL A   1      43.293  28.046  32.673  1.00  0.00     0.029 A 
ATOM     54  C   UNL A   1      42.644  29.051  33.373  1.00  0.00     0.049 A 
ATOM     55  H   UNL A   1      40.911  30.130  32.845  1.00  0.00     0.167 HD
ATOM     56  C   UNL A   1      42.273  30.581  35.287  1.00  0.00     0.074 A 
ATOM     57  C   UNL A   1      42.595  31.101  36.600  1.00  0.00     0.031 C 
ATOM     58  C   UNL A   1      42.980  29.610  34.658  1.00  0.00     0.034 A 
BRANCH  45  59
ATOM     59  C   UNL A   1      40.615  27.921  29.199  1.00  0.00     0.023 A 
ATOM     60  C   UNL A   1      39.748  26.811  29.115  1.00  0.00     0.012 A 
ATOM     61  C   UNL A   1      41.504  28.184  28.138  1.00  0.00     0.148 A 
ATOM     62  C   UNL A   1      39.790  25.957  28.014  1.00  0.00     0.002 A 
ATOM     63  C   UNL A   1      41.508  27.352  27.023  1.00  0.00     0.091 A 
ATOM     64  F   UNL A   1      42.335  29.230  28.243  1.00  0.00    -0.205 F 
ATOM     65  C   UNL A   1      40.661  26.233  26.965  1.00  0.00     0.022 A 
BRANCH  63  66
ATOM     66  S   UNL A   1      42.537  27.668  25.584  1.00  0.00     0.127 S 
ATOM     67  O   UNL A   1      42.279  26.478  24.771  1.00  0.00    -0.237 OA
ATOM     68  O   UNL A   1      41.957  28.903  25.055  1.00  0.00    -0.237 OA
ATOM     69  O   UNL A   1      43.895  27.802  26.085  1.00  0.00    -0.744 OA
ENDBRANCH  63  66
ENDBRANCH  45  59
BRANCH  46  70
ATOM     70  C   UNL A   1      39.484  33.919  37.101  1.00  0.00     0.023 A 
ATOM     71  C   UNL A   1      39.877  35.271  37.060  1.00  0.00     0.012 A 
ATOM     72  C   UNL A   1      38.872  33.416  38.265  1.00  0.00     0.148 A 
ATOM     73  C   UNL A   1      39.691  36.099  38.167  1.00  0.00     0.002 A 
ATOM     74  C   UNL A   1      38.640  34.261  39.345  1.00  0.00     0.091 A 
ATOM     75  F   UNL A   1      38.517  32.124  38.288  1.00  0.00    -0.205 F 
ATOM     76  C   UNL A   1      39.063  35.598  39.304  1.00  0.00     0.022 A 
BRANCH  74  77
ATOM     77  S   UNL A   1      37.717  33.731  40.792  1.00  0.00     0.127 S 
ATOM     78  O   UNL A   1      38.655  32.803  41.420  1.00  0.00    -0.237 OA
ATOM     79  O   UNL A   1      37.531  34.995  41.510  1.00  0.00    -0.237 OA
ATOM     80  O   UNL A   1      36.489  33.146  40.281  1.00  0.00    -0.744 OA
ENDBRANCH  74  77
ENDBRANCH  46  70
BRANCH  58  81
ATOM     81  C   UNL A   1      44.187  29.057  35.370  1.00  0.00     0.023 A 
ATOM     82  C   UNL A   1      45.452  29.640  35.156  1.00  0.00     0.012 A 
ATOM     83  C   UNL A   1      44.060  28.003  36.296  1.00  0.00     0.148 A 
ATOM     84  C   UNL A   1      46.577  29.158  35.823  1.00  0.00     0.002 A 
ATOM     85  C   UNL A   1      45.179  27.559  36.992  1.00  0.00     0.091 A 
ATOM     86  F   UNL A   1      42.853  27.447  36.472  1.00  0.00    -0.205 F 
ATOM     87  C   UNL A   1      46.439  28.126  36.748  1.00  0.00     0.022 A 
BRANCH  85  88
ATOM     88  S   UNL A   1      45.074  26.299  38.269  1.00  0.00     0.127 S 
ATOM     89  O   UNL A   1      44.939  25.080  37.473  1.00  0.00    -0.237 OA
ATOM     90  O   UNL A   1      46.360  26.441  38.953  1.00  0.00    -0.237 OA
ATOM     91  O   UNL A   1      43.918  26.651  39.082  1.00  0.00    -0.744 OA
ENDBRANCH  85  88
ENDBRANCH  58  81
ENDBRANCH  32  33
ENDBRANCH  24  27
ENDBRANCH   1  23
TORSDOF 14
ENDMDL
MODEL 2
REMARK VINA RESULT:     -12.4      4.138     10.378
REMARK SMILES C[C@H]1[C@H](C(=O)NCCCNC(=O)c2ccc(-c3c4nc(c(-c5cccc(S(=O)(=O)[O-])c5F)c5ccc([nH]5)c(-c5cccc(S(=O)(=O)[O-])c5F)c5nc(c(-c6cccc(S(=O)(=O)[O-])c6F)c6ccc3[nH]6)C=C5)C=C4)cc2)CCN1c1ncnc2sccc12
REMARK SMILES IDX 9 1 8 2 7 3 6 4 4 5 5 6 3 8 1 9 2 10 78 11 76 12 77 13 79 14
REMARK SMILES IDX 80 15 87 16 81 17 83 18 86 19 82 20 84 21 85 22 10 23 11 24
REMARK SMILES IDX 12 26 13 27 14 28 75 29 15 30 74 31 16 32 17 33 18 34 68 35
REMARK SMILES IDX 19 36 73 37 67 38 69 39 20 40 72 41 66 42 65 43 21 45 53 46
REMARK SMILES IDX 33 47 52 48 34 49 37 50 51 51 70 52 35 53 36 54 50 56 71 57
REMARK SMILES IDX 38 58 22 59 23 60 31 61 24 62 26 63 32 64 25 65 27 66 28 67
REMARK SMILES IDX 29 68 30 69 54 70 55 71 63 72 56 73 58 74 64 75 57 76 59 77
REMARK SMILES IDX 60 78 61 79 62 80 39 81 40 82 48 83 41 84 43 85 49 86 42 87
REMARK SMILES IDX 44 88 45 89 46 90 47 91
REMARK H PARENT 6 7 10 25 69 44 37 55
REMARK Flexibility Score: inf
ROOT
ATOM      1  C   UNL A   1      35.261  33.130  27.992  1.00  0.00     0.118 C 
ENDROOT
BRANCH   1   2
ATOM      2  C   UNL A   1      34.597  34.500  27.953  1.00  0.00     0.042 C 
BRANCH   2   3
ATOM      3  C   UNL A   1      33.283  34.572  28.722  1.00  0.00     0.117 C 
BRANCH   3   4
ATOM      4  N   UNL A   1      33.091  35.853  29.385  1.00  0.00    -0.356 N 
ATOM      5  C   UNL A   1      33.175  36.205  30.694  1.00  0.00     0.225 C 
ATOM      6  O   UNL A   1      32.961  37.390  30.975  1.00  0.00    -0.275 OA
ATOM      7  H   UNL A   1      32.860  36.592  28.779  1.00  0.00     0.163 HD
BRANCH   5   8
ATOM      8  C   UNL A   1      33.557  35.227  31.793  1.00  0.00     0.102 C 
ATOM      9  C   UNL A   1      34.759  33.050  31.403  1.00  0.00     0.032 C 
ATOM     10  C   UNL A   1      34.921  34.564  31.566  1.00  0.00     0.093 C 
ATOM     11  N   UNL A   1      35.699  34.886  32.770  1.00  0.00    -0.352 N 
ATOM     12  C   UNL A   1      33.576  35.860  33.180  1.00  0.00     0.037 C 
ATOM     13  C   UNL A   1      34.898  35.467  33.823  1.00  0.00     0.119 C 
BRANCH  11  14
ATOM     14  C   UNL A   1      37.069  34.727  32.793  1.00  0.00     0.141 A 
ATOM     15  N   UNL A   1      37.660  34.668  34.018  1.00  0.00    -0.219 NA
ATOM     16  C   UNL A   1      37.923  34.593  31.661  1.00  0.00     0.054 A 
ATOM     17  C   UNL A   1      38.988  34.503  34.127  1.00  0.00     0.225 A 
ATOM     18  C   UNL A   1      39.275  34.410  31.930  1.00  0.00     0.128 A 
ATOM     19  C   UNL A   1      37.722  34.606  30.232  1.00  0.00     0.026 A 
ATOM     20  N   UNL A   1      39.858  34.366  33.134  1.00  0.00    -0.225 NA
ATOM     21  S   UNL A   1      40.231  34.224  30.529  1.00  0.00    -0.124 S 
ATOM     22  C   UNL A   1      38.876  34.394  29.511  1.00  0.00     0.068 A 
ENDBRANCH  11  14
ENDBRANCH   5   8
ENDBRANCH   3   4
ENDBRANCH   2   3
ENDBRANCH   1   2
BRANCH   1  23
ATOM     23  N   UNL A   1      34.327  32.045  27.720  1.00  0.00    -0.352 N 
ATOM     24  C   UNL A   1      34.533  30.688  27.684  1.00  0.00     0.251 C 
ATOM     25  H   UNL A   1      33.403  32.329  27.535  1.00  0.00     0.163 HD
ATOM     26  O   UNL A   1      33.645  29.959  27.242  1.00  0.00    -0.269 OA
BRANCH  24  27
ATOM     27  C   UNL A   1      35.806  30.102  28.156  1.00  0.00     0.039 A 
ATOM     28  C   UNL A   1      36.900  30.073  27.285  1.00  0.00     0.014 A 
ATOM     29  C   UNL A   1      35.922  29.554  29.435  1.00  0.00     0.014 A 
ATOM     30  C   UNL A   1      38.121  29.552  27.717  1.00  0.00     0.010 A 
ATOM     31  C   UNL A   1      37.161  29.111  29.893  1.00  0.00     0.010 A 
ATOM     32  C   UNL A   1      38.271  29.096  29.038  1.00  0.00    -0.014 A 
BRANCH  32  33
ATOM     33  C   UNL A   1      39.584  28.614  29.540  1.00  0.00     0.031 A 
ATOM     34  C   UNL A   1      40.302  29.354  30.636  1.00  0.00     0.074 A 
ATOM     35  C   UNL A   1      40.170  27.555  28.948  1.00  0.00     0.049 A 
ATOM     36  N   UNL A   1      41.469  29.102  31.173  1.00  0.00    -0.248 NA
ATOM     37  C   UNL A   1      39.640  30.550  31.182  1.00  0.00     0.031 C 
ATOM     38  C   UNL A   1      39.624  26.812  27.811  1.00  0.00     0.029 A 
ATOM     39  N   UNL A   1      41.368  26.935  29.202  1.00  0.00    -0.354 N 
ATOM     40  C   UNL A   1      41.693  30.119  32.094  1.00  0.00     0.074 A 
ATOM     41  C   UNL A   1      40.562  31.016  32.012  1.00  0.00     0.031 C 
ATOM     42  C   UNL A   1      40.480  25.836  27.469  1.00  0.00     0.029 A 
ATOM     43  C   UNL A   1      41.646  25.897  28.343  1.00  0.00     0.049 A 
ATOM     44  H   UNL A   1      41.972  27.208  29.931  1.00  0.00     0.167 HD
ATOM     45  C   UNL A   1      42.729  30.275  32.953  1.00  0.00     0.034 A 
ATOM     46  C   UNL A   1      42.719  25.086  28.268  1.00  0.00     0.034 A 
ATOM     47  C   UNL A   1      43.832  29.358  33.061  1.00  0.00     0.049 A 
ATOM     48  C   UNL A   1      43.826  25.242  29.273  1.00  0.00     0.074 A 
ATOM     49  C   UNL A   1      44.885  29.381  33.959  1.00  0.00     0.029 A 
ATOM     50  N   UNL A   1      44.028  28.256  32.244  1.00  0.00    -0.354 N 
ATOM     51  N   UNL A   1      43.938  26.112  30.248  1.00  0.00    -0.248 NA
ATOM     52  C   UNL A   1      44.934  24.279  29.197  1.00  0.00     0.031 C 
ATOM     53  C   UNL A   1      45.726  28.299  33.674  1.00  0.00     0.029 A 
ATOM     54  C   UNL A   1      45.185  27.592  32.612  1.00  0.00     0.049 A 
ATOM     55  H   UNL A   1      43.431  27.986  31.510  1.00  0.00     0.167 HD
ATOM     56  C   UNL A   1      45.111  25.784  30.918  1.00  0.00     0.074 A 
ATOM     57  C   UNL A   1      45.658  24.618  30.255  1.00  0.00     0.031 C 
ATOM     58  C   UNL A   1      45.694  26.404  31.974  1.00  0.00     0.034 A 
BRANCH  45  59
ATOM     59  C   UNL A   1      42.682  31.453  33.894  1.00  0.00     0.023 A 
ATOM     60  C   UNL A   1      43.256  32.678  33.496  1.00  0.00     0.012 A 
ATOM     61  C   UNL A   1      42.033  31.368  35.141  1.00  0.00     0.148 A 
ATOM     62  C   UNL A   1      43.219  33.789  34.338  1.00  0.00     0.002 A 
ATOM     63  C   UNL A   1      41.961  32.493  35.957  1.00  0.00     0.091 A 
ATOM     64  F   UNL A   1      41.512  30.190  35.513  1.00  0.00    -0.205 F 
ATOM     65  C   UNL A   1      42.563  33.699  35.562  1.00  0.00     0.022 A 
BRANCH  63  66
ATOM     66  S   UNL A   1      41.071  32.502  37.518  1.00  0.00     0.127 S 
ATOM     67  O   UNL A   1      39.786  31.922  37.127  1.00  0.00    -0.237 OA
ATOM     68  O   UNL A   1      41.902  31.630  38.351  1.00  0.00    -0.237 OA
ATOM     69  O   UNL A   1      41.028  33.890  37.947  1.00  0.00    -0.744 OA
ENDBRANCH  63  66
ENDBRANCH  45  59
BRANCH  46  70
ATOM     70  C   UNL A   1      42.759  24.007  27.241  1.00  0.00     0.023 A 
ATOM     71  C   UNL A   1      43.454  24.225  26.036  1.00  0.00     0.012 A 
ATOM     72  C   UNL A   1      42.149  22.759  27.468  1.00  0.00     0.148 A 
ATOM     73  C   UNL A   1      43.517  23.228  25.062  1.00  0.00     0.002 A 
ATOM     74  C   UNL A   1      42.262  21.751  26.516  1.00  0.00     0.091 A 
ATOM     75  F   UNL A   1      41.482  22.577  28.615  1.00  0.00    -0.205 F 
ATOM     76  C   UNL A   1      42.931  21.989  25.306  1.00  0.00     0.022 A 
BRANCH  74  77
ATOM     77  S   UNL A   1      41.654  20.086  26.809  1.00  0.00     0.127 S 
ATOM     78  O   UNL A   1      40.300  20.345  27.293  1.00  0.00    -0.237 OA
ATOM     79  O   UNL A   1      41.726  19.499  25.469  1.00  0.00    -0.237 OA
ATOM     80  O   UNL A   1      42.572  19.498  27.770  1.00  0.00    -0.744 OA
ENDBRANCH  74  77
ENDBRANCH  46  70
BRANCH  58  81
ATOM     81  C   UNL A   1      46.982  25.823  32.496  1.00  0.00     0.023 A 
ATOM     82  C   UNL A   1      48.213  26.276  31.980  1.00  0.00     0.012 A 
ATOM     83  C   UNL A   1      46.977  24.874  33.537  1.00  0.00     0.148 A 
ATOM     84  C   UNL A   1      49.416  25.767  32.465  1.00  0.00     0.002 A 
ATOM     85  C   UNL A   1      48.182  24.406  34.049  1.00  0.00     0.091 A 
ATOM     86  F   UNL A   1      45.797  24.440  34.002  1.00  0.00    -0.205 F 
ATOM     87  C   UNL A   1      49.401  24.841  33.506  1.00  0.00     0.022 A 
BRANCH  85  88
ATOM     88  S   UNL A   1      48.256  23.285  35.451  1.00  0.00     0.127 S 
ATOM     89  O   UNL A   1      47.573  24.059  36.487  1.00  0.00    -0.237 OA
ATOM     90  O   UNL A   1      47.507  22.126  34.963  1.00  0.00    -0.237 OA
ATOM     91  O   UNL A   1      49.671  23.032  35.684  1.00  0.00    -0.744 OA
ENDBRANCH  85  88
ENDBRANCH  58  81
ENDBRANCH  32  33
ENDBRANCH  24  27
ENDBRANCH   1  23
TORSDOF 14
ENDMDL
MODEL 3
REMARK VINA RESULT:     -12.3      2.611      8.330
REMARK SMILES C[C@H]1[C@H](C(=O)NCCCNC(=O)c2ccc(-c3c4nc(c(-c5cccc(S(=O)(=O)[O-])c5F)c5ccc([nH]5)c(-c5cccc(S(=O)(=O)[O-])c5F)c5nc(c(-c6cccc(S(=O)(=O)[O-])c6F)c6ccc3[nH]6)C=C5)C=C4)cc2)CCN1c1ncnc2sccc12
REMARK SMILES IDX 9 1 8 2 7 3 6 4 4 5 5 6 3 8 1 9 2 10 78 11 76 12 77 13 79 14
REMARK SMILES IDX 80 15 87 16 81 17 83 18 86 19 82 20 84 21 85 22 10 23 11 24
REMARK SMILES IDX 12 26 13 27 14 28 75 29 15 30 74 31 16 32 17 33 18 34 68 35
REMARK SMILES IDX 19 36 73 37 67 38 69 39 20 40 72 41 66 42 65 43 21 45 53 46
REMARK SMILES IDX 33 47 52 48 34 49 37 50 51 51 70 52 35 53 36 54 50 56 71 57
REMARK SMILES IDX 38 58 22 59 23 60 31 61 24 62 26 63 32 64 25 65 27 66 28 67
REMARK SMILES IDX 29 68 30 69 54 70 55 71 63 72 56 73 58 74 64 75 57 76 59 77
REMARK SMILES IDX 60 78 61 79 62 80 39 81 40 82 48 83 41 84 43 85 49 86 42 87
REMARK SMILES IDX 44 88 45 89 46 90 47 91
REMARK H PARENT 6 7 10 25 69 44 37 55
REMARK Flexibility Score: inf
ROOT
ATOM      1  C   UNL A   1      33.121  29.784  26.014  1.00  0.00     0.118 C 
ENDROOT
BRANCH   1   2
ATOM      2  C   UNL A   1      31.774  29.082  25.894  1.00  0.00     0.042 C 
BRANCH   2   3
ATOM      3  C   UNL A   1      31.169  29.140  24.497  1.00  0.00     0.117 C 
BRANCH   3   4
ATOM      4  N   UNL A   1      30.331  27.989  24.200  1.00  0.00    -0.356 N 
ATOM      5  C   UNL A   1      30.628  26.782  23.650  1.00  0.00     0.225 C 
ATOM      6  O   UNL A   1      29.699  25.978  23.518  1.00  0.00    -0.275 OA
ATOM      7  H   UNL A   1      29.384  28.104  24.440  1.00  0.00     0.163 HD
BRANCH   5   8
ATOM      8  C   UNL A   1      32.037  26.382  23.243  1.00  0.00     0.102 C 
ATOM      9  C   UNL A   1      33.937  26.035  24.857  1.00  0.00     0.032 C 
ATOM     10  C   UNL A   1      32.695  25.402  24.224  1.00  0.00     0.093 C 
ATOM     11  N   UNL A   1      33.052  24.236  23.406  1.00  0.00    -0.352 N 
ATOM     12  C   UNL A   1      32.105  25.759  21.854  1.00  0.00     0.037 C 
ATOM     13  C   UNL A   1      32.912  24.475  21.988  1.00  0.00     0.119 C 
BRANCH  11  14
ATOM     14  C   UNL A   1      33.379  23.032  23.993  1.00  0.00     0.141 A 
ATOM     15  N   UNL A   1      32.344  22.240  24.388  1.00  0.00    -0.219 NA
ATOM     16  C   UNL A   1      34.692  22.524  24.205  1.00  0.00     0.054 A 
ATOM     17  C   UNL A   1      32.577  21.047  24.957  1.00  0.00     0.225 A 
ATOM     18  C   UNL A   1      34.778  21.265  24.789  1.00  0.00     0.128 A 
ATOM     19  C   UNL A   1      36.024  23.020  23.954  1.00  0.00     0.026 A 
ATOM     20  N   UNL A   1      33.761  20.492  25.190  1.00  0.00    -0.225 NA
ATOM     21  S   UNL A   1      36.379  20.708  24.981  1.00  0.00    -0.124 S 
ATOM     22  C   UNL A   1      37.018  22.133  24.303  1.00  0.00     0.068 A 
ENDBRANCH  11  14
ENDBRANCH   5   8
ENDBRANCH   3   4
ENDBRANCH   2   3
ENDBRANCH   1   2
BRANCH   1  23
ATOM     23  N   UNL A   1      32.995  31.170  26.449  1.00  0.00    -0.352 N 
ATOM     24  C   UNL A   1      33.706  31.869  27.392  1.00  0.00     0.251 C 
ATOM     25  H   UNL A   1      32.290  31.685  25.994  1.00  0.00     0.163 HD
ATOM     26  O   UNL A   1      33.306  32.979  27.742  1.00  0.00    -0.269 OA
BRANCH  24  27
ATOM     27  C   UNL A   1      34.930  31.299  27.995  1.00  0.00     0.039 A 
ATOM     28  C   UNL A   1      36.083  32.088  28.053  1.00  0.00     0.014 A 
ATOM     29  C   UNL A   1      34.960  29.988  28.473  1.00  0.00     0.014 A 
ATOM     30  C   UNL A   1      37.243  31.582  28.645  1.00  0.00     0.010 A 
ATOM     31  C   UNL A   1      36.089  29.514  29.137  1.00  0.00     0.010 A 
ATOM     32  C   UNL A   1      37.246  30.301  29.221  1.00  0.00    -0.014 A 
BRANCH  32  33
ATOM     33  C   UNL A   1      38.445  29.779  29.927  1.00  0.00     0.031 A 
ATOM     34  C   UNL A   1      38.806  30.282  31.299  1.00  0.00     0.074 A 
ATOM     35  C   UNL A   1      39.258  28.909  29.295  1.00  0.00     0.049 A 
ATOM     36  N   UNL A   1      39.832  29.968  32.048  1.00  0.00    -0.248 NA
ATOM     37  C   UNL A   1      37.917  31.291  31.897  1.00  0.00     0.031 C 
ATOM     38  C   UNL A   1      39.073  28.420  27.927  1.00  0.00     0.029 A 
ATOM     39  N   UNL A   1      40.418  28.303  29.708  1.00  0.00    -0.354 N 
ATOM     40  C   UNL A   1      39.729  30.759  33.187  1.00  0.00     0.074 A 
ATOM     41  C   UNL A   1      38.565  31.599  33.011  1.00  0.00     0.031 C 
ATOM     42  C   UNL A   1      40.080  27.587  27.617  1.00  0.00     0.029 A 
ATOM     43  C   UNL A   1      40.994  27.501  28.750  1.00  0.00     0.049 A 
ATOM     44  H   UNL A   1      40.802  28.431  30.606  1.00  0.00     0.167 HD
ATOM     45  C   UNL A   1      40.511  30.763  34.293  1.00  0.00     0.034 A 
ATOM     46  C   UNL A   1      42.130  26.779  28.781  1.00  0.00     0.034 A 
ATOM     47  C   UNL A   1      41.644  29.897  34.482  1.00  0.00     0.049 A 
ATOM     48  C   UNL A   1      42.947  26.752  30.043  1.00  0.00     0.074 A 
ATOM     49  C   UNL A   1      42.447  29.763  35.601  1.00  0.00     0.029 A 
ATOM     50  N   UNL A   1      42.138  29.019  33.529  1.00  0.00    -0.354 N 
ATOM     51  N   UNL A   1      42.738  27.383  31.174  1.00  0.00    -0.248 NA
ATOM     52  C   UNL A   1      44.132  25.883  30.050  1.00  0.00     0.031 C 
ATOM     53  C   UNL A   1      43.437  28.815  35.318  1.00  0.00     0.029 A 
ATOM     54  C   UNL A   1      43.236  28.342  34.031  1.00  0.00     0.049 A 
ATOM     55  H   UNL A   1      41.761  28.896  32.629  1.00  0.00     0.167 HD
ATOM     56  C   UNL A   1      43.746  26.966  32.034  1.00  0.00     0.074 A 
ATOM     57  C   UNL A   1      44.549  26.007  31.303  1.00  0.00     0.031 C 
ATOM     58  C   UNL A   1      43.998  27.356  33.309  1.00  0.00     0.034 A 
BRANCH  45  59
ATOM     59  C   UNL A   1      40.125  31.693  35.416  1.00  0.00     0.023 A 
ATOM     60  C   UNL A   1      40.756  32.951  35.518  1.00  0.00     0.012 A 
ATOM     61  C   UNL A   1      39.113  31.351  36.334  1.00  0.00     0.148 A 
ATOM     62  C   UNL A   1      40.412  33.838  36.538  1.00  0.00     0.002 A 
ATOM     63  C   UNL A   1      38.746  32.260  37.321  1.00  0.00     0.091 A 
ATOM     64  F   UNL A   1      38.540  30.144  36.236  1.00  0.00    -0.205 F 
ATOM     65  C   UNL A   1      39.402  33.497  37.431  1.00  0.00     0.022 A 
BRANCH  63  66
ATOM     66  S   UNL A   1      37.402  31.947  38.473  1.00  0.00     0.127 S 
ATOM     67  O   UNL A   1      37.111  30.537  38.210  1.00  0.00    -0.237 OA
ATOM     68  O   UNL A   1      38.038  32.205  39.766  1.00  0.00    -0.237 OA
ATOM     69  O   UNL A   1      36.346  32.882  38.119  1.00  0.00    -0.744 OA
ENDBRANCH  63  66
ENDBRANCH  45  59
BRANCH  46  70
ATOM     70  C   UNL A   1      42.519  25.964  27.596  1.00  0.00     0.023 A 
ATOM     71  C   UNL A   1      43.364  26.525  26.618  1.00  0.00     0.012 A 
ATOM     72  C   UNL A   1      42.093  24.630  27.453  1.00  0.00     0.148 A 
ATOM     73  C   UNL A   1      43.754  25.781  25.504  1.00  0.00     0.002 A 
ATOM     74  C   UNL A   1      42.529  23.877  26.368  1.00  0.00     0.091 A 
ATOM     75  F   UNL A   1      41.280  24.120  28.387  1.00  0.00    -0.205 F 
ATOM     76  C   UNL A   1      43.346  24.456  25.384  1.00  0.00     0.022 A 
BRANCH  74  77
ATOM     77  S   UNL A   1      42.162  22.126  26.209  1.00  0.00     0.127 S 
ATOM     78  O   UNL A   1      40.709  22.140  26.051  1.00  0.00    -0.237 OA
ATOM     79  O   UNL A   1      42.908  21.770  25.000  1.00  0.00    -0.237 OA
ATOM     80  O   UNL A   1      42.663  21.509  27.426  1.00  0.00    -0.744 OA
ENDBRANCH  74  77
ENDBRANCH  46  70
BRANCH  58  81
ATOM     81  C   UNL A   1      45.178  26.731  34.006  1.00  0.00     0.023 A 
ATOM     82  C   UNL A   1      46.444  27.344  33.922  1.00  0.00     0.012 A 
ATOM     83  C   UNL A   1      45.022  25.572  34.792  1.00  0.00     0.148 A 
ATOM     84  C   UNL A   1      47.544  26.793  34.578  1.00  0.00     0.002 A 
ATOM     85  C   UNL A   1      46.113  25.056  35.482  1.00  0.00     0.091 A 
ATOM     86  F   UNL A   1      43.815  24.991  34.845  1.00  0.00    -0.205 F 
ATOM     87  C   UNL A   1      47.377  25.656  35.366  1.00  0.00     0.022 A 
BRANCH  85  88
ATOM     88  S   UNL A   1      45.966  23.652  36.594  1.00  0.00     0.127 S 
ATOM     89  O   UNL A   1      47.345  23.490  37.053  1.00  0.00    -0.237 OA
ATOM     90  O   UNL A   1      45.041  24.154  37.610  1.00  0.00    -0.237 OA
ATOM     91  O   UNL A   1      45.440  22.560  35.788  1.00  0.00    -0.744 OA
ENDBRANCH  85  88
ENDBRANCH  58  81
ENDBRANCH  32  33
ENDBRANCH  24  27
ENDBRANCH   1  23
TORSDOF 14
ENDMDL
