MODEL 1
REMARK VINA RESULT:     -11.7      0.000      0.000
REMARK SMILES CCC(CC)(CC(=O)NNC(=O)c1cc(C)oc1C)C(=O)NCCCNC(=O)c1ccc(-c2c3nc(c(-c4cccc(S(=O)(=O)[O-])c4F)c4ccc([nH]4)c(-c4cccc(S(=O)(=O)[O-])c4F)c4nc(c(-c5cccc(S(=O)(=O)[O-])c5F)c5ccc2[nH]5)C=C4)C=C3)cc1
REMARK SMILES IDX 23 1 22 2 20 3 21 4 3 6 2 7 1 8 4 9 5 10 6 11 7 12 8 13 9 14
REMARK SMILES IDX 10 16 11 17 12 19 13 20 14 21 18 22 15 23 17 24 19 25 16 26
REMARK SMILES IDX 24 27 25 28 26 29 27 30 28 32 29 33 30 34 91 35 31 36 90 37
REMARK SMILES IDX 32 38 33 39 34 40 84 41 35 42 89 43 83 44 85 45 36 46 88 47
REMARK SMILES IDX 82 48 81 49 37 51 69 52 49 53 68 54 50 55 53 56 67 57 86 58
REMARK SMILES IDX 51 59 52 60 66 62 87 63 54 64 38 65 39 66 47 67 40 68 42 69
REMARK SMILES IDX 48 70 41 71 43 72 44 73 45 74 46 75 70 76 71 77 79 78 72 79
REMARK SMILES IDX 74 80 80 81 73 82 75 83 76 84 77 85 78 86 55 87 56 88 64 89
REMARK SMILES IDX 57 90 59 91 65 92 58 93 60 94 61 95 62 96 63 97
REMARK H PARENT 22 5 9 15 10 18 26 31 85 50 53 61
REMARK Flexibility Score: inf
ROOT
ATOM      1  C   UNL A   1      32.052  30.304  25.991  1.00  0.00     0.117 C 
ENDROOT
BRANCH   1   2
ATOM      2  N   UNL A   1      31.262  29.900  24.840  1.00  0.00    -0.356 N 
ATOM      3  C   UNL A   1      31.099  28.735  24.163  1.00  0.00     0.226 C 
ATOM      4  O   UNL A   1      30.327  28.788  23.199  1.00  0.00    -0.274 OA
ATOM      5  H   UNL A   1      30.725  30.636  24.467  1.00  0.00     0.163 HD
BRANCH   3   6
ATOM      6  C   UNL A   1      31.796  27.406  24.557  1.00  0.00     0.057 C 
BRANCH   6   7
ATOM      7  C   UNL A   1      33.313  27.704  24.841  1.00  0.00     0.014 C 
ATOM      8  C   UNL A   1      33.818  27.407  26.253  1.00  0.00     0.005 C 
ENDBRANCH   6   7
BRANCH   6   9
ATOM      9  C   UNL A   1      31.676  26.385  23.384  1.00  0.00     0.014 C 
ATOM     10  C   UNL A   1      32.944  26.168  22.565  1.00  0.00     0.005 C 
ENDBRANCH   6   9
BRANCH   6  11
ATOM     11  C   UNL A   1      31.174  26.847  25.866  1.00  0.00     0.118 C 
BRANCH  11  12
ATOM     12  C   UNL A   1      30.090  25.796  25.659  1.00  0.00     0.239 C 
ATOM     13  O   UNL A   1      29.112  26.028  24.949  1.00  0.00    -0.273 OA
ATOM     14  N   UNL A   1      30.209  24.562  26.251  1.00  0.00    -0.267 N 
ATOM     15  H   UNL A   1      29.539  23.880  26.017  1.00  0.00     0.191 HD
BRANCH  14  16
ATOM     16  N   UNL A   1      31.205  24.198  27.160  1.00  0.00    -0.263 N 
ATOM     17  C   UNL A   1      32.068  23.138  26.964  1.00  0.00     0.273 C 
ATOM     18  H   UNL A   1      31.296  24.726  27.987  1.00  0.00     0.191 HD
ATOM     19  O   UNL A   1      32.578  22.584  27.943  1.00  0.00    -0.267 OA
BRANCH  17  20
ATOM     20  C   UNL A   1      32.387  22.745  25.605  1.00  0.00     0.082 A 
ATOM     21  C   UNL A   1      31.644  21.911  24.716  1.00  0.00     0.059 A 
ATOM     22  C   UNL A   1      33.463  23.204  24.864  1.00  0.00     0.113 A 
ATOM     23  C   UNL A   1      32.306  21.925  23.509  1.00  0.00     0.101 A 
ATOM     24  O   UNL A   1      33.419  22.702  23.598  1.00  0.00    -0.466 OA
ATOM     25  C   UNL A   1      34.603  24.098  25.157  1.00  0.00     0.088 C 
ATOM     26  C   UNL A   1      32.035  21.316  22.193  1.00  0.00     0.087 C 
ENDBRANCH  17  20
ENDBRANCH  14  16
ENDBRANCH  11  12
ENDBRANCH   6  11
ENDBRANCH   3   6
ENDBRANCH   1   2
BRANCH   1  27
ATOM     27  C   UNL A   1      31.735  31.715  26.478  1.00  0.00     0.042 C 
BRANCH  27  28
ATOM     28  C   UNL A   1      32.842  32.386  27.284  1.00  0.00     0.118 C 
BRANCH  28  29
ATOM     29  N   UNL A   1      32.544  33.776  27.608  1.00  0.00    -0.352 N 
ATOM     30  C   UNL A   1      33.094  34.599  28.563  1.00  0.00     0.251 C 
ATOM     31  H   UNL A   1      31.840  34.190  27.060  1.00  0.00     0.163 HD
ATOM     32  O   UNL A   1      32.583  35.695  28.784  1.00  0.00    -0.269 OA
BRANCH  30  33
ATOM     33  C   UNL A   1      34.277  34.169  29.340  1.00  0.00     0.039 A 
ATOM     34  C   UNL A   1      34.087  33.373  30.474  1.00  0.00     0.014 A 
ATOM     35  C   UNL A   1      35.566  34.557  28.967  1.00  0.00     0.014 A 
ATOM     36  C   UNL A   1      35.193  32.897  31.185  1.00  0.00     0.010 A 
ATOM     37  C   UNL A   1      36.668  34.037  29.640  1.00  0.00     0.010 A 
ATOM     38  C   UNL A   1      36.493  33.193  30.748  1.00  0.00    -0.014 A 
BRANCH  38  39
ATOM     39  C   UNL A   1      37.690  32.611  31.404  1.00  0.00     0.031 A 
ATOM     40  C   UNL A   1      38.420  31.465  30.766  1.00  0.00     0.074 A 
ATOM     41  C   UNL A   1      38.047  33.039  32.632  1.00  0.00     0.049 A 
ATOM     42  N   UNL A   1      39.383  30.729  31.255  1.00  0.00    -0.248 NA
ATOM     43  C   UNL A   1      37.996  31.080  29.409  1.00  0.00     0.031 C 
ATOM     44  C   UNL A   1      37.380  34.104  33.384  1.00  0.00     0.029 A 
ATOM     45  N   UNL A   1      39.040  32.608  33.476  1.00  0.00    -0.354 N 
ATOM     46  C   UNL A   1      39.641  29.759  30.295  1.00  0.00     0.074 A 
ATOM     47  C   UNL A   1      38.739  30.004  29.190  1.00  0.00     0.031 C 
ATOM     48  C   UNL A   1      37.981  34.243  34.576  1.00  0.00     0.029 A 
ATOM     49  C   UNL A   1      39.057  33.262  34.686  1.00  0.00     0.049 A 
ATOM     50  H   UNL A   1      39.679  31.898  33.238  1.00  0.00     0.167 HD
ATOM     51  C   UNL A   1      40.561  28.767  30.321  1.00  0.00     0.034 A 
ATOM     52  C   UNL A   1      39.845  33.087  35.765  1.00  0.00     0.034 A 
ATOM     53  C   UNL A   1      41.513  28.571  31.378  1.00  0.00     0.049 A 
ATOM     54  C   UNL A   1      40.914  32.032  35.732  1.00  0.00     0.074 A 
ATOM     55  C   UNL A   1      42.533  27.638  31.458  1.00  0.00     0.029 A 
ATOM     56  N   UNL A   1      41.574  29.331  32.535  1.00  0.00    -0.354 N 
ATOM     57  N   UNL A   1      41.219  31.201  34.765  1.00  0.00    -0.248 NA
ATOM     58  C   UNL A   1      41.763  31.904  36.926  1.00  0.00     0.031 C 
ATOM     59  C   UNL A   1      43.226  27.851  32.654  1.00  0.00     0.029 A 
ATOM     60  C   UNL A   1      42.623  28.900  33.328  1.00  0.00     0.049 A 
ATOM     61  H   UNL A   1      40.962  30.069  32.760  1.00  0.00     0.167 HD
ATOM     62  C   UNL A   1      42.304  30.466  35.224  1.00  0.00     0.074 A 
ATOM     63  C   UNL A   1      42.617  30.960  36.549  1.00  0.00     0.031 C 
ATOM     64  C   UNL A   1      42.965  29.452  34.612  1.00  0.00     0.034 A 
BRANCH  51  65
ATOM     65  C   UNL A   1      40.630  27.861  29.127  1.00  0.00     0.023 A 
ATOM     66  C   UNL A   1      39.771  26.747  29.066  1.00  0.00     0.012 A 
ATOM     67  C   UNL A   1      41.505  28.121  28.057  1.00  0.00     0.148 A 
ATOM     68  C   UNL A   1      39.789  25.899  27.960  1.00  0.00     0.002 A 
ATOM     69  C   UNL A   1      41.504  27.281  26.948  1.00  0.00     0.091 A 
ATOM     70  F   UNL A   1      42.343  29.165  28.143  1.00  0.00    -0.205 F 
ATOM     71  C   UNL A   1      40.649  26.168  26.897  1.00  0.00     0.022 A 
BRANCH  69  72
ATOM     72  S   UNL A   1      42.571  27.618  25.543  1.00  0.00     0.127 S 
ATOM     73  O   UNL A   1      43.894  27.632  26.162  1.00  0.00    -0.237 OA
ATOM     74  O   UNL A   1      42.325  26.476  24.661  1.00  0.00    -0.237 OA
ATOM     75  O   UNL A   1      42.089  28.890  25.016  1.00  0.00    -0.744 OA
ENDBRANCH  69  72
ENDBRANCH  51  65
BRANCH  52  76
ATOM     76  C   UNL A   1      39.702  34.002  36.929  1.00  0.00     0.023 A 
ATOM     77  C   UNL A   1      40.062  35.355  36.777  1.00  0.00     0.012 A 
ATOM     78  C   UNL A   1      39.154  33.572  38.151  1.00  0.00     0.148 A 
ATOM     79  C   UNL A   1      39.887  36.259  37.825  1.00  0.00     0.002 A 
ATOM     80  C   UNL A   1      38.942  34.489  39.176  1.00  0.00     0.091 A 
ATOM     81  F   UNL A   1      38.828  32.278  38.292  1.00  0.00    -0.205 F 
ATOM     82  C   UNL A   1      39.316  35.831  39.022  1.00  0.00     0.022 A 
BRANCH  80  83
ATOM     83  S   UNL A   1      38.089  33.987  40.676  1.00  0.00     0.127 S 
ATOM     84  O   UNL A   1      36.896  33.331  40.151  1.00  0.00    -0.237 OA
ATOM     85  O   UNL A   1      39.050  33.088  41.318  1.00  0.00    -0.237 OA
ATOM     86  O   UNL A   1      37.882  35.239  41.395  1.00  0.00    -0.744 OA
ENDBRANCH  80  83
ENDBRANCH  52  76
BRANCH  64  87
ATOM     87  C   UNL A   1      44.100  28.813  35.358  1.00  0.00     0.023 A 
ATOM     88  C   UNL A   1      45.397  29.336  35.201  1.00  0.00     0.012 A 
ATOM     89  C   UNL A   1      43.877  27.767  36.271  1.00  0.00     0.148 A 
ATOM     90  C   UNL A   1      46.461  28.823  35.943  1.00  0.00     0.002 A 
ATOM     91  C   UNL A   1      44.939  27.275  37.024  1.00  0.00     0.091 A 
ATOM     92  F   UNL A   1      42.639  27.262  36.388  1.00  0.00    -0.205 F 
ATOM     93  C   UNL A   1      46.230  27.800  36.862  1.00  0.00     0.022 A 
BRANCH  91  94
ATOM     94  S   UNL A   1      44.674  26.002  38.265  1.00  0.00     0.127 S 
ATOM     95  O   UNL A   1      44.128  24.908  37.466  1.00  0.00    -0.237 OA
ATOM     96  O   UNL A   1      46.022  25.762  38.782  1.00  0.00    -0.237 OA
ATOM     97  O   UNL A   1      43.768  26.608  39.232  1.00  0.00    -0.744 OA
ENDBRANCH  91  94
ENDBRANCH  64  87
ENDBRANCH  38  39
ENDBRANCH  30  33
ENDBRANCH  28  29
ENDBRANCH  27  28
ENDBRANCH   1  27
TORSDOF 19
ENDMDL
MODEL 2
REMARK VINA RESULT:     -11.6      2.259      3.042
REMARK SMILES CCC(CC)(CC(=O)NNC(=O)c1cc(C)oc1C)C(=O)NCCCNC(=O)c1ccc(-c2c3nc(c(-c4cccc(S(=O)(=O)[O-])c4F)c4ccc([nH]4)c(-c4cccc(S(=O)(=O)[O-])c4F)c4nc(c(-c5cccc(S(=O)(=O)[O-])c5F)c5ccc2[nH]5)C=C4)C=C3)cc1
REMARK SMILES IDX 23 1 22 2 20 3 21 4 3 6 2 7 1 8 4 9 5 10 6 11 7 12 8 13 9 14
REMARK SMILES IDX 10 16 11 17 12 19 13 20 14 21 18 22 15 23 17 24 19 25 16 26
REMARK SMILES IDX 24 27 25 28 26 29 27 30 28 32 29 33 30 34 91 35 31 36 90 37
REMARK SMILES IDX 32 38 33 39 34 40 84 41 35 42 89 43 83 44 85 45 36 46 88 47
REMARK SMILES IDX 82 48 81 49 37 51 69 52 49 53 68 54 50 55 53 56 67 57 86 58
REMARK SMILES IDX 51 59 52 60 66 62 87 63 54 64 38 65 39 66 47 67 40 68 42 69
REMARK SMILES IDX 48 70 41 71 43 72 44 73 45 74 46 75 70 76 71 77 79 78 72 79
REMARK SMILES IDX 74 80 80 81 73 82 75 83 76 84 77 85 78 86 55 87 56 88 64 89
REMARK SMILES IDX 57 90 59 91 65 92 58 93 60 94 61 95 62 96 63 97
REMARK H PARENT 22 5 9 15 10 18 26 31 85 50 53 61
REMARK Flexibility Score: inf
ROOT
ATOM      1  C   UNL A   1      32.213  28.071  27.202  1.00  0.00     0.117 C 
ENDROOT
BRANCH   1   2
ATOM      2  N   UNL A   1      31.223  27.011  27.115  1.00  0.00    -0.356 N 
ATOM      3  C   UNL A   1      30.798  26.190  26.120  1.00  0.00     0.226 C 
ATOM      4  O   UNL A   1      29.901  25.400  26.436  1.00  0.00    -0.274 OA
ATOM      5  H   UNL A   1      30.756  26.852  27.966  1.00  0.00     0.163 HD
BRANCH   3   6
ATOM      6  C   UNL A   1      31.388  26.198  24.686  1.00  0.00     0.057 C 
BRANCH   6   7
ATOM      7  C   UNL A   1      32.929  25.896  24.779  1.00  0.00     0.014 C 
ATOM      8  C   UNL A   1      33.873  26.994  24.290  1.00  0.00     0.005 C 
ENDBRANCH   6   7
BRANCH   6   9
ATOM      9  C   UNL A   1      31.170  27.600  24.038  1.00  0.00     0.014 C 
ATOM     10  C   UNL A   1      29.818  27.815  23.367  1.00  0.00     0.005 C 
ENDBRANCH   6   9
BRANCH   6  11
ATOM     11  C   UNL A   1      30.740  25.069  23.837  1.00  0.00     0.118 C 
BRANCH  11  12
ATOM     12  C   UNL A   1      31.621  24.527  22.718  1.00  0.00     0.239 C 
ATOM     13  O   UNL A   1      32.040  25.267  21.828  1.00  0.00    -0.273 OA
ATOM     14  N   UNL A   1      31.975  23.200  22.706  1.00  0.00    -0.267 N 
ATOM     15  H   UNL A   1      32.622  22.909  22.022  1.00  0.00     0.191 HD
BRANCH  14  16
ATOM     16  N   UNL A   1      31.492  22.230  23.587  1.00  0.00    -0.263 N 
ATOM     17  C   UNL A   1      32.294  21.528  24.465  1.00  0.00     0.273 C 
ATOM     18  H   UNL A   1      30.527  22.034  23.579  1.00  0.00     0.191 HD
ATOM     19  O   UNL A   1      31.933  20.413  24.854  1.00  0.00    -0.267 OA
BRANCH  17  20
ATOM     20  C   UNL A   1      33.513  22.152  24.942  1.00  0.00     0.082 A 
ATOM     21  C   UNL A   1      34.735  22.380  24.242  1.00  0.00     0.059 A 
ATOM     22  C   UNL A   1      33.682  22.748  26.180  1.00  0.00     0.113 A 
ATOM     23  C   UNL A   1      35.552  23.096  25.088  1.00  0.00     0.101 A 
ATOM     24  O   UNL A   1      34.919  23.313  26.273  1.00  0.00    -0.466 OA
ATOM     25  C   UNL A   1      32.824  22.893  27.375  1.00  0.00     0.088 C 
ATOM     26  C   UNL A   1      36.903  23.674  24.952  1.00  0.00     0.087 C 
ENDBRANCH  17  20
ENDBRANCH  14  16
ENDBRANCH  11  12
ENDBRANCH   6  11
ENDBRANCH   3   6
ENDBRANCH   1   2
BRANCH   1  27
ATOM     27  C   UNL A   1      31.617  29.468  27.067  1.00  0.00     0.042 C 
BRANCH  27  28
ATOM     28  C   UNL A   1      32.408  30.427  26.184  1.00  0.00     0.118 C 
BRANCH  28  29
ATOM     29  N   UNL A   1      32.214  31.826  26.549  1.00  0.00    -0.352 N 
ATOM     30  C   UNL A   1      32.951  32.633  27.382  1.00  0.00     0.251 C 
ATOM     31  H   UNL A   1      31.434  32.259  26.135  1.00  0.00     0.163 HD
ATOM     32  O   UNL A   1      32.520  33.744  27.686  1.00  0.00    -0.269 OA
BRANCH  30  33
ATOM     33  C   UNL A   1      34.244  32.170  27.933  1.00  0.00     0.039 A 
ATOM     34  C   UNL A   1      35.315  33.067  27.987  1.00  0.00     0.014 A 
ATOM     35  C   UNL A   1      34.409  30.857  28.379  1.00  0.00     0.014 A 
ATOM     36  C   UNL A   1      36.525  32.674  28.566  1.00  0.00     0.010 A 
ATOM     37  C   UNL A   1      35.595  30.482  29.007  1.00  0.00     0.010 A 
ATOM     38  C   UNL A   1      36.660  31.389  29.117  1.00  0.00    -0.014 A 
BRANCH  38  39
ATOM     39  C   UNL A   1      37.885  30.974  29.843  1.00  0.00     0.031 A 
ATOM     40  C   UNL A   1      38.826  29.977  29.230  1.00  0.00     0.074 A 
ATOM     41  C   UNL A   1      38.088  31.407  31.103  1.00  0.00     0.049 A 
ATOM     42  N   UNL A   1      39.856  29.380  29.768  1.00  0.00    -0.248 NA
ATOM     43  C   UNL A   1      38.558  29.580  27.837  1.00  0.00     0.031 C 
ATOM     44  C   UNL A   1      37.214  32.329  31.832  1.00  0.00     0.029 A 
ATOM     45  N   UNL A   1      39.077  31.103  32.006  1.00  0.00    -0.354 N 
ATOM     46  C   UNL A   1      40.326  28.496  28.805  1.00  0.00     0.074 A 
ATOM     47  C   UNL A   1      39.473  28.639  27.645  1.00  0.00     0.031 C 
ATOM     48  C   UNL A   1      37.705  32.517  33.067  1.00  0.00     0.029 A 
ATOM     49  C   UNL A   1      38.911  31.709  33.230  1.00  0.00     0.049 A 
ATOM     50  H   UNL A   1      39.832  30.509  31.797  1.00  0.00     0.167 HD
ATOM     51  C   UNL A   1      41.385  27.656  28.873  1.00  0.00     0.034 A 
ATOM     52  C   UNL A   1      39.642  31.618  34.358  1.00  0.00     0.034 A 
ATOM     53  C   UNL A   1      42.282  27.571  29.991  1.00  0.00     0.049 A 
ATOM     54  C   UNL A   1      40.862  30.741  34.375  1.00  0.00     0.074 A 
ATOM     55  C   UNL A   1      43.427  26.803  30.121  1.00  0.00     0.029 A 
ATOM     56  N   UNL A   1      42.147  28.289  31.168  1.00  0.00    -0.354 N 
ATOM     57  N   UNL A   1      41.356  30.001  33.413  1.00  0.00    -0.248 NA
ATOM     58  C   UNL A   1      41.638  30.702  35.624  1.00  0.00     0.031 C 
ATOM     59  C   UNL A   1      43.997  27.076  31.369  1.00  0.00     0.029 A 
ATOM     60  C   UNL A   1      43.194  27.996  32.023  1.00  0.00     0.049 A 
ATOM     61  H   UNL A   1      41.413  28.916  31.366  1.00  0.00     0.167 HD
ATOM     62  C   UNL A   1      42.509  29.425  33.930  1.00  0.00     0.074 A 
ATOM     63  C   UNL A   1      42.652  29.914  35.286  1.00  0.00     0.031 C 
ATOM     64  C   UNL A   1      43.359  28.548  33.342  1.00  0.00     0.034 A 
BRANCH  51  65
ATOM     65  C   UNL A   1      41.674  26.815  27.665  1.00  0.00     0.023 A 
ATOM     66  C   UNL A   1      42.223  27.429  26.523  1.00  0.00     0.012 A 
ATOM     67  C   UNL A   1      41.445  25.427  27.663  1.00  0.00     0.148 A 
ATOM     68  C   UNL A   1      42.529  26.674  25.392  1.00  0.00     0.002 A 
ATOM     69  C   UNL A   1      41.772  24.678  26.537  1.00  0.00     0.091 A 
ATOM     70  F   UNL A   1      40.890  24.860  28.744  1.00  0.00    -0.205 F 
ATOM     71  C   UNL A   1      42.311  25.298  25.400  1.00  0.00     0.022 A 
BRANCH  69  72
ATOM     72  S   UNL A   1      41.541  22.896  26.525  1.00  0.00     0.127 S 
ATOM     73  O   UNL A   1      42.169  22.500  27.784  1.00  0.00    -0.237 OA
ATOM     74  O   UNL A   1      40.084  22.753  26.503  1.00  0.00    -0.237 OA
ATOM     75  O   UNL A   1      42.201  22.451  25.304  1.00  0.00    -0.744 OA
ENDBRANCH  69  72
ENDBRANCH  51  65
BRANCH  52  76
ATOM     76  C   UNL A   1      39.280  32.457  35.531  1.00  0.00     0.023 A 
ATOM     77  C   UNL A   1      38.539  31.875  36.579  1.00  0.00     0.012 A 
ATOM     78  C   UNL A   1      39.715  33.789  35.657  1.00  0.00     0.148 A 
ATOM     79  C   UNL A   1      38.230  32.609  37.724  1.00  0.00     0.002 A 
ATOM     80  C   UNL A   1      39.440  34.500  36.822  1.00  0.00     0.091 A 
ATOM     81  F   UNL A   1      40.407  34.339  34.649  1.00  0.00    -0.205 F 
ATOM     82  C   UNL A   1      38.690  33.918  37.853  1.00  0.00     0.022 A 
BRANCH  80  83
ATOM     83  S   UNL A   1      40.134  36.139  37.064  1.00  0.00     0.127 S 
ATOM     84  O   UNL A   1      39.452  36.591  38.273  1.00  0.00    -0.237 OA
ATOM     85  O   UNL A   1      41.563  35.872  37.230  1.00  0.00    -0.237 OA
ATOM     86  O   UNL A   1      39.806  36.843  35.829  1.00  0.00    -0.744 OA
ENDBRANCH  80  83
ENDBRANCH  52  76
BRANCH  64  87
ATOM     87  C   UNL A   1      44.527  28.063  34.151  1.00  0.00     0.023 A 
ATOM     88  C   UNL A   1      45.713  28.821  34.155  1.00  0.00     0.012 A 
ATOM     89  C   UNL A   1      44.426  26.924  34.969  1.00  0.00     0.148 A 
ATOM     90  C   UNL A   1      46.787  28.448  34.961  1.00  0.00     0.002 A 
ATOM     91  C   UNL A   1      45.495  26.571  35.788  1.00  0.00     0.091 A 
ATOM     92  F   UNL A   1      43.299  26.198  34.932  1.00  0.00    -0.205 F 
ATOM     93  C   UNL A   1      46.675  27.330  35.786  1.00  0.00     0.022 A 
BRANCH  91  94
ATOM     94  S   UNL A   1      45.368  25.174  36.912  1.00  0.00     0.127 S 
ATOM     95  O   UNL A   1      45.210  24.053  35.989  1.00  0.00    -0.237 OA
ATOM     96  O   UNL A   1      46.651  25.203  37.617  1.00  0.00    -0.237 OA
ATOM     97  O   UNL A   1      44.221  25.480  37.757  1.00  0.00    -0.744 OA
ENDBRANCH  91  94
ENDBRANCH  64  87
ENDBRANCH  38  39
ENDBRANCH  30  33
ENDBRANCH  28  29
ENDBRANCH  27  28
ENDBRANCH   1  27
TORSDOF 19
ENDMDL
MODEL 3
REMARK VINA RESULT:     -11.3      2.132      7.985
REMARK SMILES CCC(CC)(CC(=O)NNC(=O)c1cc(C)oc1C)C(=O)NCCCNC(=O)c1ccc(-c2c3nc(c(-c4cccc(S(=O)(=O)[O-])c4F)c4ccc([nH]4)c(-c4cccc(S(=O)(=O)[O-])c4F)c4nc(c(-c5cccc(S(=O)(=O)[O-])c5F)c5ccc2[nH]5)C=C4)C=C3)cc1
REMARK SMILES IDX 23 1 22 2 20 3 21 4 3 6 2 7 1 8 4 9 5 10 6 11 7 12 8 13 9 14
REMARK SMILES IDX 10 16 11 17 12 19 13 20 14 21 18 22 15 23 17 24 19 25 16 26
REMARK SMILES IDX 24 27 25 28 26 29 27 30 28 32 29 33 30 34 91 35 31 36 90 37
REMARK SMILES IDX 32 38 33 39 34 40 84 41 35 42 89 43 83 44 85 45 36 46 88 47
REMARK SMILES IDX 82 48 81 49 37 51 69 52 49 53 68 54 50 55 53 56 67 57 86 58
REMARK SMILES IDX 51 59 52 60 66 62 87 63 54 64 38 65 39 66 47 67 40 68 42 69
REMARK SMILES IDX 48 70 41 71 43 72 44 73 45 74 46 75 70 76 71 77 79 78 72 79
REMARK SMILES IDX 74 80 80 81 73 82 75 83 76 84 77 85 78 86 55 87 56 88 64 89
REMARK SMILES IDX 57 90 59 91 65 92 58 93 60 94 61 95 62 96 63 97
REMARK H PARENT 22 5 9 15 10 18 26 31 85 50 53 61
REMARK Flexibility Score: inf
ROOT
ATOM      1  C   UNL A   1      31.404  28.950  24.079  1.00  0.00     0.117 C 
ENDROOT
BRANCH   1   2
ATOM      2  N   UNL A   1      30.328  27.991  23.889  1.00  0.00    -0.356 N 
ATOM      3  C   UNL A   1      30.125  26.704  24.269  1.00  0.00     0.226 C 
ATOM      4  O   UNL A   1      29.058  26.205  23.895  1.00  0.00    -0.274 OA
ATOM      5  H   UNL A   1      29.577  28.357  23.367  1.00  0.00     0.163 HD
BRANCH   3   6
ATOM      6  C   UNL A   1      31.129  25.893  25.131  1.00  0.00     0.057 C 
BRANCH   6   7
ATOM      7  C   UNL A   1      31.578  26.786  26.345  1.00  0.00     0.014 C 
ATOM      8  C   UNL A   1      33.078  27.042  26.491  1.00  0.00     0.005 C 
ENDBRANCH   6   7
BRANCH   6   9
ATOM      9  C   UNL A   1      32.375  25.520  24.270  1.00  0.00     0.014 C 
ATOM     10  C   UNL A   1      32.107  25.280  22.789  1.00  0.00     0.005 C 
ENDBRANCH   6   9
BRANCH   6  11
ATOM     11  C   UNL A   1      30.434  24.630  25.709  1.00  0.00     0.118 C 
BRANCH  11  12
ATOM     12  C   UNL A   1      31.349  23.708  26.507  1.00  0.00     0.239 C 
ATOM     13  O   UNL A   1      31.759  24.033  27.621  1.00  0.00    -0.273 OA
ATOM     14  N   UNL A   1      31.708  22.486  25.993  1.00  0.00    -0.267 N 
ATOM     15  H   UNL A   1      32.220  21.880  26.577  1.00  0.00     0.191 HD
BRANCH  14  16
ATOM     16  N   UNL A   1      31.405  22.033  24.707  1.00  0.00    -0.263 N 
ATOM     17  C   UNL A   1      32.358  21.794  23.736  1.00  0.00     0.273 C 
ATOM     18  H   UNL A   1      30.459  21.875  24.480  1.00  0.00     0.191 HD
ATOM     19  O   UNL A   1      32.038  21.859  22.546  1.00  0.00    -0.267 OA
BRANCH  17  20
ATOM     20  C   UNL A   1      33.696  21.424  24.155  1.00  0.00     0.082 A 
ATOM     21  C   UNL A   1      34.858  22.245  24.271  1.00  0.00     0.059 A 
ATOM     22  C   UNL A   1      34.078  20.179  24.626  1.00  0.00     0.113 A 
ATOM     23  C   UNL A   1      35.852  21.455  24.805  1.00  0.00     0.101 A 
ATOM     24  O   UNL A   1      35.385  20.195  25.012  1.00  0.00    -0.466 OA
ATOM     25  C   UNL A   1      33.379  18.887  24.793  1.00  0.00     0.088 C 
ATOM     26  C   UNL A   1      37.249  21.711  25.206  1.00  0.00     0.087 C 
ENDBRANCH  17  20
ENDBRANCH  14  16
ENDBRANCH  11  12
ENDBRANCH   6  11
ENDBRANCH   3   6
ENDBRANCH   1   2
BRANCH   1  27
ATOM     27  C   UNL A   1      31.034  30.097  25.013  1.00  0.00     0.042 C 
BRANCH  27  28
ATOM     28  C   UNL A   1      32.105  30.476  26.030  1.00  0.00     0.118 C 
BRANCH  28  29
ATOM     29  N   UNL A   1      32.040  31.877  26.428  1.00  0.00    -0.352 N 
ATOM     30  C   UNL A   1      32.830  32.586  27.302  1.00  0.00     0.251 C 
ATOM     31  H   UNL A   1      31.318  32.396  26.007  1.00  0.00     0.163 HD
ATOM     32  O   UNL A   1      32.501  33.726  27.625  1.00  0.00    -0.269 OA
BRANCH  30  33
ATOM     33  C   UNL A   1      34.054  31.983  27.873  1.00  0.00     0.039 A 
ATOM     34  C   UNL A   1      35.137  32.814  28.178  1.00  0.00     0.014 A 
ATOM     35  C   UNL A   1      34.146  30.607  28.093  1.00  0.00     0.014 A 
ATOM     36  C   UNL A   1      36.278  32.278  28.781  1.00  0.00     0.010 A 
ATOM     37  C   UNL A   1      35.259  30.082  28.745  1.00  0.00     0.010 A 
ATOM     38  C   UNL A   1      36.330  30.913  29.106  1.00  0.00    -0.014 A 
BRANCH  38  39
ATOM     39  C   UNL A   1      37.473  30.329  29.851  1.00  0.00     0.031 A 
ATOM     40  C   UNL A   1      37.735  30.737  31.273  1.00  0.00     0.074 A 
ATOM     41  C   UNL A   1      38.342  29.523  29.209  1.00  0.00     0.049 A 
ATOM     42  N   UNL A   1      38.762  30.459  32.032  1.00  0.00    -0.248 NA
ATOM     43  C   UNL A   1      36.722  31.590  31.917  1.00  0.00     0.031 C 
ATOM     44  C   UNL A   1      38.230  29.103  27.811  1.00  0.00     0.029 A 
ATOM     45  N   UNL A   1      39.507  28.939  29.640  1.00  0.00    -0.354 N 
ATOM     46  C   UNL A   1      38.550  31.146  33.220  1.00  0.00     0.074 A 
ATOM     47  C   UNL A   1      37.293  31.849  33.086  1.00  0.00     0.031 C 
ATOM     48  C   UNL A   1      39.282  28.329  27.499  1.00  0.00     0.029 A 
ATOM     49  C   UNL A   1      40.157  28.221  28.664  1.00  0.00     0.049 A 
ATOM     50  H   UNL A   1      39.845  29.027  30.560  1.00  0.00     0.167 HD
ATOM     51  C   UNL A   1      39.323  31.172  34.330  1.00  0.00     0.034 A 
ATOM     52  C   UNL A   1      41.328  27.555  28.699  1.00  0.00     0.034 A 
ATOM     53  C   UNL A   1      40.529  30.411  34.498  1.00  0.00     0.049 A 
ATOM     54  C   UNL A   1      42.122  27.532  29.974  1.00  0.00     0.074 A 
ATOM     55  C   UNL A   1      41.339  30.315  35.617  1.00  0.00     0.029 A 
ATOM     56  N   UNL A   1      41.091  29.600  33.525  1.00  0.00    -0.354 N 
ATOM     57  N   UNL A   1      41.845  28.094  31.126  1.00  0.00    -0.248 NA
ATOM     58  C   UNL A   1      43.378  26.767  29.965  1.00  0.00     0.031 C 
ATOM     59  C   UNL A   1      42.380  29.426  35.327  1.00  0.00     0.029 A 
ATOM     60  C   UNL A   1      42.229  28.988  34.021  1.00  0.00     0.049 A 
ATOM     61  H   UNL A   1      40.734  29.478  32.616  1.00  0.00     0.167 HD
ATOM     62  C   UNL A   1      42.878  27.736  31.982  1.00  0.00     0.074 A 
ATOM     63  C   UNL A   1      43.780  26.894  31.224  1.00  0.00     0.031 C 
ATOM     64  C   UNL A   1      43.075  28.095  33.274  1.00  0.00     0.034 A 
BRANCH  51  65
ATOM     65  C   UNL A   1      38.839  31.998  35.486  1.00  0.00     0.023 A 
ATOM     66  C   UNL A   1      39.009  33.396  35.443  1.00  0.00     0.012 A 
ATOM     67  C   UNL A   1      38.188  31.413  36.587  1.00  0.00     0.148 A 
ATOM     68  C   UNL A   1      38.548  34.197  36.486  1.00  0.00     0.002 A 
ATOM     69  C   UNL A   1      37.714  32.221  37.615  1.00  0.00     0.091 A 
ATOM     70  F   UNL A   1      38.063  30.078  36.632  1.00  0.00    -0.205 F 
ATOM     71  C   UNL A   1      37.894  33.613  37.569  1.00  0.00     0.022 A 
BRANCH  69  72
ATOM     72  S   UNL A   1      36.832  31.508  39.008  1.00  0.00     0.127 S 
ATOM     73  O   UNL A   1      35.659  32.374  39.101  1.00  0.00    -0.237 OA
ATOM     74  O   UNL A   1      36.545  30.145  38.553  1.00  0.00    -0.237 OA
ATOM     75  O   UNL A   1      37.778  31.578  40.114  1.00  0.00    -0.744 OA
ENDBRANCH  69  72
ENDBRANCH  51  65
BRANCH  52  76
ATOM     76  C   UNL A   1      41.764  26.781  27.506  1.00  0.00     0.023 A 
ATOM     77  C   UNL A   1      42.439  27.456  26.470  1.00  0.00     0.012 A 
ATOM     78  C   UNL A   1      41.586  25.389  27.415  1.00  0.00     0.148 A 
ATOM     79  C   UNL A   1      42.918  26.758  25.361  1.00  0.00     0.002 A 
ATOM     80  C   UNL A   1      42.106  24.694  26.327  1.00  0.00     0.091 A 
ATOM     81  F   UNL A   1      40.930  24.757  28.400  1.00  0.00    -0.205 F 
ATOM     82  C   UNL A   1      42.763  25.375  25.293  1.00  0.00     0.022 A 
BRANCH  80  83
ATOM     83  S   UNL A   1      42.033  22.900  26.283  1.00  0.00     0.127 S 
ATOM     84  O   UNL A   1      40.597  22.644  26.349  1.00  0.00    -0.237 OA
ATOM     85  O   UNL A   1      42.654  22.575  24.998  1.00  0.00    -0.237 OA
ATOM     86  O   UNL A   1      42.822  22.490  27.439  1.00  0.00    -0.744 OA
ENDBRANCH  80  83
ENDBRANCH  52  76
BRANCH  64  87
ATOM     87  C   UNL A   1      44.304  27.575  33.961  1.00  0.00     0.023 A 
ATOM     88  C   UNL A   1      45.493  28.326  33.888  1.00  0.00     0.012 A 
ATOM     89  C   UNL A   1      44.265  26.408  34.744  1.00  0.00     0.148 A 
ATOM     90  C   UNL A   1      46.630  27.918  34.584  1.00  0.00     0.002 A 
ATOM     91  C   UNL A   1      45.397  26.020  35.454  1.00  0.00     0.091 A 
ATOM     92  F   UNL A   1      43.132  25.691  34.781  1.00  0.00    -0.205 F 
ATOM     93  C   UNL A   1      46.579  26.771  35.377  1.00  0.00     0.022 A 
BRANCH  91  94
ATOM     94  S   UNL A   1      45.356  24.585  36.536  1.00  0.00     0.127 S 
ATOM     95  O   UNL A   1      44.795  23.560  35.661  1.00  0.00    -0.237 OA
ATOM     96  O   UNL A   1      46.766  24.389  36.875  1.00  0.00    -0.237 OA
ATOM     97  O   UNL A   1      44.527  24.993  37.663  1.00  0.00    -0.744 OA
ENDBRANCH  91  94
ENDBRANCH  64  87
ENDBRANCH  38  39
ENDBRANCH  30  33
ENDBRANCH  28  29
ENDBRANCH  27  28
ENDBRANCH   1  27
TORSDOF 19
ENDMDL
