MODEL 1
REMARK VINA RESULT:     -11.0      0.000      0.000
REMARK SMILES COCCCNC(=O)C[N@H+]1CC[C@H](C(=O)NCCCNC(=O)c2ccc(-c3c4nc(c(-c5cccc(S(=O)(=O)[O-])c5F)c5ccc([nH]5)c(-c5cccc(S(=O)(=O)[O-])c5F)c5nc(c(-c6cccc(S(=O)(=O)[O-])c6F)c6ccc3[nH]6)C=C5)C=C4)cc2)[C@@H]1C
REMARK SMILES IDX 14 1 15 2 16 3 13 5 10 6 11 7 86 8 12 10 87 11 9 12 7 13
REMARK SMILES IDX 6 14 8 16 5 17 4 18 3 19 2 20 1 21 17 22 18 23 19 24 20 25
REMARK SMILES IDX 21 26 22 28 23 29 24 30 85 31 25 32 84 33 26 34 27 35 28 36
REMARK SMILES IDX 78 37 29 38 83 39 77 40 79 41 30 42 82 43 76 44 75 45 31 47
REMARK SMILES IDX 63 48 43 49 62 50 44 51 47 52 61 53 80 54 45 55 46 56 60 58
REMARK SMILES IDX 81 59 48 60 32 61 33 62 41 63 34 64 36 65 42 66 35 67 37 68
REMARK SMILES IDX 38 69 39 70 40 71 64 72 65 73 73 74 66 75 68 76 74 77 67 78
REMARK SMILES IDX 69 79 70 80 71 81 72 82 49 83 50 84 58 85 51 86 53 87 59 88
REMARK SMILES IDX 52 89 54 90 55 91 56 92 57 93
REMARK H PARENT 16 4 10 9 6 15 20 27 79 46 47 57
REMARK Flexibility Score: inf
ROOT
ATOM      1  C   UNL A   1      33.066  20.456  24.685  1.00  0.00     0.229 C 
ATOM      2  O   UNL A   1      32.006  19.882  24.923  1.00  0.00    -0.275 OA
ATOM      3  N   UNL A   1      34.227  19.932  25.188  1.00  0.00    -0.356 N 
ATOM      4  H   UNL A   1      34.116  19.166  25.796  1.00  0.00     0.163 HD
ENDROOT
BRANCH   1   5
ATOM      5  C   UNL A   1      33.152  21.723  23.857  1.00  0.00     0.142 C 
ATOM      6  N   UNL A   1      32.362  23.963  23.763  1.00  0.00    -0.324 N 
ATOM      7  C   UNL A   1      31.459  23.181  22.921  1.00  0.00     0.263 C 
ATOM      8  C   UNL A   1      33.043  23.022  24.659  1.00  0.00     0.194 C 
ATOM      9  H   UNL A   1      31.805  24.619  24.311  1.00  0.00     0.348 HD
ATOM     10  C   UNL A   1      32.144  21.840  22.716  1.00  0.00     0.081 C 
ATOM     11  C   UNL A   1      32.244  22.919  25.962  1.00  0.00     0.076 C 
BRANCH   6  12
ATOM     12  C   UNL A   1      33.221  24.956  23.090  1.00  0.00     0.363 C 
BRANCH  12  13
ATOM     13  C   UNL A   1      32.733  25.518  21.751  1.00  0.00     0.275 C 
ATOM     14  N   UNL A   1      31.710  26.414  21.668  1.00  0.00    -0.351 N 
ATOM     15  H   UNL A   1      31.439  26.640  20.748  1.00  0.00     0.163 HD
ATOM     16  O   UNL A   1      33.227  25.144  20.682  1.00  0.00    -0.269 OA
BRANCH  14  17
ATOM     17  C   UNL A   1      30.951  27.089  22.701  1.00  0.00     0.118 C 
BRANCH  17  18
ATOM     18  C   UNL A   1      31.232  28.599  22.686  1.00  0.00     0.050 C 
BRANCH  18  19
ATOM     19  C   UNL A   1      32.694  29.010  22.758  1.00  0.00     0.161 C 
BRANCH  19  20
ATOM     20  O   UNL A   1      33.129  29.280  24.089  1.00  0.00    -0.385 OA
ATOM     21  C   UNL A   1      33.889  28.244  24.689  1.00  0.00     0.194 C 
ENDBRANCH  19  20
ENDBRANCH  18  19
ENDBRANCH  17  18
ENDBRANCH  14  17
ENDBRANCH  12  13
ENDBRANCH   6  12
ENDBRANCH   1   5
BRANCH   3  22
ATOM     22  C   UNL A   1      35.599  20.348  24.950  1.00  0.00     0.117 C 
BRANCH  22  23
ATOM     23  C   UNL A   1      36.050  21.506  25.816  1.00  0.00     0.042 C 
BRANCH  23  24
ATOM     24  C   UNL A   1      37.429  22.039  25.484  1.00  0.00     0.118 C 
BRANCH  24  25
ATOM     25  N   UNL A   1      38.500  21.091  25.760  1.00  0.00    -0.352 N 
ATOM     26  C   UNL A   1      39.747  21.309  26.295  1.00  0.00     0.251 C 
ATOM     27  H   UNL A   1      38.302  20.155  25.528  1.00  0.00     0.163 HD
ATOM     28  O   UNL A   1      40.554  20.380  26.340  1.00  0.00    -0.269 OA
BRANCH  26  29
ATOM     29  C   UNL A   1      40.134  22.652  26.782  1.00  0.00     0.039 A 
ATOM     30  C   UNL A   1      40.960  22.750  27.905  1.00  0.00     0.014 A 
ATOM     31  C   UNL A   1      39.708  23.814  26.134  1.00  0.00     0.014 A 
ATOM     32  C   UNL A   1      41.400  24.004  28.332  1.00  0.00     0.010 A 
ATOM     33  C   UNL A   1      40.256  25.044  26.477  1.00  0.00     0.010 A 
ATOM     34  C   UNL A   1      41.084  25.161  27.599  1.00  0.00    -0.014 A 
BRANCH  34  35
ATOM     35  C   UNL A   1      41.613  26.489  28.005  1.00  0.00     0.031 A 
ATOM     36  C   UNL A   1      43.041  26.873  27.717  1.00  0.00     0.074 A 
ATOM     37  C   UNL A   1      40.819  27.337  28.689  1.00  0.00     0.049 A 
ATOM     38  N   UNL A   1      43.650  28.007  27.950  1.00  0.00    -0.248 NA
ATOM     39  C   UNL A   1      43.910  25.841  27.128  1.00  0.00     0.031 C 
ATOM     40  C   UNL A   1      39.458  27.038  29.141  1.00  0.00     0.029 A 
ATOM     41  N   UNL A   1      41.043  28.616  29.132  1.00  0.00    -0.354 N 
ATOM     42  C   UNL A   1      44.973  27.814  27.568  1.00  0.00     0.074 A 
ATOM     43  C   UNL A   1      45.092  26.438  27.145  1.00  0.00     0.031 C 
ATOM     44  C   UNL A   1      38.961  28.111  29.774  1.00  0.00     0.029 A 
ATOM     45  C   UNL A   1      39.972  29.163  29.797  1.00  0.00     0.049 A 
ATOM     46  H   UNL A   1      41.891  29.094  28.989  1.00  0.00     0.167 HD
ATOM     47  C   UNL A   1      45.990  28.707  27.533  1.00  0.00     0.034 A 
ATOM     48  C   UNL A   1      39.815  30.378  30.356  1.00  0.00     0.034 A 
ATOM     49  C   UNL A   1      45.858  30.084  27.927  1.00  0.00     0.049 A 
ATOM     50  C   UNL A   1      40.924  31.385  30.238  1.00  0.00     0.074 A 
ATOM     51  C   UNL A   1      46.791  31.100  27.836  1.00  0.00     0.029 A 
ATOM     52  N   UNL A   1      44.724  30.633  28.508  1.00  0.00    -0.354 N 
ATOM     53  N   UNL A   1      42.111  31.241  29.700  1.00  0.00    -0.248 NA
ATOM     54  C   UNL A   1      40.658  32.733  30.757  1.00  0.00     0.031 C 
ATOM     55  C   UNL A   1      46.235  32.255  28.398  1.00  0.00     0.029 A 
ATOM     56  C   UNL A   1      44.938  31.970  28.795  1.00  0.00     0.049 A 
ATOM     57  H   UNL A   1      43.890  30.143  28.690  1.00  0.00     0.167 HD
ATOM     58  C   UNL A   1      42.723  32.485  29.787  1.00  0.00     0.074 A 
ATOM     59  C   UNL A   1      41.765  33.376  30.413  1.00  0.00     0.031 C 
ATOM     60  C   UNL A   1      43.966  32.854  29.390  1.00  0.00     0.034 A 
BRANCH  47  61
ATOM     61  C   UNL A   1      47.323  28.222  27.017  1.00  0.00     0.023 A 
ATOM     62  C   UNL A   1      48.392  28.014  27.917  1.00  0.00     0.012 A 
ATOM     63  C   UNL A   1      47.518  27.959  25.648  1.00  0.00     0.148 A 
ATOM     64  C   UNL A   1      49.645  27.612  27.456  1.00  0.00     0.002 A 
ATOM     65  C   UNL A   1      48.755  27.504  25.204  1.00  0.00     0.091 A 
ATOM     66  F   UNL A   1      46.503  28.179  24.802  1.00  0.00    -0.205 F 
ATOM     67  C   UNL A   1      49.824  27.350  26.101  1.00  0.00     0.022 A 
BRANCH  65  68
ATOM     68  S   UNL A   1      49.056  27.053  23.491  1.00  0.00     0.127 S 
ATOM     69  O   UNL A   1      48.191  25.883  23.339  1.00  0.00    -0.237 OA
ATOM     70  O   UNL A   1      48.600  28.244  22.775  1.00  0.00    -0.237 OA
ATOM     71  O   UNL A   1      50.486  26.796  23.391  1.00  0.00    -0.744 OA
ENDBRANCH  65  68
ENDBRANCH  47  61
BRANCH  48  72
ATOM     72  C   UNL A   1      38.520  30.715  31.010  1.00  0.00     0.023 A 
ATOM     73  C   UNL A   1      38.334  30.448  32.380  1.00  0.00     0.012 A 
ATOM     74  C   UNL A   1      37.505  31.378  30.293  1.00  0.00     0.148 A 
ATOM     75  C   UNL A   1      37.152  30.821  33.022  1.00  0.00     0.002 A 
ATOM     76  C   UNL A   1      36.358  31.802  30.953  1.00  0.00     0.091 A 
ATOM     77  F   UNL A   1      37.704  31.618  28.990  1.00  0.00    -0.205 F 
ATOM     78  C   UNL A   1      36.171  31.510  32.312  1.00  0.00     0.022 A 
BRANCH  76  79
ATOM     79  S   UNL A   1      35.113  32.825  30.158  1.00  0.00     0.127 S 
ATOM     80  O   UNL A   1      34.580  31.917  29.147  1.00  0.00    -0.237 OA
ATOM     81  O   UNL A   1      34.207  33.111  31.272  1.00  0.00    -0.237 OA
ATOM     82  O   UNL A   1      35.822  33.989  29.647  1.00  0.00    -0.744 OA
ENDBRANCH  76  79
ENDBRANCH  48  72
BRANCH  60  83
ATOM     83  C   UNL A   1      44.360  34.297  29.582  1.00  0.00     0.023 A 
ATOM     84  C   UNL A   1      44.921  34.723  30.802  1.00  0.00     0.012 A 
ATOM     85  C   UNL A   1      44.229  35.217  28.523  1.00  0.00     0.148 A 
ATOM     86  C   UNL A   1      45.305  36.052  30.980  1.00  0.00     0.002 A 
ATOM     87  C   UNL A   1      44.664  36.525  28.688  1.00  0.00     0.091 A 
ATOM     88  F   UNL A   1      43.675  34.798  27.376  1.00  0.00    -0.205 F 
ATOM     89  C   UNL A   1      45.188  36.948  29.920  1.00  0.00     0.022 A 
BRANCH  87  90
ATOM     90  S   UNL A   1      44.645  37.720  27.347  1.00  0.00     0.127 S 
ATOM     91  O   UNL A   1      45.048  38.945  28.035  1.00  0.00    -0.237 OA
ATOM     92  O   UNL A   1      45.648  37.175  26.432  1.00  0.00    -0.237 OA
ATOM     93  O   UNL A   1      43.285  37.714  26.824  1.00  0.00    -0.744 OA
ENDBRANCH  87  90
ENDBRANCH  60  83
ENDBRANCH  34  35
ENDBRANCH  26  29
ENDBRANCH  24  25
ENDBRANCH  23  24
ENDBRANCH  22  23
ENDBRANCH   3  22
TORSDOF 19
ENDMDL
MODEL 2
REMARK VINA RESULT:     -10.7      1.310      2.105
REMARK SMILES COCCCNC(=O)C[N@H+]1CC[C@H](C(=O)NCCCNC(=O)c2ccc(-c3c4nc(c(-c5cccc(S(=O)(=O)[O-])c5F)c5ccc([nH]5)c(-c5cccc(S(=O)(=O)[O-])c5F)c5nc(c(-c6cccc(S(=O)(=O)[O-])c6F)c6ccc3[nH]6)C=C5)C=C4)cc2)[C@@H]1C
REMARK SMILES IDX 14 1 15 2 16 3 13 5 10 6 11 7 86 8 12 10 87 11 9 12 7 13
REMARK SMILES IDX 6 14 8 16 5 17 4 18 3 19 2 20 1 21 17 22 18 23 19 24 20 25
REMARK SMILES IDX 21 26 22 28 23 29 24 30 85 31 25 32 84 33 26 34 27 35 28 36
REMARK SMILES IDX 78 37 29 38 83 39 77 40 79 41 30 42 82 43 76 44 75 45 31 47
REMARK SMILES IDX 63 48 43 49 62 50 44 51 47 52 61 53 80 54 45 55 46 56 60 58
REMARK SMILES IDX 81 59 48 60 32 61 33 62 41 63 34 64 36 65 42 66 35 67 37 68
REMARK SMILES IDX 38 69 39 70 40 71 64 72 65 73 73 74 66 75 68 76 74 77 67 78
REMARK SMILES IDX 69 79 70 80 71 81 72 82 49 83 50 84 58 85 51 86 53 87 59 88
REMARK SMILES IDX 52 89 54 90 55 91 56 92 57 93
REMARK H PARENT 16 4 10 9 6 15 20 27 79 46 47 57
REMARK Flexibility Score: inf
ROOT
ATOM      1  C   UNL A   1      33.327  23.253  22.634  1.00  0.00     0.229 C 
ATOM      2  O   UNL A   1      32.857  22.590  21.712  1.00  0.00    -0.275 OA
ATOM      3  N   UNL A   1      34.113  22.626  23.564  1.00  0.00    -0.356 N 
ATOM      4  H   UNL A   1      34.171  21.647  23.476  1.00  0.00     0.163 HD
ENDROOT
BRANCH   1   5
ATOM      5  C   UNL A   1      33.079  24.740  22.792  1.00  0.00     0.142 C 
ATOM      6  N   UNL A   1      31.337  26.335  23.070  1.00  0.00    -0.324 N 
ATOM      7  C   UNL A   1      31.615  26.285  21.636  1.00  0.00     0.263 C 
ATOM      8  C   UNL A   1      31.867  25.099  23.657  1.00  0.00     0.194 C 
ATOM      9  H   UNL A   1      30.327  26.374  23.201  1.00  0.00     0.348 HD
ATOM     10  C   UNL A   1      32.926  25.530  21.494  1.00  0.00     0.081 C 
ATOM     11  C   UNL A   1      30.751  24.050  23.684  1.00  0.00     0.076 C 
BRANCH   6  12
ATOM     12  C   UNL A   1      31.672  27.585  23.778  1.00  0.00     0.363 C 
BRANCH  12  13
ATOM     13  C   UNL A   1      32.034  28.804  22.923  1.00  0.00     0.275 C 
ATOM     14  N   UNL A   1      31.086  29.588  22.335  1.00  0.00    -0.351 N 
ATOM     15  H   UNL A   1      31.446  30.293  21.749  1.00  0.00     0.163 HD
ATOM     16  O   UNL A   1      33.212  29.100  22.697  1.00  0.00    -0.269 OA
BRANCH  14  17
ATOM     17  C   UNL A   1      29.640  29.560  22.424  1.00  0.00     0.118 C 
BRANCH  17  18
ATOM     18  C   UNL A   1      29.122  30.731  23.272  1.00  0.00     0.050 C 
BRANCH  18  19
ATOM     19  C   UNL A   1      27.765  31.294  22.880  1.00  0.00     0.161 C 
BRANCH  19  20
ATOM     20  O   UNL A   1      27.768  32.715  22.762  1.00  0.00    -0.385 OA
ATOM     21  C   UNL A   1      29.016  33.332  23.035  1.00  0.00     0.194 C 
ENDBRANCH  19  20
ENDBRANCH  18  19
ENDBRANCH  17  18
ENDBRANCH  14  17
ENDBRANCH  12  13
ENDBRANCH   6  12
ENDBRANCH   1   5
BRANCH   3  22
ATOM     22  C   UNL A   1      34.872  23.202  24.660  1.00  0.00     0.117 C 
BRANCH  22  23
ATOM     23  C   UNL A   1      35.697  22.194  25.435  1.00  0.00     0.042 C 
BRANCH  23  24
ATOM     24  C   UNL A   1      37.113  22.640  25.735  1.00  0.00     0.118 C 
BRANCH  24  25
ATOM     25  N   UNL A   1      38.025  21.537  26.002  1.00  0.00    -0.352 N 
ATOM     26  C   UNL A   1      39.338  21.564  26.409  1.00  0.00     0.251 C 
ATOM     27  H   UNL A   1      37.647  20.638  25.870  1.00  0.00     0.163 HD
ATOM     28  O   UNL A   1      39.973  20.510  26.467  1.00  0.00    -0.269 OA
BRANCH  26  29
ATOM     29  C   UNL A   1      39.997  22.847  26.743  1.00  0.00     0.039 A 
ATOM     30  C   UNL A   1      39.629  23.996  26.040  1.00  0.00     0.014 A 
ATOM     31  C   UNL A   1      40.958  22.931  27.752  1.00  0.00     0.014 A 
ATOM     32  C   UNL A   1      40.181  25.229  26.394  1.00  0.00     0.010 A 
ATOM     33  C   UNL A   1      41.401  24.174  28.191  1.00  0.00     0.010 A 
ATOM     34  C   UNL A   1      41.043  25.336  27.499  1.00  0.00    -0.014 A 
BRANCH  34  35
ATOM     35  C   UNL A   1      41.574  26.656  27.927  1.00  0.00     0.031 A 
ATOM     36  C   UNL A   1      42.999  27.048  27.634  1.00  0.00     0.074 A 
ATOM     37  C   UNL A   1      40.786  27.489  28.635  1.00  0.00     0.049 A 
ATOM     38  N   UNL A   1      43.609  28.177  27.884  1.00  0.00    -0.248 NA
ATOM     39  C   UNL A   1      43.864  26.029  27.015  1.00  0.00     0.031 C 
ATOM     40  C   UNL A   1      39.429  27.180  29.095  1.00  0.00     0.029 A 
ATOM     41  N   UNL A   1      41.013  28.759  29.103  1.00  0.00    -0.354 N 
ATOM     42  C   UNL A   1      44.928  27.994  27.486  1.00  0.00     0.074 A 
ATOM     43  C   UNL A   1      45.045  26.627  27.033  1.00  0.00     0.031 C 
ATOM     44  C   UNL A   1      38.937  28.238  29.754  1.00  0.00     0.029 A 
ATOM     45  C   UNL A   1      39.947  29.291  29.788  1.00  0.00     0.049 A 
ATOM     46  H   UNL A   1      41.859  29.241  28.962  1.00  0.00     0.167 HD
ATOM     47  C   UNL A   1      45.945  28.889  27.460  1.00  0.00     0.034 A 
ATOM     48  C   UNL A   1      39.794  30.494  30.374  1.00  0.00     0.034 A 
ATOM     49  C   UNL A   1      45.815  30.257  27.883  1.00  0.00     0.049 A 
ATOM     50  C   UNL A   1      40.900  31.504  30.266  1.00  0.00     0.074 A 
ATOM     51  C   UNL A   1      46.746  31.276  27.804  1.00  0.00     0.029 A 
ATOM     52  N   UNL A   1      44.686  30.793  28.486  1.00  0.00    -0.354 N 
ATOM     53  N   UNL A   1      42.083  31.374  29.714  1.00  0.00    -0.248 NA
ATOM     54  C   UNL A   1      40.638  32.841  30.815  1.00  0.00     0.031 C 
ATOM     55  C   UNL A   1      46.194  32.419  28.395  1.00  0.00     0.029 A 
ATOM     56  C   UNL A   1      44.901  32.124  28.798  1.00  0.00     0.049 A 
ATOM     57  H   UNL A   1      43.854  30.299  28.665  1.00  0.00     0.167 HD
ATOM     58  C   UNL A   1      42.694  32.616  29.821  1.00  0.00     0.074 A 
ATOM     59  C   UNL A   1      41.741  33.493  30.474  1.00  0.00     0.031 C 
ATOM     60  C   UNL A   1      43.933  32.995  29.420  1.00  0.00     0.034 A 
BRANCH  47  61
ATOM     61  C   UNL A   1      47.273  28.416  26.922  1.00  0.00     0.023 A 
ATOM     62  C   UNL A   1      48.366  28.244  27.800  1.00  0.00     0.012 A 
ATOM     63  C   UNL A   1      47.441  28.130  25.554  1.00  0.00     0.148 A 
ATOM     64  C   UNL A   1      49.614  27.853  27.317  1.00  0.00     0.002 A 
ATOM     65  C   UNL A   1      48.674  27.687  25.089  1.00  0.00     0.091 A 
ATOM     66  F   UNL A   1      46.402  28.317  24.727  1.00  0.00    -0.205 F 
ATOM     67  C   UNL A   1      49.766  27.568  25.963  1.00  0.00     0.022 A 
BRANCH  65  68
ATOM     68  S   UNL A   1      48.943  27.208  23.378  1.00  0.00     0.127 S 
ATOM     69  O   UNL A   1      50.399  27.088  23.331  1.00  0.00    -0.237 OA
ATOM     70  O   UNL A   1      48.225  25.936  23.299  1.00  0.00    -0.237 OA
ATOM     71  O   UNL A   1      48.372  28.276  22.570  1.00  0.00    -0.744 OA
ENDBRANCH  65  68
ENDBRANCH  47  61
BRANCH  48  72
ATOM     72  C   UNL A   1      38.505  30.816  31.046  1.00  0.00     0.023 A 
ATOM     73  C   UNL A   1      38.353  30.580  32.427  1.00  0.00     0.012 A 
ATOM     74  C   UNL A   1      37.459  31.436  30.335  1.00  0.00     0.148 A 
ATOM     75  C   UNL A   1      37.177  30.940  33.084  1.00  0.00     0.002 A 
ATOM     76  C   UNL A   1      36.316  31.848  31.008  1.00  0.00     0.091 A 
ATOM     77  F   UNL A   1      37.625  31.647  29.022  1.00  0.00    -0.205 F 
ATOM     78  C   UNL A   1      36.164  31.586  32.378  1.00  0.00     0.022 A 
BRANCH  76  79
ATOM     79  S   UNL A   1      35.030  32.821  30.215  1.00  0.00     0.127 S 
ATOM     80  O   UNL A   1      34.064  32.980  31.298  1.00  0.00    -0.237 OA
ATOM     81  O   UNL A   1      35.758  34.038  29.853  1.00  0.00    -0.237 OA
ATOM     82  O   UNL A   1      34.577  32.031  29.079  1.00  0.00    -0.744 OA
ENDBRANCH  76  79
ENDBRANCH  48  72
BRANCH  60  83
ATOM     83  C   UNL A   1      44.327  34.433  29.637  1.00  0.00     0.023 A 
ATOM     84  C   UNL A   1      44.788  34.860  30.899  1.00  0.00     0.012 A 
ATOM     85  C   UNL A   1      44.298  35.349  28.567  1.00  0.00     0.148 A 
ATOM     86  C   UNL A   1      45.172  36.185  31.102  1.00  0.00     0.002 A 
ATOM     87  C   UNL A   1      44.734  36.653  28.762  1.00  0.00     0.091 A 
ATOM     88  F   UNL A   1      43.839  34.930  27.379  1.00  0.00    -0.205 F 
ATOM     89  C   UNL A   1      45.157  37.077  30.032  1.00  0.00     0.022 A 
BRANCH  87  90
ATOM     90  S   UNL A   1      44.844  37.839  27.419  1.00  0.00     0.127 S 
ATOM     91  O   UNL A   1      43.467  37.864  26.930  1.00  0.00    -0.237 OA
ATOM     92  O   UNL A   1      45.267  39.056  28.112  1.00  0.00    -0.237 OA
ATOM     93  O   UNL A   1      45.828  37.302  26.489  1.00  0.00    -0.744 OA
ENDBRANCH  87  90
ENDBRANCH  60  83
ENDBRANCH  34  35
ENDBRANCH  26  29
ENDBRANCH  24  25
ENDBRANCH  23  24
ENDBRANCH  22  23
ENDBRANCH   3  22
TORSDOF 19
ENDMDL
MODEL 3
REMARK VINA RESULT:     -10.6      5.137     10.096
REMARK SMILES COCCCNC(=O)C[N@H+]1CC[C@H](C(=O)NCCCNC(=O)c2ccc(-c3c4nc(c(-c5cccc(S(=O)(=O)[O-])c5F)c5ccc([nH]5)c(-c5cccc(S(=O)(=O)[O-])c5F)c5nc(c(-c6cccc(S(=O)(=O)[O-])c6F)c6ccc3[nH]6)C=C5)C=C4)cc2)[C@@H]1C
REMARK SMILES IDX 14 1 15 2 16 3 13 5 10 6 11 7 86 8 12 10 87 11 9 12 7 13
REMARK SMILES IDX 6 14 8 16 5 17 4 18 3 19 2 20 1 21 17 22 18 23 19 24 20 25
REMARK SMILES IDX 21 26 22 28 23 29 24 30 85 31 25 32 84 33 26 34 27 35 28 36
REMARK SMILES IDX 78 37 29 38 83 39 77 40 79 41 30 42 82 43 76 44 75 45 31 47
REMARK SMILES IDX 63 48 43 49 62 50 44 51 47 52 61 53 80 54 45 55 46 56 60 58
REMARK SMILES IDX 81 59 48 60 32 61 33 62 41 63 34 64 36 65 42 66 35 67 37 68
REMARK SMILES IDX 38 69 39 70 40 71 64 72 65 73 73 74 66 75 68 76 74 77 67 78
REMARK SMILES IDX 69 79 70 80 71 81 72 82 49 83 50 84 58 85 51 86 53 87 59 88
REMARK SMILES IDX 52 89 54 90 55 91 56 92 57 93
REMARK H PARENT 16 4 10 9 6 15 20 27 79 46 47 57
REMARK Flexibility Score: inf
ROOT
ATOM      1  C   UNL A   1      31.212  28.982  23.121  1.00  0.00     0.229 C 
ATOM      2  O   UNL A   1      30.744  29.423  22.074  1.00  0.00    -0.275 OA
ATOM      3  N   UNL A   1      31.369  29.833  24.182  1.00  0.00    -0.356 N 
ATOM      4  H   UNL A   1      31.177  30.780  23.997  1.00  0.00     0.163 HD
ENDROOT
BRANCH   1   5
ATOM      5  C   UNL A   1      31.627  27.535  23.296  1.00  0.00     0.142 C 
ATOM      6  N   UNL A   1      33.279  25.959  22.631  1.00  0.00    -0.324 N 
ATOM      7  C   UNL A   1      32.158  25.783  21.710  1.00  0.00     0.263 C 
ATOM      8  C   UNL A   1      33.137  27.288  23.237  1.00  0.00     0.194 C 
ATOM      9  H   UNL A   1      34.146  25.915  22.096  1.00  0.00     0.348 HD
ATOM     10  C   UNL A   1      30.993  26.540  22.326  1.00  0.00     0.081 C 
ATOM     11  C   UNL A   1      33.930  28.297  22.400  1.00  0.00     0.076 C 
BRANCH   6  12
ATOM     12  C   UNL A   1      33.569  24.851  23.560  1.00  0.00     0.363 C 
BRANCH  12  13
ATOM     13  C   UNL A   1      34.349  23.654  23.006  1.00  0.00     0.275 C 
ATOM     14  N   UNL A   1      35.452  23.153  23.630  1.00  0.00    -0.351 N 
ATOM     15  H   UNL A   1      35.909  22.434  23.137  1.00  0.00     0.163 HD
ATOM     16  O   UNL A   1      34.029  23.120  21.939  1.00  0.00    -0.269 OA
BRANCH  14  17
ATOM     17  C   UNL A   1      36.067  23.497  24.896  1.00  0.00     0.118 C 
BRANCH  17  18
ATOM     18  C   UNL A   1      36.197  22.260  25.796  1.00  0.00     0.050 C 
BRANCH  18  19
ATOM     19  C   UNL A   1      34.893  21.621  26.249  1.00  0.00     0.161 C 
BRANCH  19  20
ATOM     20  O   UNL A   1      33.815  22.552  26.318  1.00  0.00    -0.385 OA
ATOM     21  C   UNL A   1      33.174  22.627  27.581  1.00  0.00     0.194 C 
ENDBRANCH  19  20
ENDBRANCH  18  19
ENDBRANCH  17  18
ENDBRANCH  14  17
ENDBRANCH  12  13
ENDBRANCH   6  12
ENDBRANCH   1   5
BRANCH   3  22
ATOM     22  C   UNL A   1      31.779  29.534  25.544  1.00  0.00     0.117 C 
BRANCH  22  23
ATOM     23  C   UNL A   1      33.244  29.806  25.820  1.00  0.00     0.042 C 
BRANCH  23  24
ATOM     24  C   UNL A   1      33.617  29.800  27.288  1.00  0.00     0.118 C 
BRANCH  24  25
ATOM     25  N   UNL A   1      33.619  31.123  27.894  1.00  0.00    -0.352 N 
ATOM     26  C   UNL A   1      34.563  31.721  28.693  1.00  0.00     0.251 C 
ATOM     27  H   UNL A   1      32.824  31.673  27.703  1.00  0.00     0.163 HD
ATOM     28  O   UNL A   1      34.318  32.815  29.201  1.00  0.00    -0.269 OA
BRANCH  26  29
ATOM     29  C   UNL A   1      35.851  31.046  28.972  1.00  0.00     0.039 A 
ATOM     30  C   UNL A   1      37.024  31.584  28.437  1.00  0.00     0.014 A 
ATOM     31  C   UNL A   1      35.916  29.901  29.769  1.00  0.00     0.014 A 
ATOM     32  C   UNL A   1      38.256  31.009  28.754  1.00  0.00     0.010 A 
ATOM     33  C   UNL A   1      37.148  29.415  30.191  1.00  0.00     0.010 A 
ATOM     34  C   UNL A   1      38.333  29.941  29.666  1.00  0.00    -0.014 A 
BRANCH  34  35
ATOM     35  C   UNL A   1      39.647  29.374  30.065  1.00  0.00     0.031 A 
ATOM     36  C   UNL A   1      40.432  29.971  31.204  1.00  0.00     0.074 A 
ATOM     37  C   UNL A   1      40.166  28.347  29.363  1.00  0.00     0.049 A 
ATOM     38  N   UNL A   1      41.565  29.570  31.721  1.00  0.00    -0.248 NA
ATOM     39  C   UNL A   1      39.900  31.199  31.818  1.00  0.00     0.031 C 
ATOM     40  C   UNL A   1      39.568  27.759  28.162  1.00  0.00     0.029 A 
ATOM     41  N   UNL A   1      41.317  27.624  29.549  1.00  0.00    -0.354 N 
ATOM     42  C   UNL A   1      41.895  30.508  32.692  1.00  0.00     0.074 A 
ATOM     43  C   UNL A   1      40.874  31.531  32.652  1.00  0.00     0.031 C 
ATOM     44  C   UNL A   1      40.342  26.751  27.735  1.00  0.00     0.029 A 
ATOM     45  C   UNL A   1      41.503  26.635  28.612  1.00  0.00     0.049 A 
ATOM     46  H   UNL A   1      41.950  27.799  30.282  1.00  0.00     0.167 HD
ATOM     47  C   UNL A   1      42.929  30.505  33.567  1.00  0.00     0.034 A 
ATOM     48  C   UNL A   1      42.492  25.731  28.475  1.00  0.00     0.034 A 
ATOM     49  C   UNL A   1      43.924  29.469  33.622  1.00  0.00     0.049 A 
ATOM     50  C   UNL A   1      43.589  25.689  29.501  1.00  0.00     0.074 A 
ATOM     51  C   UNL A   1      44.953  29.310  34.532  1.00  0.00     0.029 A 
ATOM     52  N   UNL A   1      44.027  28.424  32.715  1.00  0.00    -0.354 N 
ATOM     53  N   UNL A   1      43.781  26.476  30.532  1.00  0.00    -0.248 NA
ATOM     54  C   UNL A   1      44.575  24.609  29.377  1.00  0.00     0.031 C 
ATOM     55  C   UNL A   1      45.703  28.191  34.152  1.00  0.00     0.029 A 
ATOM     56  C   UNL A   1      45.111  27.625  33.033  1.00  0.00     0.049 A 
ATOM     57  H   UNL A   1      43.418  28.274  31.957  1.00  0.00     0.167 HD
ATOM     58  C   UNL A   1      44.891  25.971  31.197  1.00  0.00     0.074 A 
ATOM     59  C   UNL A   1      45.316  24.796  30.461  1.00  0.00     0.031 C 
ATOM     60  C   UNL A   1      45.505  26.440  32.312  1.00  0.00     0.034 A 
BRANCH  47  61
ATOM     61  C   UNL A   1      43.006  31.644  34.554  1.00  0.00     0.023 A 
ATOM     62  C   UNL A   1      43.711  32.820  34.217  1.00  0.00     0.012 A 
ATOM     63  C   UNL A   1      42.374  31.559  35.809  1.00  0.00     0.148 A 
ATOM     64  C   UNL A   1      43.835  33.865  35.133  1.00  0.00     0.002 A 
ATOM     65  C   UNL A   1      42.455  32.628  36.695  1.00  0.00     0.091 A 
ATOM     66  F   UNL A   1      41.725  30.429  36.126  1.00  0.00    -0.205 F 
ATOM     67  C   UNL A   1      43.201  33.771  36.368  1.00  0.00     0.022 A 
BRANCH  65  68
ATOM     68  S   UNL A   1      41.596  32.638  38.273  1.00  0.00     0.127 S 
ATOM     69  O   UNL A   1      40.236  32.283  37.870  1.00  0.00    -0.237 OA
ATOM     70  O   UNL A   1      42.303  31.594  39.015  1.00  0.00    -0.237 OA
ATOM     71  O   UNL A   1      41.764  33.981  38.810  1.00  0.00    -0.744 OA
ENDBRANCH  65  68
ENDBRANCH  47  61
BRANCH  48  72
ATOM     72  C   UNL A   1      42.430  24.751  27.356  1.00  0.00     0.023 A 
ATOM     73  C   UNL A   1      43.255  24.919  26.228  1.00  0.00     0.012 A 
ATOM     74  C   UNL A   1      41.616  23.605  27.450  1.00  0.00     0.148 A 
ATOM     75  C   UNL A   1      43.259  23.973  25.203  1.00  0.00     0.002 A 
ATOM     76  C   UNL A   1      41.671  22.636  26.455  1.00  0.00     0.091 A 
ATOM     77  F   UNL A   1      40.837  23.469  28.531  1.00  0.00    -0.205 F 
ATOM     78  C   UNL A   1      42.478  22.825  25.323  1.00  0.00     0.022 A 
BRANCH  76  79
ATOM     79  S   UNL A   1      40.819  21.061  26.598  1.00  0.00     0.127 S 
ATOM     80  O   UNL A   1      40.906  20.803  28.033  1.00  0.00    -0.237 OA
ATOM     81  O   UNL A   1      39.481  21.401  26.111  1.00  0.00    -0.237 OA
ATOM     82  O   UNL A   1      41.551  20.134  25.747  1.00  0.00    -0.744 OA
ENDBRANCH  76  79
ENDBRANCH  48  72
BRANCH  60  83
ATOM     83  C   UNL A   1      46.686  25.663  32.836  1.00  0.00     0.023 A 
ATOM     84  C   UNL A   1      47.994  26.006  32.439  1.00  0.00     0.012 A 
ATOM     85  C   UNL A   1      46.497  24.631  33.776  1.00  0.00     0.148 A 
ATOM     86  C   UNL A   1      49.092  25.304  32.935  1.00  0.00     0.002 A 
ATOM     87  C   UNL A   1      47.598  23.972  34.308  1.00  0.00     0.091 A 
ATOM     88  F   UNL A   1      45.245  24.306  34.128  1.00  0.00    -0.205 F 
ATOM     89  C   UNL A   1      48.895  24.296  33.877  1.00  0.00     0.022 A 
BRANCH  87  90
ATOM     90  S   UNL A   1      47.444  22.734  35.599  1.00  0.00     0.127 S 
ATOM     91  O   UNL A   1      46.724  21.669  34.906  1.00  0.00    -0.237 OA
ATOM     92  O   UNL A   1      48.842  22.428  35.904  1.00  0.00    -0.237 OA
ATOM     93  O   UNL A   1      46.717  23.376  36.686  1.00  0.00    -0.744 OA
ENDBRANCH  87  90
ENDBRANCH  60  83
ENDBRANCH  34  35
ENDBRANCH  26  29
ENDBRANCH  24  25
ENDBRANCH  23  24
ENDBRANCH  22  23
ENDBRANCH   3  22
TORSDOF 19
ENDMDL
