MODEL 1
REMARK VINA RESULT:     -12.3      0.000      0.000
REMARK SMILES C[C@@H]1CCC[C@@](Cc2ncccn2)(C(=O)NCCCNC(=O)c2ccc(-c3c4nc(c(-c5cccc(S(=O)(=O)[O-])c5F)c5ccc([nH]5)c(-c5cccc(S(=O)(=O)[O-])c5F)c5nc(c(-c6cccc(S(=O)(=O)[O-])c6F)c6ccc3[nH]6)C=C5)C=C4)cc2)C1
REMARK SMILES IDX 18 1 17 2 16 3 14 4 15 5 6 7 1 8 2 9 3 10 86 11 4 12 5 13
REMARK SMILES IDX 7 14 8 15 9 16 13 17 10 18 12 19 11 20 19 21 20 22 21 23
REMARK SMILES IDX 22 25 23 26 24 27 85 28 25 29 84 30 26 31 27 32 28 33 78 34
REMARK SMILES IDX 29 35 83 36 77 37 79 38 30 39 82 40 76 41 75 42 31 44 63 45
REMARK SMILES IDX 43 46 62 47 44 48 47 49 61 50 80 51 45 52 46 53 60 55 81 56
REMARK SMILES IDX 48 57 32 58 33 59 41 60 34 61 36 62 42 63 35 64 37 65 38 66
REMARK SMILES IDX 39 67 40 68 64 69 65 70 73 71 66 72 68 73 74 74 67 75 69 76
REMARK SMILES IDX 70 77 71 78 72 79 49 80 50 81 58 82 51 83 53 84 59 85 52 86
REMARK SMILES IDX 54 87 55 88 56 89 57 90
REMARK H PARENT 16 6 20 24 79 43 47 54
REMARK Flexibility Score: inf
ROOT
ATOM      1  C   UNL A   1      37.200  19.226  24.996  1.00  0.00     0.042 C 
ENDROOT
BRANCH   1   2
ATOM      2  C   UNL A   1      35.942  20.036  24.772  1.00  0.00     0.117 C 
BRANCH   2   3
ATOM      3  N   UNL A   1      35.483  20.779  25.923  1.00  0.00    -0.356 N 
ATOM      4  C   UNL A   1      34.338  21.487  26.117  1.00  0.00     0.226 C 
ATOM      5  O   UNL A   1      34.039  21.679  27.302  1.00  0.00    -0.274 OA
ATOM      6  H   UNL A   1      36.099  20.772  26.691  1.00  0.00     0.163 HD
BRANCH   4   7
ATOM      7  C   UNL A   1      33.444  22.036  24.964  1.00  0.00     0.056 C 
ATOM      8  C   UNL A   1      30.811  24.024  24.090  1.00  0.00     0.007 C 
ATOM      9  C   UNL A   1      32.241  24.381  24.501  1.00  0.00    -0.013 C 
ATOM     10  C   UNL A   1      33.145  24.584  23.286  1.00  0.00     0.003 C 
ATOM     11  C   UNL A   1      32.874  23.403  25.509  1.00  0.00     0.020 C 
ATOM     12  C   UNL A   1      33.606  23.266  22.684  1.00  0.00     0.001 C 
ATOM     13  C   UNL A   1      34.298  22.381  23.716  1.00  0.00     0.017 C 
BRANCH   7  14
ATOM     14  C   UNL A   1      32.231  21.087  24.735  1.00  0.00     0.094 C 
BRANCH  14  15
ATOM     15  C   UNL A   1      32.458  19.613  24.538  1.00  0.00     0.129 A 
ATOM     16  N   UNL A   1      32.571  19.159  23.275  1.00  0.00    -0.241 NA
ATOM     17  N   UNL A   1      32.549  18.833  25.634  1.00  0.00    -0.241 NA
ATOM     18  C   UNL A   1      32.850  17.847  23.125  1.00  0.00     0.115 A 
ATOM     19  C   UNL A   1      32.817  17.527  25.426  1.00  0.00     0.115 A 
ATOM     20  C   UNL A   1      32.997  16.978  24.179  1.00  0.00     0.040 A 
ENDBRANCH  14  15
ENDBRANCH   7  14
ENDBRANCH   4   7
ENDBRANCH   2   3
ENDBRANCH   1   2
BRANCH   1  21
ATOM     21  C   UNL A   1      38.390  20.084  25.397  1.00  0.00     0.118 C 
BRANCH  21  22
ATOM     22  N   UNL A   1      39.598  19.297  25.662  1.00  0.00    -0.352 N 
ATOM     23  C   UNL A   1      40.853  19.680  26.071  1.00  0.00     0.251 C 
ATOM     24  H   UNL A   1      39.492  18.329  25.523  1.00  0.00     0.163 HD
ATOM     25  O   UNL A   1      41.786  18.883  25.999  1.00  0.00    -0.269 OA
BRANCH  23  26
ATOM     26  C   UNL A   1      41.081  21.051  26.574  1.00  0.00     0.039 A 
ATOM     27  C   UNL A   1      41.567  21.243  27.870  1.00  0.00     0.014 A 
ATOM     28  C   UNL A   1      40.839  22.150  25.751  1.00  0.00     0.014 A 
ATOM     29  C   UNL A   1      41.922  22.528  28.291  1.00  0.00     0.010 A 
ATOM     30  C   UNL A   1      41.305  23.402  26.123  1.00  0.00     0.010 A 
ATOM     31  C   UNL A   1      41.857  23.607  27.396  1.00  0.00    -0.014 A 
BRANCH  31  32
ATOM     32  C   UNL A   1      42.391  24.954  27.729  1.00  0.00     0.031 A 
ATOM     33  C   UNL A   1      41.490  25.988  28.352  1.00  0.00     0.074 A 
ATOM     34  C   UNL A   1      43.632  25.293  27.322  1.00  0.00     0.049 A 
ATOM     35  N   UNL A   1      41.721  27.255  28.571  1.00  0.00    -0.248 NA
ATOM     36  C   UNL A   1      40.136  25.553  28.739  1.00  0.00     0.031 C 
ATOM     37  C   UNL A   1      44.561  24.414  26.605  1.00  0.00     0.029 A 
ATOM     38  N   UNL A   1      44.311  26.484  27.408  1.00  0.00    -0.354 N 
ATOM     39  C   UNL A   1      40.528  27.781  29.053  1.00  0.00     0.074 A 
ATOM     40  C   UNL A   1      39.566  26.701  29.076  1.00  0.00     0.031 C 
ATOM     41  C   UNL A   1      45.681  25.094  26.314  1.00  0.00     0.029 A 
ATOM     42  C   UNL A   1      45.539  26.466  26.787  1.00  0.00     0.049 A 
ATOM     43  H   UNL A   1      43.952  27.275  27.871  1.00  0.00     0.167 HD
ATOM     44  C   UNL A   1      40.264  29.042  29.467  1.00  0.00     0.034 A 
ATOM     45  C   UNL A   1      46.442  27.449  26.599  1.00  0.00     0.034 A 
ATOM     46  C   UNL A   1      41.249  30.085  29.526  1.00  0.00     0.049 A 
ATOM     47  C   UNL A   1      46.151  28.819  27.149  1.00  0.00     0.074 A 
ATOM     48  C   UNL A   1      41.129  31.346  30.082  1.00  0.00     0.029 A 
ATOM     49  N   UNL A   1      42.529  29.995  29.005  1.00  0.00    -0.354 N 
ATOM     50  N   UNL A   1      45.091  29.238  27.797  1.00  0.00    -0.248 NA
ATOM     51  C   UNL A   1      47.190  29.844  26.971  1.00  0.00     0.031 C 
ATOM     52  C   UNL A   1      42.332  32.027  29.876  1.00  0.00     0.029 A 
ATOM     53  C   UNL A   1      43.205  31.184  29.207  1.00  0.00     0.049 A 
ATOM     54  H   UNL A   1      42.902  29.200  28.558  1.00  0.00     0.167 HD
ATOM     55  C   UNL A   1      45.346  30.564  28.125  1.00  0.00     0.074 A 
ATOM     56  C   UNL A   1      46.673  30.871  27.631  1.00  0.00     0.031 C 
ATOM     57  C   UNL A   1      44.545  31.456  28.758  1.00  0.00     0.034 A 
BRANCH  44  58
ATOM     58  C   UNL A   1      38.875  29.355  29.953  1.00  0.00     0.023 A 
ATOM     59  C   UNL A   1      38.518  29.055  31.283  1.00  0.00     0.012 A 
ATOM     60  C   UNL A   1      37.955  30.027  29.123  1.00  0.00     0.148 A 
ATOM     61  C   UNL A   1      37.258  29.396  31.774  1.00  0.00     0.002 A 
ATOM     62  C   UNL A   1      36.718  30.401  29.632  1.00  0.00     0.091 A 
ATOM     63  F   UNL A   1      38.307  30.283  27.855  1.00  0.00    -0.205 F 
ATOM     64  C   UNL A   1      36.364  30.078  30.953  1.00  0.00     0.022 A 
BRANCH  62  65
ATOM     65  S   UNL A   1      35.524  31.352  28.685  1.00  0.00     0.127 S 
ATOM     66  O   UNL A   1      34.733  31.974  29.746  1.00  0.00    -0.237 OA
ATOM     67  O   UNL A   1      36.385  32.274  27.945  1.00  0.00    -0.237 OA
ATOM     68  O   UNL A   1      34.808  30.390  27.858  1.00  0.00    -0.744 OA
ENDBRANCH  62  65
ENDBRANCH  44  58
BRANCH  45  69
ATOM     69  C   UNL A   1      47.729  27.163  25.902  1.00  0.00     0.023 A 
ATOM     70  C   UNL A   1      48.809  26.635  26.636  1.00  0.00     0.012 A 
ATOM     71  C   UNL A   1      47.885  27.390  24.521  1.00  0.00     0.148 A 
ATOM     72  C   UNL A   1      50.032  26.375  26.016  1.00  0.00     0.002 A 
ATOM     73  C   UNL A   1      49.088  27.074  23.899  1.00  0.00     0.091 A 
ATOM     74  F   UNL A   1      46.853  27.906  23.839  1.00  0.00    -0.205 F 
ATOM     75  C   UNL A   1      50.169  26.584  24.647  1.00  0.00     0.022 A 
BRANCH  73  76
ATOM     76  S   UNL A   1      49.296  27.181  22.117  1.00  0.00     0.127 S 
ATOM     77  O   UNL A   1      50.737  27.009  21.971  1.00  0.00    -0.237 OA
ATOM     78  O   UNL A   1      48.489  26.054  21.645  1.00  0.00    -0.237 OA
ATOM     79  O   UNL A   1      48.765  28.487  21.746  1.00  0.00    -0.744 OA
ENDBRANCH  73  76
ENDBRANCH  45  69
BRANCH  57  80
ATOM     80  C   UNL A   1      45.077  32.846  28.973  1.00  0.00     0.023 A 
ATOM     81  C   UNL A   1      45.867  33.119  30.108  1.00  0.00     0.012 A 
ATOM     82  C   UNL A   1      44.876  33.852  28.009  1.00  0.00     0.148 A 
ATOM     83  C   UNL A   1      46.429  34.381  30.291  1.00  0.00     0.002 A 
ATOM     84  C   UNL A   1      45.480  35.093  28.174  1.00  0.00     0.091 A 
ATOM     85  F   UNL A   1      44.108  33.574  26.945  1.00  0.00    -0.205 F 
ATOM     86  C   UNL A   1      46.248  35.362  29.318  1.00  0.00     0.022 A 
BRANCH  84  87
ATOM     87  S   UNL A   1      45.383  36.385  26.929  1.00  0.00     0.127 S 
ATOM     88  O   UNL A   1      46.042  35.749  25.789  1.00  0.00    -0.237 OA
ATOM     89  O   UNL A   1      43.939  36.562  26.779  1.00  0.00    -0.237 OA
ATOM     90  O   UNL A   1      46.080  37.535  27.489  1.00  0.00    -0.744 OA
ENDBRANCH  84  87
ENDBRANCH  57  80
ENDBRANCH  31  32
ENDBRANCH  23  26
ENDBRANCH  21  22
ENDBRANCH   1  21
TORSDOF 15
ENDMDL
MODEL 2
REMARK VINA RESULT:     -11.9      5.626     10.643
REMARK SMILES C[C@@H]1CCC[C@@](Cc2ncccn2)(C(=O)NCCCNC(=O)c2ccc(-c3c4nc(c(-c5cccc(S(=O)(=O)[O-])c5F)c5ccc([nH]5)c(-c5cccc(S(=O)(=O)[O-])c5F)c5nc(c(-c6cccc(S(=O)(=O)[O-])c6F)c6ccc3[nH]6)C=C5)C=C4)cc2)C1
REMARK SMILES IDX 18 1 17 2 16 3 14 4 15 5 6 7 1 8 2 9 3 10 86 11 4 12 5 13
REMARK SMILES IDX 7 14 8 15 9 16 13 17 10 18 12 19 11 20 19 21 20 22 21 23
REMARK SMILES IDX 22 25 23 26 24 27 85 28 25 29 84 30 26 31 27 32 28 33 78 34
REMARK SMILES IDX 29 35 83 36 77 37 79 38 30 39 82 40 76 41 75 42 31 44 63 45
REMARK SMILES IDX 43 46 62 47 44 48 47 49 61 50 80 51 45 52 46 53 60 55 81 56
REMARK SMILES IDX 48 57 32 58 33 59 41 60 34 61 36 62 42 63 35 64 37 65 38 66
REMARK SMILES IDX 39 67 40 68 64 69 65 70 73 71 66 72 68 73 74 74 67 75 69 76
REMARK SMILES IDX 70 77 71 78 72 79 49 80 50 81 58 82 51 83 53 84 59 85 52 86
REMARK SMILES IDX 54 87 55 88 56 89 57 90
REMARK H PARENT 16 6 20 24 79 43 47 54
REMARK Flexibility Score: inf
ROOT
ATOM      1  C   UNL A   1      31.707  29.342  27.222  1.00  0.00     0.042 C 
ENDROOT
BRANCH   1   2
ATOM      2  C   UNL A   1      32.045  27.893  26.943  1.00  0.00     0.117 C 
BRANCH   2   3
ATOM      3  N   UNL A   1      30.910  27.000  26.901  1.00  0.00    -0.356 N 
ATOM      4  C   UNL A   1      30.688  25.890  26.147  1.00  0.00     0.226 C 
ATOM      5  O   UNL A   1      29.829  25.120  26.594  1.00  0.00    -0.274 OA
ATOM      6  H   UNL A   1      30.178  27.233  27.518  1.00  0.00     0.163 HD
BRANCH   4   7
ATOM      7  C   UNL A   1      31.432  25.576  24.814  1.00  0.00     0.056 C 
ATOM      8  C   UNL A   1      31.674  26.187  21.464  1.00  0.00     0.007 C 
ATOM      9  C   UNL A   1      32.095  27.032  22.668  1.00  0.00    -0.013 C 
ATOM     10  C   UNL A   1      33.570  26.831  23.012  1.00  0.00     0.003 C 
ATOM     11  C   UNL A   1      31.205  26.852  23.912  1.00  0.00     0.020 C 
ATOM     12  C   UNL A   1      33.813  25.544  23.782  1.00  0.00     0.001 C 
ATOM     13  C   UNL A   1      32.961  25.468  25.045  1.00  0.00     0.017 C 
BRANCH   7  14
ATOM     14  C   UNL A   1      30.751  24.374  24.096  1.00  0.00     0.094 C 
BRANCH  14  15
ATOM     15  C   UNL A   1      31.411  23.022  24.105  1.00  0.00     0.129 A 
ATOM     16  N   UNL A   1      31.474  22.362  25.277  1.00  0.00    -0.241 NA
ATOM     17  N   UNL A   1      31.887  22.541  22.938  1.00  0.00    -0.241 NA
ATOM     18  C   UNL A   1      32.001  21.121  25.247  1.00  0.00     0.115 A 
ATOM     19  C   UNL A   1      32.415  21.300  22.968  1.00  0.00     0.115 A 
ATOM     20  C   UNL A   1      32.481  20.529  24.104  1.00  0.00     0.040 A 
ENDBRANCH  14  15
ENDBRANCH   7  14
ENDBRANCH   4   7
ENDBRANCH   2   3
ENDBRANCH   1   2
BRANCH   1  21
ATOM     21  C   UNL A   1      32.322  30.294  26.209  1.00  0.00     0.118 C 
BRANCH  21  22
ATOM     22  N   UNL A   1      32.156  31.704  26.578  1.00  0.00    -0.352 N 
ATOM     23  C   UNL A   1      32.922  32.525  27.371  1.00  0.00     0.251 C 
ATOM     24  H   UNL A   1      31.360  32.135  26.193  1.00  0.00     0.163 HD
ATOM     25  O   UNL A   1      32.470  33.606  27.743  1.00  0.00    -0.269 OA
BRANCH  23  26
ATOM     26  C   UNL A   1      34.272  32.098  27.792  1.00  0.00     0.039 A 
ATOM     27  C   UNL A   1      35.294  33.045  27.914  1.00  0.00     0.014 A 
ATOM     28  C   UNL A   1      34.524  30.760  28.094  1.00  0.00     0.014 A 
ATOM     29  C   UNL A   1      36.526  32.666  28.454  1.00  0.00     0.010 A 
ATOM     30  C   UNL A   1      35.700  30.412  28.741  1.00  0.00     0.010 A 
ATOM     31  C   UNL A   1      36.715  31.360  28.934  1.00  0.00    -0.014 A 
BRANCH  31  32
ATOM     32  C   UNL A   1      37.935  30.954  29.679  1.00  0.00     0.031 A 
ATOM     33  C   UNL A   1      38.887  29.954  29.077  1.00  0.00     0.074 A 
ATOM     34  C   UNL A   1      38.094  31.357  30.957  1.00  0.00     0.049 A 
ATOM     35  N   UNL A   1      39.912  29.359  29.627  1.00  0.00    -0.248 NA
ATOM     36  C   UNL A   1      38.628  29.533  27.688  1.00  0.00     0.031 C 
ATOM     37  C   UNL A   1      37.178  32.235  31.692  1.00  0.00     0.029 A 
ATOM     38  N   UNL A   1      39.060  31.044  31.883  1.00  0.00    -0.354 N 
ATOM     39  C   UNL A   1      40.376  28.451  28.683  1.00  0.00     0.074 A 
ATOM     40  C   UNL A   1      39.508  28.555  27.531  1.00  0.00     0.031 C 
ATOM     41  C   UNL A   1      37.621  32.384  32.951  1.00  0.00     0.029 A 
ATOM     42  C   UNL A   1      38.829  31.586  33.127  1.00  0.00     0.049 A 
ATOM     43  H   UNL A   1      39.843  30.484  31.676  1.00  0.00     0.167 HD
ATOM     44  C   UNL A   1      41.444  27.624  28.757  1.00  0.00     0.034 A 
ATOM     45  C   UNL A   1      39.500  31.442  34.286  1.00  0.00     0.034 A 
ATOM     46  C   UNL A   1      42.353  27.591  29.868  1.00  0.00     0.049 A 
ATOM     47  C   UNL A   1      40.735  30.581  34.310  1.00  0.00     0.074 A 
ATOM     48  C   UNL A   1      43.555  26.914  29.973  1.00  0.00     0.029 A 
ATOM     49  N   UNL A   1      42.159  28.255  31.068  1.00  0.00    -0.354 N 
ATOM     50  N   UNL A   1      41.277  29.894  33.334  1.00  0.00    -0.248 NA
ATOM     51  C   UNL A   1      41.468  30.499  35.581  1.00  0.00     0.031 C 
ATOM     52  C   UNL A   1      44.076  27.151  31.248  1.00  0.00     0.029 A 
ATOM     53  C   UNL A   1      43.208  27.988  31.929  1.00  0.00     0.049 A 
ATOM     54  H   UNL A   1      41.388  28.832  31.276  1.00  0.00     0.167 HD
ATOM     55  C   UNL A   1      42.426  29.320  33.866  1.00  0.00     0.074 A 
ATOM     56  C   UNL A   1      42.518  29.764  35.242  1.00  0.00     0.031 C 
ATOM     57  C   UNL A   1      43.313  28.482  33.276  1.00  0.00     0.034 A 
BRANCH  44  58
ATOM     58  C   UNL A   1      41.735  26.730  27.582  1.00  0.00     0.023 A 
ATOM     59  C   UNL A   1      42.424  27.248  26.467  1.00  0.00     0.012 A 
ATOM     60  C   UNL A   1      41.408  25.360  27.620  1.00  0.00     0.148 A 
ATOM     61  C   UNL A   1      42.761  26.422  25.395  1.00  0.00     0.002 A 
ATOM     62  C   UNL A   1      41.785  24.535  26.567  1.00  0.00     0.091 A 
ATOM     63  F   UNL A   1      40.734  24.892  28.680  1.00  0.00    -0.205 F 
ATOM     64  C   UNL A   1      42.453  25.066  25.451  1.00  0.00     0.022 A 
BRANCH  62  65
ATOM     65  S   UNL A   1      41.507  22.760  26.575  1.00  0.00     0.127 S 
ATOM     66  O   UNL A   1      40.048  22.690  26.504  1.00  0.00    -0.237 OA
ATOM     67  O   UNL A   1      42.198  22.337  25.357  1.00  0.00    -0.237 OA
ATOM     68  O   UNL A   1      42.093  22.266  27.813  1.00  0.00    -0.744 OA
ENDBRANCH  62  65
ENDBRANCH  44  58
BRANCH  45  69
ATOM     69  C   UNL A   1      39.051  32.166  35.510  1.00  0.00     0.023 A 
ATOM     70  C   UNL A   1      39.279  33.553  35.613  1.00  0.00     0.012 A 
ATOM     71  C   UNL A   1      38.387  31.502  36.558  1.00  0.00     0.148 A 
ATOM     72  C   UNL A   1      38.888  34.256  36.753  1.00  0.00     0.002 A 
ATOM     73  C   UNL A   1      37.949  32.219  37.666  1.00  0.00     0.091 A 
ATOM     74  F   UNL A   1      38.191  30.179  36.451  1.00  0.00    -0.205 F 
ATOM     75  C   UNL A   1      38.214  33.592  37.775  1.00  0.00     0.022 A 
BRANCH  73  76
ATOM     76  S   UNL A   1      36.950  31.464  38.956  1.00  0.00     0.127 S 
ATOM     77  O   UNL A   1      36.771  30.109  38.443  1.00  0.00    -0.237 OA
ATOM     78  O   UNL A   1      37.825  31.570  40.125  1.00  0.00    -0.237 OA
ATOM     79  O   UNL A   1      35.747  32.282  39.039  1.00  0.00    -0.744 OA
ENDBRANCH  73  76
ENDBRANCH  45  69
BRANCH  57  80
ATOM     80  C   UNL A   1      44.473  27.998  34.102  1.00  0.00     0.023 A 
ATOM     81  C   UNL A   1      45.635  28.788  34.197  1.00  0.00     0.012 A 
ATOM     82  C   UNL A   1      44.377  26.811  34.855  1.00  0.00     0.148 A 
ATOM     83  C   UNL A   1      46.694  28.393  35.012  1.00  0.00     0.002 A 
ATOM     84  C   UNL A   1      45.417  26.449  35.702  1.00  0.00     0.091 A 
ATOM     85  F   UNL A   1      43.268  26.066  34.736  1.00  0.00    -0.205 F 
ATOM     86  C   UNL A   1      46.580  27.233  35.775  1.00  0.00     0.022 A 
BRANCH  84  87
ATOM     87  S   UNL A   1      45.318  25.025  36.794  1.00  0.00     0.127 S 
ATOM     88  O   UNL A   1      44.105  25.319  37.556  1.00  0.00    -0.237 OA
ATOM     89  O   UNL A   1      45.191  23.917  35.847  1.00  0.00    -0.237 OA
ATOM     90  O   UNL A   1      46.554  25.024  37.565  1.00  0.00    -0.744 OA
ENDBRANCH  84  87
ENDBRANCH  57  80
ENDBRANCH  31  32
ENDBRANCH  23  26
ENDBRANCH  21  22
ENDBRANCH   1  21
TORSDOF 15
ENDMDL
MODEL 3
REMARK VINA RESULT:     -11.7      6.081     10.891
REMARK SMILES C[C@@H]1CCC[C@@](Cc2ncccn2)(C(=O)NCCCNC(=O)c2ccc(-c3c4nc(c(-c5cccc(S(=O)(=O)[O-])c5F)c5ccc([nH]5)c(-c5cccc(S(=O)(=O)[O-])c5F)c5nc(c(-c6cccc(S(=O)(=O)[O-])c6F)c6ccc3[nH]6)C=C5)C=C4)cc2)C1
REMARK SMILES IDX 18 1 17 2 16 3 14 4 15 5 6 7 1 8 2 9 3 10 86 11 4 12 5 13
REMARK SMILES IDX 7 14 8 15 9 16 13 17 10 18 12 19 11 20 19 21 20 22 21 23
REMARK SMILES IDX 22 25 23 26 24 27 85 28 25 29 84 30 26 31 27 32 28 33 78 34
REMARK SMILES IDX 29 35 83 36 77 37 79 38 30 39 82 40 76 41 75 42 31 44 63 45
REMARK SMILES IDX 43 46 62 47 44 48 47 49 61 50 80 51 45 52 46 53 60 55 81 56
REMARK SMILES IDX 48 57 32 58 33 59 41 60 34 61 36 62 42 63 35 64 37 65 38 66
REMARK SMILES IDX 39 67 40 68 64 69 65 70 73 71 66 72 68 73 74 74 67 75 69 76
REMARK SMILES IDX 70 77 71 78 72 79 49 80 50 81 58 82 51 83 53 84 59 85 52 86
REMARK SMILES IDX 54 87 55 88 56 89 57 90
REMARK H PARENT 16 6 20 24 79 43 47 54
REMARK Flexibility Score: inf
ROOT
ATOM      1  C   UNL A   1      31.828  28.967  27.375  1.00  0.00     0.042 C 
ENDROOT
BRANCH   1   2
ATOM      2  C   UNL A   1      32.074  27.485  27.195  1.00  0.00     0.117 C 
BRANCH   2   3
ATOM      3  N   UNL A   1      30.939  26.732  26.715  1.00  0.00    -0.356 N 
ATOM      4  C   UNL A   1      30.632  26.301  25.461  1.00  0.00     0.226 C 
ATOM      5  O   UNL A   1      29.824  25.365  25.416  1.00  0.00    -0.274 OA
ATOM      6  H   UNL A   1      30.280  26.492  27.406  1.00  0.00     0.163 HD
BRANCH   4   7
ATOM      7  C   UNL A   1      31.226  26.914  24.157  1.00  0.00     0.056 C 
ATOM      8  C   UNL A   1      33.931  28.349  22.649  1.00  0.00     0.007 C 
ATOM      9  C   UNL A   1      33.654  26.894  23.033  1.00  0.00    -0.013 C 
ATOM     10  C   UNL A   1      33.084  26.099  21.860  1.00  0.00     0.003 C 
ATOM     11  C   UNL A   1      32.787  26.725  24.295  1.00  0.00     0.020 C 
ATOM     12  C   UNL A   1      31.602  26.365  21.649  1.00  0.00     0.001 C 
ATOM     13  C   UNL A   1      30.791  26.098  22.913  1.00  0.00     0.017 C 
BRANCH   7  14
ATOM     14  C   UNL A   1      30.948  28.446  24.115  1.00  0.00     0.094 C 
BRANCH  14  15
ATOM     15  C   UNL A   1      29.890  28.992  23.195  1.00  0.00     0.129 A 
ATOM     16  N   UNL A   1      28.603  28.743  23.500  1.00  0.00    -0.241 NA
ATOM     17  N   UNL A   1      30.290  29.712  22.127  1.00  0.00    -0.241 NA
ATOM     18  C   UNL A   1      27.671  29.306  22.704  1.00  0.00     0.115 A 
ATOM     19  C   UNL A   1      29.316  30.242  21.358  1.00  0.00     0.115 A 
ATOM     20  C   UNL A   1      27.976  30.084  21.613  1.00  0.00     0.040 A 
ENDBRANCH  14  15
ENDBRANCH   7  14
ENDBRANCH   4   7
ENDBRANCH   2   3
ENDBRANCH   1   2
BRANCH   1  21
ATOM     21  C   UNL A   1      32.801  29.826  26.584  1.00  0.00     0.118 C 
BRANCH  21  22
ATOM     22  N   UNL A   1      32.680  31.255  26.890  1.00  0.00    -0.352 N 
ATOM     23  C   UNL A   1      33.505  32.099  27.594  1.00  0.00     0.251 C 
ATOM     24  H   UNL A   1      31.870  31.681  26.529  1.00  0.00     0.163 HD
ATOM     25  O   UNL A   1      33.093  33.206  27.935  1.00  0.00    -0.269 OA
BRANCH  23  26
ATOM     26  C   UNL A   1      34.870  31.668  27.957  1.00  0.00     0.039 A 
ATOM     27  C   UNL A   1      35.906  32.606  28.002  1.00  0.00     0.014 A 
ATOM     28  C   UNL A   1      35.123  30.336  28.281  1.00  0.00     0.014 A 
ATOM     29  C   UNL A   1      37.160  32.228  28.488  1.00  0.00     0.010 A 
ATOM     30  C   UNL A   1      36.327  29.991  28.877  1.00  0.00     0.010 A 
ATOM     31  C   UNL A   1      37.360  30.933  28.993  1.00  0.00    -0.014 A 
BRANCH  31  32
ATOM     32  C   UNL A   1      38.612  30.532  29.687  1.00  0.00     0.031 A 
ATOM     33  C   UNL A   1      39.516  29.496  29.070  1.00  0.00     0.074 A 
ATOM     34  C   UNL A   1      38.846  30.977  30.939  1.00  0.00     0.049 A 
ATOM     35  N   UNL A   1      40.560  28.903  29.586  1.00  0.00    -0.248 NA
ATOM     36  C   UNL A   1      39.176  29.031  27.713  1.00  0.00     0.031 C 
ATOM     37  C   UNL A   1      37.985  31.895  31.690  1.00  0.00     0.029 A 
ATOM     38  N   UNL A   1      39.855  30.681  31.823  1.00  0.00    -0.354 N 
ATOM     39  C   UNL A   1      40.958  27.955  28.652  1.00  0.00     0.074 A 
ATOM     40  C   UNL A   1      40.031  28.033  27.545  1.00  0.00     0.031 C 
ATOM     41  C   UNL A   1      38.496  32.081  32.917  1.00  0.00     0.029 A 
ATOM     42  C   UNL A   1      39.700  31.269  33.057  1.00  0.00     0.049 A 
ATOM     43  H   UNL A   1      40.618  30.100  31.594  1.00  0.00     0.167 HD
ATOM     44  C   UNL A   1      42.016  27.113  28.699  1.00  0.00     0.034 A 
ATOM     45  C   UNL A   1      40.431  31.154  34.183  1.00  0.00     0.034 A 
ATOM     46  C   UNL A   1      42.984  27.104  29.760  1.00  0.00     0.049 A 
ATOM     47  C   UNL A   1      41.652  30.275  34.171  1.00  0.00     0.074 A 
ATOM     48  C   UNL A   1      44.178  26.410  29.825  1.00  0.00     0.029 A 
ATOM     49  N   UNL A   1      42.864  27.812  30.944  1.00  0.00    -0.354 N 
ATOM     50  N   UNL A   1      42.130  29.544  33.193  1.00  0.00    -0.248 NA
ATOM     51  C   UNL A   1      42.451  30.225  35.404  1.00  0.00     0.031 C 
ATOM     52  C   UNL A   1      44.772  26.683  31.061  1.00  0.00     0.029 A 
ATOM     53  C   UNL A   1      43.954  27.558  31.757  1.00  0.00     0.049 A 
ATOM     54  H   UNL A   1      42.115  28.409  31.172  1.00  0.00     0.167 HD
ATOM     55  C   UNL A   1      43.297  28.970  33.684  1.00  0.00     0.074 A 
ATOM     56  C   UNL A   1      43.470  29.460  35.036  1.00  0.00     0.031 C 
ATOM     57  C   UNL A   1      44.139  28.097  33.078  1.00  0.00     0.034 A 
BRANCH  44  58
ATOM     58  C   UNL A   1      42.230  26.174  27.543  1.00  0.00     0.023 A 
ATOM     59  C   UNL A   1      42.958  26.609  26.417  1.00  0.00     0.012 A 
ATOM     60  C   UNL A   1      41.790  24.837  27.609  1.00  0.00     0.148 A 
ATOM     61  C   UNL A   1      43.223  25.736  25.363  1.00  0.00     0.002 A 
ATOM     62  C   UNL A   1      42.095  23.961  26.574  1.00  0.00     0.091 A 
ATOM     63  F   UNL A   1      41.081  24.449  28.678  1.00  0.00    -0.205 F 
ATOM     64  C   UNL A   1      42.803  24.411  25.446  1.00  0.00     0.022 A 
BRANCH  62  65
ATOM     65  S   UNL A   1      41.670  22.217  26.618  1.00  0.00     0.127 S 
ATOM     66  O   UNL A   1      42.275  21.734  25.378  1.00  0.00    -0.237 OA
ATOM     67  O   UNL A   1      42.340  21.769  27.839  1.00  0.00    -0.237 OA
ATOM     68  O   UNL A   1      40.215  22.158  26.664  1.00  0.00    -0.744 OA
ENDBRANCH  62  65
ENDBRANCH  44  58
BRANCH  45  69
ATOM     69  C   UNL A   1      40.059  31.929  35.402  1.00  0.00     0.023 A 
ATOM     70  C   UNL A   1      40.688  33.165  35.652  1.00  0.00     0.012 A 
ATOM     71  C   UNL A   1      39.081  31.464  36.302  1.00  0.00     0.148 A 
ATOM     72  C   UNL A   1      40.375  33.905  36.794  1.00  0.00     0.002 A 
ATOM     73  C   UNL A   1      38.734  32.233  37.407  1.00  0.00     0.091 A 
ATOM     74  F   UNL A   1      38.503  30.278  36.057  1.00  0.00    -0.205 F 
ATOM     75  C   UNL A   1      39.393  33.444  37.665  1.00  0.00     0.022 A 
BRANCH  73  76
ATOM     76  S   UNL A   1      37.379  31.778  38.496  1.00  0.00     0.127 S 
ATOM     77  O   UNL A   1      37.983  31.949  39.814  1.00  0.00    -0.237 OA
ATOM     78  O   UNL A   1      36.359  32.771  38.152  1.00  0.00    -0.237 OA
ATOM     79  O   UNL A   1      37.028  30.413  38.123  1.00  0.00    -0.744 OA
ENDBRANCH  73  76
ENDBRANCH  45  69
BRANCH  57  80
ATOM     80  C   UNL A   1      45.334  27.622  33.857  1.00  0.00     0.023 A 
ATOM     81  C   UNL A   1      46.519  28.384  33.845  1.00  0.00     0.012 A 
ATOM     82  C   UNL A   1      45.255  26.477  34.673  1.00  0.00     0.148 A 
ATOM     83  C   UNL A   1      47.615  28.002  34.615  1.00  0.00     0.002 A 
ATOM     84  C   UNL A   1      46.334  26.128  35.475  1.00  0.00     0.091 A 
ATOM     85  F   UNL A   1      44.123  25.757  34.657  1.00  0.00    -0.205 F 
ATOM     86  C   UNL A   1      47.518  26.883  35.440  1.00  0.00     0.022 A 
BRANCH  84  87
ATOM     87  S   UNL A   1      46.268  24.762  36.641  1.00  0.00     0.127 S 
ATOM     88  O   UNL A   1      47.687  24.516  36.891  1.00  0.00    -0.237 OA
ATOM     89  O   UNL A   1      45.542  25.351  37.766  1.00  0.00    -0.237 OA
ATOM     90  O   UNL A   1      45.560  23.687  35.959  1.00  0.00    -0.744 OA
ENDBRANCH  84  87
ENDBRANCH  57  80
ENDBRANCH  31  32
ENDBRANCH  23  26
ENDBRANCH  21  22
ENDBRANCH   1  21
TORSDOF 15
ENDMDL
