MODEL 1
REMARK VINA RESULT:     -11.6      0.000      0.000
REMARK SMILES C[C@@H](C(=O)NCCCNC(=O)c1ccc(-c2c3nc(c(-c4cccc(S(=O)(=O)[O-])c4F)c4ccc([nH]4)c(-c4cccc(S(=O)(=O)[O-])c4F)c4nc(c(-c5cccc(S(=O)(=O)[O-])c5F)c5ccc2[nH]5)C=C4)C=C3)cc1)N1C(=O)CC2(CCCC2)C1=O
REMARK SMILES IDX 8 1 7 2 6 3 5 4 3 5 4 6 2 8 1 9 75 10 76 11 84 12 77 13
REMARK SMILES IDX 78 14 79 15 85 16 80 17 83 18 81 19 82 20 9 21 10 22 11 24
REMARK SMILES IDX 12 25 13 26 74 27 14 28 73 29 15 30 16 31 17 32 67 33 18 34
REMARK SMILES IDX 72 35 66 36 68 37 19 38 71 39 65 40 64 41 20 43 52 44 32 45
REMARK SMILES IDX 51 46 33 47 36 48 50 49 69 50 34 51 35 52 49 54 70 55 37 56
REMARK SMILES IDX 21 57 22 58 30 59 23 60 25 61 31 62 24 63 26 64 27 65 28 66
REMARK SMILES IDX 29 67 53 68 54 69 62 70 55 71 57 72 63 73 56 74 58 75 59 76
REMARK SMILES IDX 60 77 61 78 38 79 39 80 47 81 40 82 42 83 48 84 41 85 43 86
REMARK SMILES IDX 44 87 45 88 46 89
REMARK H PARENT 5 7 9 23 68 42 36 53
REMARK Flexibility Score: inf
ROOT
ATOM      1  C   UNL A   1      34.150  28.669  25.842  1.00  0.00     0.118 C 
ENDROOT
BRANCH   1   2
ATOM      2  C   UNL A   1      33.387  27.543  26.534  1.00  0.00     0.042 C 
BRANCH   2   3
ATOM      3  C   UNL A   1      31.866  27.636  26.394  1.00  0.00     0.117 C 
BRANCH   3   4
ATOM      4  N   UNL A   1      31.225  26.397  26.807  1.00  0.00    -0.354 N 
ATOM      5  C   UNL A   1      30.875  25.307  26.057  1.00  0.00     0.243 C 
ATOM      6  O   UNL A   1      30.028  24.540  26.521  1.00  0.00    -0.273 OA
ATOM      7  H   UNL A   1      31.011  26.336  27.765  1.00  0.00     0.163 HD
BRANCH   5   8
ATOM      8  C   UNL A   1      31.502  25.108  24.658  1.00  0.00     0.179 C 
ATOM      9  C   UNL A   1      30.416  24.472  23.780  1.00  0.00     0.042 C 
BRANCH   8  10
ATOM     10  N   UNL A   1      32.706  24.264  24.732  1.00  0.00    -0.270 N 
ATOM     11  C   UNL A   1      32.648  22.924  25.005  1.00  0.00     0.231 C 
ATOM     12  C   UNL A   1      33.834  24.492  23.990  1.00  0.00     0.236 C 
ATOM     13  O   UNL A   1      31.654  22.251  25.221  1.00  0.00    -0.274 OA
ATOM     14  C   UNL A   1      34.008  22.308  24.821  1.00  0.00     0.117 C 
ATOM     15  C   UNL A   1      34.878  23.499  24.442  1.00  0.00     0.059 C 
ATOM     16  O   UNL A   1      33.961  25.271  23.056  1.00  0.00    -0.274 OA
ATOM     17  C   UNL A   1      35.700  24.011  25.631  1.00  0.00     0.017 C 
ATOM     18  C   UNL A   1      35.955  23.189  23.411  1.00  0.00     0.017 C 
ATOM     19  C   UNL A   1      36.952  23.132  25.637  1.00  0.00     0.001 C 
ATOM     20  C   UNL A   1      37.088  22.570  24.222  1.00  0.00     0.001 C 
ENDBRANCH   8  10
ENDBRANCH   5   8
ENDBRANCH   3   4
ENDBRANCH   2   3
ENDBRANCH   1   2
BRANCH   1  21
ATOM     21  N   UNL A   1      33.821  29.980  26.379  1.00  0.00    -0.352 N 
ATOM     22  C   UNL A   1      34.421  30.685  27.393  1.00  0.00     0.251 C 
ATOM     23  H   UNL A   1      33.054  30.427  25.953  1.00  0.00     0.163 HD
ATOM     24  O   UNL A   1      33.880  31.702  27.821  1.00  0.00    -0.269 OA
BRANCH  22  25
ATOM     25  C   UNL A   1      35.698  30.222  27.984  1.00  0.00     0.039 A 
ATOM     26  C   UNL A   1      35.677  29.643  29.256  1.00  0.00     0.014 A 
ATOM     27  C   UNL A   1      36.913  30.378  27.310  1.00  0.00     0.014 A 
ATOM     28  C   UNL A   1      36.863  29.174  29.828  1.00  0.00     0.010 A 
ATOM     29  C   UNL A   1      38.083  29.844  27.851  1.00  0.00     0.010 A 
ATOM     30  C   UNL A   1      38.073  29.243  29.118  1.00  0.00    -0.014 A 
BRANCH  30  31
ATOM     31  C   UNL A   1      39.328  28.679  29.680  1.00  0.00     0.031 A 
ATOM     32  C   UNL A   1      39.974  29.302  30.890  1.00  0.00     0.074 A 
ATOM     33  C   UNL A   1      39.935  27.651  29.052  1.00  0.00     0.049 A 
ATOM     34  N   UNL A   1      41.092  28.977  31.487  1.00  0.00    -0.248 NA
ATOM     35  C   UNL A   1      39.286  30.454  31.495  1.00  0.00     0.031 C 
ATOM     36  C   UNL A   1      39.456  27.010  27.826  1.00  0.00     0.029 A 
ATOM     37  N   UNL A   1      41.100  26.985  29.340  1.00  0.00    -0.354 N 
ATOM     38  C   UNL A   1      41.261  29.902  32.510  1.00  0.00     0.074 A 
ATOM     39  C   UNL A   1      40.146  30.821  32.435  1.00  0.00     0.031 C 
ATOM     40  C   UNL A   1      40.318  26.045  27.468  1.00  0.00     0.029 A 
ATOM     41  C   UNL A   1      41.425  26.017  28.419  1.00  0.00     0.049 A 
ATOM     42  H   UNL A   1      41.651  27.181  30.133  1.00  0.00     0.167 HD
ATOM     43  C   UNL A   1      42.240  29.968  33.444  1.00  0.00     0.034 A 
ATOM     44  C   UNL A   1      42.499  25.205  28.339  1.00  0.00     0.034 A 
ATOM     45  C   UNL A   1      43.327  29.029  33.542  1.00  0.00     0.049 A 
ATOM     46  C   UNL A   1      43.548  25.268  29.415  1.00  0.00     0.074 A 
ATOM     47  C   UNL A   1      44.316  28.958  34.508  1.00  0.00     0.029 A 
ATOM     48  N   UNL A   1      43.573  28.003  32.643  1.00  0.00    -0.354 N 
ATOM     49  N   UNL A   1      43.604  26.048  30.468  1.00  0.00    -0.248 NA
ATOM     50  C   UNL A   1      44.663  24.315  29.314  1.00  0.00     0.031 C 
ATOM     51  C   UNL A   1      45.175  27.905  34.177  1.00  0.00     0.029 A 
ATOM     52  C   UNL A   1      44.703  27.301  33.023  1.00  0.00     0.049 A 
ATOM     53  H   UNL A   1      43.024  27.805  31.850  1.00  0.00     0.167 HD
ATOM     54  C   UNL A   1      44.737  25.656  31.172  1.00  0.00     0.074 A 
ATOM     55  C   UNL A   1      45.326  24.556  30.437  1.00  0.00     0.031 C 
ATOM     56  C   UNL A   1      45.251  26.173  32.315  1.00  0.00     0.034 A 
BRANCH  43  57
ATOM     57  C   UNL A   1      42.157  31.065  34.474  1.00  0.00     0.023 A 
ATOM     58  C   UNL A   1      41.529  30.810  35.710  1.00  0.00     0.012 A 
ATOM     59  C   UNL A   1      42.759  32.319  34.250  1.00  0.00     0.148 A 
ATOM     60  C   UNL A   1      41.472  31.796  36.695  1.00  0.00     0.002 A 
ATOM     61  C   UNL A   1      42.738  33.281  35.254  1.00  0.00     0.091 A 
ATOM     62  F   UNL A   1      43.337  32.549  33.062  1.00  0.00    -0.205 F 
ATOM     63  C   UNL A   1      42.085  33.026  36.471  1.00  0.00     0.022 A 
BRANCH  61  64
ATOM     64  S   UNL A   1      43.569  34.866  35.098  1.00  0.00     0.127 S 
ATOM     65  O   UNL A   1      42.758  35.524  34.072  1.00  0.00    -0.237 OA
ATOM     66  O   UNL A   1      43.421  35.424  36.442  1.00  0.00    -0.237 OA
ATOM     67  O   UNL A   1      44.939  34.566  34.710  1.00  0.00    -0.744 OA
ENDBRANCH  61  64
ENDBRANCH  43  57
BRANCH  44  68
ATOM     68  C   UNL A   1      42.601  24.218  27.226  1.00  0.00     0.023 A 
ATOM     69  C   UNL A   1      43.319  24.557  26.063  1.00  0.00     0.012 A 
ATOM     70  C   UNL A   1      42.018  22.940  27.327  1.00  0.00     0.148 A 
ATOM     71  C   UNL A   1      43.428  23.653  25.007  1.00  0.00     0.002 A 
ATOM     72  C   UNL A   1      42.180  22.023  26.294  1.00  0.00     0.091 A 
ATOM     73  F   UNL A   1      41.331  22.641  28.437  1.00  0.00    -0.205 F 
ATOM     74  C   UNL A   1      42.869  22.383  25.125  1.00  0.00     0.022 A 
BRANCH  72  75
ATOM     75  S   UNL A   1      41.613  20.324  26.419  1.00  0.00     0.127 S 
ATOM     76  O   UNL A   1      42.078  19.950  27.752  1.00  0.00    -0.237 OA
ATOM     77  O   UNL A   1      40.163  20.481  26.294  1.00  0.00    -0.237 OA
ATOM     78  O   UNL A   1      42.236  19.618  25.308  1.00  0.00    -0.744 OA
ENDBRANCH  72  75
ENDBRANCH  44  68
BRANCH  56  79
ATOM     79  C   UNL A   1      46.496  25.535  32.874  1.00  0.00     0.023 A 
ATOM     80  C   UNL A   1      47.763  26.053  32.538  1.00  0.00     0.012 A 
ATOM     81  C   UNL A   1      46.407  24.468  33.791  1.00  0.00     0.148 A 
ATOM     82  C   UNL A   1      48.922  25.498  33.081  1.00  0.00     0.002 A 
ATOM     83  C   UNL A   1      47.563  23.954  34.366  1.00  0.00     0.091 A 
ATOM     84  F   UNL A   1      45.193  23.976  34.084  1.00  0.00    -0.205 F 
ATOM     85  C   UNL A   1      48.821  24.459  34.002  1.00  0.00     0.022 A 
BRANCH  83  86
ATOM     86  S   UNL A   1      47.523  22.680  35.633  1.00  0.00     0.127 S 
ATOM     87  O   UNL A   1      46.998  21.536  34.889  1.00  0.00    -0.237 OA
ATOM     88  O   UNL A   1      48.933  22.570  36.005  1.00  0.00    -0.237 OA
ATOM     89  O   UNL A   1      46.658  23.190  36.687  1.00  0.00    -0.744 OA
ENDBRANCH  83  86
ENDBRANCH  56  79
ENDBRANCH  30  31
ENDBRANCH  22  25
ENDBRANCH   1  21
TORSDOF 14
ENDMDL
MODEL 2
REMARK VINA RESULT:     -11.6      2.132      2.879
REMARK SMILES C[C@@H](C(=O)NCCCNC(=O)c1ccc(-c2c3nc(c(-c4cccc(S(=O)(=O)[O-])c4F)c4ccc([nH]4)c(-c4cccc(S(=O)(=O)[O-])c4F)c4nc(c(-c5cccc(S(=O)(=O)[O-])c5F)c5ccc2[nH]5)C=C4)C=C3)cc1)N1C(=O)CC2(CCCC2)C1=O
REMARK SMILES IDX 8 1 7 2 6 3 5 4 3 5 4 6 2 8 1 9 75 10 76 11 84 12 77 13
REMARK SMILES IDX 78 14 79 15 85 16 80 17 83 18 81 19 82 20 9 21 10 22 11 24
REMARK SMILES IDX 12 25 13 26 74 27 14 28 73 29 15 30 16 31 17 32 67 33 18 34
REMARK SMILES IDX 72 35 66 36 68 37 19 38 71 39 65 40 64 41 20 43 52 44 32 45
REMARK SMILES IDX 51 46 33 47 36 48 50 49 69 50 34 51 35 52 49 54 70 55 37 56
REMARK SMILES IDX 21 57 22 58 30 59 23 60 25 61 31 62 24 63 26 64 27 65 28 66
REMARK SMILES IDX 29 67 53 68 54 69 62 70 55 71 57 72 63 73 56 74 58 75 59 76
REMARK SMILES IDX 60 77 61 78 38 79 39 80 47 81 40 82 42 83 48 84 41 85 43 86
REMARK SMILES IDX 44 87 45 88 46 89
REMARK H PARENT 5 7 9 23 68 42 36 53
REMARK Flexibility Score: inf
ROOT
ATOM      1  C   UNL A   1      32.591  29.879  25.803  1.00  0.00     0.118 C 
ENDROOT
BRANCH   1   2
ATOM      2  C   UNL A   1      31.411  29.332  25.004  1.00  0.00     0.042 C 
BRANCH   2   3
ATOM      3  C   UNL A   1      31.811  28.498  23.785  1.00  0.00     0.117 C 
BRANCH   3   4
ATOM      4  N   UNL A   1      31.212  27.174  23.836  1.00  0.00    -0.354 N 
ATOM      5  C   UNL A   1      31.575  26.029  23.179  1.00  0.00     0.243 C 
ATOM      6  O   UNL A   1      30.731  25.135  23.079  1.00  0.00    -0.273 OA
ATOM      7  H   UNL A   1      30.432  27.089  24.430  1.00  0.00     0.163 HD
BRANCH   5   8
ATOM      8  C   UNL A   1      32.982  25.922  22.549  1.00  0.00     0.179 C 
ATOM      9  C   UNL A   1      32.781  25.419  21.113  1.00  0.00     0.042 C 
BRANCH   8  10
ATOM     10  N   UNL A   1      33.843  25.016  23.327  1.00  0.00    -0.270 N 
ATOM     11  C   UNL A   1      34.251  25.305  24.602  1.00  0.00     0.231 C 
ATOM     12  C   UNL A   1      33.820  23.653  23.194  1.00  0.00     0.236 C 
ATOM     13  O   UNL A   1      33.990  26.298  25.260  1.00  0.00    -0.274 OA
ATOM     14  C   UNL A   1      34.949  24.111  25.195  1.00  0.00     0.117 C 
ATOM     15  C   UNL A   1      34.925  23.098  24.059  1.00  0.00     0.059 C 
ATOM     16  O   UNL A   1      32.998  22.983  22.583  1.00  0.00    -0.274 OA
ATOM     17  C   UNL A   1      36.268  23.028  23.323  1.00  0.00     0.017 C 
ATOM     18  C   UNL A   1      34.724  21.656  24.506  1.00  0.00     0.017 C 
ATOM     19  C   UNL A   1      37.104  22.046  24.146  1.00  0.00     0.001 C 
ATOM     20  C   UNL A   1      36.111  21.196  24.939  1.00  0.00     0.001 C 
ENDBRANCH   8  10
ENDBRANCH   5   8
ENDBRANCH   3   4
ENDBRANCH   2   3
ENDBRANCH   1   2
BRANCH   1  21
ATOM     21  N   UNL A   1      32.410  31.270  26.185  1.00  0.00    -0.352 N 
ATOM     22  C   UNL A   1      33.091  32.018  27.113  1.00  0.00     0.251 C 
ATOM     23  H   UNL A   1      31.693  31.746  25.706  1.00  0.00     0.163 HD
ATOM     24  O   UNL A   1      32.666  33.130  27.418  1.00  0.00    -0.269 OA
BRANCH  22  25
ATOM     25  C   UNL A   1      34.315  31.490  27.759  1.00  0.00     0.039 A 
ATOM     26  C   UNL A   1      35.389  32.360  27.972  1.00  0.00     0.014 A 
ATOM     27  C   UNL A   1      34.424  30.146  28.129  1.00  0.00     0.014 A 
ATOM     28  C   UNL A   1      36.548  31.895  28.602  1.00  0.00     0.010 A 
ATOM     29  C   UNL A   1      35.550  29.704  28.822  1.00  0.00     0.010 A 
ATOM     30  C   UNL A   1      36.627  30.570  29.059  1.00  0.00    -0.014 A 
BRANCH  30  31
ATOM     31  C   UNL A   1      37.821  30.082  29.799  1.00  0.00     0.031 A 
ATOM     32  C   UNL A   1      38.109  30.568  31.195  1.00  0.00     0.074 A 
ATOM     33  C   UNL A   1      38.696  29.260  29.182  1.00  0.00     0.049 A 
ATOM     34  N   UNL A   1      39.125  30.290  31.972  1.00  0.00    -0.248 NA
ATOM     35  C   UNL A   1      37.141  31.505  31.789  1.00  0.00     0.031 C 
ATOM     36  C   UNL A   1      38.575  28.781  27.804  1.00  0.00     0.029 A 
ATOM     37  N   UNL A   1      39.872  28.708  29.623  1.00  0.00    -0.354 N 
ATOM     38  C   UNL A   1      38.940  31.043  33.125  1.00  0.00     0.074 A 
ATOM     39  C   UNL A   1      37.730  31.812  32.937  1.00  0.00     0.031 C 
ATOM     40  C   UNL A   1      39.633  28.008  27.513  1.00  0.00     0.029 A 
ATOM     41  C   UNL A   1      40.522  27.959  28.670  1.00  0.00     0.049 A 
ATOM     42  H   UNL A   1      40.218  28.835  30.537  1.00  0.00     0.167 HD
ATOM     43  C   UNL A   1      39.694  31.073  34.251  1.00  0.00     0.034 A 
ATOM     44  C   UNL A   1      41.705  27.315  28.715  1.00  0.00     0.034 A 
ATOM     45  C   UNL A   1      40.875  30.276  34.453  1.00  0.00     0.049 A 
ATOM     46  C   UNL A   1      42.499  27.327  29.993  1.00  0.00     0.074 A 
ATOM     47  C   UNL A   1      41.653  30.168  35.593  1.00  0.00     0.029 A 
ATOM     48  N   UNL A   1      41.453  29.457  33.496  1.00  0.00    -0.354 N 
ATOM     49  N   UNL A   1      42.222  27.917  31.130  1.00  0.00    -0.248 NA
ATOM     50  C   UNL A   1      43.749  26.553  30.007  1.00  0.00     0.031 C 
ATOM     51  C   UNL A   1      42.717  29.303  35.315  1.00  0.00     0.029 A 
ATOM     52  C   UNL A   1      42.583  28.848  34.013  1.00  0.00     0.049 A 
ATOM     53  H   UNL A   1      41.110  29.328  32.582  1.00  0.00     0.167 HD
ATOM     54  C   UNL A   1      43.242  27.559  32.004  1.00  0.00     0.074 A 
ATOM     55  C   UNL A   1      44.132  26.682  31.271  1.00  0.00     0.031 C 
ATOM     56  C   UNL A   1      43.433  27.935  33.292  1.00  0.00     0.034 A 
BRANCH  43  57
ATOM     57  C   UNL A   1      39.236  31.960  35.380  1.00  0.00     0.023 A 
ATOM     58  C   UNL A   1      38.362  31.444  36.358  1.00  0.00     0.012 A 
ATOM     59  C   UNL A   1      39.724  33.276  35.514  1.00  0.00     0.148 A 
ATOM     60  C   UNL A   1      37.954  32.232  37.434  1.00  0.00     0.002 A 
ATOM     61  C   UNL A   1      39.348  34.040  36.613  1.00  0.00     0.091 A 
ATOM     62  F   UNL A   1      40.540  33.756  34.565  1.00  0.00    -0.205 F 
ATOM     63  C   UNL A   1      38.454  33.524  37.566  1.00  0.00     0.022 A 
BRANCH  61  64
ATOM     64  S   UNL A   1      40.001  35.685  36.921  1.00  0.00     0.127 S 
ATOM     65  O   UNL A   1      39.337  36.034  38.178  1.00  0.00    -0.237 OA
ATOM     66  O   UNL A   1      41.436  35.429  37.041  1.00  0.00    -0.237 OA
ATOM     67  O   UNL A   1      39.620  36.491  35.770  1.00  0.00    -0.744 OA
ENDBRANCH  61  64
ENDBRANCH  43  57
BRANCH  44  68
ATOM     68  C   UNL A   1      42.179  26.551  27.526  1.00  0.00     0.023 A 
ATOM     69  C   UNL A   1      42.930  27.212  26.533  1.00  0.00     0.012 A 
ATOM     70  C   UNL A   1      41.919  25.175  27.389  1.00  0.00     0.148 A 
ATOM     71  C   UNL A   1      43.385  26.521  25.409  1.00  0.00     0.002 A 
ATOM     72  C   UNL A   1      42.424  24.480  26.295  1.00  0.00     0.091 A 
ATOM     73  F   UNL A   1      41.194  24.568  28.339  1.00  0.00    -0.205 F 
ATOM     74  C   UNL A   1      43.141  25.154  25.295  1.00  0.00     0.022 A 
BRANCH  72  75
ATOM     75  S   UNL A   1      42.277  22.698  26.136  1.00  0.00     0.127 S 
ATOM     76  O   UNL A   1      40.828  22.516  26.125  1.00  0.00    -0.237 OA
ATOM     77  O   UNL A   1      42.938  22.454  24.854  1.00  0.00    -0.237 OA
ATOM     78  O   UNL A   1      42.977  22.141  27.286  1.00  0.00    -0.744 OA
ENDBRANCH  72  75
ENDBRANCH  44  68
BRANCH  56  79
ATOM     79  C   UNL A   1      44.629  27.374  34.016  1.00  0.00     0.023 A 
ATOM     80  C   UNL A   1      45.859  28.061  33.978  1.00  0.00     0.012 A 
ATOM     81  C   UNL A   1      44.514  26.205  34.796  1.00  0.00     0.148 A 
ATOM     82  C   UNL A   1      46.964  27.574  34.677  1.00  0.00     0.002 A 
ATOM     83  C   UNL A   1      45.604  25.755  35.529  1.00  0.00     0.091 A 
ATOM     84  F   UNL A   1      43.340  25.555  34.804  1.00  0.00    -0.205 F 
ATOM     85  C   UNL A   1      46.833  26.431  35.461  1.00  0.00     0.022 A 
BRANCH  83  86
ATOM     86  S   UNL A   1      45.502  24.348  36.641  1.00  0.00     0.127 S 
ATOM     87  O   UNL A   1      44.491  24.796  37.597  1.00  0.00    -0.237 OA
ATOM     88  O   UNL A   1      45.061  23.277  35.746  1.00  0.00    -0.237 OA
ATOM     89  O   UNL A   1      46.840  24.167  37.185  1.00  0.00    -0.744 OA
ENDBRANCH  83  86
ENDBRANCH  56  79
ENDBRANCH  30  31
ENDBRANCH  22  25
ENDBRANCH   1  21
TORSDOF 14
ENDMDL
MODEL 3
REMARK VINA RESULT:     -11.5      2.008      2.485
REMARK SMILES C[C@@H](C(=O)NCCCNC(=O)c1ccc(-c2c3nc(c(-c4cccc(S(=O)(=O)[O-])c4F)c4ccc([nH]4)c(-c4cccc(S(=O)(=O)[O-])c4F)c4nc(c(-c5cccc(S(=O)(=O)[O-])c5F)c5ccc2[nH]5)C=C4)C=C3)cc1)N1C(=O)CC2(CCCC2)C1=O
REMARK SMILES IDX 8 1 7 2 6 3 5 4 3 5 4 6 2 8 1 9 75 10 76 11 84 12 77 13
REMARK SMILES IDX 78 14 79 15 85 16 80 17 83 18 81 19 82 20 9 21 10 22 11 24
REMARK SMILES IDX 12 25 13 26 74 27 14 28 73 29 15 30 16 31 17 32 67 33 18 34
REMARK SMILES IDX 72 35 66 36 68 37 19 38 71 39 65 40 64 41 20 43 52 44 32 45
REMARK SMILES IDX 51 46 33 47 36 48 50 49 69 50 34 51 35 52 49 54 70 55 37 56
REMARK SMILES IDX 21 57 22 58 30 59 23 60 25 61 31 62 24 63 26 64 27 65 28 66
REMARK SMILES IDX 29 67 53 68 54 69 62 70 55 71 57 72 63 73 56 74 58 75 59 76
REMARK SMILES IDX 60 77 61 78 38 79 39 80 47 81 40 82 42 83 48 84 41 85 43 86
REMARK SMILES IDX 44 87 45 88 46 89
REMARK H PARENT 5 7 9 23 68 42 36 53
REMARK Flexibility Score: inf
ROOT
ATOM      1  C   UNL A   1      33.504  28.587  26.818  1.00  0.00     0.118 C 
ENDROOT
BRANCH   1   2
ATOM      2  C   UNL A   1      32.190  27.958  27.272  1.00  0.00     0.042 C 
BRANCH   2   3
ATOM      3  C   UNL A   1      31.446  27.194  26.175  1.00  0.00     0.117 C 
BRANCH   3   4
ATOM      4  N   UNL A   1      31.298  25.790  26.522  1.00  0.00    -0.354 N 
ATOM      5  C   UNL A   1      31.281  24.689  25.709  1.00  0.00     0.243 C 
ATOM      6  O   UNL A   1      30.783  23.653  26.156  1.00  0.00    -0.273 OA
ATOM      7  H   UNL A   1      31.194  25.604  27.483  1.00  0.00     0.163 HD
BRANCH   5   8
ATOM      8  C   UNL A   1      31.824  24.797  24.265  1.00  0.00     0.179 C 
ATOM      9  C   UNL A   1      30.763  24.170  23.351  1.00  0.00     0.042 C 
BRANCH   8  10
ATOM     10  N   UNL A   1      33.124  24.117  24.137  1.00  0.00    -0.270 N 
ATOM     11  C   UNL A   1      33.751  23.951  22.932  1.00  0.00     0.231 C 
ATOM     12  C   UNL A   1      34.087  24.141  25.111  1.00  0.00     0.236 C 
ATOM     13  O   UNL A   1      33.360  24.313  21.835  1.00  0.00    -0.274 OA
ATOM     14  C   UNL A   1      35.134  23.401  23.149  1.00  0.00     0.117 C 
ATOM     15  C   UNL A   1      35.204  23.230  24.660  1.00  0.00     0.059 C 
ATOM     16  O   UNL A   1      34.112  24.845  26.111  1.00  0.00    -0.274 OA
ATOM     17  C   UNL A   1      34.980  21.773  25.084  1.00  0.00     0.017 C 
ATOM     18  C   UNL A   1      36.566  23.539  25.267  1.00  0.00     0.017 C 
ATOM     19  C   UNL A   1      36.362  21.127  24.974  1.00  0.00     0.001 C 
ATOM     20  C   UNL A   1      37.377  22.268  25.047  1.00  0.00     0.001 C 
ENDBRANCH   8  10
ENDBRANCH   5   8
ENDBRANCH   3   4
ENDBRANCH   2   3
ENDBRANCH   1   2
BRANCH   1  21
ATOM     21  N   UNL A   1      33.535  30.026  27.021  1.00  0.00    -0.352 N 
ATOM     22  C   UNL A   1      34.461  30.797  27.680  1.00  0.00     0.251 C 
ATOM     23  H   UNL A   1      32.780  30.521  26.628  1.00  0.00     0.163 HD
ATOM     24  O   UNL A   1      34.213  31.980  27.898  1.00  0.00    -0.269 OA
BRANCH  22  25
ATOM     25  C   UNL A   1      35.740  30.211  28.143  1.00  0.00     0.039 A 
ATOM     26  C   UNL A   1      36.840  30.235  27.281  1.00  0.00     0.014 A 
ATOM     27  C   UNL A   1      35.857  29.615  29.403  1.00  0.00     0.014 A 
ATOM     28  C   UNL A   1      38.067  29.712  27.700  1.00  0.00     0.010 A 
ATOM     29  C   UNL A   1      37.098  29.161  29.846  1.00  0.00     0.010 A 
ATOM     30  C   UNL A   1      38.215  29.197  28.998  1.00  0.00    -0.014 A 
BRANCH  30  31
ATOM     31  C   UNL A   1      39.532  28.708  29.486  1.00  0.00     0.031 A 
ATOM     32  C   UNL A   1      40.259  29.433  30.587  1.00  0.00     0.074 A 
ATOM     33  C   UNL A   1      40.115  27.652  28.880  1.00  0.00     0.049 A 
ATOM     34  N   UNL A   1      41.434  29.182  31.104  1.00  0.00    -0.248 NA
ATOM     35  C   UNL A   1      39.590  30.609  31.168  1.00  0.00     0.031 C 
ATOM     36  C   UNL A   1      39.552  26.912  27.750  1.00  0.00     0.029 A 
ATOM     37  N   UNL A   1      41.321  27.039  29.111  1.00  0.00    -0.354 N 
ATOM     38  C   UNL A   1      41.662  30.183  32.040  1.00  0.00     0.074 A 
ATOM     39  C   UNL A   1      40.516  31.065  32.000  1.00  0.00     0.031 C 
ATOM     40  C   UNL A   1      40.410  25.946  27.386  1.00  0.00     0.029 A 
ATOM     41  C   UNL A   1      41.596  26.015  28.235  1.00  0.00     0.049 A 
ATOM     42  H   UNL A   1      41.931  27.306  29.836  1.00  0.00     0.167 HD
ATOM     43  C   UNL A   1      42.715  30.342  32.877  1.00  0.00     0.034 A 
ATOM     44  C   UNL A   1      42.683  25.227  28.117  1.00  0.00     0.034 A 
ATOM     45  C   UNL A   1      43.835  29.441  32.945  1.00  0.00     0.049 A 
ATOM     46  C   UNL A   1      43.819  25.395  29.089  1.00  0.00     0.074 A 
ATOM     47  C   UNL A   1      44.906  29.466  33.822  1.00  0.00     0.029 A 
ATOM     48  N   UNL A   1      44.035  28.359  32.102  1.00  0.00    -0.354 N 
ATOM     49  N   UNL A   1      43.941  26.251  30.076  1.00  0.00    -0.248 NA
ATOM     50  C   UNL A   1      44.951  24.466  28.958  1.00  0.00     0.031 C 
ATOM     51  C   UNL A   1      45.766  28.413  33.492  1.00  0.00     0.029 A 
ATOM     52  C   UNL A   1      45.215  27.715  32.430  1.00  0.00     0.049 A 
ATOM     53  H   UNL A   1      43.427  28.089  31.376  1.00  0.00     0.167 HD
ATOM     54  C   UNL A   1      45.142  25.941  30.703  1.00  0.00     0.074 A 
ATOM     55  C   UNL A   1      45.700  24.805  29.999  1.00  0.00     0.031 C 
ATOM     56  C   UNL A   1      45.736  26.552  31.757  1.00  0.00     0.034 A 
BRANCH  43  57
ATOM     57  C   UNL A   1      42.686  31.509  33.831  1.00  0.00     0.023 A 
ATOM     58  C   UNL A   1      43.182  32.760  33.414  1.00  0.00     0.012 A 
ATOM     59  C   UNL A   1      42.106  31.386  35.110  1.00  0.00     0.148 A 
ATOM     60  C   UNL A   1      43.132  33.864  34.264  1.00  0.00     0.002 A 
ATOM     61  C   UNL A   1      42.019  32.502  35.935  1.00  0.00     0.091 A 
ATOM     62  F   UNL A   1      41.656  30.184  35.497  1.00  0.00    -0.205 F 
ATOM     63  C   UNL A   1      42.541  33.738  35.519  1.00  0.00     0.022 A 
BRANCH  61  64
ATOM     64  S   UNL A   1      41.203  32.465  37.535  1.00  0.00     0.127 S 
ATOM     65  O   UNL A   1      41.246  33.876  37.919  1.00  0.00    -0.237 OA
ATOM     66  O   UNL A   1      39.871  31.967  37.190  1.00  0.00    -0.237 OA
ATOM     67  O   UNL A   1      41.992  31.569  38.368  1.00  0.00    -0.744 OA
ENDBRANCH  61  64
ENDBRANCH  43  57
BRANCH  44  68
ATOM     68  C   UNL A   1      42.720  24.165  27.073  1.00  0.00     0.023 A 
ATOM     69  C   UNL A   1      43.431  24.393  25.878  1.00  0.00     0.012 A 
ATOM     70  C   UNL A   1      42.084  22.924  27.268  1.00  0.00     0.148 A 
ATOM     71  C   UNL A   1      43.480  23.416  24.883  1.00  0.00     0.002 A 
ATOM     72  C   UNL A   1      42.185  21.934  26.298  1.00  0.00     0.091 A 
ATOM     73  F   UNL A   1      41.404  22.732  28.407  1.00  0.00    -0.205 F 
ATOM     74  C   UNL A   1      42.867  22.183  25.096  1.00  0.00     0.022 A 
BRANCH  72  75
ATOM     75  S   UNL A   1      41.545  20.275  26.546  1.00  0.00     0.127 S 
ATOM     76  O   UNL A   1      40.103  20.496  26.474  1.00  0.00    -0.237 OA
ATOM     77  O   UNL A   1      42.115  19.558  25.405  1.00  0.00    -0.237 OA
ATOM     78  O   UNL A   1      42.057  19.844  27.839  1.00  0.00    -0.744 OA
ENDBRANCH  72  75
ENDBRANCH  44  68
BRANCH  56  79
ATOM     79  C   UNL A   1      47.045  25.989  32.247  1.00  0.00     0.023 A 
ATOM     80  C   UNL A   1      47.066  25.134  33.367  1.00  0.00     0.012 A 
ATOM     81  C   UNL A   1      48.244  26.249  31.554  1.00  0.00     0.148 A 
ATOM     82  C   UNL A   1      48.265  24.573  33.808  1.00  0.00     0.002 A 
ATOM     83  C   UNL A   1      49.425  25.646  31.968  1.00  0.00     0.091 A 
ATOM     84  F   UNL A   1      48.207  27.081  30.501  1.00  0.00    -0.205 F 
ATOM     85  C   UNL A   1      49.439  24.819  33.102  1.00  0.00     0.022 A 
BRANCH  83  86
ATOM     86  S   UNL A   1      50.967  25.829  31.064  1.00  0.00     0.127 S 
ATOM     87  O   UNL A   1      51.234  27.258  31.216  1.00  0.00    -0.237 OA
ATOM     88  O   UNL A   1      51.872  24.957  31.815  1.00  0.00    -0.237 OA
ATOM     89  O   UNL A   1      50.691  25.385  29.705  1.00  0.00    -0.744 OA
ENDBRANCH  83  86
ENDBRANCH  56  79
ENDBRANCH  30  31
ENDBRANCH  22  25
ENDBRANCH   1  21
TORSDOF 14
ENDMDL
