MODEL 1
REMARK VINA RESULT:     -12.3      0.000      0.000
REMARK SMILES C=CCn1nc(C(=O)NCCCNC(=O)c2ccc(-c3c4nc(c(-c5cccc(S(=O)(=O)[O-])c5F)c5ccc([nH]5)c(-c5cccc(S(=O)(=O)[O-])c5F)c5nc(c(-c6cccc(S(=O)(=O)[O-])c6F)c6ccc3[nH]6)C=C5)C=C4)cc2)c2c1CC[C@@H]([NH2+]Cc1nc(C)cc(=O)[nH]1)C2
REMARK SMILES IDX 11 1 10 2 9 3 7 4 8 5 6 7 4 8 5 9 80 10 79 11 81 12 94 13
REMARK SMILES IDX 82 14 83 15 3 16 2 17 1 18 84 19 85 22 86 23 87 24 93 25
REMARK SMILES IDX 88 26 91 27 89 29 90 30 92 31 12 32 13 33 14 34 15 36 16 37
REMARK SMILES IDX 17 38 78 39 18 40 77 41 19 42 20 43 21 44 71 45 22 46 76 47
REMARK SMILES IDX 70 48 72 49 23 50 75 51 69 52 68 53 24 55 56 56 36 57 55 58
REMARK SMILES IDX 37 59 40 60 54 61 73 62 38 63 39 64 53 66 74 67 41 68 25 69
REMARK SMILES IDX 26 70 34 71 27 72 29 73 35 74 28 75 30 76 31 77 32 78 33 79
REMARK SMILES IDX 57 80 58 81 66 82 59 83 61 84 67 85 60 86 62 87 63 88 64 89
REMARK SMILES IDX 65 90 42 91 43 92 51 93 44 94 46 95 52 96 45 97 47 98 48 99
REMARK SMILES IDX 49 100 50 101
REMARK H PARENT 9 6 84 20 84 21 93 28 13 35 72 54 40 65
REMARK Flexibility Score: inf
ROOT
ATOM      1  C   UNL A   1      31.829  31.719  26.581  1.00  0.00     0.042 C 
ENDROOT
BRANCH   1   2
ATOM      2  C   UNL A   1      31.896  30.188  26.496  1.00  0.00     0.118 C 
BRANCH   2   3
ATOM      3  N   UNL A   1      33.104  29.630  27.075  1.00  0.00    -0.351 N 
ATOM      4  C   UNL A   1      33.901  28.533  26.819  1.00  0.00     0.272 C 
ATOM      5  O   UNL A   1      35.011  28.600  27.359  1.00  0.00    -0.267 OA
ATOM      6  H   UNL A   1      33.435  30.163  27.834  1.00  0.00     0.163 HD
BRANCH   4   7
ATOM      7  C   UNL A   1      33.523  27.339  26.003  1.00  0.00     0.153 A 
ATOM      8  N   UNL A   1      32.583  25.410  25.736  1.00  0.00    -0.265 N 
ATOM      9  N   UNL A   1      33.007  26.276  26.667  1.00  0.00    -0.167 NA
ATOM     10  C   UNL A   1      32.894  25.805  24.475  1.00  0.00     0.043 A 
ATOM     11  C   UNL A   1      33.492  27.039  24.604  1.00  0.00     0.012 A 
ATOM     12  C   UNL A   1      32.523  25.123  23.202  1.00  0.00     0.062 C 
ATOM     13  C   UNL A   1      33.858  27.807  23.403  1.00  0.00     0.105 C 
ATOM     14  C   UNL A   1      33.241  25.789  22.015  1.00  0.00     0.072 C 
ATOM     15  C   UNL A   1      33.221  27.323  22.086  1.00  0.00     0.187 C 
BRANCH   8  16
ATOM     16  C   UNL A   1      31.816  24.237  26.142  1.00  0.00     0.171 C 
BRANCH  16  17
ATOM     17  C   UNL A   1      30.348  24.539  26.249  1.00  0.00    -0.011 C 
ATOM     18  C   UNL A   1      29.780  25.666  25.801  1.00  0.00     0.006 C 
ENDBRANCH  16  17
ENDBRANCH   8  16
BRANCH  15  19
ATOM     19  N   UNL A   1      31.835  27.814  21.955  1.00  0.00    -0.337 N 
ATOM     20  H   UNL A   1      31.217  27.197  22.482  1.00  0.00     0.346 HD
ATOM     21  H   UNL A   1      31.598  27.818  20.962  1.00  0.00     0.346 HD
BRANCH  19  22
ATOM     22  C   UNL A   1      31.677  29.184  22.459  1.00  0.00     0.337 C 
BRANCH  22  23
ATOM     23  C   UNL A   1      30.208  29.574  22.371  1.00  0.00     0.164 A 
ATOM     24  N   UNL A   1      29.291  28.811  22.880  1.00  0.00    -0.234 NA
ATOM     25  N   UNL A   1      29.937  30.755  21.736  1.00  0.00    -0.306 N 
ATOM     26  C   UNL A   1      27.989  29.234  22.772  1.00  0.00     0.045 A 
ATOM     27  C   UNL A   1      28.671  31.242  21.631  1.00  0.00     0.251 A 
ATOM     28  H   UNL A   1      30.680  31.267  21.342  1.00  0.00     0.171 HD
ATOM     29  C   UNL A   1      26.954  28.324  23.367  1.00  0.00     0.067 C 
ATOM     30  C   UNL A   1      27.622  30.383  22.190  1.00  0.00     0.095 A 
ATOM     31  O   UNL A   1      28.413  32.324  21.123  1.00  0.00    -0.270 OA
ENDBRANCH  22  23
ENDBRANCH  19  22
ENDBRANCH  15  19
ENDBRANCH   4   7
ENDBRANCH   2   3
ENDBRANCH   1   2
BRANCH   1  32
ATOM     32  C   UNL A   1      32.955  32.397  27.315  1.00  0.00     0.118 C 
BRANCH  32  33
ATOM     33  N   UNL A   1      32.605  33.767  27.696  1.00  0.00    -0.352 N 
ATOM     34  C   UNL A   1      33.124  34.503  28.748  1.00  0.00     0.251 C 
ATOM     35  H   UNL A   1      31.926  34.214  27.142  1.00  0.00     0.163 HD
ATOM     36  O   UNL A   1      32.512  35.439  29.221  1.00  0.00    -0.269 OA
BRANCH  34  37
ATOM     37  C   UNL A   1      34.430  34.080  29.284  1.00  0.00     0.039 A 
ATOM     38  C   UNL A   1      34.529  33.006  30.164  1.00  0.00     0.014 A 
ATOM     39  C   UNL A   1      35.562  34.689  28.754  1.00  0.00     0.014 A 
ATOM     40  C   UNL A   1      35.790  32.477  30.413  1.00  0.00     0.010 A 
ATOM     41  C   UNL A   1      36.760  34.028  28.825  1.00  0.00     0.010 A 
ATOM     42  C   UNL A   1      36.901  32.959  29.696  1.00  0.00    -0.014 A 
BRANCH  42  43
ATOM     43  C   UNL A   1      38.181  32.259  29.759  1.00  0.00     0.031 A 
ATOM     44  C   UNL A   1      38.159  30.897  29.166  1.00  0.00     0.074 A 
ATOM     45  C   UNL A   1      39.336  32.822  30.180  1.00  0.00     0.049 A 
ATOM     46  N   UNL A   1      38.136  29.782  29.817  1.00  0.00    -0.248 NA
ATOM     47  C   UNL A   1      37.949  30.744  27.717  1.00  0.00     0.031 C 
ATOM     48  C   UNL A   1      39.594  34.224  30.530  1.00  0.00     0.029 A 
ATOM     49  N   UNL A   1      40.578  32.268  30.255  1.00  0.00    -0.354 N 
ATOM     50  C   UNL A   1      38.214  28.788  28.849  1.00  0.00     0.074 A 
ATOM     51  C   UNL A   1      37.849  29.416  27.607  1.00  0.00     0.031 C 
ATOM     52  C   UNL A   1      40.922  34.461  30.499  1.00  0.00     0.029 A 
ATOM     53  C   UNL A   1      41.612  33.200  30.318  1.00  0.00     0.049 A 
ATOM     54  H   UNL A   1      40.733  31.296  30.264  1.00  0.00     0.167 HD
ATOM     55  C   UNL A   1      38.873  27.624  29.111  1.00  0.00     0.034 A 
ATOM     56  C   UNL A   1      42.939  32.958  30.191  1.00  0.00     0.034 A 
ATOM     57  C   UNL A   1      39.104  27.458  30.528  1.00  0.00     0.049 A 
ATOM     58  C   UNL A   1      43.150  31.531  30.524  1.00  0.00     0.074 A 
ATOM     59  C   UNL A   1      38.309  27.514  31.659  1.00  0.00     0.029 A 
ATOM     60  N   UNL A   1      40.396  27.610  30.976  1.00  0.00    -0.354 N 
ATOM     61  N   UNL A   1      42.982  31.045  31.722  1.00  0.00    -0.248 NA
ATOM     62  C   UNL A   1      43.110  30.562  29.441  1.00  0.00     0.031 C 
ATOM     63  C   UNL A   1      39.100  28.205  32.624  1.00  0.00     0.029 A 
ATOM     64  C   UNL A   1      40.357  28.439  32.064  1.00  0.00     0.049 A 
ATOM     65  H   UNL A   1      41.201  27.199  30.585  1.00  0.00     0.167 HD
ATOM     66  C   UNL A   1      42.328  29.839  31.506  1.00  0.00     0.074 A 
ATOM     67  C   UNL A   1      42.545  29.541  30.090  1.00  0.00     0.031 C 
ATOM     68  C   UNL A   1      41.423  29.354  32.407  1.00  0.00     0.034 A 
BRANCH  55  69
ATOM     69  C   UNL A   1      39.683  26.850  28.092  1.00  0.00     0.023 A 
ATOM     70  C   UNL A   1      39.557  25.441  28.108  1.00  0.00     0.012 A 
ATOM     71  C   UNL A   1      40.756  27.385  27.344  1.00  0.00     0.148 A 
ATOM     72  C   UNL A   1      40.495  24.613  27.482  1.00  0.00     0.002 A 
ATOM     73  C   UNL A   1      41.632  26.561  26.650  1.00  0.00     0.091 A 
ATOM     74  F   UNL A   1      41.038  28.688  27.407  1.00  0.00    -0.205 F 
ATOM     75  C   UNL A   1      41.531  25.174  26.746  1.00  0.00     0.022 A 
BRANCH  73  76
ATOM     76  S   UNL A   1      42.954  27.240  25.638  1.00  0.00     0.127 S 
ATOM     77  O   UNL A   1      43.786  27.890  26.646  1.00  0.00    -0.237 OA
ATOM     78  O   UNL A   1      43.523  26.029  25.046  1.00  0.00    -0.237 OA
ATOM     79  O   UNL A   1      42.298  28.120  24.680  1.00  0.00    -0.744 OA
ENDBRANCH  73  76
ENDBRANCH  55  69
BRANCH  56  80
ATOM     80  C   UNL A   1      44.010  33.804  29.616  1.00  0.00     0.023 A 
ATOM     81  C   UNL A   1      44.803  34.595  30.472  1.00  0.00     0.012 A 
ATOM     82  C   UNL A   1      44.446  33.625  28.285  1.00  0.00     0.148 A 
ATOM     83  C   UNL A   1      46.013  35.146  30.032  1.00  0.00     0.002 A 
ATOM     84  C   UNL A   1      45.644  34.184  27.849  1.00  0.00     0.091 A 
ATOM     85  F   UNL A   1      43.742  32.827  27.473  1.00  0.00    -0.205 F 
ATOM     86  C   UNL A   1      46.439  34.933  28.724  1.00  0.00     0.022 A 
BRANCH  84  87
ATOM     87  S   UNL A   1      46.258  33.929  26.179  1.00  0.00     0.127 S 
ATOM     88  O   UNL A   1      45.455  34.882  25.410  1.00  0.00    -0.237 OA
ATOM     89  O   UNL A   1      47.667  34.287  26.318  1.00  0.00    -0.237 OA
ATOM     90  O   UNL A   1      45.983  32.532  25.870  1.00  0.00    -0.744 OA
ENDBRANCH  84  87
ENDBRANCH  56  80
BRANCH  68  91
ATOM     91  C   UNL A   1      41.352  29.981  33.778  1.00  0.00     0.023 A 
ATOM     92  C   UNL A   1      42.206  29.610  34.838  1.00  0.00     0.012 A 
ATOM     93  C   UNL A   1      40.502  31.088  33.953  1.00  0.00     0.148 A 
ATOM     94  C   UNL A   1      42.188  30.305  36.051  1.00  0.00     0.002 A 
ATOM     95  C   UNL A   1      40.523  31.807  35.141  1.00  0.00     0.091 A 
ATOM     96  F   UNL A   1      39.694  31.434  32.939  1.00  0.00    -0.205 F 
ATOM     97  C   UNL A   1      41.356  31.412  36.198  1.00  0.00     0.022 A 
BRANCH  95  98
ATOM     98  S   UNL A   1      39.564  33.311  35.335  1.00  0.00     0.127 S 
ATOM     99  O   UNL A   1      40.123  34.167  34.291  1.00  0.00    -0.237 OA
ATOM    100  O   UNL A   1      38.197  32.851  35.081  1.00  0.00    -0.237 OA
ATOM    101  O   UNL A   1      39.793  33.755  36.705  1.00  0.00    -0.744 OA
ENDBRANCH  95  98
ENDBRANCH  68  91
ENDBRANCH  42  43
ENDBRANCH  34  37
ENDBRANCH  32  33
ENDBRANCH   1  32
TORSDOF 18
ENDMDL
MODEL 2
REMARK VINA RESULT:     -12.1      4.553      9.730
REMARK SMILES C=CCn1nc(C(=O)NCCCNC(=O)c2ccc(-c3c4nc(c(-c5cccc(S(=O)(=O)[O-])c5F)c5ccc([nH]5)c(-c5cccc(S(=O)(=O)[O-])c5F)c5nc(c(-c6cccc(S(=O)(=O)[O-])c6F)c6ccc3[nH]6)C=C5)C=C4)cc2)c2c1CC[C@@H]([NH2+]Cc1nc(C)cc(=O)[nH]1)C2
REMARK SMILES IDX 11 1 10 2 9 3 7 4 8 5 6 7 4 8 5 9 80 10 79 11 81 12 94 13
REMARK SMILES IDX 82 14 83 15 3 16 2 17 1 18 84 19 85 22 86 23 87 24 93 25
REMARK SMILES IDX 88 26 91 27 89 29 90 30 92 31 12 32 13 33 14 34 15 36 16 37
REMARK SMILES IDX 17 38 78 39 18 40 77 41 19 42 20 43 21 44 71 45 22 46 76 47
REMARK SMILES IDX 70 48 72 49 23 50 75 51 69 52 68 53 24 55 56 56 36 57 55 58
REMARK SMILES IDX 37 59 40 60 54 61 73 62 38 63 39 64 53 66 74 67 41 68 25 69
REMARK SMILES IDX 26 70 34 71 27 72 29 73 35 74 28 75 30 76 31 77 32 78 33 79
REMARK SMILES IDX 57 80 58 81 66 82 59 83 61 84 67 85 60 86 62 87 63 88 64 89
REMARK SMILES IDX 65 90 42 91 43 92 51 93 44 94 46 95 52 96 45 97 47 98 48 99
REMARK SMILES IDX 49 100 50 101
REMARK H PARENT 9 6 84 20 84 21 93 28 13 35 72 54 40 65
REMARK Flexibility Score: inf
ROOT
ATOM      1  C   UNL A   1      37.897  20.268  25.181  1.00  0.00     0.042 C 
ENDROOT
BRANCH   1   2
ATOM      2  C   UNL A   1      37.145  21.392  24.457  1.00  0.00     0.118 C 
BRANCH   2   3
ATOM      3  N   UNL A   1      37.397  22.707  25.014  1.00  0.00    -0.351 N 
ATOM      4  C   UNL A   1      36.617  23.786  25.379  1.00  0.00     0.272 C 
ATOM      5  O   UNL A   1      37.210  24.594  26.102  1.00  0.00    -0.267 OA
ATOM      6  H   UNL A   1      38.355  22.870  25.170  1.00  0.00     0.163 HD
BRANCH   4   7
ATOM      7  C   UNL A   1      35.203  24.033  24.964  1.00  0.00     0.153 A 
ATOM      8  N   UNL A   1      33.696  24.684  23.556  1.00  0.00    -0.265 N 
ATOM      9  N   UNL A   1      35.008  24.738  23.823  1.00  0.00    -0.167 NA
ATOM     10  C   UNL A   1      32.989  24.061  24.534  1.00  0.00     0.043 A 
ATOM     11  C   UNL A   1      33.920  23.625  25.451  1.00  0.00     0.012 A 
ATOM     12  C   UNL A   1      31.528  23.766  24.539  1.00  0.00     0.062 C 
ATOM     13  C   UNL A   1      33.494  22.805  26.596  1.00  0.00     0.105 C 
ATOM     14  C   UNL A   1      31.099  23.231  25.917  1.00  0.00     0.072 C 
ATOM     15  C   UNL A   1      32.081  22.198  26.490  1.00  0.00     0.187 C 
BRANCH   8  16
ATOM     16  C   UNL A   1      33.198  25.205  22.288  1.00  0.00     0.171 C 
BRANCH  16  17
ATOM     17  C   UNL A   1      32.618  26.584  22.439  1.00  0.00    -0.011 C 
ATOM     18  C   UNL A   1      32.986  27.451  23.392  1.00  0.00     0.006 C 
ENDBRANCH  16  17
ENDBRANCH   8  16
BRANCH  15  19
ATOM     19  N   UNL A   1      32.085  20.987  25.647  1.00  0.00    -0.337 N 
ATOM     20  H   UNL A   1      32.383  21.242  24.706  1.00  0.00     0.346 HD
ATOM     21  H   UNL A   1      31.139  20.603  25.648  1.00  0.00     0.346 HD
BRANCH  19  22
ATOM     22  C   UNL A   1      32.989  19.950  26.163  1.00  0.00     0.337 C 
BRANCH  22  23
ATOM     23  C   UNL A   1      33.155  18.871  25.103  1.00  0.00     0.164 A 
ATOM     24  N   UNL A   1      32.612  19.006  23.933  1.00  0.00    -0.234 NA
ATOM     25  N   UNL A   1      33.901  17.782  25.466  1.00  0.00    -0.306 N 
ATOM     26  C   UNL A   1      32.816  17.996  23.025  1.00  0.00     0.045 A 
ATOM     27  C   UNL A   1      34.166  16.770  24.597  1.00  0.00     0.251 A 
ATOM     28  H   UNL A   1      34.255  17.730  26.383  1.00  0.00     0.171 HD
ATOM     29  C   UNL A   1      32.168  18.182  21.684  1.00  0.00     0.067 C 
ATOM     30  C   UNL A   1      33.546  16.901  23.274  1.00  0.00     0.095 A 
ATOM     31  O   UNL A   1      34.881  15.819  24.880  1.00  0.00    -0.270 OA
ENDBRANCH  22  23
ENDBRANCH  19  22
ENDBRANCH  15  19
ENDBRANCH   4   7
ENDBRANCH   2   3
ENDBRANCH   1   2
BRANCH   1  32
ATOM     32  C   UNL A   1      39.182  20.656  25.864  1.00  0.00     0.118 C 
BRANCH  32  33
ATOM     33  N   UNL A   1      40.159  19.565  25.837  1.00  0.00    -0.352 N 
ATOM     34  C   UNL A   1      41.537  19.673  25.919  1.00  0.00     0.251 C 
ATOM     35  H   UNL A   1      39.796  18.655  25.751  1.00  0.00     0.163 HD
ATOM     36  O   UNL A   1      42.262  18.794  25.497  1.00  0.00    -0.269 OA
BRANCH  34  37
ATOM     37  C   UNL A   1      42.080  20.908  26.511  1.00  0.00     0.039 A 
ATOM     38  C   UNL A   1      42.242  22.059  25.744  1.00  0.00     0.014 A 
ATOM     39  C   UNL A   1      42.271  20.924  27.889  1.00  0.00     0.014 A 
ATOM     40  C   UNL A   1      42.486  23.257  26.404  1.00  0.00     0.010 A 
ATOM     41  C   UNL A   1      42.284  22.129  28.539  1.00  0.00     0.010 A 
ATOM     42  C   UNL A   1      42.452  23.298  27.811  1.00  0.00    -0.014 A 
BRANCH  42  43
ATOM     43  C   UNL A   1      42.459  24.576  28.514  1.00  0.00     0.031 A 
ATOM     44  C   UNL A   1      41.256  25.413  28.269  1.00  0.00     0.074 A 
ATOM     45  C   UNL A   1      43.390  24.939  29.426  1.00  0.00     0.049 A 
ATOM     46  N   UNL A   1      41.193  26.452  27.504  1.00  0.00    -0.248 NA
ATOM     47  C   UNL A   1      39.946  24.954  28.757  1.00  0.00     0.031 C 
ATOM     48  C   UNL A   1      44.476  24.129  29.991  1.00  0.00     0.029 A 
ATOM     49  N   UNL A   1      43.474  26.089  30.150  1.00  0.00    -0.354 N 
ATOM     50  C   UNL A   1      39.904  26.947  27.661  1.00  0.00     0.074 A 
ATOM     51  C   UNL A   1      39.133  25.872  28.226  1.00  0.00     0.031 C 
ATOM     52  C   UNL A   1      44.912  24.695  31.136  1.00  0.00     0.029 A 
ATOM     53  C   UNL A   1      44.277  25.989  31.283  1.00  0.00     0.049 A 
ATOM     54  H   UNL A   1      43.009  26.919  29.895  1.00  0.00     0.167 HD
ATOM     55  C   UNL A   1      39.671  28.289  27.603  1.00  0.00     0.034 A 
ATOM     56  C   UNL A   1      44.383  26.887  32.292  1.00  0.00     0.034 A 
ATOM     57  C   UNL A   1      40.793  28.993  27.023  1.00  0.00     0.049 A 
ATOM     58  C   UNL A   1      43.956  28.197  31.748  1.00  0.00     0.074 A 
ATOM     59  C   UNL A   1      41.539  28.854  25.867  1.00  0.00     0.029 A 
ATOM     60  N   UNL A   1      41.565  29.752  27.872  1.00  0.00    -0.354 N 
ATOM     61  N   UNL A   1      44.631  28.848  30.841  1.00  0.00    -0.248 NA
ATOM     62  C   UNL A   1      42.558  28.569  31.879  1.00  0.00     0.031 C 
ATOM     63  C   UNL A   1      42.887  29.082  26.276  1.00  0.00     0.029 A 
ATOM     64  C   UNL A   1      42.874  29.443  27.624  1.00  0.00     0.049 A 
ATOM     65  H   UNL A   1      41.235  30.399  28.537  1.00  0.00     0.167 HD
ATOM     66  C   UNL A   1      43.656  29.325  29.976  1.00  0.00     0.074 A 
ATOM     67  C   UNL A   1      42.405  29.229  30.727  1.00  0.00     0.031 C 
ATOM     68  C   UNL A   1      43.903  29.462  28.640  1.00  0.00     0.034 A 
BRANCH  55  69
ATOM     69  C   UNL A   1      38.642  29.017  28.442  1.00  0.00     0.023 A 
ATOM     70  C   UNL A   1      38.555  28.660  29.807  1.00  0.00     0.012 A 
ATOM     71  C   UNL A   1      37.582  29.792  27.918  1.00  0.00     0.148 A 
ATOM     72  C   UNL A   1      37.438  28.986  30.583  1.00  0.00     0.002 A 
ATOM     73  C   UNL A   1      36.518  30.190  28.716  1.00  0.00     0.091 A 
ATOM     74  F   UNL A   1      37.508  30.035  26.608  1.00  0.00    -0.205 F 
ATOM     75  C   UNL A   1      36.420  29.758  30.038  1.00  0.00     0.022 A 
BRANCH  73  76
ATOM     76  S   UNL A   1      35.205  31.237  28.074  1.00  0.00     0.127 S 
ATOM     77  O   UNL A   1      34.488  31.585  29.296  1.00  0.00    -0.237 OA
ATOM     78  O   UNL A   1      35.968  32.327  27.466  1.00  0.00    -0.237 OA
ATOM     79  O   UNL A   1      34.481  30.410  27.117  1.00  0.00    -0.744 OA
ENDBRANCH  73  76
ENDBRANCH  55  69
BRANCH  56  80
ATOM     80  C   UNL A   1      44.632  26.673  33.736  1.00  0.00     0.023 A 
ATOM     81  C   UNL A   1      45.900  26.975  34.273  1.00  0.00     0.012 A 
ATOM     82  C   UNL A   1      43.567  26.451  34.636  1.00  0.00     0.148 A 
ATOM     83  C   UNL A   1      46.089  27.103  35.655  1.00  0.00     0.002 A 
ATOM     84  C   UNL A   1      43.761  26.568  36.009  1.00  0.00     0.091 A 
ATOM     85  F   UNL A   1      42.341  26.224  34.147  1.00  0.00    -0.205 F 
ATOM     86  C   UNL A   1      45.017  26.909  36.522  1.00  0.00     0.022 A 
BRANCH  84  87
ATOM     87  S   UNL A   1      42.415  26.349  37.180  1.00  0.00     0.127 S 
ATOM     88  O   UNL A   1      41.979  24.981  36.891  1.00  0.00    -0.237 OA
ATOM     89  O   UNL A   1      43.098  26.516  38.459  1.00  0.00    -0.237 OA
ATOM     90  O   UNL A   1      41.433  27.372  36.844  1.00  0.00    -0.744 OA
ENDBRANCH  84  87
ENDBRANCH  56  80
BRANCH  68  91
ATOM     91  C   UNL A   1      45.328  29.375  28.149  1.00  0.00     0.023 A 
ATOM     92  C   UNL A   1      46.213  30.475  28.163  1.00  0.00     0.012 A 
ATOM     93  C   UNL A   1      45.834  28.108  27.812  1.00  0.00     0.148 A 
ATOM     94  C   UNL A   1      47.558  30.317  27.818  1.00  0.00     0.002 A 
ATOM     95  C   UNL A   1      47.182  27.946  27.519  1.00  0.00     0.091 A 
ATOM     96  F   UNL A   1      44.986  27.068  27.802  1.00  0.00    -0.205 F 
ATOM     97  C   UNL A   1      48.047  29.050  27.509  1.00  0.00     0.022 A 
BRANCH  95  98
ATOM     98  S   UNL A   1      47.883  26.318  27.236  1.00  0.00     0.127 S 
ATOM     99  O   UNL A   1      47.215  25.907  26.004  1.00  0.00    -0.237 OA
ATOM    100  O   UNL A   1      49.311  26.608  27.091  1.00  0.00    -0.237 OA
ATOM    101  O   UNL A   1      47.557  25.534  28.422  1.00  0.00    -0.744 OA
ENDBRANCH  95  98
ENDBRANCH  68  91
ENDBRANCH  42  43
ENDBRANCH  34  37
ENDBRANCH  32  33
ENDBRANCH   1  32
TORSDOF 18
ENDMDL
MODEL 3
REMARK VINA RESULT:     -11.9      4.681      9.856
REMARK SMILES C=CCn1nc(C(=O)NCCCNC(=O)c2ccc(-c3c4nc(c(-c5cccc(S(=O)(=O)[O-])c5F)c5ccc([nH]5)c(-c5cccc(S(=O)(=O)[O-])c5F)c5nc(c(-c6cccc(S(=O)(=O)[O-])c6F)c6ccc3[nH]6)C=C5)C=C4)cc2)c2c1CC[C@@H]([NH2+]Cc1nc(C)cc(=O)[nH]1)C2
REMARK SMILES IDX 11 1 10 2 9 3 7 4 8 5 6 7 4 8 5 9 80 10 79 11 81 12 94 13
REMARK SMILES IDX 82 14 83 15 3 16 2 17 1 18 84 19 85 22 86 23 87 24 93 25
REMARK SMILES IDX 88 26 91 27 89 29 90 30 92 31 12 32 13 33 14 34 15 36 16 37
REMARK SMILES IDX 17 38 78 39 18 40 77 41 19 42 20 43 21 44 71 45 22 46 76 47
REMARK SMILES IDX 70 48 72 49 23 50 75 51 69 52 68 53 24 55 56 56 36 57 55 58
REMARK SMILES IDX 37 59 40 60 54 61 73 62 38 63 39 64 53 66 74 67 41 68 25 69
REMARK SMILES IDX 26 70 34 71 27 72 29 73 35 74 28 75 30 76 31 77 32 78 33 79
REMARK SMILES IDX 57 80 58 81 66 82 59 83 61 84 67 85 60 86 62 87 63 88 64 89
REMARK SMILES IDX 65 90 42 91 43 92 51 93 44 94 46 95 52 96 45 97 47 98 48 99
REMARK SMILES IDX 49 100 50 101
REMARK H PARENT 9 6 84 20 84 21 93 28 13 35 72 54 40 65
REMARK Flexibility Score: inf
ROOT
ATOM      1  C   UNL A   1      38.446  19.927  25.505  1.00  0.00     0.042 C 
ENDROOT
BRANCH   1   2
ATOM      2  C   UNL A   1      37.709  20.988  24.676  1.00  0.00     0.118 C 
BRANCH   2   3
ATOM      3  N   UNL A   1      37.903  22.339  25.166  1.00  0.00    -0.351 N 
ATOM      4  C   UNL A   1      37.075  23.357  25.596  1.00  0.00     0.272 C 
ATOM      5  O   UNL A   1      37.673  24.240  26.221  1.00  0.00    -0.267 OA
ATOM      6  H   UNL A   1      38.853  22.592  25.200  1.00  0.00     0.163 HD
BRANCH   4   7
ATOM      7  C   UNL A   1      35.605  23.463  25.349  1.00  0.00     0.153 A 
ATOM      8  N   UNL A   1      33.855  24.439  24.537  1.00  0.00    -0.265 N 
ATOM      9  N   UNL A   1      35.147  24.631  24.837  1.00  0.00    -0.167 NA
ATOM     10  C   UNL A   1      33.402  23.220  24.929  1.00  0.00     0.043 A 
ATOM     11  C   UNL A   1      34.496  22.563  25.449  1.00  0.00     0.012 A 
ATOM     12  C   UNL A   1      32.045  22.648  24.700  1.00  0.00     0.062 C 
ATOM     13  C   UNL A   1      34.376  21.158  25.871  1.00  0.00     0.105 C 
ATOM     14  C   UNL A   1      31.886  21.329  25.477  1.00  0.00     0.072 C 
ATOM     15  C   UNL A   1      33.119  20.419  25.370  1.00  0.00     0.187 C 
BRANCH   8  16
ATOM     16  C   UNL A   1      33.127  25.467  23.802  1.00  0.00     0.171 C 
BRANCH  16  17
ATOM     17  C   UNL A   1      32.283  26.314  24.713  1.00  0.00    -0.011 C 
ATOM     18  C   UNL A   1      32.770  27.028  25.737  1.00  0.00     0.006 C 
ENDBRANCH  16  17
ENDBRANCH   8  16
BRANCH  15  19
ATOM     19  N   UNL A   1      33.291  19.966  23.976  1.00  0.00    -0.337 N 
ATOM     20  H   UNL A   1      34.263  19.691  23.837  1.00  0.00     0.346 HD
ATOM     21  H   UNL A   1      33.031  20.740  23.362  1.00  0.00     0.346 HD
BRANCH  19  22
ATOM     22  C   UNL A   1      32.425  18.826  23.648  1.00  0.00     0.337 C 
BRANCH  22  23
ATOM     23  C   UNL A   1      32.940  17.593  24.377  1.00  0.00     0.164 A 
ATOM     24  N   UNL A   1      34.211  17.418  24.561  1.00  0.00    -0.234 NA
ATOM     25  N   UNL A   1      31.988  16.711  24.812  1.00  0.00    -0.306 N 
ATOM     26  C   UNL A   1      34.599  16.287  25.238  1.00  0.00     0.045 A 
ATOM     27  C   UNL A   1      32.310  15.594  25.518  1.00  0.00     0.251 A 
ATOM     28  H   UNL A   1      31.042  16.890  24.607  1.00  0.00     0.171 HD
ATOM     29  C   UNL A   1      36.078  16.114  25.429  1.00  0.00     0.067 C 
ATOM     30  C   UNL A   1      33.746  15.375  25.723  1.00  0.00     0.095 A 
ATOM     31  O   UNL A   1      31.472  14.826  25.970  1.00  0.00    -0.270 OA
ENDBRANCH  22  23
ENDBRANCH  19  22
ENDBRANCH  15  19
ENDBRANCH   4   7
ENDBRANCH   2   3
ENDBRANCH   1   2
BRANCH   1  32
ATOM     32  C   UNL A   1      39.732  20.362  26.154  1.00  0.00     0.118 C 
BRANCH  32  33
ATOM     33  N   UNL A   1      40.837  19.460  25.823  1.00  0.00    -0.352 N 
ATOM     34  C   UNL A   1      42.182  19.780  25.731  1.00  0.00     0.251 C 
ATOM     35  H   UNL A   1      40.598  18.523  25.645  1.00  0.00     0.163 HD
ATOM     36  O   UNL A   1      42.947  19.097  25.081  1.00  0.00    -0.269 OA
BRANCH  34  37
ATOM     37  C   UNL A   1      42.631  20.997  26.430  1.00  0.00     0.039 A 
ATOM     38  C   UNL A   1      42.948  22.153  25.722  1.00  0.00     0.014 A 
ATOM     39  C   UNL A   1      42.571  20.992  27.819  1.00  0.00     0.014 A 
ATOM     40  C   UNL A   1      43.091  23.339  26.435  1.00  0.00     0.010 A 
ATOM     41  C   UNL A   1      42.489  22.188  28.480  1.00  0.00     0.010 A 
ATOM     42  C   UNL A   1      42.806  23.362  27.813  1.00  0.00    -0.014 A 
BRANCH  42  43
ATOM     43  C   UNL A   1      42.709  24.632  28.526  1.00  0.00     0.031 A 
ATOM     44  C   UNL A   1      41.441  25.369  28.287  1.00  0.00     0.074 A 
ATOM     45  C   UNL A   1      43.607  25.062  29.441  1.00  0.00     0.049 A 
ATOM     46  N   UNL A   1      41.293  26.406  27.530  1.00  0.00    -0.248 NA
ATOM     47  C   UNL A   1      40.173  24.801  28.771  1.00  0.00     0.031 C 
ATOM     48  C   UNL A   1      44.756  24.339  30.000  1.00  0.00     0.029 A 
ATOM     49  N   UNL A   1      43.597  26.209  30.174  1.00  0.00    -0.354 N 
ATOM     50  C   UNL A   1      39.968  26.793  27.690  1.00  0.00     0.074 A 
ATOM     51  C   UNL A   1      39.287  25.654  28.246  1.00  0.00     0.031 C 
ATOM     52  C   UNL A   1      45.144  24.929  31.150  1.00  0.00     0.029 A 
ATOM     53  C   UNL A   1      44.406  26.166  31.307  1.00  0.00     0.049 A 
ATOM     54  H   UNL A   1      43.067  27.000  29.925  1.00  0.00     0.167 HD
ATOM     55  C   UNL A   1      39.627  28.112  27.643  1.00  0.00     0.034 A 
ATOM     56  C   UNL A   1      44.439  27.062  32.322  1.00  0.00     0.034 A 
ATOM     57  C   UNL A   1      40.688  28.909  27.069  1.00  0.00     0.049 A 
ATOM     58  C   UNL A   1      43.907  28.337  31.788  1.00  0.00     0.074 A 
ATOM     59  C   UNL A   1      41.443  28.841  25.912  1.00  0.00     0.029 A 
ATOM     60  N   UNL A   1      41.395  29.722  27.924  1.00  0.00    -0.354 N 
ATOM     61  N   UNL A   1      44.526  29.047  30.887  1.00  0.00    -0.248 NA
ATOM     62  C   UNL A   1      42.483  28.593  31.922  1.00  0.00     0.031 C 
ATOM     63  C   UNL A   1      42.768  29.175  26.323  1.00  0.00     0.029 A 
ATOM     64  C   UNL A   1      42.726  29.522  27.674  1.00  0.00     0.049 A 
ATOM     65  H   UNL A   1      41.014  30.335  28.594  1.00  0.00     0.167 HD
ATOM     66  C   UNL A   1      43.515  29.450  30.025  1.00  0.00     0.074 A 
ATOM     67  C   UNL A   1      42.276  29.247  30.775  1.00  0.00     0.031 C 
ATOM     68  C   UNL A   1      43.750  29.617  28.690  1.00  0.00     0.034 A 
BRANCH  55  69
ATOM     69  C   UNL A   1      38.543  28.747  28.487  1.00  0.00     0.023 A 
ATOM     70  C   UNL A   1      37.633  29.605  27.825  1.00  0.00     0.012 A 
ATOM     71  C   UNL A   1      38.546  28.792  29.899  1.00  0.00     0.148 A 
ATOM     72  C   UNL A   1      36.833  30.511  28.528  1.00  0.00     0.002 A 
ATOM     73  C   UNL A   1      37.685  29.629  30.596  1.00  0.00     0.091 A 
ATOM     74  F   UNL A   1      39.479  28.135  30.592  1.00  0.00    -0.205 F 
ATOM     75  C   UNL A   1      36.854  30.519  29.917  1.00  0.00     0.022 A 
BRANCH  73  76
ATOM     76  S   UNL A   1      37.634  29.635  32.393  1.00  0.00     0.127 S 
ATOM     77  O   UNL A   1      36.489  30.503  32.648  1.00  0.00    -0.237 OA
ATOM     78  O   UNL A   1      37.418  28.217  32.687  1.00  0.00    -0.237 OA
ATOM     79  O   UNL A   1      38.932  30.141  32.819  1.00  0.00    -0.744 OA
ENDBRANCH  73  76
ENDBRANCH  55  69
BRANCH  56  80
ATOM     80  C   UNL A   1      44.705  26.858  33.765  1.00  0.00     0.023 A 
ATOM     81  C   UNL A   1      45.931  27.288  34.311  1.00  0.00     0.012 A 
ATOM     82  C   UNL A   1      43.667  26.512  34.657  1.00  0.00     0.148 A 
ATOM     83  C   UNL A   1      46.101  27.417  35.695  1.00  0.00     0.002 A 
ATOM     84  C   UNL A   1      43.843  26.631  36.033  1.00  0.00     0.091 A 
ATOM     85  F   UNL A   1      42.474  26.160  34.160  1.00  0.00    -0.205 F 
ATOM     86  C   UNL A   1      45.054  27.098  36.556  1.00  0.00     0.022 A 
BRANCH  84  87
ATOM     87  S   UNL A   1      42.525  26.255  37.195  1.00  0.00     0.127 S 
ATOM     88  O   UNL A   1      41.513  27.253  36.842  1.00  0.00    -0.237 OA
ATOM     89  O   UNL A   1      42.184  24.883  36.829  1.00  0.00    -0.237 OA
ATOM     90  O   UNL A   1      43.106  26.435  38.518  1.00  0.00    -0.744 OA
ENDBRANCH  84  87
ENDBRANCH  56  80
BRANCH  68  91
ATOM     91  C   UNL A   1      45.178  29.651  28.199  1.00  0.00     0.023 A 
ATOM     92  C   UNL A   1      45.880  28.494  27.802  1.00  0.00     0.012 A 
ATOM     93  C   UNL A   1      45.772  30.907  27.987  1.00  0.00     0.148 A 
ATOM     94  C   UNL A   1      47.155  28.588  27.236  1.00  0.00     0.002 A 
ATOM     95  C   UNL A   1      47.018  30.999  27.378  1.00  0.00     0.091 A 
ATOM     96  F   UNL A   1      45.096  32.002  28.368  1.00  0.00    -0.205 F 
ATOM     97  C   UNL A   1      47.719  29.842  27.012  1.00  0.00     0.022 A 
BRANCH  95  98
ATOM     98  S   UNL A   1      47.730  32.591  26.956  1.00  0.00     0.127 S 
ATOM     99  O   UNL A   1      49.023  32.208  26.394  1.00  0.00    -0.237 OA
ATOM    100  O   UNL A   1      46.772  33.120  25.983  1.00  0.00    -0.237 OA
ATOM    101  O   UNL A   1      47.783  33.346  28.203  1.00  0.00    -0.744 OA
ENDBRANCH  95  98
ENDBRANCH  68  91
ENDBRANCH  42  43
ENDBRANCH  34  37
ENDBRANCH  32  33
ENDBRANCH   1  32
TORSDOF 18
ENDMDL
