MODEL 1
REMARK VINA RESULT:     -12.5      0.000      0.000
REMARK SMILES CCN1C(=O)C[C@@H](C(=O)NCCCNC(=O)c2ccc(-c3c4nc(c(-c5cccc(S(=O)(=O)[O-])c5F)c5ccc([nH]5)c(-c5cccc(S(=O)(=O)[O-])c5F)c5nc(c(-c6cccc(S(=O)(=O)[O-])c6F)c6ccc3[nH]6)C=C5)C=C4)cc2)[C@H]1c1ccccc1C1CC1
REMARK SMILES IDX 12 1 11 2 10 3 8 4 9 5 7 7 3 8 4 9 80 10 5 11 6 12 2 13 1 14
REMARK SMILES IDX 81 15 82 16 86 17 83 18 85 19 84 20 87 21 88 22 89 23 13 24
REMARK SMILES IDX 14 25 15 26 16 28 17 29 18 30 79 31 19 32 78 33 20 34 21 35
REMARK SMILES IDX 22 36 72 37 23 38 77 39 71 40 73 41 24 42 76 43 70 44 69 45
REMARK SMILES IDX 25 47 57 48 37 49 56 50 38 51 41 52 55 53 74 54 39 55 40 56
REMARK SMILES IDX 54 58 75 59 42 60 26 61 27 62 35 63 28 64 30 65 36 66 29 67
REMARK SMILES IDX 31 68 32 69 33 70 34 71 58 72 59 73 67 74 60 75 62 76 68 77
REMARK SMILES IDX 61 78 63 79 64 80 65 81 66 82 43 83 44 84 52 85 45 86 47 87
REMARK SMILES IDX 53 88 46 89 48 90 49 91 50 92 51 93
REMARK H PARENT 10 6 14 27 73 46 41 57
REMARK Flexibility Score: inf
ROOT
ATOM      1  C   UNL A   1      36.672  22.261  23.910  1.00  0.00     0.042 C 
ENDROOT
BRANCH   1   2
ATOM      2  C   UNL A   1      35.449  23.135  23.749  1.00  0.00     0.117 C 
BRANCH   2   3
ATOM      3  N   UNL A   1      34.190  22.429  23.603  1.00  0.00    -0.356 N 
ATOM      4  C   UNL A   1      33.045  22.618  24.326  1.00  0.00     0.226 C 
ATOM      5  O   UNL A   1      31.997  22.146  23.881  1.00  0.00    -0.275 OA
ATOM      6  H   UNL A   1      34.156  21.737  22.904  1.00  0.00     0.163 HD
BRANCH   4   7
ATOM      7  C   UNL A   1      33.113  23.353  25.659  1.00  0.00     0.115 C 
ATOM      8  N   UNL A   1      31.276  24.784  26.148  1.00  0.00    -0.335 N 
ATOM      9  C   UNL A   1      30.959  23.559  26.716  1.00  0.00     0.223 C 
ATOM     10  C   UNL A   1      32.662  24.823  25.700  1.00  0.00     0.128 C 
ATOM     11  O   UNL A   1      29.908  23.238  27.245  1.00  0.00    -0.275 OA
ATOM     12  C   UNL A   1      32.188  22.684  26.686  1.00  0.00     0.116 C 
BRANCH   8  13
ATOM     13  C   UNL A   1      30.428  25.975  26.092  1.00  0.00     0.117 C 
ATOM     14  C   UNL A   1      29.432  26.056  24.951  1.00  0.00     0.027 C 
ENDBRANCH   8  13
BRANCH  10  15
ATOM     15  C   UNL A   1      32.903  25.712  24.490  1.00  0.00    -0.021 A 
ATOM     16  C   UNL A   1      32.465  25.198  23.234  1.00  0.00     0.006 A 
ATOM     17  C   UNL A   1      33.569  26.971  24.535  1.00  0.00    -0.040 A 
ATOM     18  C   UNL A   1      32.711  25.857  22.034  1.00  0.00     0.000 A 
ATOM     19  C   UNL A   1      33.799  27.597  23.277  1.00  0.00     0.004 A 
ATOM     20  C   UNL A   1      33.395  27.055  22.054  1.00  0.00     0.000 A 
BRANCH  17  21
ATOM     21  C   UNL A   1      34.128  27.745  25.733  1.00  0.00     0.019 C 
ATOM     22  C   UNL A   1      33.839  29.179  26.075  1.00  0.00     0.009 C 
ATOM     23  C   UNL A   1      33.319  28.072  26.958  1.00  0.00     0.009 C 
ENDBRANCH  17  21
ENDBRANCH  10  15
ENDBRANCH   4   7
ENDBRANCH   2   3
ENDBRANCH   1   2
BRANCH   1  24
ATOM     24  C   UNL A   1      36.810  21.624  25.285  1.00  0.00     0.118 C 
BRANCH  24  25
ATOM     25  N   UNL A   1      37.949  20.715  25.432  1.00  0.00    -0.352 N 
ATOM     26  C   UNL A   1      39.192  20.918  25.995  1.00  0.00     0.251 C 
ATOM     27  H   UNL A   1      37.804  19.811  25.068  1.00  0.00     0.163 HD
ATOM     28  O   UNL A   1      40.038  20.029  25.957  1.00  0.00    -0.269 OA
BRANCH  26  29
ATOM     29  C   UNL A   1      39.520  22.230  26.593  1.00  0.00     0.039 A 
ATOM     30  C   UNL A   1      40.574  22.320  27.506  1.00  0.00     0.014 A 
ATOM     31  C   UNL A   1      38.852  23.383  26.186  1.00  0.00     0.014 A 
ATOM     32  C   UNL A   1      41.045  23.578  27.894  1.00  0.00     0.010 A 
ATOM     33  C   UNL A   1      39.404  24.626  26.464  1.00  0.00     0.010 A 
ATOM     34  C   UNL A   1      40.515  24.741  27.314  1.00  0.00    -0.014 A 
BRANCH  34  35
ATOM     35  C   UNL A   1      41.122  26.082  27.535  1.00  0.00     0.031 A 
ATOM     36  C   UNL A   1      42.527  26.361  27.066  1.00  0.00     0.074 A 
ATOM     37  C   UNL A   1      40.467  26.998  28.280  1.00  0.00     0.049 A 
ATOM     38  N   UNL A   1      43.270  27.418  27.273  1.00  0.00    -0.248 NA
ATOM     39  C   UNL A   1      43.203  25.300  26.297  1.00  0.00     0.031 C 
ATOM     40  C   UNL A   1      39.142  26.814  28.884  1.00  0.00     0.029 A 
ATOM     41  N   UNL A   1      40.839  28.256  28.692  1.00  0.00    -0.354 N 
ATOM     42  C   UNL A   1      44.510  27.125  26.720  1.00  0.00     0.074 A 
ATOM     43  C   UNL A   1      44.433  25.784  26.188  1.00  0.00     0.031 C 
ATOM     44  C   UNL A   1      38.816  27.914  29.582  1.00  0.00     0.029 A 
ATOM     45  C   UNL A   1      39.919  28.865  29.516  1.00  0.00     0.049 A 
ATOM     46  H   UNL A   1      41.685  28.681  28.423  1.00  0.00     0.167 HD
ATOM     47  C   UNL A   1      45.608  27.910  26.639  1.00  0.00     0.034 A 
ATOM     48  C   UNL A   1      39.965  30.047  30.164  1.00  0.00     0.034 A 
ATOM     49  C   UNL A   1      45.659  29.269  27.102  1.00  0.00     0.049 A 
ATOM     50  C   UNL A   1      41.177  30.924  29.996  1.00  0.00     0.074 A 
ATOM     51  C   UNL A   1      46.676  30.193  26.936  1.00  0.00     0.029 A 
ATOM     52  N   UNL A   1      44.664  29.893  27.835  1.00  0.00    -0.354 N 
ATOM     53  N   UNL A   1      42.262  30.705  29.294  1.00  0.00    -0.248 NA
ATOM     54  C   UNL A   1      41.160  32.224  30.683  1.00  0.00     0.031 C 
ATOM     55  C   UNL A   1      46.311  31.365  27.605  1.00  0.00     0.029 A 
ATOM     56  C   UNL A   1      45.052  31.182  28.153  1.00  0.00     0.049 A 
ATOM     57  H   UNL A   1      43.807  29.481  28.092  1.00  0.00     0.167 HD
ATOM     58  C   UNL A   1      43.039  31.851  29.428  1.00  0.00     0.074 A 
ATOM     59  C   UNL A   1      42.288  32.772  30.254  1.00  0.00     0.031 C 
ATOM     60  C   UNL A   1      44.272  32.108  28.929  1.00  0.00     0.034 A 
BRANCH  47  61
ATOM     61  C   UNL A   1      46.841  27.348  25.983  1.00  0.00     0.023 A 
ATOM     62  C   UNL A   1      47.077  27.580  24.613  1.00  0.00     0.012 A 
ATOM     63  C   UNL A   1      47.814  26.678  26.750  1.00  0.00     0.148 A 
ATOM     64  C   UNL A   1      48.251  27.133  24.011  1.00  0.00     0.002 A 
ATOM     65  C   UNL A   1      49.003  26.277  26.153  1.00  0.00     0.091 A 
ATOM     66  F   UNL A   1      47.560  26.450  28.046  1.00  0.00    -0.205 F 
ATOM     67  C   UNL A   1      49.219  26.494  24.783  1.00  0.00     0.022 A 
BRANCH  65  68
ATOM     68  S   UNL A   1      50.348  25.527  27.077  1.00  0.00     0.127 S 
ATOM     69  O   UNL A   1      50.635  26.561  28.070  1.00  0.00    -0.237 OA
ATOM     70  O   UNL A   1      49.713  24.324  27.616  1.00  0.00    -0.237 OA
ATOM     71  O   UNL A   1      51.412  25.279  26.115  1.00  0.00    -0.744 OA
ENDBRANCH  65  68
ENDBRANCH  47  61
BRANCH  48  72
ATOM     72  C   UNL A   1      38.817  30.494  31.009  1.00  0.00     0.023 A 
ATOM     73  C   UNL A   1      38.828  30.229  32.392  1.00  0.00     0.012 A 
ATOM     74  C   UNL A   1      37.714  31.169  30.450  1.00  0.00     0.148 A 
ATOM     75  C   UNL A   1      37.742  30.583  33.194  1.00  0.00     0.002 A 
ATOM     76  C   UNL A   1      36.663  31.574  31.265  1.00  0.00     0.091 A 
ATOM     77  F   UNL A   1      37.713  31.402  29.130  1.00  0.00    -0.205 F 
ATOM     78  C   UNL A   1      36.664  31.262  32.633  1.00  0.00     0.022 A 
BRANCH  76  79
ATOM     79  S   UNL A   1      35.306  32.576  30.649  1.00  0.00     0.127 S 
ATOM     80  O   UNL A   1      34.392  32.575  31.788  1.00  0.00    -0.237 OA
ATOM     81  O   UNL A   1      35.965  33.856  30.388  1.00  0.00    -0.237 OA
ATOM     82  O   UNL A   1      34.832  31.895  29.451  1.00  0.00    -0.744 OA
ENDBRANCH  76  79
ENDBRANCH  48  72
BRANCH  60  83
ATOM     83  C   UNL A   1      44.881  33.454  29.224  1.00  0.00     0.023 A 
ATOM     84  C   UNL A   1      45.622  33.644  30.408  1.00  0.00     0.012 A 
ATOM     85  C   UNL A   1      44.788  34.501  28.288  1.00  0.00     0.148 A 
ATOM     86  C   UNL A   1      46.234  34.869  30.669  1.00  0.00     0.002 A 
ATOM     87  C   UNL A   1      45.446  35.701  28.530  1.00  0.00     0.091 A 
ATOM     88  F   UNL A   1      44.067  34.303  27.176  1.00  0.00    -0.205 F 
ATOM     89  C   UNL A   1      46.157  35.891  29.727  1.00  0.00     0.022 A 
BRANCH  87  90
ATOM     90  S   UNL A   1      45.488  37.037  27.330  1.00  0.00     0.127 S 
ATOM     91  O   UNL A   1      46.100  36.380  26.176  1.00  0.00    -0.237 OA
ATOM     92  O   UNL A   1      44.069  37.354  27.172  1.00  0.00    -0.237 OA
ATOM     93  O   UNL A   1      46.281  38.098  27.936  1.00  0.00    -0.744 OA
ENDBRANCH  87  90
ENDBRANCH  60  83
ENDBRANCH  34  35
ENDBRANCH  26  29
ENDBRANCH  24  25
ENDBRANCH   1  24
TORSDOF 16
ENDMDL
MODEL 2
REMARK VINA RESULT:     -12.3      4.984     10.096
REMARK SMILES CCN1C(=O)C[C@@H](C(=O)NCCCNC(=O)c2ccc(-c3c4nc(c(-c5cccc(S(=O)(=O)[O-])c5F)c5ccc([nH]5)c(-c5cccc(S(=O)(=O)[O-])c5F)c5nc(c(-c6cccc(S(=O)(=O)[O-])c6F)c6ccc3[nH]6)C=C5)C=C4)cc2)[C@H]1c1ccccc1C1CC1
REMARK SMILES IDX 12 1 11 2 10 3 8 4 9 5 7 7 3 8 4 9 80 10 5 11 6 12 2 13 1 14
REMARK SMILES IDX 81 15 82 16 86 17 83 18 85 19 84 20 87 21 88 22 89 23 13 24
REMARK SMILES IDX 14 25 15 26 16 28 17 29 18 30 79 31 19 32 78 33 20 34 21 35
REMARK SMILES IDX 22 36 72 37 23 38 77 39 71 40 73 41 24 42 76 43 70 44 69 45
REMARK SMILES IDX 25 47 57 48 37 49 56 50 38 51 41 52 55 53 74 54 39 55 40 56
REMARK SMILES IDX 54 58 75 59 42 60 26 61 27 62 35 63 28 64 30 65 36 66 29 67
REMARK SMILES IDX 31 68 32 69 33 70 34 71 58 72 59 73 67 74 60 75 62 76 68 77
REMARK SMILES IDX 61 78 63 79 64 80 65 81 66 82 43 83 44 84 52 85 45 86 47 87
REMARK SMILES IDX 53 88 46 89 48 90 49 91 50 92 51 93
REMARK H PARENT 10 6 14 27 73 46 41 57
REMARK Flexibility Score: inf
ROOT
ATOM      1  C   UNL A   1      31.692  29.344  27.299  1.00  0.00     0.042 C 
ENDROOT
BRANCH   1   2
ATOM      2  C   UNL A   1      31.947  27.855  27.272  1.00  0.00     0.117 C 
BRANCH   2   3
ATOM      3  N   UNL A   1      30.970  27.065  26.546  1.00  0.00    -0.356 N 
ATOM      4  C   UNL A   1      31.185  26.302  25.432  1.00  0.00     0.226 C 
ATOM      5  O   UNL A   1      30.323  25.477  25.123  1.00  0.00    -0.275 OA
ATOM      6  H   UNL A   1      30.051  27.079  26.896  1.00  0.00     0.163 HD
BRANCH   4   7
ATOM      7  C   UNL A   1      32.439  26.530  24.598  1.00  0.00     0.115 C 
ATOM      8  N   UNL A   1      32.989  24.798  23.060  1.00  0.00    -0.335 N 
ATOM      9  C   UNL A   1      32.218  25.704  22.346  1.00  0.00     0.223 C 
ATOM     10  C   UNL A   1      33.377  25.334  24.359  1.00  0.00     0.128 C 
ATOM     11  O   UNL A   1      31.800  25.583  21.207  1.00  0.00    -0.275 OA
ATOM     12  C   UNL A   1      32.062  26.957  23.172  1.00  0.00     0.116 C 
BRANCH   8  13
ATOM     13  C   UNL A   1      33.500  23.512  22.588  1.00  0.00     0.117 C 
ATOM     14  C   UNL A   1      32.571  22.319  22.706  1.00  0.00     0.027 C 
ENDBRANCH   8  13
BRANCH  10  15
ATOM     15  C   UNL A   1      33.538  24.283  25.445  1.00  0.00    -0.021 A 
ATOM     16  C   UNL A   1      32.339  23.840  26.076  1.00  0.00     0.006 A 
ATOM     17  C   UNL A   1      34.792  23.768  25.889  1.00  0.00    -0.040 A 
ATOM     18  C   UNL A   1      32.346  22.959  27.152  1.00  0.00     0.000 A 
ATOM     19  C   UNL A   1      34.738  22.876  26.997  1.00  0.00     0.004 A 
ATOM     20  C   UNL A   1      33.553  22.487  27.625  1.00  0.00     0.000 A 
BRANCH  17  21
ATOM     21  C   UNL A   1      36.208  24.066  25.389  1.00  0.00     0.019 C 
ATOM     22  C   UNL A   1      37.484  23.519  25.964  1.00  0.00     0.009 C 
ATOM     23  C   UNL A   1      37.028  23.087  24.594  1.00  0.00     0.009 C 
ENDBRANCH  17  21
ENDBRANCH  10  15
ENDBRANCH   4   7
ENDBRANCH   2   3
ENDBRANCH   1   2
BRANCH   1  24
ATOM     24  C   UNL A   1      32.772  30.177  26.625  1.00  0.00     0.118 C 
BRANCH  24  25
ATOM     25  N   UNL A   1      32.838  31.573  27.062  1.00  0.00    -0.352 N 
ATOM     26  C   UNL A   1      33.845  32.267  27.701  1.00  0.00     0.251 C 
ATOM     27  H   UNL A   1      32.031  32.103  26.869  1.00  0.00     0.163 HD
ATOM     28  O   UNL A   1      33.669  33.433  28.042  1.00  0.00    -0.269 OA
BRANCH  26  29
ATOM     29  C   UNL A   1      35.114  31.581  28.027  1.00  0.00     0.039 A 
ATOM     30  C   UNL A   1      36.274  32.340  28.203  1.00  0.00     0.014 A 
ATOM     31  C   UNL A   1      35.142  30.206  28.249  1.00  0.00     0.014 A 
ATOM     32  C   UNL A   1      37.417  31.740  28.739  1.00  0.00     0.010 A 
ATOM     33  C   UNL A   1      36.229  29.643  28.904  1.00  0.00     0.010 A 
ATOM     34  C   UNL A   1      37.378  30.404  29.168  1.00  0.00    -0.014 A 
BRANCH  34  35
ATOM     35  C   UNL A   1      38.496  29.786  29.933  1.00  0.00     0.031 A 
ATOM     36  C   UNL A   1      38.825  30.279  31.319  1.00  0.00     0.074 A 
ATOM     37  C   UNL A   1      39.300  28.885  29.330  1.00  0.00     0.049 A 
ATOM     38  N   UNL A   1      39.831  29.956  32.090  1.00  0.00    -0.248 NA
ATOM     39  C   UNL A   1      37.932  31.298  31.901  1.00  0.00     0.031 C 
ATOM     40  C   UNL A   1      39.154  28.400  27.953  1.00  0.00     0.029 A 
ATOM     41  N   UNL A   1      40.428  28.241  29.782  1.00  0.00    -0.354 N 
ATOM     42  C   UNL A   1      39.727  30.771  33.211  1.00  0.00     0.074 A 
ATOM     43  C   UNL A   1      38.576  31.622  33.013  1.00  0.00     0.031 C 
ATOM     44  C   UNL A   1      40.147  27.539  27.678  1.00  0.00     0.029 A 
ATOM     45  C   UNL A   1      41.027  27.439  28.836  1.00  0.00     0.049 A 
ATOM     46  H   UNL A   1      40.775  28.344  30.698  1.00  0.00     0.167 HD
ATOM     47  C   UNL A   1      40.505  30.793  34.317  1.00  0.00     0.034 A 
ATOM     48  C   UNL A   1      42.168  26.722  28.885  1.00  0.00     0.034 A 
ATOM     49  C   UNL A   1      41.604  29.896  34.543  1.00  0.00     0.049 A 
ATOM     50  C   UNL A   1      42.973  26.718  30.158  1.00  0.00     0.074 A 
ATOM     51  C   UNL A   1      42.361  29.742  35.691  1.00  0.00     0.029 A 
ATOM     52  N   UNL A   1      42.114  29.016  33.604  1.00  0.00    -0.354 N 
ATOM     53  N   UNL A   1      42.738  27.347  31.283  1.00  0.00    -0.248 NA
ATOM     54  C   UNL A   1      44.183  25.883  30.179  1.00  0.00     0.031 C 
ATOM     55  C   UNL A   1      43.356  28.796  35.431  1.00  0.00     0.029 A 
ATOM     56  C   UNL A   1      43.194  28.334  34.136  1.00  0.00     0.049 A 
ATOM     57  H   UNL A   1      41.761  28.893  32.693  1.00  0.00     0.167 HD
ATOM     58  C   UNL A   1      43.750  26.958  32.155  1.00  0.00     0.074 A 
ATOM     59  C   UNL A   1      44.582  26.017  31.436  1.00  0.00     0.031 C 
ATOM     60  C   UNL A   1      43.980  27.359  33.428  1.00  0.00     0.034 A 
BRANCH  47  61
ATOM     61  C   UNL A   1      40.177  31.784  35.401  1.00  0.00     0.023 A 
ATOM     62  C   UNL A   1      40.877  33.004  35.474  1.00  0.00     0.012 A 
ATOM     63  C   UNL A   1      39.105  31.547  36.284  1.00  0.00     0.148 A 
ATOM     64  C   UNL A   1      40.532  33.964  36.424  1.00  0.00     0.002 A 
ATOM     65  C   UNL A   1      38.736  32.527  37.197  1.00  0.00     0.091 A 
ATOM     66  F   UNL A   1      38.466  30.370  36.211  1.00  0.00    -0.205 F 
ATOM     67  C   UNL A   1      39.454  33.732  37.274  1.00  0.00     0.022 A 
BRANCH  65  68
ATOM     68  S   UNL A   1      37.310  32.363  38.275  1.00  0.00     0.127 S 
ATOM     69  O   UNL A   1      37.774  33.047  39.482  1.00  0.00    -0.237 OA
ATOM     70  O   UNL A   1      36.278  33.079  37.527  1.00  0.00    -0.237 OA
ATOM     71  O   UNL A   1      37.077  30.934  38.424  1.00  0.00    -0.744 OA
ENDBRANCH  65  68
ENDBRANCH  47  61
BRANCH  48  72
ATOM     72  C   UNL A   1      42.609  25.917  27.708  1.00  0.00     0.023 A 
ATOM     73  C   UNL A   1      43.477  26.491  26.759  1.00  0.00     0.012 A 
ATOM     74  C   UNL A   1      42.167  24.594  27.516  1.00  0.00     0.148 A 
ATOM     75  C   UNL A   1      43.858  25.782  25.618  1.00  0.00     0.002 A 
ATOM     76  C   UNL A   1      42.599  23.870  26.410  1.00  0.00     0.091 A 
ATOM     77  F   UNL A   1      41.330  24.065  28.421  1.00  0.00    -0.205 F 
ATOM     78  C   UNL A   1      43.425  24.470  25.448  1.00  0.00     0.022 A 
BRANCH  76  79
ATOM     79  S   UNL A   1      42.204  22.132  26.190  1.00  0.00     0.127 S 
ATOM     80  O   UNL A   1      40.759  22.177  25.985  1.00  0.00    -0.237 OA
ATOM     81  O   UNL A   1      42.985  21.789  25.001  1.00  0.00    -0.237 OA
ATOM     82  O   UNL A   1      42.654  21.473  27.409  1.00  0.00    -0.744 OA
ENDBRANCH  76  79
ENDBRANCH  48  72
BRANCH  60  83
ATOM     83  C   UNL A   1      45.157  26.758  34.151  1.00  0.00     0.023 A 
ATOM     84  C   UNL A   1      46.432  27.344  34.023  1.00  0.00     0.012 A 
ATOM     85  C   UNL A   1      44.979  25.666  35.021  1.00  0.00     0.148 A 
ATOM     86  C   UNL A   1      47.519  26.828  34.726  1.00  0.00     0.002 A 
ATOM     87  C   UNL A   1      46.056  25.192  35.760  1.00  0.00     0.091 A 
ATOM     88  F   UNL A   1      43.760  25.116  35.116  1.00  0.00    -0.205 F 
ATOM     89  C   UNL A   1      47.330  25.763  35.603  1.00  0.00     0.022 A 
BRANCH  87  90
ATOM     90  S   UNL A   1      45.886  23.892  36.988  1.00  0.00     0.127 S 
ATOM     91  O   UNL A   1      45.420  22.771  36.171  1.00  0.00    -0.237 OA
ATOM     92  O   UNL A   1      47.255  23.757  37.485  1.00  0.00    -0.237 OA
ATOM     93  O   UNL A   1      44.931  24.387  37.969  1.00  0.00    -0.744 OA
ENDBRANCH  87  90
ENDBRANCH  60  83
ENDBRANCH  34  35
ENDBRANCH  26  29
ENDBRANCH  24  25
ENDBRANCH   1  24
TORSDOF 16
ENDMDL
MODEL 3
REMARK VINA RESULT:     -12.2      5.103      7.717
REMARK SMILES CCN1C(=O)C[C@@H](C(=O)NCCCNC(=O)c2ccc(-c3c4nc(c(-c5cccc(S(=O)(=O)[O-])c5F)c5ccc([nH]5)c(-c5cccc(S(=O)(=O)[O-])c5F)c5nc(c(-c6cccc(S(=O)(=O)[O-])c6F)c6ccc3[nH]6)C=C5)C=C4)cc2)[C@H]1c1ccccc1C1CC1
REMARK SMILES IDX 12 1 11 2 10 3 8 4 9 5 7 7 3 8 4 9 80 10 5 11 6 12 2 13 1 14
REMARK SMILES IDX 81 15 82 16 86 17 83 18 85 19 84 20 87 21 88 22 89 23 13 24
REMARK SMILES IDX 14 25 15 26 16 28 17 29 18 30 79 31 19 32 78 33 20 34 21 35
REMARK SMILES IDX 22 36 72 37 23 38 77 39 71 40 73 41 24 42 76 43 70 44 69 45
REMARK SMILES IDX 25 47 57 48 37 49 56 50 38 51 41 52 55 53 74 54 39 55 40 56
REMARK SMILES IDX 54 58 75 59 42 60 26 61 27 62 35 63 28 64 30 65 36 66 29 67
REMARK SMILES IDX 31 68 32 69 33 70 34 71 58 72 59 73 67 74 60 75 62 76 68 77
REMARK SMILES IDX 61 78 63 79 64 80 65 81 66 82 43 83 44 84 52 85 45 86 47 87
REMARK SMILES IDX 53 88 46 89 48 90 49 91 50 92 51 93
REMARK H PARENT 10 6 14 27 73 46 41 57
REMARK Flexibility Score: inf
ROOT
ATOM      1  C   UNL A   1      31.972  29.179  27.170  1.00  0.00     0.042 C 
ENDROOT
BRANCH   1   2
ATOM      2  C   UNL A   1      32.078  27.798  26.564  1.00  0.00     0.117 C 
BRANCH   2   3
ATOM      3  N   UNL A   1      31.148  27.513  25.488  1.00  0.00    -0.356 N 
ATOM      4  C   UNL A   1      31.416  26.873  24.309  1.00  0.00     0.226 C 
ATOM      5  O   UNL A   1      30.462  26.461  23.647  1.00  0.00    -0.275 OA
ATOM      6  H   UNL A   1      30.220  27.812  25.622  1.00  0.00     0.163 HD
BRANCH   4   7
ATOM      7  C   UNL A   1      32.859  26.739  23.841  1.00  0.00     0.115 C 
ATOM      8  N   UNL A   1      33.368  24.770  22.605  1.00  0.00    -0.335 N 
ATOM      9  C   UNL A   1      33.037  25.731  21.661  1.00  0.00     0.223 C 
ATOM     10  C   UNL A   1      33.525  25.355  23.931  1.00  0.00     0.128 C 
ATOM     11  O   UNL A   1      32.907  25.573  20.459  1.00  0.00    -0.275 OA
ATOM     12  C   UNL A   1      32.969  27.074  22.347  1.00  0.00     0.116 C 
BRANCH   8  13
ATOM     13  C   UNL A   1      33.671  23.361  22.359  1.00  0.00     0.117 C 
ATOM     14  C   UNL A   1      32.519  22.381  22.470  1.00  0.00     0.027 C 
ENDBRANCH   8  13
BRANCH  10  15
ATOM     15  C   UNL A   1      33.155  24.422  25.073  1.00  0.00    -0.021 A 
ATOM     16  C   UNL A   1      31.761  24.247  25.318  1.00  0.00     0.006 A 
ATOM     17  C   UNL A   1      34.100  23.771  25.920  1.00  0.00    -0.040 A 
ATOM     18  C   UNL A   1      31.282  23.504  26.391  1.00  0.00     0.000 A 
ATOM     19  C   UNL A   1      33.552  23.030  27.005  1.00  0.00     0.004 A 
ATOM     20  C   UNL A   1      32.182  22.905  27.248  1.00  0.00     0.000 A 
BRANCH  17  21
ATOM     21  C   UNL A   1      35.631  23.784  25.876  1.00  0.00     0.019 C 
ATOM     22  C   UNL A   1      36.524  22.581  25.763  1.00  0.00     0.009 C 
ATOM     23  C   UNL A   1      36.425  23.558  24.618  1.00  0.00     0.009 C 
ENDBRANCH  17  21
ENDBRANCH  10  15
ENDBRANCH   4   7
ENDBRANCH   2   3
ENDBRANCH   1   2
BRANCH   1  24
ATOM     24  C   UNL A   1      32.707  30.262  26.393  1.00  0.00     0.118 C 
BRANCH  24  25
ATOM     25  N   UNL A   1      32.562  31.614  26.934  1.00  0.00    -0.352 N 
ATOM     26  C   UNL A   1      33.458  32.406  27.623  1.00  0.00     0.251 C 
ATOM     27  H   UNL A   1      31.681  32.027  26.781  1.00  0.00     0.163 HD
ATOM     28  O   UNL A   1      33.109  33.503  28.049  1.00  0.00    -0.269 OA
BRANCH  26  29
ATOM     29  C   UNL A   1      34.822  31.902  27.896  1.00  0.00     0.039 A 
ATOM     30  C   UNL A   1      35.881  32.810  27.977  1.00  0.00     0.014 A 
ATOM     31  C   UNL A   1      35.040  30.553  28.162  1.00  0.00     0.014 A 
ATOM     32  C   UNL A   1      37.119  32.383  28.464  1.00  0.00     0.010 A 
ATOM     33  C   UNL A   1      36.224  30.160  28.771  1.00  0.00     0.010 A 
ATOM     34  C   UNL A   1      37.278  31.072  28.940  1.00  0.00    -0.014 A 
BRANCH  34  35
ATOM     35  C   UNL A   1      38.506  30.633  29.658  1.00  0.00     0.031 A 
ATOM     36  C   UNL A   1      39.410  29.595  29.043  1.00  0.00     0.074 A 
ATOM     37  C   UNL A   1      38.731  31.061  30.919  1.00  0.00     0.049 A 
ATOM     38  N   UNL A   1      40.450  28.998  29.564  1.00  0.00    -0.248 NA
ATOM     39  C   UNL A   1      39.080  29.138  27.682  1.00  0.00     0.031 C 
ATOM     40  C   UNL A   1      37.875  31.986  31.670  1.00  0.00     0.029 A 
ATOM     41  N   UNL A   1      39.728  30.745  31.811  1.00  0.00    -0.354 N 
ATOM     42  C   UNL A   1      40.858  28.058  28.626  1.00  0.00     0.074 A 
ATOM     43  C   UNL A   1      39.940  28.143  27.513  1.00  0.00     0.031 C 
ATOM     44  C   UNL A   1      38.385  32.162  32.901  1.00  0.00     0.029 A 
ATOM     45  C   UNL A   1      39.575  31.335  33.047  1.00  0.00     0.049 A 
ATOM     46  H   UNL A   1      40.482  30.152  31.588  1.00  0.00     0.167 HD
ATOM     47  C   UNL A   1      41.914  27.216  28.674  1.00  0.00     0.034 A 
ATOM     48  C   UNL A   1      40.298  31.207  34.178  1.00  0.00     0.034 A 
ATOM     49  C   UNL A   1      42.867  27.184  29.748  1.00  0.00     0.049 A 
ATOM     50  C   UNL A   1      41.508  30.310  34.174  1.00  0.00     0.074 A 
ATOM     51  C   UNL A   1      44.050  26.470  29.824  1.00  0.00     0.029 A 
ATOM     52  N   UNL A   1      42.740  27.879  30.939  1.00  0.00    -0.354 N 
ATOM     53  N   UNL A   1      41.989  29.581  33.197  1.00  0.00    -0.248 NA
ATOM     54  C   UNL A   1      42.292  30.241  35.416  1.00  0.00     0.031 C 
ATOM     55  C   UNL A   1      44.619  26.703  31.079  1.00  0.00     0.029 A 
ATOM     56  C   UNL A   1      43.811  27.592  31.768  1.00  0.00     0.049 A 
ATOM     57  H   UNL A   1      42.000  28.489  31.163  1.00  0.00     0.167 HD
ATOM     58  C   UNL A   1      43.148  28.995  33.696  1.00  0.00     0.074 A 
ATOM     59  C   UNL A   1      43.311  29.477  35.051  1.00  0.00     0.031 C 
ATOM     60  C   UNL A   1      43.990  28.121  33.093  1.00  0.00     0.034 A 
BRANCH  47  61
ATOM     61  C   UNL A   1      42.138  26.283  27.514  1.00  0.00     0.023 A 
ATOM     62  C   UNL A   1      42.938  26.691  26.428  1.00  0.00     0.012 A 
ATOM     63  C   UNL A   1      41.638  24.966  27.550  1.00  0.00     0.148 A 
ATOM     64  C   UNL A   1      43.217  25.811  25.384  1.00  0.00     0.002 A 
ATOM     65  C   UNL A   1      41.960  24.080  26.529  1.00  0.00     0.091 A 
ATOM     66  F   UNL A   1      40.862  24.606  28.582  1.00  0.00    -0.205 F 
ATOM     67  C   UNL A   1      42.741  24.503  25.441  1.00  0.00     0.022 A 
BRANCH  65  68
ATOM     68  S   UNL A   1      41.470  22.353  26.552  1.00  0.00     0.127 S 
ATOM     69  O   UNL A   1      40.019  22.458  26.403  1.00  0.00    -0.237 OA
ATOM     70  O   UNL A   1      42.166  21.823  25.381  1.00  0.00    -0.237 OA
ATOM     71  O   UNL A   1      41.925  21.820  27.828  1.00  0.00    -0.744 OA
ENDBRANCH  65  68
ENDBRANCH  47  61
BRANCH  48  72
ATOM     72  C   UNL A   1      39.924  31.969  35.407  1.00  0.00     0.023 A 
ATOM     73  C   UNL A   1      40.557  33.198  35.681  1.00  0.00     0.012 A 
ATOM     74  C   UNL A   1      38.959  31.481  36.308  1.00  0.00     0.148 A 
ATOM     75  C   UNL A   1      40.271  33.902  36.852  1.00  0.00     0.002 A 
ATOM     76  C   UNL A   1      38.634  32.217  37.442  1.00  0.00     0.091 A 
ATOM     77  F   UNL A   1      38.376  30.304  36.041  1.00  0.00    -0.205 F 
ATOM     78  C   UNL A   1      39.304  33.416  37.728  1.00  0.00     0.022 A 
BRANCH  76  79
ATOM     79  S   UNL A   1      37.302  31.734  38.546  1.00  0.00     0.127 S 
ATOM     80  O   UNL A   1      36.265  32.704  38.207  1.00  0.00    -0.237 OA
ATOM     81  O   UNL A   1      37.028  30.363  38.114  1.00  0.00    -0.237 OA
ATOM     82  O   UNL A   1      37.854  31.836  39.891  1.00  0.00    -0.744 OA
ENDBRANCH  76  79
ENDBRANCH  48  72
BRANCH  60  83
ATOM     83  C   UNL A   1      45.190  27.651  33.873  1.00  0.00     0.023 A 
ATOM     84  C   UNL A   1      46.378  28.407  33.855  1.00  0.00     0.012 A 
ATOM     85  C   UNL A   1      45.108  26.506  34.688  1.00  0.00     0.148 A 
ATOM     86  C   UNL A   1      47.479  28.011  34.612  1.00  0.00     0.002 A 
ATOM     87  C   UNL A   1      46.190  26.148  35.482  1.00  0.00     0.091 A 
ATOM     88  F   UNL A   1      43.972  25.794  34.679  1.00  0.00    -0.205 F 
ATOM     89  C   UNL A   1      47.382  26.890  35.434  1.00  0.00     0.022 A 
BRANCH  87  90
ATOM     90  S   UNL A   1      46.122  24.782  36.646  1.00  0.00     0.127 S 
ATOM     91  O   UNL A   1      47.458  24.830  37.239  1.00  0.00    -0.237 OA
ATOM     92  O   UNL A   1      45.041  25.194  37.542  1.00  0.00    -0.237 OA
ATOM     93  O   UNL A   1      45.833  23.593  35.856  1.00  0.00    -0.744 OA
ENDBRANCH  87  90
ENDBRANCH  60  83
ENDBRANCH  34  35
ENDBRANCH  26  29
ENDBRANCH  24  25
ENDBRANCH   1  24
TORSDOF 16
ENDMDL
