MODEL 1
REMARK VINA RESULT:     -14.0      0.000      0.000
REMARK SMILES Cc1nn([C@H]2CCS(=O)(=O)C2)c(C)c1/C=C(\CC(=O)NCCCNC(=O)c1ccc(-c2c3nc(c(-c4cccc(S(=O)(=O)[O-])c4F)c4ccc([nH]4)c(-c4cccc(S(=O)(=O)[O-])c4F)c4nc(c(-c5cccc(S(=O)(=O)[O-])c5F)c5ccc2[nH]5)C=C4)C=C3)cc1)c1nc2ccccc2s1
REMARK SMILES IDX 22 1 21 2 20 3 18 4 19 5 17 7 16 8 15 9 14 10 1 11 2 12 3 13
REMARK SMILES IDX 4 14 12 15 13 16 5 17 6 18 11 19 7 20 8 21 9 22 10 23 90 24
REMARK SMILES IDX 91 25 98 26 92 27 97 28 93 29 96 30 94 31 95 32 23 33 24 34
REMARK SMILES IDX 25 35 26 37 27 38 28 39 89 40 29 41 88 42 30 43 31 44 32 45
REMARK SMILES IDX 82 46 33 47 87 48 81 49 83 50 34 51 86 52 80 53 79 54 35 56
REMARK SMILES IDX 67 57 47 58 66 59 48 60 51 61 65 62 84 63 49 64 50 65 64 67
REMARK SMILES IDX 85 68 52 69 36 70 37 71 45 72 38 73 40 74 46 75 39 76 41 77
REMARK SMILES IDX 42 78 43 79 44 80 68 81 69 82 77 83 70 84 72 85 78 86 71 87
REMARK SMILES IDX 73 88 74 89 75 90 76 91 53 92 54 93 62 94 55 95 57 96 63 97
REMARK SMILES IDX 56 98 58 99 59 100 60 101 61 102
REMARK H PARENT 20 6 24 36 83 55 51 66
REMARK Flexibility Score: inf
ROOT
ATOM      1  C   UNL A   1      33.231  30.020  25.774  1.00  0.00     0.042 C 
ENDROOT
BRANCH   1   2
ATOM      2  C   UNL A   1      31.899  29.312  25.521  1.00  0.00     0.117 C 
BRANCH   2   3
ATOM      3  N   UNL A   1      31.666  28.202  26.419  1.00  0.00    -0.356 N 
ATOM      4  C   UNL A   1      31.646  26.864  26.157  1.00  0.00     0.224 C 
ATOM      5  O   UNL A   1      31.496  26.091  27.101  1.00  0.00    -0.275 OA
ATOM      6  H   UNL A   1      31.497  28.450  27.357  1.00  0.00     0.163 HD
BRANCH   4   7
ATOM      7  C   UNL A   1      31.986  26.350  24.769  1.00  0.00     0.138 C 
BRANCH   7   8
ATOM      8  C   UNL A   1      30.856  25.783  23.942  1.00  0.00    -0.002 C 
ATOM      9  C   UNL A   1      30.588  24.468  23.748  1.00  0.00     0.019 C 
BRANCH   9  10
ATOM     10  C   UNL A   1      31.312  23.276  24.114  1.00  0.00     0.019 A 
ATOM     11  C   UNL A   1      30.294  22.984  26.531  1.00  0.00     0.069 C 
ATOM     12  C   UNL A   1      31.132  22.611  25.363  1.00  0.00     0.067 A 
ATOM     13  N   UNL A   1      31.825  21.477  25.418  1.00  0.00    -0.177 NA
ATOM     14  N   UNL A   1      32.389  21.363  24.202  1.00  0.00    -0.265 N 
ATOM     15  C   UNL A   1      32.295  22.525  23.469  1.00  0.00     0.043 A 
ATOM     16  C   UNL A   1      33.139  22.787  22.273  1.00  0.00     0.067 C 
BRANCH  14  17
ATOM     17  C   UNL A   1      32.954  20.056  23.934  1.00  0.00     0.123 C 
ATOM     18  C   UNL A   1      34.075  19.714  24.946  1.00  0.00     0.044 C 
ATOM     19  C   UNL A   1      32.084  18.805  23.931  1.00  0.00     0.164 C 
ATOM     20  C   UNL A   1      34.672  18.399  24.468  1.00  0.00     0.139 C 
ATOM     21  S   UNL A   1      33.290  17.487  23.800  1.00  0.00     0.152 S 
ATOM     22  O   UNL A   1      33.546  17.253  22.384  1.00  0.00    -0.229 OA
ATOM     23  O   UNL A   1      32.936  16.425  24.700  1.00  0.00    -0.229 OA
ENDBRANCH  14  17
ENDBRANCH   9  10
BRANCH   8  24
ATOM     24  C   UNL A   1      30.011  26.739  23.270  1.00  0.00     0.121 A 
ATOM     25  N   UNL A   1      30.461  27.631  22.412  1.00  0.00    -0.236 NA
ATOM     26  S   UNL A   1      28.362  26.965  23.727  1.00  0.00    -0.114 S 
ATOM     27  C   UNL A   1      29.635  28.743  22.424  1.00  0.00     0.082 A 
ATOM     28  C   UNL A   1      28.427  28.574  23.104  1.00  0.00     0.055 A 
ATOM     29  C   UNL A   1      29.939  30.007  21.881  1.00  0.00     0.030 A 
ATOM     30  C   UNL A   1      27.503  29.621  23.252  1.00  0.00     0.021 A 
ATOM     31  C   UNL A   1      29.060  31.074  22.086  1.00  0.00     0.002 A 
ATOM     32  C   UNL A   1      27.859  30.882  22.762  1.00  0.00     0.002 A 
ENDBRANCH   8  24
ENDBRANCH   7   8
ENDBRANCH   4   7
ENDBRANCH   2   3
ENDBRANCH   1   2
BRANCH   1  33
ATOM     33  C   UNL A   1      33.754  29.804  27.186  1.00  0.00     0.118 C 
BRANCH  33  34
ATOM     34  N   UNL A   1      33.697  31.031  27.992  1.00  0.00    -0.352 N 
ATOM     35  C   UNL A   1      34.654  31.550  28.841  1.00  0.00     0.251 C 
ATOM     36  H   UNL A   1      32.866  31.553  27.916  1.00  0.00     0.163 HD
ATOM     37  O   UNL A   1      34.362  32.396  29.678  1.00  0.00    -0.269 OA
BRANCH  35  38
ATOM     38  C   UNL A   1      36.033  31.053  28.721  1.00  0.00     0.039 A 
ATOM     39  C   UNL A   1      37.129  31.916  28.815  1.00  0.00     0.014 A 
ATOM     40  C   UNL A   1      36.207  29.679  28.630  1.00  0.00     0.014 A 
ATOM     41  C   UNL A   1      38.408  31.370  28.916  1.00  0.00     0.010 A 
ATOM     42  C   UNL A   1      37.440  29.148  28.910  1.00  0.00     0.010 A 
ATOM     43  C   UNL A   1      38.559  29.978  28.990  1.00  0.00    -0.014 A 
BRANCH  43  44
ATOM     44  C   UNL A   1      39.867  29.365  29.215  1.00  0.00     0.031 A 
ATOM     45  C   UNL A   1      40.298  29.182  30.632  1.00  0.00     0.074 A 
ATOM     46  C   UNL A   1      40.550  28.762  28.218  1.00  0.00     0.049 A 
ATOM     47  N   UNL A   1      41.330  29.699  31.218  1.00  0.00    -0.248 NA
ATOM     48  C   UNL A   1      39.448  28.381  31.524  1.00  0.00     0.031 C 
ATOM     49  C   UNL A   1      40.127  28.566  26.822  1.00  0.00     0.029 A 
ATOM     50  N   UNL A   1      41.699  28.036  28.285  1.00  0.00    -0.354 N 
ATOM     51  C   UNL A   1      41.384  29.116  32.485  1.00  0.00     0.074 A 
ATOM     52  C   UNL A   1      40.121  28.451  32.675  1.00  0.00     0.031 C 
ATOM     53  C   UNL A   1      40.826  27.549  26.280  1.00  0.00     0.029 A 
ATOM     54  C   UNL A   1      41.880  27.186  27.202  1.00  0.00     0.049 A 
ATOM     55  H   UNL A   1      42.338  28.105  29.030  1.00  0.00     0.167 HD
ATOM     56  C   UNL A   1      42.548  29.033  33.192  1.00  0.00     0.034 A 
ATOM     57  C   UNL A   1      42.819  26.224  27.070  1.00  0.00     0.034 A 
ATOM     58  C   UNL A   1      43.578  29.866  32.626  1.00  0.00     0.049 A 
ATOM     59  C   UNL A   1      43.926  26.570  27.986  1.00  0.00     0.074 A 
ATOM     60  C   UNL A   1      43.741  31.212  32.378  1.00  0.00     0.029 A 
ATOM     61  N   UNL A   1      44.547  29.226  31.893  1.00  0.00    -0.354 N 
ATOM     62  N   UNL A   1      44.658  27.642  27.855  1.00  0.00    -0.248 NA
ATOM     63  C   UNL A   1      43.983  25.929  29.287  1.00  0.00     0.031 C 
ATOM     64  C   UNL A   1      44.486  31.274  31.162  1.00  0.00     0.029 A 
ATOM     65  C   UNL A   1      44.761  29.963  30.760  1.00  0.00     0.049 A 
ATOM     66  H   UNL A   1      45.003  28.389  32.137  1.00  0.00     0.167 HD
ATOM     67  C   UNL A   1      44.901  28.058  29.157  1.00  0.00     0.074 A 
ATOM     68  C   UNL A   1      44.599  26.891  29.982  1.00  0.00     0.031 C 
ATOM     69  C   UNL A   1      45.038  29.384  29.461  1.00  0.00     0.034 A 
BRANCH  56  70
ATOM     70  C   UNL A   1      42.905  27.947  34.186  1.00  0.00     0.023 A 
ATOM     71  C   UNL A   1      43.178  28.346  35.516  1.00  0.00     0.012 A 
ATOM     72  C   UNL A   1      43.260  26.626  33.834  1.00  0.00     0.148 A 
ATOM     73  C   UNL A   1      43.816  27.496  36.428  1.00  0.00     0.002 A 
ATOM     74  C   UNL A   1      43.818  25.758  34.768  1.00  0.00     0.091 A 
ATOM     75  F   UNL A   1      43.193  26.233  32.558  1.00  0.00    -0.205 F 
ATOM     76  C   UNL A   1      44.129  26.196  36.057  1.00  0.00     0.022 A 
BRANCH  74  77
ATOM     77  S   UNL A   1      44.182  24.050  34.346  1.00  0.00     0.127 S 
ATOM     78  O   UNL A   1      45.182  23.705  35.351  1.00  0.00    -0.237 OA
ATOM     79  O   UNL A   1      42.878  23.407  34.522  1.00  0.00    -0.237 OA
ATOM     80  O   UNL A   1      44.637  24.093  32.961  1.00  0.00    -0.744 OA
ENDBRANCH  74  77
ENDBRANCH  56  70
BRANCH  57  81
ATOM     81  C   UNL A   1      42.720  24.940  26.351  1.00  0.00     0.023 A 
ATOM     82  C   UNL A   1      43.719  24.562  25.439  1.00  0.00     0.012 A 
ATOM     83  C   UNL A   1      41.758  23.977  26.738  1.00  0.00     0.148 A 
ATOM     84  C   UNL A   1      43.774  23.254  24.941  1.00  0.00     0.002 A 
ATOM     85  C   UNL A   1      41.817  22.680  26.239  1.00  0.00     0.091 A 
ATOM     86  F   UNL A   1      40.841  24.319  27.654  1.00  0.00    -0.205 F 
ATOM     87  C   UNL A   1      42.830  22.313  25.346  1.00  0.00     0.022 A 
BRANCH  85  88
ATOM     88  S   UNL A   1      40.658  21.398  26.737  1.00  0.00     0.127 S 
ATOM     89  O   UNL A   1      40.807  21.407  28.192  1.00  0.00    -0.237 OA
ATOM     90  O   UNL A   1      39.388  21.933  26.249  1.00  0.00    -0.237 OA
ATOM     91  O   UNL A   1      41.116  20.178  26.088  1.00  0.00    -0.744 OA
ENDBRANCH  85  88
ENDBRANCH  57  81
BRANCH  69  92
ATOM     92  C   UNL A   1      45.182  30.366  28.319  1.00  0.00     0.023 A 
ATOM     93  C   UNL A   1      44.056  30.888  27.647  1.00  0.00     0.012 A 
ATOM     94  C   UNL A   1      46.445  30.921  28.050  1.00  0.00     0.148 A 
ATOM     95  C   UNL A   1      44.185  31.920  26.715  1.00  0.00     0.002 A 
ATOM     96  C   UNL A   1      46.564  31.977  27.153  1.00  0.00     0.091 A 
ATOM     97  F   UNL A   1      47.505  30.430  28.708  1.00  0.00    -0.205 F 
ATOM     98  C   UNL A   1      45.438  32.474  26.477  1.00  0.00     0.022 A 
BRANCH  96  99
ATOM     99  S   UNL A   1      48.124  32.827  26.890  1.00  0.00     0.127 S 
ATOM    100  O   UNL A   1      47.775  33.792  25.850  1.00  0.00    -0.237 OA
ATOM    101  O   UNL A   1      48.386  33.415  28.205  1.00  0.00    -0.237 OA
ATOM    102  O   UNL A   1      49.080  31.800  26.496  1.00  0.00    -0.744 OA
ENDBRANCH  96  99
ENDBRANCH  69  92
ENDBRANCH  43  44
ENDBRANCH  35  38
ENDBRANCH  33  34
ENDBRANCH   1  33
TORSDOF 17
ENDMDL
MODEL 2
REMARK VINA RESULT:     -14.0      3.893      8.585
REMARK SMILES Cc1nn([C@H]2CCS(=O)(=O)C2)c(C)c1/C=C(\CC(=O)NCCCNC(=O)c1ccc(-c2c3nc(c(-c4cccc(S(=O)(=O)[O-])c4F)c4ccc([nH]4)c(-c4cccc(S(=O)(=O)[O-])c4F)c4nc(c(-c5cccc(S(=O)(=O)[O-])c5F)c5ccc2[nH]5)C=C4)C=C3)cc1)c1nc2ccccc2s1
REMARK SMILES IDX 22 1 21 2 20 3 18 4 19 5 17 7 16 8 15 9 14 10 1 11 2 12 3 13
REMARK SMILES IDX 4 14 12 15 13 16 5 17 6 18 11 19 7 20 8 21 9 22 10 23 90 24
REMARK SMILES IDX 91 25 98 26 92 27 97 28 93 29 96 30 94 31 95 32 23 33 24 34
REMARK SMILES IDX 25 35 26 37 27 38 28 39 89 40 29 41 88 42 30 43 31 44 32 45
REMARK SMILES IDX 82 46 33 47 87 48 81 49 83 50 34 51 86 52 80 53 79 54 35 56
REMARK SMILES IDX 67 57 47 58 66 59 48 60 51 61 65 62 84 63 49 64 50 65 64 67
REMARK SMILES IDX 85 68 52 69 36 70 37 71 45 72 38 73 40 74 46 75 39 76 41 77
REMARK SMILES IDX 42 78 43 79 44 80 68 81 69 82 77 83 70 84 72 85 78 86 71 87
REMARK SMILES IDX 73 88 74 89 75 90 76 91 53 92 54 93 62 94 55 95 57 96 63 97
REMARK SMILES IDX 56 98 58 99 59 100 60 101 61 102
REMARK H PARENT 20 6 24 36 83 55 51 66
REMARK Flexibility Score: inf
ROOT
ATOM      1  C   UNL A   1      31.471  31.468  26.453  1.00  0.00     0.042 C 
ENDROOT
BRANCH   1   2
ATOM      2  C   UNL A   1      31.811  30.021  26.094  1.00  0.00     0.117 C 
BRANCH   2   3
ATOM      3  N   UNL A   1      33.205  29.695  26.303  1.00  0.00    -0.356 N 
ATOM      4  C   UNL A   1      33.785  28.485  26.543  1.00  0.00     0.224 C 
ATOM      5  O   UNL A   1      35.011  28.435  26.620  1.00  0.00    -0.275 OA
ATOM      6  H   UNL A   1      33.824  30.459  26.266  1.00  0.00     0.163 HD
BRANCH   4   7
ATOM      7  C   UNL A   1      32.949  27.217  26.529  1.00  0.00     0.138 C 
BRANCH   7   8
ATOM      8  C   UNL A   1      33.235  26.207  25.441  1.00  0.00    -0.002 C 
ATOM      9  C   UNL A   1      32.724  26.217  24.186  1.00  0.00     0.019 C 
BRANCH   9  10
ATOM     10  C   UNL A   1      31.714  27.039  23.567  1.00  0.00     0.019 A 
ATOM     11  C   UNL A   1      29.717  25.323  23.742  1.00  0.00     0.069 C 
ATOM     12  C   UNL A   1      30.359  26.621  23.412  1.00  0.00     0.067 A 
ATOM     13  N   UNL A   1      29.600  27.595  22.917  1.00  0.00    -0.177 NA
ATOM     14  N   UNL A   1      30.425  28.653  22.818  1.00  0.00    -0.265 N 
ATOM     15  C   UNL A   1      31.747  28.305  22.981  1.00  0.00     0.043 A 
ATOM     16  C   UNL A   1      32.865  29.191  22.560  1.00  0.00     0.067 C 
BRANCH  14  17
ATOM     17  C   UNL A   1      29.745  29.910  22.576  1.00  0.00     0.123 C 
ATOM     18  C   UNL A   1      28.527  29.715  21.641  1.00  0.00     0.044 C 
ATOM     19  C   UNL A   1      29.182  30.737  23.726  1.00  0.00     0.164 C 
ATOM     20  C   UNL A   1      27.999  31.113  21.357  1.00  0.00     0.139 C 
ATOM     21  S   UNL A   1      28.259  32.015  22.877  1.00  0.00     0.152 S 
ATOM     22  O   UNL A   1      29.173  33.117  22.596  1.00  0.00    -0.229 OA
ATOM     23  O   UNL A   1      27.000  32.215  23.538  1.00  0.00    -0.229 OA
ENDBRANCH  14  17
ENDBRANCH   9  10
BRANCH   8  24
ATOM     24  C   UNL A   1      34.107  25.115  25.796  1.00  0.00     0.121 A 
ATOM     25  N   UNL A   1      35.375  25.054  25.451  1.00  0.00    -0.236 NA
ATOM     26  S   UNL A   1      33.492  23.659  26.492  1.00  0.00    -0.114 S 
ATOM     27  C   UNL A   1      35.766  23.728  25.350  1.00  0.00     0.082 A 
ATOM     28  C   UNL A   1      34.857  22.805  25.869  1.00  0.00     0.055 A 
ATOM     29  C   UNL A   1      36.937  23.255  24.727  1.00  0.00     0.030 A 
ATOM     30  C   UNL A   1      35.079  21.420  25.797  1.00  0.00     0.021 A 
ATOM     31  C   UNL A   1      37.132  21.877  24.585  1.00  0.00     0.002 A 
ATOM     32  C   UNL A   1      36.216  20.974  25.115  1.00  0.00     0.002 A 
ENDBRANCH   8  24
ENDBRANCH   7   8
ENDBRANCH   4   7
ENDBRANCH   2   3
ENDBRANCH   1   2
BRANCH   1  33
ATOM     33  C   UNL A   1      32.488  32.096  27.395  1.00  0.00     0.118 C 
BRANCH  33  34
ATOM     34  N   UNL A   1      32.249  33.532  27.591  1.00  0.00    -0.352 N 
ATOM     35  C   UNL A   1      32.949  34.422  28.382  1.00  0.00     0.251 C 
ATOM     36  H   UNL A   1      31.489  33.910  27.093  1.00  0.00     0.163 HD
ATOM     37  O   UNL A   1      32.464  35.502  28.695  1.00  0.00    -0.269 OA
BRANCH  35  38
ATOM     38  C   UNL A   1      34.290  34.035  28.845  1.00  0.00     0.039 A 
ATOM     39  C   UNL A   1      34.490  33.475  30.110  1.00  0.00     0.014 A 
ATOM     40  C   UNL A   1      35.331  34.140  27.932  1.00  0.00     0.014 A 
ATOM     41  C   UNL A   1      35.736  32.926  30.413  1.00  0.00     0.010 A 
ATOM     42  C   UNL A   1      36.488  33.443  28.167  1.00  0.00     0.010 A 
ATOM     43  C   UNL A   1      36.730  32.888  29.425  1.00  0.00    -0.014 A 
BRANCH  43  44
ATOM     44  C   UNL A   1      38.008  32.218  29.658  1.00  0.00     0.031 A 
ATOM     45  C   UNL A   1      38.143  30.817  29.163  1.00  0.00     0.074 A 
ATOM     46  C   UNL A   1      39.102  32.897  30.069  1.00  0.00     0.049 A 
ATOM     47  N   UNL A   1      38.368  29.749  29.859  1.00  0.00    -0.248 NA
ATOM     48  C   UNL A   1      37.939  30.558  27.730  1.00  0.00     0.031 C 
ATOM     49  C   UNL A   1      39.234  34.345  30.298  1.00  0.00     0.029 A 
ATOM     50  N   UNL A   1      40.383  32.456  30.200  1.00  0.00    -0.354 N 
ATOM     51  C   UNL A   1      38.554  28.719  28.935  1.00  0.00     0.074 A 
ATOM     52  C   UNL A   1      38.116  29.237  27.665  1.00  0.00     0.031 C 
ATOM     53  C   UNL A   1      40.535  34.691  30.234  1.00  0.00     0.029 A 
ATOM     54  C   UNL A   1      41.323  33.479  30.190  1.00  0.00     0.049 A 
ATOM     55  H   UNL A   1      40.620  31.506  30.292  1.00  0.00     0.167 HD
ATOM     56  C   UNL A   1      39.265  27.596  29.242  1.00  0.00     0.034 A 
ATOM     57  C   UNL A   1      42.665  33.349  30.123  1.00  0.00     0.034 A 
ATOM     58  C   UNL A   1      39.503  27.483  30.657  1.00  0.00     0.049 A 
ATOM     59  C   UNL A   1      42.994  31.991  30.602  1.00  0.00     0.074 A 
ATOM     60  C   UNL A   1      38.723  27.384  31.790  1.00  0.00     0.029 A 
ATOM     61  N   UNL A   1      40.763  27.809  31.093  1.00  0.00    -0.354 N 
ATOM     62  N   UNL A   1      42.772  31.585  31.822  1.00  0.00    -0.248 NA
ATOM     63  C   UNL A   1      43.216  30.940  29.625  1.00  0.00     0.031 C 
ATOM     64  C   UNL A   1      39.437  28.107  32.792  1.00  0.00     0.029 A 
ATOM     65  C   UNL A   1      40.625  28.573  32.220  1.00  0.00     0.049 A 
ATOM     66  H   UNL A   1      41.611  27.543  30.671  1.00  0.00     0.167 HD
ATOM     67  C   UNL A   1      42.381  30.260  31.682  1.00  0.00     0.074 A 
ATOM     68  C   UNL A   1      42.824  29.883  30.342  1.00  0.00     0.031 C 
ATOM     69  C   UNL A   1      41.485  29.693  32.545  1.00  0.00     0.034 A 
BRANCH  56  70
ATOM     70  C   UNL A   1      40.066  26.762  28.263  1.00  0.00     0.023 A 
ATOM     71  C   UNL A   1      39.992  25.354  28.394  1.00  0.00     0.012 A 
ATOM     72  C   UNL A   1      41.087  27.269  27.429  1.00  0.00     0.148 A 
ATOM     73  C   UNL A   1      40.913  24.503  27.771  1.00  0.00     0.002 A 
ATOM     74  C   UNL A   1      41.949  26.414  26.746  1.00  0.00     0.091 A 
ATOM     75  F   UNL A   1      41.329  28.583  27.391  1.00  0.00    -0.205 F 
ATOM     76  C   UNL A   1      41.889  25.033  26.939  1.00  0.00     0.022 A 
BRANCH  74  77
ATOM     77  S   UNL A   1      43.186  27.056  25.613  1.00  0.00     0.127 S 
ATOM     78  O   UNL A   1      44.078  27.767  26.522  1.00  0.00    -0.237 OA
ATOM     79  O   UNL A   1      43.738  25.829  25.035  1.00  0.00    -0.237 OA
ATOM     80  O   UNL A   1      42.439  27.873  24.663  1.00  0.00    -0.744 OA
ENDBRANCH  74  77
ENDBRANCH  56  70
BRANCH  57  81
ATOM     81  C   UNL A   1      43.642  34.256  29.493  1.00  0.00     0.023 A 
ATOM     82  C   UNL A   1      44.295  35.236  30.259  1.00  0.00     0.012 A 
ATOM     83  C   UNL A   1      44.109  34.002  28.181  1.00  0.00     0.148 A 
ATOM     84  C   UNL A   1      45.396  35.931  29.743  1.00  0.00     0.002 A 
ATOM     85  C   UNL A   1      45.202  34.697  27.673  1.00  0.00     0.091 A 
ATOM     86  F   UNL A   1      43.527  33.026  27.471  1.00  0.00    -0.205 F 
ATOM     87  C   UNL A   1      45.853  35.657  28.457  1.00  0.00     0.022 A 
BRANCH  85  88
ATOM     88  S   UNL A   1      45.876  34.380  26.036  1.00  0.00     0.127 S 
ATOM     89  O   UNL A   1      44.722  34.653  25.179  1.00  0.00    -0.237 OA
ATOM     90  O   UNL A   1      46.947  35.369  25.954  1.00  0.00    -0.237 OA
ATOM     91  O   UNL A   1      46.305  32.989  26.048  1.00  0.00    -0.744 OA
ENDBRANCH  85  88
ENDBRANCH  57  81
BRANCH  69  92
ATOM     92  C   UNL A   1      41.130  30.453  33.804  1.00  0.00     0.023 A 
ATOM     93  C   UNL A   1      42.029  30.551  34.887  1.00  0.00     0.012 A 
ATOM     94  C   UNL A   1      39.966  31.241  33.820  1.00  0.00     0.148 A 
ATOM     95  C   UNL A   1      41.767  31.394  35.970  1.00  0.00     0.002 A 
ATOM     96  C   UNL A   1      39.730  32.112  34.879  1.00  0.00     0.091 A 
ATOM     97  F   UNL A   1      39.128  31.154  32.776  1.00  0.00    -0.205 F 
ATOM     98  C   UNL A   1      40.623  32.184  35.960  1.00  0.00     0.022 A 
BRANCH  96  99
ATOM     99  S   UNL A   1      38.344  33.254  34.877  1.00  0.00     0.127 S 
ATOM    100  O   UNL A   1      38.606  34.055  36.070  1.00  0.00    -0.237 OA
ATOM    101  O   UNL A   1      38.528  33.967  33.611  1.00  0.00    -0.237 OA
ATOM    102  O   UNL A   1      37.144  32.430  34.927  1.00  0.00    -0.744 OA
ENDBRANCH  96  99
ENDBRANCH  69  92
ENDBRANCH  43  44
ENDBRANCH  35  38
ENDBRANCH  33  34
ENDBRANCH   1  33
TORSDOF 17
ENDMDL
MODEL 3
REMARK VINA RESULT:     -13.8      3.016      7.200
REMARK SMILES Cc1nn([C@H]2CCS(=O)(=O)C2)c(C)c1/C=C(\CC(=O)NCCCNC(=O)c1ccc(-c2c3nc(c(-c4cccc(S(=O)(=O)[O-])c4F)c4ccc([nH]4)c(-c4cccc(S(=O)(=O)[O-])c4F)c4nc(c(-c5cccc(S(=O)(=O)[O-])c5F)c5ccc2[nH]5)C=C4)C=C3)cc1)c1nc2ccccc2s1
REMARK SMILES IDX 22 1 21 2 20 3 18 4 19 5 17 7 16 8 15 9 14 10 1 11 2 12 3 13
REMARK SMILES IDX 4 14 12 15 13 16 5 17 6 18 11 19 7 20 8 21 9 22 10 23 90 24
REMARK SMILES IDX 91 25 98 26 92 27 97 28 93 29 96 30 94 31 95 32 23 33 24 34
REMARK SMILES IDX 25 35 26 37 27 38 28 39 89 40 29 41 88 42 30 43 31 44 32 45
REMARK SMILES IDX 82 46 33 47 87 48 81 49 83 50 34 51 86 52 80 53 79 54 35 56
REMARK SMILES IDX 67 57 47 58 66 59 48 60 51 61 65 62 84 63 49 64 50 65 64 67
REMARK SMILES IDX 85 68 52 69 36 70 37 71 45 72 38 73 40 74 46 75 39 76 41 77
REMARK SMILES IDX 42 78 43 79 44 80 68 81 69 82 77 83 70 84 72 85 78 86 71 87
REMARK SMILES IDX 73 88 74 89 75 90 76 91 53 92 54 93 62 94 55 95 57 96 63 97
REMARK SMILES IDX 56 98 58 99 59 100 60 101 61 102
REMARK H PARENT 20 6 24 36 83 55 51 66
REMARK Flexibility Score: inf
ROOT
ATOM      1  C   UNL A   1      36.930  21.161  24.969  1.00  0.00     0.042 C 
ENDROOT
BRANCH   1   2
ATOM      2  C   UNL A   1      36.117  22.445  25.138  1.00  0.00     0.117 C 
BRANCH   2   3
ATOM      3  N   UNL A   1      35.546  22.925  23.899  1.00  0.00    -0.356 N 
ATOM      4  C   UNL A   1      34.605  23.890  23.694  1.00  0.00     0.224 C 
ATOM      5  O   UNL A   1      34.320  24.185  22.535  1.00  0.00    -0.275 OA
ATOM      6  H   UNL A   1      35.888  22.490  23.084  1.00  0.00     0.163 HD
BRANCH   4   7
ATOM      7  C   UNL A   1      34.070  24.700  24.863  1.00  0.00     0.138 C 
BRANCH   7   8
ATOM      8  C   UNL A   1      32.633  24.470  25.267  1.00  0.00    -0.002 C 
ATOM      9  C   UNL A   1      32.081  23.284  25.622  1.00  0.00     0.019 C 
BRANCH   9  10
ATOM     10  C   UNL A   1      32.598  21.939  25.597  1.00  0.00     0.019 A 
ATOM     11  C   UNL A   1      33.779  21.978  27.956  1.00  0.00     0.069 C 
ATOM     12  C   UNL A   1      33.330  21.367  26.679  1.00  0.00     0.067 A 
ATOM     13  N   UNL A   1      33.599  20.082  26.463  1.00  0.00    -0.177 NA
ATOM     14  N   UNL A   1      32.992  19.797  25.297  1.00  0.00    -0.265 N 
ATOM     15  C   UNL A   1      32.575  20.930  24.633  1.00  0.00     0.043 A 
ATOM     16  C   UNL A   1      32.220  20.924  23.189  1.00  0.00     0.067 C 
BRANCH  14  17
ATOM     17  C   UNL A   1      32.903  18.380  25.008  1.00  0.00     0.123 C 
ATOM     18  C   UNL A   1      33.697  18.021  23.728  1.00  0.00     0.044 C 
ATOM     19  C   UNL A   1      33.366  17.337  26.018  1.00  0.00     0.164 C 
ATOM     20  C   UNL A   1      33.404  16.553  23.461  1.00  0.00     0.139 C 
ATOM     21  S   UNL A   1      33.271  15.814  25.082  1.00  0.00     0.152 S 
ATOM     22  O   UNL A   1      31.921  15.282  25.226  1.00  0.00    -0.229 OA
ATOM     23  O   UNL A   1      34.439  15.018  25.344  1.00  0.00    -0.229 OA
ENDBRANCH  14  17
ENDBRANCH   9  10
BRANCH   8  24
ATOM     24  C   UNL A   1      31.766  25.622  25.232  1.00  0.00     0.121 A 
ATOM     25  N   UNL A   1      30.506  25.574  24.857  1.00  0.00    -0.236 NA
ATOM     26  S   UNL A   1      32.382  27.222  25.440  1.00  0.00    -0.114 S 
ATOM     27  C   UNL A   1      30.131  26.800  24.328  1.00  0.00     0.082 A 
ATOM     28  C   UNL A   1      31.040  27.837  24.545  1.00  0.00     0.055 A 
ATOM     29  C   UNL A   1      28.980  27.053  23.559  1.00  0.00     0.030 A 
ATOM     30  C   UNL A   1      30.835  29.127  24.028  1.00  0.00     0.021 A 
ATOM     31  C   UNL A   1      28.802  28.313  22.979  1.00  0.00     0.002 A 
ATOM     32  C   UNL A   1      29.717  29.334  23.213  1.00  0.00     0.002 A 
ENDBRANCH   8  24
ENDBRANCH   7   8
ENDBRANCH   4   7
ENDBRANCH   2   3
ENDBRANCH   1   2
BRANCH   1  33
ATOM     33  C   UNL A   1      38.418  21.370  25.207  1.00  0.00     0.118 C 
BRANCH  33  34
ATOM     34  N   UNL A   1      39.124  20.104  25.444  1.00  0.00    -0.352 N 
ATOM     35  C   UNL A   1      40.411  19.908  25.907  1.00  0.00     0.251 C 
ATOM     36  H   UNL A   1      38.613  19.286  25.246  1.00  0.00     0.163 HD
ATOM     37  O   UNL A   1      40.975  18.830  25.763  1.00  0.00    -0.269 OA
BRANCH  35  38
ATOM     38  C   UNL A   1      41.089  21.030  26.572  1.00  0.00     0.039 A 
ATOM     39  C   UNL A   1      41.888  21.926  25.855  1.00  0.00     0.014 A 
ATOM     40  C   UNL A   1      40.810  21.234  27.917  1.00  0.00     0.014 A 
ATOM     41  C   UNL A   1      42.325  23.090  26.485  1.00  0.00     0.010 A 
ATOM     42  C   UNL A   1      41.088  22.457  28.471  1.00  0.00     0.010 A 
ATOM     43  C   UNL A   1      41.900  23.367  27.792  1.00  0.00    -0.014 A 
BRANCH  43  44
ATOM     44  C   UNL A   1      42.235  24.628  28.451  1.00  0.00     0.031 A 
ATOM     45  C   UNL A   1      41.289  25.767  28.262  1.00  0.00     0.074 A 
ATOM     46  C   UNL A   1      43.207  24.705  29.387  1.00  0.00     0.049 A 
ATOM     47  N   UNL A   1      41.531  26.914  27.712  1.00  0.00    -0.248 NA
ATOM     48  C   UNL A   1      39.889  25.591  28.675  1.00  0.00     0.031 C 
ATOM     49  C   UNL A   1      44.026  23.611  29.931  1.00  0.00     0.029 A 
ATOM     50  N   UNL A   1      43.547  25.757  30.181  1.00  0.00    -0.354 N 
ATOM     51  C   UNL A   1      40.382  27.683  27.905  1.00  0.00     0.074 A 
ATOM     52  C   UNL A   1      39.359  26.771  28.347  1.00  0.00     0.031 C 
ATOM     53  C   UNL A   1      44.522  23.977  31.130  1.00  0.00     0.029 A 
ATOM     54  C   UNL A   1      44.246  25.383  31.322  1.00  0.00     0.049 A 
ATOM     55  H   UNL A   1      43.319  26.690  29.968  1.00  0.00     0.167 HD
ATOM     56  C   UNL A   1      40.419  29.046  27.905  1.00  0.00     0.034 A 
ATOM     57  C   UNL A   1      44.561  26.167  32.376  1.00  0.00     0.034 A 
ATOM     58  C   UNL A   1      41.666  29.548  27.387  1.00  0.00     0.049 A 
ATOM     59  C   UNL A   1      44.531  27.565  31.901  1.00  0.00     0.074 A 
ATOM     60  C   UNL A   1      42.353  29.458  26.196  1.00  0.00     0.029 A 
ATOM     61  N   UNL A   1      42.570  30.010  28.312  1.00  0.00    -0.354 N 
ATOM     62  N   UNL A   1      45.347  28.036  30.997  1.00  0.00    -0.248 NA
ATOM     63  C   UNL A   1      43.339  28.360  32.140  1.00  0.00     0.031 C 
ATOM     64  C   UNL A   1      43.731  29.422  26.568  1.00  0.00     0.029 A 
ATOM     65  C   UNL A   1      43.801  29.528  27.961  1.00  0.00     0.049 A 
ATOM     66  H   UNL A   1      42.368  30.582  29.086  1.00  0.00     0.167 HD
ATOM     67  C   UNL A   1      44.572  28.912  30.251  1.00  0.00     0.074 A 
ATOM     68  C   UNL A   1      43.408  29.185  31.091  1.00  0.00     0.031 C 
ATOM     69  C   UNL A   1      44.803  29.100  28.917  1.00  0.00     0.034 A 
BRANCH  56  70
ATOM     70  C   UNL A   1      39.496  29.957  28.689  1.00  0.00     0.023 A 
ATOM     71  C   UNL A   1      39.853  30.251  30.027  1.00  0.00     0.012 A 
ATOM     72  C   UNL A   1      38.184  30.298  28.292  1.00  0.00     0.148 A 
ATOM     73  C   UNL A   1      38.940  30.806  30.932  1.00  0.00     0.002 A 
ATOM     74  C   UNL A   1      37.307  30.925  29.173  1.00  0.00     0.091 A 
ATOM     75  F   UNL A   1      37.718  29.899  27.105  1.00  0.00    -0.205 F 
ATOM     76  C   UNL A   1      37.667  31.152  30.503  1.00  0.00     0.022 A 
BRANCH  74  77
ATOM     77  S   UNL A   1      35.671  31.444  28.641  1.00  0.00     0.127 S 
ATOM     78  O   UNL A   1      35.106  31.958  29.884  1.00  0.00    -0.237 OA
ATOM     79  O   UNL A   1      35.986  32.462  27.636  1.00  0.00    -0.237 OA
ATOM     80  O   UNL A   1      35.055  30.243  28.092  1.00  0.00    -0.744 OA
ENDBRANCH  74  77
ENDBRANCH  56  70
BRANCH  57  81
ATOM     81  C   UNL A   1      44.692  25.784  33.794  1.00  0.00     0.023 A 
ATOM     82  C   UNL A   1      45.948  25.443  34.322  1.00  0.00     0.012 A 
ATOM     83  C   UNL A   1      43.614  25.984  34.690  1.00  0.00     0.148 A 
ATOM     84  C   UNL A   1      46.134  25.323  35.705  1.00  0.00     0.002 A 
ATOM     85  C   UNL A   1      43.805  25.862  36.062  1.00  0.00     0.091 A 
ATOM     86  F   UNL A   1      42.431  26.369  34.193  1.00  0.00    -0.205 F 
ATOM     87  C   UNL A   1      45.067  25.540  36.573  1.00  0.00     0.022 A 
BRANCH  85  88
ATOM     88  S   UNL A   1      42.489  26.158  37.252  1.00  0.00     0.127 S 
ATOM     89  O   UNL A   1      43.216  26.111  38.521  1.00  0.00    -0.237 OA
ATOM     90  O   UNL A   1      42.023  27.487  36.863  1.00  0.00    -0.237 OA
ATOM     91  O   UNL A   1      41.533  25.077  37.062  1.00  0.00    -0.744 OA
ENDBRANCH  85  88
ENDBRANCH  57  81
BRANCH  69  92
ATOM     92  C   UNL A   1      46.077  28.537  28.329  1.00  0.00     0.023 A 
ATOM     93  C   UNL A   1      47.310  29.211  28.454  1.00  0.00     0.012 A 
ATOM     94  C   UNL A   1      46.074  27.226  27.822  1.00  0.00     0.148 A 
ATOM     95  C   UNL A   1      48.508  28.607  28.064  1.00  0.00     0.002 A 
ATOM     96  C   UNL A   1      47.272  26.611  27.474  1.00  0.00     0.091 A 
ATOM     97  F   UNL A   1      44.899  26.587  27.725  1.00  0.00    -0.205 F 
ATOM     98  C   UNL A   1      48.490  27.301  27.585  1.00  0.00     0.022 A 
BRANCH  96  99
ATOM     99  S   UNL A   1      47.345  24.889  26.971  1.00  0.00     0.127 S 
ATOM    100  O   UNL A   1      46.483  24.244  27.959  1.00  0.00    -0.237 OA
ATOM    101  O   UNL A   1      46.791  24.935  25.616  1.00  0.00    -0.237 OA
ATOM    102  O   UNL A   1      48.751  24.512  27.027  1.00  0.00    -0.744 OA
ENDBRANCH  96  99
ENDBRANCH  69  92
ENDBRANCH  43  44
ENDBRANCH  35  38
ENDBRANCH  33  34
ENDBRANCH   1  33
TORSDOF 17
ENDMDL
