MODEL 1
REMARK VINA RESULT:     -10.3      0.000      0.000
REMARK SMILES C[C@H]1CC[C@](C#N)([C@H](O)C(=O)NCCCNC(=O)c2ccc(-c3c4nc(c(-c5cccc(S(=O)(=O)[O-])c5F)c5ccc([nH]5)c(-c5cccc(S(=O)(=O)[O-])c5F)c5nc(c(-c6cccc(S(=O)(=O)[O-])c6F)c6ccc3[nH]6)C=C5)C=C4)cc2)C1
REMARK SMILES IDX 14 1 13 2 12 3 10 4 11 5 8 7 5 8 1 9 2 10 3 11 82 12 4 13
REMARK SMILES IDX 6 14 7 15 9 16 15 18 16 19 17 20 18 22 19 23 20 24 81 25
REMARK SMILES IDX 21 26 80 27 22 28 23 29 24 30 74 31 25 32 79 33 73 34 75 35
REMARK SMILES IDX 26 36 78 37 72 38 71 39 27 41 59 42 39 43 58 44 40 45 43 46
REMARK SMILES IDX 57 47 76 48 41 49 42 50 56 52 77 53 44 54 28 55 29 56 37 57
REMARK SMILES IDX 30 58 32 59 38 60 31 61 33 62 34 63 35 64 36 65 60 66 61 67
REMARK SMILES IDX 69 68 62 69 64 70 70 71 63 72 65 73 66 74 67 75 68 76 45 77
REMARK SMILES IDX 46 78 54 79 47 80 49 81 55 82 48 83 50 84 51 85 52 86 53 87
REMARK H PARENT 12 6 9 17 16 21 75 40 43 51
REMARK Flexibility Score: inf
ROOT
ATOM      1  C   UNL A   1      36.050  33.602  29.691  1.00  0.00     0.042 C 
ENDROOT
BRANCH   1   2
ATOM      2  C   UNL A   1      34.788  34.181  30.290  1.00  0.00     0.117 C 
BRANCH   2   3
ATOM      3  N   UNL A   1      34.223  33.402  31.370  1.00  0.00    -0.354 N 
ATOM      4  C   UNL A   1      34.131  33.648  32.705  1.00  0.00     0.250 C 
ATOM      5  O   UNL A   1      33.143  33.151  33.263  1.00  0.00    -0.272 OA
ATOM      6  H   UNL A   1      33.835  32.542  31.089  1.00  0.00     0.163 HD
BRANCH   4   7
ATOM      7  C   UNL A   1      35.250  34.297  33.581  1.00  0.00     0.223 C 
BRANCH   7   8
ATOM      8  C   UNL A   1      36.515  33.506  33.953  1.00  0.00     0.092 C 
ATOM      9  C   UNL A   1      38.154  31.520  36.034  1.00  0.00     0.008 C 
ATOM     10  C   UNL A   1      38.195  33.007  35.683  1.00  0.00    -0.013 C 
ATOM     11  C   UNL A   1      38.910  33.353  34.366  1.00  0.00     0.005 C 
ATOM     12  C   UNL A   1      36.794  33.567  35.477  1.00  0.00     0.029 C 
ATOM     13  C   UNL A   1      37.866  34.092  33.488  1.00  0.00     0.026 C 
BRANCH   8  14
ATOM     14  C   UNL A   1      36.434  32.187  33.278  1.00  0.00     0.072 C 
ATOM     15  N   UNL A   1      36.381  31.171  32.714  1.00  0.00    -0.198 NA
ENDBRANCH   8  14
ENDBRANCH   7   8
BRANCH   7  16
ATOM     16  O   UNL A   1      34.617  34.842  34.750  1.00  0.00    -0.382 OA
ATOM     17  H   UNL A   1      35.196  34.718  35.519  1.00  0.00     0.211 HD
ENDBRANCH   7  16
ENDBRANCH   4   7
ENDBRANCH   2   3
ENDBRANCH   1   2
BRANCH   1  18
ATOM     18  C   UNL A   1      35.911  33.431  28.193  1.00  0.00     0.118 C 
BRANCH  18  19
ATOM     19  N   UNL A   1      34.809  32.540  27.807  1.00  0.00    -0.352 N 
ATOM     20  C   UNL A   1      34.747  31.173  27.675  1.00  0.00     0.251 C 
ATOM     21  H   UNL A   1      33.964  33.004  27.606  1.00  0.00     0.163 HD
ATOM     22  O   UNL A   1      33.741  30.650  27.206  1.00  0.00    -0.269 OA
BRANCH  20  23
ATOM     23  C   UNL A   1      35.903  30.350  28.068  1.00  0.00     0.039 A 
ATOM     24  C   UNL A   1      37.042  30.330  27.262  1.00  0.00     0.014 A 
ATOM     25  C   UNL A   1      35.877  29.648  29.268  1.00  0.00     0.014 A 
ATOM     26  C   UNL A   1      38.189  29.686  27.724  1.00  0.00     0.010 A 
ATOM     27  C   UNL A   1      37.061  29.179  29.802  1.00  0.00     0.010 A 
ATOM     28  C   UNL A   1      38.224  29.163  29.026  1.00  0.00    -0.014 A 
BRANCH  28  29
ATOM     29  C   UNL A   1      39.453  28.570  29.604  1.00  0.00     0.031 A 
ATOM     30  C   UNL A   1      40.090  29.210  30.811  1.00  0.00     0.074 A 
ATOM     31  C   UNL A   1      40.049  27.534  28.981  1.00  0.00     0.049 A 
ATOM     32  N   UNL A   1      41.215  28.908  31.402  1.00  0.00    -0.248 NA
ATOM     33  C   UNL A   1      39.400  30.372  31.404  1.00  0.00     0.031 C 
ATOM     34  C   UNL A   1      39.577  26.899  27.746  1.00  0.00     0.029 A 
ATOM     35  N   UNL A   1      41.197  26.849  29.284  1.00  0.00    -0.354 N 
ATOM     36  C   UNL A   1      41.390  29.871  32.389  1.00  0.00     0.074 A 
ATOM     37  C   UNL A   1      40.288  30.796  32.288  1.00  0.00     0.031 C 
ATOM     38  C   UNL A   1      40.416  25.906  27.412  1.00  0.00     0.029 A 
ATOM     39  C   UNL A   1      41.511  25.867  28.375  1.00  0.00     0.049 A 
ATOM     40  H   UNL A   1      41.745  27.042  30.079  1.00  0.00     0.167 HD
ATOM     41  C   UNL A   1      42.366  29.956  33.321  1.00  0.00     0.034 A 
ATOM     42  C   UNL A   1      42.572  25.040  28.312  1.00  0.00     0.034 A 
ATOM     43  C   UNL A   1      43.425  28.997  33.449  1.00  0.00     0.049 A 
ATOM     44  C   UNL A   1      43.614  25.125  29.392  1.00  0.00     0.074 A 
ATOM     45  C   UNL A   1      44.398  28.921  34.427  1.00  0.00     0.029 A 
ATOM     46  N   UNL A   1      43.659  27.958  32.563  1.00  0.00    -0.354 N 
ATOM     47  N   UNL A   1      43.672  25.937  30.420  1.00  0.00    -0.248 NA
ATOM     48  C   UNL A   1      44.721  24.160  29.325  1.00  0.00     0.031 C 
ATOM     49  C   UNL A   1      45.255  27.866  34.103  1.00  0.00     0.029 A 
ATOM     50  C   UNL A   1      44.779  27.250  32.955  1.00  0.00     0.049 A 
ATOM     51  H   UNL A   1      43.110  27.755  31.772  1.00  0.00     0.167 HD
ATOM     52  C   UNL A   1      44.800  25.560  31.141  1.00  0.00     0.074 A 
ATOM     53  C   UNL A   1      45.380  24.431  30.443  1.00  0.00     0.031 C 
ATOM     54  C   UNL A   1      45.316  26.104  32.269  1.00  0.00     0.034 A 
BRANCH  41  55
ATOM     55  C   UNL A   1      42.317  31.106  34.292  1.00  0.00     0.023 A 
ATOM     56  C   UNL A   1      41.846  30.905  35.605  1.00  0.00     0.012 A 
ATOM     57  C   UNL A   1      42.799  32.374  33.917  1.00  0.00     0.148 A 
ATOM     58  C   UNL A   1      41.824  31.958  36.520  1.00  0.00     0.002 A 
ATOM     59  C   UNL A   1      42.826  33.402  34.848  1.00  0.00     0.091 A 
ATOM     60  F   UNL A   1      43.218  32.550  32.655  1.00  0.00    -0.205 F 
ATOM     61  C   UNL A   1      42.327  33.201  36.146  1.00  0.00     0.022 A 
BRANCH  59  62
ATOM     62  S   UNL A   1      43.532  35.013  34.491  1.00  0.00     0.127 S 
ATOM     63  O   UNL A   1      44.880  34.654  34.052  1.00  0.00    -0.237 OA
ATOM     64  O   UNL A   1      42.654  35.502  33.427  1.00  0.00    -0.237 OA
ATOM     65  O   UNL A   1      43.466  35.769  35.734  1.00  0.00    -0.744 OA
ENDBRANCH  59  62
ENDBRANCH  41  55
BRANCH  42  66
ATOM     66  C   UNL A   1      42.686  24.047  27.208  1.00  0.00     0.023 A 
ATOM     67  C   UNL A   1      43.389  24.382  26.033  1.00  0.00     0.012 A 
ATOM     68  C   UNL A   1      42.113  22.767  27.321  1.00  0.00     0.148 A 
ATOM     69  C   UNL A   1      43.479  23.476  24.975  1.00  0.00     0.002 A 
ATOM     70  C   UNL A   1      42.259  21.847  26.291  1.00  0.00     0.091 A 
ATOM     71  F   UNL A   1      41.445  22.468  28.444  1.00  0.00    -0.205 F 
ATOM     72  C   UNL A   1      42.923  22.206  25.107  1.00  0.00     0.022 A 
BRANCH  70  73
ATOM     73  S   UNL A   1      41.692  20.149  26.431  1.00  0.00     0.127 S 
ATOM     74  O   UNL A   1      40.247  20.304  26.290  1.00  0.00    -0.237 OA
ATOM     75  O   UNL A   1      42.359  19.516  25.292  1.00  0.00    -0.237 OA
ATOM     76  O   UNL A   1      42.155  19.683  27.731  1.00  0.00    -0.744 OA
ENDBRANCH  70  73
ENDBRANCH  42  66
BRANCH  54  77
ATOM     77  C   UNL A   1      46.544  25.462  32.855  1.00  0.00     0.023 A 
ATOM     78  C   UNL A   1      47.824  25.947  32.522  1.00  0.00     0.012 A 
ATOM     79  C   UNL A   1      46.417  24.427  33.802  1.00  0.00     0.148 A 
ATOM     80  C   UNL A   1      48.963  25.384  33.096  1.00  0.00     0.002 A 
ATOM     81  C   UNL A   1      47.552  23.912  34.413  1.00  0.00     0.091 A 
ATOM     82  F   UNL A   1      45.190  23.973  34.093  1.00  0.00    -0.205 F 
ATOM     83  C   UNL A   1      48.826  24.378  34.051  1.00  0.00     0.022 A 
BRANCH  81  84
ATOM     84  S   UNL A   1      47.467  22.690  35.725  1.00  0.00     0.127 S 
ATOM     85  O   UNL A   1      46.759  21.594  35.065  1.00  0.00    -0.237 OA
ATOM     86  O   UNL A   1      48.882  22.428  35.992  1.00  0.00    -0.237 OA
ATOM     87  O   UNL A   1      46.749  23.321  36.823  1.00  0.00    -0.744 OA
ENDBRANCH  81  84
ENDBRANCH  54  77
ENDBRANCH  28  29
ENDBRANCH  20  23
ENDBRANCH  18  19
ENDBRANCH   1  18
TORSDOF 16
ENDMDL
MODEL 2
REMARK VINA RESULT:     -10.1      5.772     10.177
REMARK SMILES C[C@H]1CC[C@](C#N)([C@H](O)C(=O)NCCCNC(=O)c2ccc(-c3c4nc(c(-c5cccc(S(=O)(=O)[O-])c5F)c5ccc([nH]5)c(-c5cccc(S(=O)(=O)[O-])c5F)c5nc(c(-c6cccc(S(=O)(=O)[O-])c6F)c6ccc3[nH]6)C=C5)C=C4)cc2)C1
REMARK SMILES IDX 14 1 13 2 12 3 10 4 11 5 8 7 5 8 1 9 2 10 3 11 82 12 4 13
REMARK SMILES IDX 6 14 7 15 9 16 15 18 16 19 17 20 18 22 19 23 20 24 81 25
REMARK SMILES IDX 21 26 80 27 22 28 23 29 24 30 74 31 25 32 79 33 73 34 75 35
REMARK SMILES IDX 26 36 78 37 72 38 71 39 27 41 59 42 39 43 58 44 40 45 43 46
REMARK SMILES IDX 57 47 76 48 41 49 42 50 56 52 77 53 44 54 28 55 29 56 37 57
REMARK SMILES IDX 30 58 32 59 38 60 31 61 33 62 34 63 35 64 36 65 60 66 61 67
REMARK SMILES IDX 69 68 62 69 64 70 70 71 63 72 65 73 66 74 67 75 68 76 45 77
REMARK SMILES IDX 46 78 54 79 47 80 49 81 55 82 48 83 50 84 51 85 52 86 53 87
REMARK H PARENT 12 6 9 17 16 21 75 40 43 51
REMARK Flexibility Score: inf
ROOT
ATOM      1  C   UNL A   1      36.889  19.732  24.928  1.00  0.00     0.042 C 
ENDROOT
BRANCH   1   2
ATOM      2  C   UNL A   1      35.744  20.714  24.822  1.00  0.00     0.117 C 
BRANCH   2   3
ATOM      3  N   UNL A   1      35.265  21.217  26.091  1.00  0.00    -0.354 N 
ATOM      4  C   UNL A   1      34.011  21.510  26.528  1.00  0.00     0.250 C 
ATOM      5  O   UNL A   1      33.827  21.350  27.743  1.00  0.00    -0.272 OA
ATOM      6  H   UNL A   1      35.973  21.375  26.757  1.00  0.00     0.163 HD
BRANCH   4   7
ATOM      7  C   UNL A   1      32.902  22.212  25.679  1.00  0.00     0.223 C 
BRANCH   7   8
ATOM      8  C   UNL A   1      32.933  23.733  25.449  1.00  0.00     0.092 C 
ATOM      9  C   UNL A   1      32.240  26.370  23.572  1.00  0.00     0.008 C 
ATOM     10  C   UNL A   1      33.498  25.569  23.909  1.00  0.00    -0.013 C 
ATOM     11  C   UNL A   1      34.111  25.858  25.290  1.00  0.00     0.005 C 
ATOM     12  C   UNL A   1      33.207  24.075  23.962  1.00  0.00     0.029 C 
ATOM     13  C   UNL A   1      34.131  24.504  26.047  1.00  0.00     0.026 C 
BRANCH   8  14
ATOM     14  C   UNL A   1      31.746  24.313  26.125  1.00  0.00     0.072 C 
ATOM     15  N   UNL A   1      30.826  24.747  26.689  1.00  0.00    -0.198 NA
ENDBRANCH   8  14
ENDBRANCH   7   8
BRANCH   7  16
ATOM     16  O   UNL A   1      31.632  21.793  26.205  1.00  0.00    -0.382 OA
ATOM     17  H   UNL A   1      31.089  22.574  26.398  1.00  0.00     0.211 HD
ENDBRANCH   7  16
ENDBRANCH   4   7
ENDBRANCH   2   3
ENDBRANCH   1   2
BRANCH   1  18
ATOM     18  C   UNL A   1      38.188  20.446  25.242  1.00  0.00     0.118 C 
BRANCH  18  19
ATOM     19  N   UNL A   1      39.302  19.532  25.525  1.00  0.00    -0.352 N 
ATOM     20  C   UNL A   1      40.548  19.755  26.063  1.00  0.00     0.251 C 
ATOM     21  H   UNL A   1      39.126  18.593  25.288  1.00  0.00     0.163 HD
ATOM     22  O   UNL A   1      41.374  18.848  26.085  1.00  0.00    -0.269 OA
BRANCH  20  23
ATOM     23  C   UNL A   1      40.891  21.090  26.577  1.00  0.00     0.039 A 
ATOM     24  C   UNL A   1      41.797  21.212  27.631  1.00  0.00     0.014 A 
ATOM     25  C   UNL A   1      40.361  22.224  25.971  1.00  0.00     0.014 A 
ATOM     26  C   UNL A   1      42.245  22.480  27.999  1.00  0.00     0.010 A 
ATOM     27  C   UNL A   1      40.944  23.453  26.208  1.00  0.00     0.010 A 
ATOM     28  C   UNL A   1      41.870  23.603  27.246  1.00  0.00    -0.014 A 
BRANCH  28  29
ATOM     29  C   UNL A   1      42.406  24.956  27.525  1.00  0.00     0.031 A 
ATOM     30  C   UNL A   1      41.523  25.983  28.183  1.00  0.00     0.074 A 
ATOM     31  C   UNL A   1      43.638  25.287  27.088  1.00  0.00     0.049 A 
ATOM     32  N   UNL A   1      41.766  27.245  28.419  1.00  0.00    -0.248 NA
ATOM     33  C   UNL A   1      40.169  25.555  28.586  1.00  0.00     0.031 C 
ATOM     34  C   UNL A   1      44.543  24.403  26.347  1.00  0.00     0.029 A 
ATOM     35  N   UNL A   1      44.331  26.466  27.178  1.00  0.00    -0.354 N 
ATOM     36  C   UNL A   1      40.587  27.764  28.940  1.00  0.00     0.074 A 
ATOM     37  C   UNL A   1      39.612  26.701  28.940  1.00  0.00     0.031 C 
ATOM     38  C   UNL A   1      45.678  25.064  26.070  1.00  0.00     0.029 A 
ATOM     39  C   UNL A   1      45.562  26.431  26.566  1.00  0.00     0.049 A 
ATOM     40  H   UNL A   1      43.981  27.263  27.638  1.00  0.00     0.167 HD
ATOM     41  C   UNL A   1      40.348  29.009  29.410  1.00  0.00     0.034 A 
ATOM     42  C   UNL A   1      46.485  27.397  26.404  1.00  0.00     0.034 A 
ATOM     43  C   UNL A   1      41.343  30.042  29.459  1.00  0.00     0.049 A 
ATOM     44  C   UNL A   1      46.212  28.758  26.983  1.00  0.00     0.074 A 
ATOM     45  C   UNL A   1      41.243  31.301  30.021  1.00  0.00     0.029 A 
ATOM     46  N   UNL A   1      42.612  29.941  28.912  1.00  0.00    -0.354 N 
ATOM     47  N   UNL A   1      45.151  29.181  27.627  1.00  0.00    -0.248 NA
ATOM     48  C   UNL A   1      47.273  29.765  26.845  1.00  0.00     0.031 C 
ATOM     49  C   UNL A   1      42.436  31.982  29.766  1.00  0.00     0.029 A 
ATOM     50  C   UNL A   1      43.299  31.126  29.098  1.00  0.00     0.049 A 
ATOM     51  H   UNL A   1      42.970  29.144  28.459  1.00  0.00     0.167 HD
ATOM     52  C   UNL A   1      45.429  30.491  28.000  1.00  0.00     0.074 A 
ATOM     53  C   UNL A   1      46.769  30.781  27.530  1.00  0.00     0.031 C 
ATOM     54  C   UNL A   1      44.646  31.378  28.659  1.00  0.00     0.034 A 
BRANCH  41  55
ATOM     55  C   UNL A   1      38.971  29.313  29.935  1.00  0.00     0.023 A 
ATOM     56  C   UNL A   1      38.618  28.956  31.252  1.00  0.00     0.012 A 
ATOM     57  C   UNL A   1      38.044  30.012  29.138  1.00  0.00     0.148 A 
ATOM     58  C   UNL A   1      37.354  29.259  31.757  1.00  0.00     0.002 A 
ATOM     59  C   UNL A   1      36.808  30.360  29.664  1.00  0.00     0.091 A 
ATOM     60  F   UNL A   1      38.390  30.319  27.879  1.00  0.00    -0.205 F 
ATOM     61  C   UNL A   1      36.456  29.973  30.968  1.00  0.00     0.022 A 
BRANCH  59  62
ATOM     62  S   UNL A   1      35.616  31.352  28.761  1.00  0.00     0.127 S 
ATOM     63  O   UNL A   1      34.759  31.838  29.842  1.00  0.00    -0.237 OA
ATOM     64  O   UNL A   1      36.469  32.373  28.152  1.00  0.00    -0.237 OA
ATOM     65  O   UNL A   1      34.971  30.450  27.817  1.00  0.00    -0.744 OA
ENDBRANCH  59  62
ENDBRANCH  41  55
BRANCH  42  66
ATOM     66  C   UNL A   1      47.760  27.107  25.690  1.00  0.00     0.023 A 
ATOM     67  C   UNL A   1      48.828  26.498  26.380  1.00  0.00     0.012 A 
ATOM     68  C   UNL A   1      47.915  27.419  24.326  1.00  0.00     0.148 A 
ATOM     69  C   UNL A   1      50.040  26.248  25.735  1.00  0.00     0.002 A 
ATOM     70  C   UNL A   1      49.102  27.111  23.674  1.00  0.00     0.091 A 
ATOM     71  F   UNL A   1      46.890  28.002  23.689  1.00  0.00    -0.205 F 
ATOM     72  C   UNL A   1      50.174  26.546  24.381  1.00  0.00     0.022 A 
BRANCH  70  73
ATOM     73  S   UNL A   1      49.312  27.335  21.905  1.00  0.00     0.127 S 
ATOM     74  O   UNL A   1      50.728  27.021  21.730  1.00  0.00    -0.237 OA
ATOM     75  O   UNL A   1      48.388  26.338  21.364  1.00  0.00    -0.237 OA
ATOM     76  O   UNL A   1      48.932  28.715  21.633  1.00  0.00    -0.744 OA
ENDBRANCH  70  73
ENDBRANCH  42  66
BRANCH  54  77
ATOM     77  C   UNL A   1      45.226  32.734  28.960  1.00  0.00     0.023 A 
ATOM     78  C   UNL A   1      46.007  32.929  30.116  1.00  0.00     0.012 A 
ATOM     79  C   UNL A   1      45.060  33.792  28.045  1.00  0.00     0.148 A 
ATOM     80  C   UNL A   1      46.583  34.172  30.376  1.00  0.00     0.002 A 
ATOM     81  C   UNL A   1      45.686  35.009  28.281  1.00  0.00     0.091 A 
ATOM     82  F   UNL A   1      44.302  33.587  26.959  1.00  0.00    -0.205 F 
ATOM     83  C   UNL A   1      46.435  35.205  29.453  1.00  0.00     0.022 A 
BRANCH  81  84
ATOM     84  S   UNL A   1      45.637  36.361  27.102  1.00  0.00     0.127 S 
ATOM     85  O   UNL A   1      46.462  37.367  27.769  1.00  0.00    -0.237 OA
ATOM     86  O   UNL A   1      46.249  35.757  25.918  1.00  0.00    -0.237 OA
ATOM     87  O   UNL A   1      44.233  36.713  26.947  1.00  0.00    -0.744 OA
ENDBRANCH  81  84
ENDBRANCH  54  77
ENDBRANCH  28  29
ENDBRANCH  20  23
ENDBRANCH  18  19
ENDBRANCH   1  18
TORSDOF 16
ENDMDL
MODEL 3
REMARK VINA RESULT:     -10.1      3.569      5.974
REMARK SMILES C[C@H]1CC[C@](C#N)([C@H](O)C(=O)NCCCNC(=O)c2ccc(-c3c4nc(c(-c5cccc(S(=O)(=O)[O-])c5F)c5ccc([nH]5)c(-c5cccc(S(=O)(=O)[O-])c5F)c5nc(c(-c6cccc(S(=O)(=O)[O-])c6F)c6ccc3[nH]6)C=C5)C=C4)cc2)C1
REMARK SMILES IDX 14 1 13 2 12 3 10 4 11 5 8 7 5 8 1 9 2 10 3 11 82 12 4 13
REMARK SMILES IDX 6 14 7 15 9 16 15 18 16 19 17 20 18 22 19 23 20 24 81 25
REMARK SMILES IDX 21 26 80 27 22 28 23 29 24 30 74 31 25 32 79 33 73 34 75 35
REMARK SMILES IDX 26 36 78 37 72 38 71 39 27 41 59 42 39 43 58 44 40 45 43 46
REMARK SMILES IDX 57 47 76 48 41 49 42 50 56 52 77 53 44 54 28 55 29 56 37 57
REMARK SMILES IDX 30 58 32 59 38 60 31 61 33 62 34 63 35 64 36 65 60 66 61 67
REMARK SMILES IDX 69 68 62 69 64 70 70 71 63 72 65 73 66 74 67 75 68 76 45 77
REMARK SMILES IDX 46 78 54 79 47 80 49 81 55 82 48 83 50 84 51 85 52 86 53 87
REMARK H PARENT 12 6 9 17 16 21 75 40 43 51
REMARK Flexibility Score: inf
ROOT
ATOM      1  C   UNL A   1      31.521  29.455  25.125  1.00  0.00     0.042 C 
ENDROOT
BRANCH   1   2
ATOM      2  C   UNL A   1      31.956  28.590  23.964  1.00  0.00     0.117 C 
BRANCH   2   3
ATOM      3  N   UNL A   1      31.046  27.514  23.641  1.00  0.00    -0.354 N 
ATOM      4  C   UNL A   1      30.363  26.645  24.434  1.00  0.00     0.250 C 
ATOM      5  O   UNL A   1      29.276  26.263  23.979  1.00  0.00    -0.272 OA
ATOM      6  H   UNL A   1      30.893  27.388  22.677  1.00  0.00     0.163 HD
BRANCH   4   7
ATOM      7  C   UNL A   1      30.931  25.958  25.718  1.00  0.00     0.223 C 
BRANCH   7   8
ATOM      8  C   UNL A   1      31.971  24.830  25.611  1.00  0.00     0.092 C 
ATOM      9  C   UNL A   1      35.009  23.655  26.203  1.00  0.00     0.008 C 
ATOM     10  C   UNL A   1      34.267  24.200  24.982  1.00  0.00    -0.013 C 
ATOM     11  C   UNL A   1      33.275  23.225  24.325  1.00  0.00     0.005 C 
ATOM     12  C   UNL A   1      33.393  25.391  25.351  1.00  0.00     0.029 C 
ATOM     13  C   UNL A   1      31.891  23.925  24.362  1.00  0.00     0.026 C 
BRANCH   8  14
ATOM     14  C   UNL A   1      31.748  23.906  26.750  1.00  0.00     0.072 C 
ATOM     15  N   UNL A   1      31.550  23.158  27.619  1.00  0.00    -0.198 NA
ENDBRANCH   8  14
ENDBRANCH   7   8
BRANCH   7  16
ATOM     16  O   UNL A   1      29.809  25.555  26.520  1.00  0.00    -0.382 OA
ATOM     17  H   UNL A   1      29.952  24.652  26.845  1.00  0.00     0.211 HD
ENDBRANCH   7  16
ENDBRANCH   4   7
ENDBRANCH   2   3
ENDBRANCH   1   2
BRANCH   1  18
ATOM     18  C   UNL A   1      32.716  29.948  25.913  1.00  0.00     0.118 C 
BRANCH  18  19
ATOM     19  N   UNL A   1      32.546  31.308  26.442  1.00  0.00    -0.352 N 
ATOM     20  C   UNL A   1      33.305  32.044  27.321  1.00  0.00     0.251 C 
ATOM     21  H   UNL A   1      31.747  31.775  26.108  1.00  0.00     0.163 HD
ATOM     22  O   UNL A   1      32.892  33.127  27.726  1.00  0.00    -0.269 OA
BRANCH  20  23
ATOM     23  C   UNL A   1      34.592  31.512  27.795  1.00  0.00     0.039 A 
ATOM     24  C   UNL A   1      35.661  32.382  28.013  1.00  0.00     0.014 A 
ATOM     25  C   UNL A   1      34.718  30.157  28.084  1.00  0.00     0.014 A 
ATOM     26  C   UNL A   1      36.819  31.897  28.621  1.00  0.00     0.010 A 
ATOM     27  C   UNL A   1      35.782  29.725  28.851  1.00  0.00     0.010 A 
ATOM     28  C   UNL A   1      36.860  30.580  29.103  1.00  0.00    -0.014 A 
BRANCH  28  29
ATOM     29  C   UNL A   1      38.022  30.051  29.855  1.00  0.00     0.031 A 
ATOM     30  C   UNL A   1      38.255  30.500  31.274  1.00  0.00     0.074 A 
ATOM     31  C   UNL A   1      38.918  29.264  29.227  1.00  0.00     0.049 A 
ATOM     32  N   UNL A   1      39.262  30.235  32.063  1.00  0.00    -0.248 NA
ATOM     33  C   UNL A   1      37.253  31.403  31.872  1.00  0.00     0.031 C 
ATOM     34  C   UNL A   1      38.848  28.848  27.822  1.00  0.00     0.029 A 
ATOM     35  N   UNL A   1      40.079  28.694  29.680  1.00  0.00    -0.354 N 
ATOM     36  C   UNL A   1      39.040  30.979  33.216  1.00  0.00     0.074 A 
ATOM     37  C   UNL A   1      37.835  31.745  33.009  1.00  0.00     0.031 C 
ATOM     38  C   UNL A   1      39.907  28.074  27.537  1.00  0.00     0.029 A 
ATOM     39  C   UNL A   1      40.756  27.980  28.719  1.00  0.00     0.049 A 
ATOM     40  H   UNL A   1      40.398  28.785  30.607  1.00  0.00     0.167 HD
ATOM     41  C   UNL A   1      39.759  30.997  34.361  1.00  0.00     0.034 A 
ATOM     42  C   UNL A   1      41.939  27.339  28.778  1.00  0.00     0.034 A 
ATOM     43  C   UNL A   1      40.924  30.187  34.577  1.00  0.00     0.049 A 
ATOM     44  C   UNL A   1      42.691  27.333  30.080  1.00  0.00     0.074 A 
ATOM     45  C   UNL A   1      41.660  30.038  35.737  1.00  0.00     0.029 A 
ATOM     46  N   UNL A   1      41.530  29.403  33.609  1.00  0.00    -0.354 N 
ATOM     47  N   UNL A   1      42.375  27.907  31.216  1.00  0.00    -0.248 NA
ATOM     48  C   UNL A   1      43.943  26.566  30.122  1.00  0.00     0.031 C 
ATOM     49  C   UNL A   1      42.746  29.204  35.455  1.00  0.00     0.029 A 
ATOM     50  C   UNL A   1      42.650  28.788  34.136  1.00  0.00     0.049 A 
ATOM     51  H   UNL A   1      41.211  29.301  32.683  1.00  0.00     0.167 HD
ATOM     52  C   UNL A   1      43.370  27.543  32.116  1.00  0.00     0.074 A 
ATOM     53  C   UNL A   1      44.285  26.680  31.397  1.00  0.00     0.031 C 
ATOM     54  C   UNL A   1      43.522  27.900  33.414  1.00  0.00     0.034 A 
BRANCH  41  55
ATOM     55  C   UNL A   1      39.293  31.895  35.475  1.00  0.00     0.023 A 
ATOM     56  C   UNL A   1      38.438  31.395  36.478  1.00  0.00     0.012 A 
ATOM     57  C   UNL A   1      39.754  33.222  35.559  1.00  0.00     0.148 A 
ATOM     58  C   UNL A   1      38.023  32.211  37.530  1.00  0.00     0.002 A 
ATOM     59  C   UNL A   1      39.382  34.013  36.637  1.00  0.00     0.091 A 
ATOM     60  F   UNL A   1      40.545  33.686  34.580  1.00  0.00    -0.205 F 
ATOM     61  C   UNL A   1      38.507  33.514  37.617  1.00  0.00     0.022 A 
BRANCH  59  62
ATOM     62  S   UNL A   1      40.018  35.673  36.886  1.00  0.00     0.127 S 
ATOM     63  O   UNL A   1      39.292  36.090  38.085  1.00  0.00    -0.237 OA
ATOM     64  O   UNL A   1      41.445  35.424  37.093  1.00  0.00    -0.237 OA
ATOM     65  O   UNL A   1      39.695  36.415  35.676  1.00  0.00    -0.744 OA
ENDBRANCH  59  62
ENDBRANCH  41  55
BRANCH  42  66
ATOM     66  C   UNL A   1      42.469  26.630  27.580  1.00  0.00     0.023 A 
ATOM     67  C   UNL A   1      43.286  27.319  26.661  1.00  0.00     0.012 A 
ATOM     68  C   UNL A   1      42.178  25.272  27.353  1.00  0.00     0.148 A 
ATOM     69  C   UNL A   1      43.765  26.680  25.517  1.00  0.00     0.002 A 
ATOM     70  C   UNL A   1      42.709  24.624  26.245  1.00  0.00     0.091 A 
ATOM     71  F   UNL A   1      41.395  24.635  28.235  1.00  0.00    -0.205 F 
ATOM     72  C   UNL A   1      43.485  25.331  25.314  1.00  0.00     0.022 A 
BRANCH  70  73
ATOM     73  S   UNL A   1      42.510  22.860  25.977  1.00  0.00     0.127 S 
ATOM     74  O   UNL A   1      43.163  22.678  24.684  1.00  0.00    -0.237 OA
ATOM     75  O   UNL A   1      43.235  22.299  27.118  1.00  0.00    -0.237 OA
ATOM     76  O   UNL A   1      41.074  22.615  26.001  1.00  0.00    -0.744 OA
ENDBRANCH  70  73
ENDBRANCH  42  66
BRANCH  54  77
ATOM     77  C   UNL A   1      44.692  27.322  34.165  1.00  0.00     0.023 A 
ATOM     78  C   UNL A   1      45.932  27.989  34.165  1.00  0.00     0.012 A 
ATOM     79  C   UNL A   1      44.529  26.154  34.936  1.00  0.00     0.148 A 
ATOM     80  C   UNL A   1      47.006  27.480  34.895  1.00  0.00     0.002 A 
ATOM     81  C   UNL A   1      45.585  25.687  35.706  1.00  0.00     0.091 A 
ATOM     82  F   UNL A   1      43.343  25.529  34.909  1.00  0.00    -0.205 F 
ATOM     83  C   UNL A   1      46.828  26.340  35.675  1.00  0.00     0.022 A 
BRANCH  81  84
ATOM     84  S   UNL A   1      45.420  24.289  36.819  1.00  0.00     0.127 S 
ATOM     85  O   UNL A   1      46.753  24.226  37.417  1.00  0.00    -0.237 OA
ATOM     86  O   UNL A   1      44.365  24.742  37.726  1.00  0.00    -0.237 OA
ATOM     87  O   UNL A   1      45.058  23.149  35.988  1.00  0.00    -0.744 OA
ENDBRANCH  81  84
ENDBRANCH  54  77
ENDBRANCH  28  29
ENDBRANCH  20  23
ENDBRANCH  18  19
ENDBRANCH   1  18
TORSDOF 16
ENDMDL
