MODEL 1
REMARK VINA RESULT:     -11.8      0.000      0.000
REMARK SMILES CCN1C(=O)N(CC)[C@H]2NC(=O)N(CCCC(=O)NCCCNC(=O)c3ccc(-c4c5nc(c(-c6cccc(S(=O)(=O)[O-])c6F)c6ccc([nH]6)c(-c6cccc(S(=O)(=O)[O-])c6F)c6nc(c(-c7cccc(S(=O)(=O)[O-])c7F)c7ccc4[nH]7)C=C6)C=C5)cc3)[C@@H]21
REMARK SMILES IDX 20 1 19 2 17 3 18 4 16 6 15 7 14 8 13 9 3 10 4 11 89 12 5 13
REMARK SMILES IDX 6 14 9 15 10 16 11 17 12 19 2 20 1 21 7 22 8 23 21 24 22 25
REMARK SMILES IDX 23 26 24 27 25 29 26 30 27 31 88 32 28 33 87 34 29 35 30 36
REMARK SMILES IDX 31 37 81 38 32 39 86 40 80 41 82 42 33 43 85 44 79 45 78 46
REMARK SMILES IDX 34 48 66 49 46 50 65 51 47 52 50 53 64 54 83 55 48 56 49 57
REMARK SMILES IDX 63 59 84 60 51 61 35 62 36 63 44 64 37 65 39 66 45 67 38 68
REMARK SMILES IDX 40 69 41 70 42 71 43 72 67 73 68 74 76 75 69 76 71 77 77 78
REMARK SMILES IDX 70 79 72 80 73 81 74 82 75 83 52 84 53 85 61 86 54 87 56 88
REMARK SMILES IDX 62 89 55 90 57 91 58 92 59 93 60 94
REMARK H PARENT 19 5 10 18 23 28 82 47 50 58
REMARK Flexibility Score: inf
ROOT
ATOM      1  C   UNL A   1      35.338  20.244  24.999  1.00  0.00     0.117 C 
ENDROOT
BRANCH   1   2
ATOM      2  N   UNL A   1      34.126  19.559  25.398  1.00  0.00    -0.356 N 
ATOM      3  C   UNL A   1      32.923  19.422  24.781  1.00  0.00     0.220 C 
ATOM      4  O   UNL A   1      32.153  18.578  25.250  1.00  0.00    -0.275 OA
ATOM      5  H   UNL A   1      34.184  19.111  26.273  1.00  0.00     0.163 HD
BRANCH   3   6
ATOM      6  C   UNL A   1      32.528  20.171  23.517  1.00  0.00     0.102 C 
BRANCH   6   7
ATOM      7  C   UNL A   1      31.963  21.564  23.619  1.00  0.00     0.031 C 
BRANCH   7   8
ATOM      8  C   UNL A   1      32.669  22.676  22.868  1.00  0.00     0.124 C 
BRANCH   8   9
ATOM      9  N   UNL A   1      32.644  24.094  23.257  1.00  0.00    -0.300 N 
ATOM     10  N   UNL A   1      31.792  24.987  25.747  1.00  0.00    -0.300 N 
ATOM     11  C   UNL A   1      31.878  26.384  26.120  1.00  0.00     0.323 C 
ATOM     12  C   UNL A   1      32.607  24.859  24.518  1.00  0.00     0.231 C 
ATOM     13  O   UNL A   1      31.676  26.875  27.216  1.00  0.00    -0.248 OA
ATOM     14  N   UNL A   1      32.291  27.098  24.991  1.00  0.00    -0.300 N 
ATOM     15  C   UNL A   1      32.190  26.215  23.904  1.00  0.00     0.228 C 
ATOM     16  N   UNL A   1      32.930  26.313  22.725  1.00  0.00    -0.314 N 
ATOM     17  C   UNL A   1      32.996  25.021  22.215  1.00  0.00     0.320 C 
ATOM     18  H   UNL A   1      33.324  27.128  22.336  1.00  0.00     0.167 HD
ATOM     19  O   UNL A   1      33.278  24.772  21.059  1.00  0.00    -0.249 OA
BRANCH  10  20
ATOM     20  C   UNL A   1      31.614  23.993  26.802  1.00  0.00     0.120 C 
ATOM     21  C   UNL A   1      30.333  23.162  26.820  1.00  0.00     0.027 C 
ENDBRANCH  10  20
BRANCH  14  22
ATOM     22  C   UNL A   1      32.612  28.504  24.918  1.00  0.00     0.120 C 
ATOM     23  C   UNL A   1      31.402  29.416  24.996  1.00  0.00     0.027 C 
ENDBRANCH  14  22
ENDBRANCH   8   9
ENDBRANCH   7   8
ENDBRANCH   6   7
ENDBRANCH   3   6
ENDBRANCH   1   2
BRANCH   1  24
ATOM     24  C   UNL A   1      35.441  21.654  25.551  1.00  0.00     0.042 C 
BRANCH  24  25
ATOM     25  C   UNL A   1      36.863  22.155  25.545  1.00  0.00     0.118 C 
BRANCH  25  26
ATOM     26  N   UNL A   1      37.841  21.076  25.657  1.00  0.00    -0.352 N 
ATOM     27  C   UNL A   1      39.138  21.157  26.114  1.00  0.00     0.251 C 
ATOM     28  H   UNL A   1      37.538  20.185  25.371  1.00  0.00     0.163 HD
ATOM     29  O   UNL A   1      39.891  20.193  26.023  1.00  0.00    -0.269 OA
BRANCH  27  30
ATOM     30  C   UNL A   1      39.613  22.442  26.671  1.00  0.00     0.039 A 
ATOM     31  C   UNL A   1      40.630  22.446  27.626  1.00  0.00     0.014 A 
ATOM     32  C   UNL A   1      39.115  23.644  26.167  1.00  0.00     0.014 A 
ATOM     33  C   UNL A   1      41.189  23.662  28.021  1.00  0.00     0.010 A 
ATOM     34  C   UNL A   1      39.778  24.828  26.438  1.00  0.00     0.010 A 
ATOM     35  C   UNL A   1      40.793  24.859  27.399  1.00  0.00    -0.014 A 
BRANCH  35  36
ATOM     36  C   UNL A   1      41.388  26.165  27.772  1.00  0.00     0.031 A 
ATOM     37  C   UNL A   1      42.796  26.494  27.345  1.00  0.00     0.074 A 
ATOM     38  C   UNL A   1      40.694  27.022  28.548  1.00  0.00     0.049 A 
ATOM     39  N   UNL A   1      43.498  27.572  27.576  1.00  0.00    -0.248 NA
ATOM     40  C   UNL A   1      43.529  25.457  26.597  1.00  0.00     0.031 C 
ATOM     41  C   UNL A   1      39.360  26.775  29.103  1.00  0.00     0.029 A 
ATOM     42  N   UNL A   1      41.017  28.272  29.008  1.00  0.00    -0.354 N 
ATOM     43  C   UNL A   1      44.754  27.326  27.036  1.00  0.00     0.074 A 
ATOM     44  C   UNL A   1      44.747  25.971  26.539  1.00  0.00     0.031 C 
ATOM     45  C   UNL A   1      38.962  27.859  29.787  1.00  0.00     0.029 A 
ATOM     46  C   UNL A   1      40.020  28.862  29.749  1.00  0.00     0.049 A 
ATOM     47  H   UNL A   1      41.881  28.707  28.824  1.00  0.00     0.167 HD
ATOM     48  C   UNL A   1      45.809  28.165  26.914  1.00  0.00     0.034 A 
ATOM     49  C   UNL A   1      39.965  30.081  30.320  1.00  0.00     0.034 A 
ATOM     50  C   UNL A   1      45.793  29.525  27.373  1.00  0.00     0.049 A 
ATOM     51  C   UNL A   1      41.135  31.011  30.149  1.00  0.00     0.074 A 
ATOM     52  C   UNL A   1      46.768  30.494  27.234  1.00  0.00     0.029 A 
ATOM     53  N   UNL A   1      44.743  30.106  28.071  1.00  0.00    -0.354 N 
ATOM     54  N   UNL A   1      42.258  30.817  29.499  1.00  0.00    -0.248 NA
ATOM     55  C   UNL A   1      41.015  32.342  30.759  1.00  0.00     0.031 C 
ATOM     56  C   UNL A   1      46.321  31.652  27.879  1.00  0.00     0.029 A 
ATOM     57  C   UNL A   1      45.051  31.417  28.382  1.00  0.00     0.049 A 
ATOM     58  H   UNL A   1      43.903  29.651  28.309  1.00  0.00     0.167 HD
ATOM     59  C   UNL A   1      42.961  32.013  29.586  1.00  0.00     0.074 A 
ATOM     60  C   UNL A   1      42.128  32.930  30.340  1.00  0.00     0.031 C 
ATOM     61  C   UNL A   1      44.187  32.325  29.095  1.00  0.00     0.034 A 
BRANCH  48  62
ATOM     62  C   UNL A   1      47.038  27.635  26.218  1.00  0.00     0.023 A 
ATOM     63  C   UNL A   1      47.194  27.829  24.828  1.00  0.00     0.012 A 
ATOM     64  C   UNL A   1      48.037  26.945  26.930  1.00  0.00     0.148 A 
ATOM     65  C   UNL A   1      48.287  27.292  24.150  1.00  0.00     0.002 A 
ATOM     66  C   UNL A   1      49.153  26.463  26.257  1.00  0.00     0.091 A 
ATOM     67  F   UNL A   1      47.866  26.748  28.246  1.00  0.00    -0.205 F 
ATOM     68  C   UNL A   1      49.270  26.617  24.866  1.00  0.00     0.022 A 
BRANCH  66  69
ATOM     69  S   UNL A   1      50.515  25.654  27.102  1.00  0.00     0.127 S 
ATOM     70  O   UNL A   1      49.867  24.453  27.626  1.00  0.00    -0.237 OA
ATOM     71  O   UNL A   1      51.454  25.410  26.006  1.00  0.00    -0.237 OA
ATOM     72  O   UNL A   1      50.985  26.602  28.103  1.00  0.00    -0.744 OA
ENDBRANCH  66  69
ENDBRANCH  48  62
BRANCH  49  73
ATOM     73  C   UNL A   1      38.722  30.523  31.012  1.00  0.00     0.023 A 
ATOM     74  C   UNL A   1      38.592  30.305  32.398  1.00  0.00     0.012 A 
ATOM     75  C   UNL A   1      37.691  31.189  30.322  1.00  0.00     0.148 A 
ATOM     76  C   UNL A   1      37.447  30.718  33.080  1.00  0.00     0.002 A 
ATOM     77  C   UNL A   1      36.576  31.643  31.017  1.00  0.00     0.091 A 
ATOM     78  F   UNL A   1      37.834  31.383  29.004  1.00  0.00    -0.205 F 
ATOM     79  C   UNL A   1      36.444  31.395  32.392  1.00  0.00     0.022 A 
BRANCH  77  80
ATOM     80  S   UNL A   1      35.288  32.629  30.244  1.00  0.00     0.127 S 
ATOM     81  O   UNL A   1      34.350  32.814  31.349  1.00  0.00    -0.237 OA
ATOM     82  O   UNL A   1      36.025  33.830  29.853  1.00  0.00    -0.237 OA
ATOM     83  O   UNL A   1      34.794  31.832  29.130  1.00  0.00    -0.744 OA
ENDBRANCH  77  80
ENDBRANCH  49  73
BRANCH  61  84
ATOM     84  C   UNL A   1      44.689  33.726  29.314  1.00  0.00     0.023 A 
ATOM     85  C   UNL A   1      45.375  34.053  30.501  1.00  0.00     0.012 A 
ATOM     86  C   UNL A   1      44.548  34.698  28.303  1.00  0.00     0.148 A 
ATOM     87  C   UNL A   1      45.881  35.338  30.692  1.00  0.00     0.002 A 
ATOM     88  C   UNL A   1      45.104  35.958  28.478  1.00  0.00     0.091 A 
ATOM     89  F   UNL A   1      43.878  34.368  27.190  1.00  0.00    -0.205 F 
ATOM     90  C   UNL A   1      45.758  36.285  29.677  1.00  0.00     0.022 A 
BRANCH  88  91
ATOM     91  S   UNL A   1      45.087  37.205  27.187  1.00  0.00     0.127 S 
ATOM     92  O   UNL A   1      45.891  36.566  26.146  1.00  0.00    -0.237 OA
ATOM     93  O   UNL A   1      43.660  37.310  26.878  1.00  0.00    -0.237 OA
ATOM     94  O   UNL A   1      45.668  38.404  27.775  1.00  0.00    -0.744 OA
ENDBRANCH  88  91
ENDBRANCH  61  84
ENDBRANCH  35  36
ENDBRANCH  27  30
ENDBRANCH  25  26
ENDBRANCH  24  25
ENDBRANCH   1  24
TORSDOF 18
ENDMDL
MODEL 2
REMARK VINA RESULT:     -11.3      5.821      8.762
REMARK SMILES CCN1C(=O)N(CC)[C@H]2NC(=O)N(CCCC(=O)NCCCNC(=O)c3ccc(-c4c5nc(c(-c6cccc(S(=O)(=O)[O-])c6F)c6ccc([nH]6)c(-c6cccc(S(=O)(=O)[O-])c6F)c6nc(c(-c7cccc(S(=O)(=O)[O-])c7F)c7ccc4[nH]7)C=C6)C=C5)cc3)[C@@H]21
REMARK SMILES IDX 20 1 19 2 17 3 18 4 16 6 15 7 14 8 13 9 3 10 4 11 89 12 5 13
REMARK SMILES IDX 6 14 9 15 10 16 11 17 12 19 2 20 1 21 7 22 8 23 21 24 22 25
REMARK SMILES IDX 23 26 24 27 25 29 26 30 27 31 88 32 28 33 87 34 29 35 30 36
REMARK SMILES IDX 31 37 81 38 32 39 86 40 80 41 82 42 33 43 85 44 79 45 78 46
REMARK SMILES IDX 34 48 66 49 46 50 65 51 47 52 50 53 64 54 83 55 48 56 49 57
REMARK SMILES IDX 63 59 84 60 51 61 35 62 36 63 44 64 37 65 39 66 45 67 38 68
REMARK SMILES IDX 40 69 41 70 42 71 43 72 67 73 68 74 76 75 69 76 71 77 77 78
REMARK SMILES IDX 70 79 72 80 73 81 74 82 75 83 52 84 53 85 61 86 54 87 56 88
REMARK SMILES IDX 62 89 55 90 57 91 58 92 59 93 60 94
REMARK H PARENT 19 5 10 18 23 28 82 47 50 58
REMARK Flexibility Score: inf
ROOT
ATOM      1  C   UNL A   1      31.623  30.362  26.149  1.00  0.00     0.117 C 
ENDROOT
BRANCH   1   2
ATOM      2  N   UNL A   1      32.967  29.957  26.504  1.00  0.00    -0.356 N 
ATOM      3  C   UNL A   1      33.580  28.744  26.475  1.00  0.00     0.220 C 
ATOM      4  O   UNL A   1      34.808  28.741  26.606  1.00  0.00    -0.275 OA
ATOM      5  H   UNL A   1      33.541  30.691  26.822  1.00  0.00     0.163 HD
BRANCH   3   6
ATOM      6  C   UNL A   1      32.856  27.434  26.201  1.00  0.00     0.102 C 
BRANCH   6   7
ATOM      7  C   UNL A   1      33.407  26.474  25.179  1.00  0.00     0.031 C 
BRANCH   7   8
ATOM      8  C   UNL A   1      32.904  26.584  23.753  1.00  0.00     0.124 C 
BRANCH   8   9
ATOM      9  N   UNL A   1      31.989  27.627  23.269  1.00  0.00    -0.300 N 
ATOM     10  N   UNL A   1      29.220  27.428  23.411  1.00  0.00    -0.300 N 
ATOM     11  C   UNL A   1      28.361  28.524  23.009  1.00  0.00     0.323 C 
ATOM     12  C   UNL A   1      30.580  28.006  23.491  1.00  0.00     0.231 C 
ATOM     13  O   UNL A   1      27.156  28.615  23.156  1.00  0.00    -0.248 OA
ATOM     14  N   UNL A   1      29.173  29.514  22.450  1.00  0.00    -0.300 N 
ATOM     15  C   UNL A   1      30.437  28.932  22.261  1.00  0.00     0.228 C 
ATOM     16  N   UNL A   1      31.640  29.638  22.206  1.00  0.00    -0.314 N 
ATOM     17  C   UNL A   1      32.621  28.737  22.607  1.00  0.00     0.320 C 
ATOM     18  H   UNL A   1      31.767  30.577  21.940  1.00  0.00     0.167 HD
ATOM     19  O   UNL A   1      33.805  28.894  22.380  1.00  0.00    -0.249 OA
BRANCH  10  20
ATOM     20  C   UNL A   1      28.656  26.366  24.239  1.00  0.00     0.120 C 
ATOM     21  C   UNL A   1      29.587  25.580  25.160  1.00  0.00     0.027 C 
ENDBRANCH  10  20
BRANCH  14  22
ATOM     22  C   UNL A   1      28.767  30.827  22.008  1.00  0.00     0.120 C 
ATOM     23  C   UNL A   1      28.488  31.799  23.139  1.00  0.00     0.027 C 
ENDBRANCH  14  22
ENDBRANCH   8   9
ENDBRANCH   7   8
ENDBRANCH   6   7
ENDBRANCH   3   6
ENDBRANCH   1   2
BRANCH   1  24
ATOM     24  C   UNL A   1      31.325  31.812  26.484  1.00  0.00     0.042 C 
BRANCH  24  25
ATOM     25  C   UNL A   1      32.586  32.628  26.612  1.00  0.00     0.118 C 
BRANCH  25  26
ATOM     26  N   UNL A   1      32.360  33.916  27.263  1.00  0.00    -0.352 N 
ATOM     27  C   UNL A   1      33.046  34.454  28.330  1.00  0.00     0.251 C 
ATOM     28  H   UNL A   1      31.631  34.465  26.896  1.00  0.00     0.163 HD
ATOM     29  O   UNL A   1      32.656  35.489  28.861  1.00  0.00    -0.269 OA
BRANCH  27  30
ATOM     30  C   UNL A   1      34.229  33.733  28.846  1.00  0.00     0.039 A 
ATOM     31  C   UNL A   1      35.451  34.398  28.947  1.00  0.00     0.014 A 
ATOM     32  C   UNL A   1      34.094  32.429  29.323  1.00  0.00     0.014 A 
ATOM     33  C   UNL A   1      36.518  33.769  29.591  1.00  0.00     0.010 A 
ATOM     34  C   UNL A   1      35.098  31.876  30.098  1.00  0.00     0.010 A 
ATOM     35  C   UNL A   1      36.336  32.518  30.206  1.00  0.00    -0.014 A 
BRANCH  35  36
ATOM     36  C   UNL A   1      37.439  31.834  30.924  1.00  0.00     0.031 A 
ATOM     37  C   UNL A   1      38.280  30.813  30.200  1.00  0.00     0.074 A 
ATOM     38  C   UNL A   1      37.640  32.076  32.234  1.00  0.00     0.049 A 
ATOM     39  N   UNL A   1      39.280  30.101  30.648  1.00  0.00    -0.248 NA
ATOM     40  C   UNL A   1      37.923  30.520  28.800  1.00  0.00     0.031 C 
ATOM     41  C   UNL A   1      36.830  32.971  33.066  1.00  0.00     0.029 A 
ATOM     42  N   UNL A   1      38.585  31.587  33.098  1.00  0.00    -0.354 N 
ATOM     43  C   UNL A   1      39.641  29.260  29.602  1.00  0.00     0.074 A 
ATOM     44  C   UNL A   1      38.706  29.490  28.528  1.00  0.00     0.031 C 
ATOM     45  C   UNL A   1      37.344  33.002  34.306  1.00  0.00     0.029 A 
ATOM     46  C   UNL A   1      38.494  32.108  34.368  1.00  0.00     0.049 A 
ATOM     47  H   UNL A   1      39.265  30.926  32.834  1.00  0.00     0.167 HD
ATOM     48  C   UNL A   1      40.689  28.407  29.518  1.00  0.00     0.034 A 
ATOM     49  C   UNL A   1      39.264  31.895  35.453  1.00  0.00     0.034 A 
ATOM     50  C   UNL A   1      41.640  28.217  30.576  1.00  0.00     0.049 A 
ATOM     51  C   UNL A   1      40.441  30.966  35.331  1.00  0.00     0.074 A 
ATOM     52  C   UNL A   1      42.785  27.444  30.578  1.00  0.00     0.029 A 
ATOM     53  N   UNL A   1      41.547  28.805  31.830  1.00  0.00    -0.354 N 
ATOM     54  N   UNL A   1      40.861  30.296  34.285  1.00  0.00    -0.248 NA
ATOM     55  C   UNL A   1      41.272  30.793  36.530  1.00  0.00     0.031 C 
ATOM     56  C   UNL A   1      43.367  27.537  31.847  1.00  0.00     0.029 A 
ATOM     57  C   UNL A   1      42.608  28.402  32.620  1.00  0.00     0.049 A 
ATOM     58  H   UNL A   1      40.832  29.419  32.114  1.00  0.00     0.167 HD
ATOM     59  C   UNL A   1      42.027  29.655  34.686  1.00  0.00     0.074 A 
ATOM     60  C   UNL A   1      42.254  30.031  36.068  1.00  0.00     0.031 C 
ATOM     61  C   UNL A   1      42.835  28.824  33.980  1.00  0.00     0.034 A 
BRANCH  48  62
ATOM     62  C   UNL A   1      40.872  27.662  28.219  1.00  0.00     0.023 A 
ATOM     63  C   UNL A   1      41.407  28.332  27.097  1.00  0.00     0.012 A 
ATOM     64  C   UNL A   1      40.514  26.306  28.102  1.00  0.00     0.148 A 
ATOM     65  C   UNL A   1      41.523  27.684  25.867  1.00  0.00     0.002 A 
ATOM     66  C   UNL A   1      40.687  25.651  26.888  1.00  0.00     0.091 A 
ATOM     67  F   UNL A   1      39.985  25.688  29.168  1.00  0.00    -0.205 F 
ATOM     68  C   UNL A   1      41.172  26.343  25.766  1.00  0.00     0.022 A 
BRANCH  66  69
ATOM     69  S   UNL A   1      40.344  23.902  26.677  1.00  0.00     0.127 S 
ATOM     70  O   UNL A   1      41.388  23.506  25.734  1.00  0.00    -0.237 OA
ATOM     71  O   UNL A   1      40.522  23.388  28.035  1.00  0.00    -0.237 OA
ATOM     72  O   UNL A   1      38.979  23.819  26.173  1.00  0.00    -0.744 OA
ENDBRANCH  66  69
ENDBRANCH  48  62
BRANCH  49  73
ATOM     73  C   UNL A   1      39.005  32.654  36.709  1.00  0.00     0.023 A 
ATOM     74  C   UNL A   1      39.620  33.907  36.894  1.00  0.00     0.012 A 
ATOM     75  C   UNL A   1      38.127  32.167  37.697  1.00  0.00     0.148 A 
ATOM     76  C   UNL A   1      39.390  34.650  38.052  1.00  0.00     0.002 A 
ATOM     77  C   UNL A   1      37.862  32.935  38.824  1.00  0.00     0.091 A 
ATOM     78  F   UNL A   1      37.554  30.971  37.501  1.00  0.00    -0.205 F 
ATOM     79  C   UNL A   1      38.504  34.169  39.013  1.00  0.00     0.022 A 
BRANCH  77  80
ATOM     80  S   UNL A   1      36.646  32.457  40.058  1.00  0.00     0.127 S 
ATOM     81  O   UNL A   1      35.424  32.386  39.260  1.00  0.00    -0.237 OA
ATOM     82  O   UNL A   1      37.167  31.165  40.506  1.00  0.00    -0.237 OA
ATOM     83  O   UNL A   1      36.674  33.505  41.068  1.00  0.00    -0.744 OA
ENDBRANCH  77  80
ENDBRANCH  49  73
BRANCH  61  84
ATOM     84  C   UNL A   1      44.065  28.297  34.668  1.00  0.00     0.023 A 
ATOM     85  C   UNL A   1      45.275  29.016  34.601  1.00  0.00     0.012 A 
ATOM     86  C   UNL A   1      43.997  27.125  35.448  1.00  0.00     0.148 A 
ATOM     87  C   UNL A   1      46.407  28.557  35.272  1.00  0.00     0.002 A 
ATOM     88  C   UNL A   1      45.114  26.704  36.158  1.00  0.00     0.091 A 
ATOM     89  F   UNL A   1      42.840  26.448  35.483  1.00  0.00    -0.205 F 
ATOM     90  C   UNL A   1      46.324  27.411  36.060  1.00  0.00     0.022 A 
BRANCH  88  91
ATOM     91  S   UNL A   1      45.070  25.303  37.278  1.00  0.00     0.127 S 
ATOM     92  O   UNL A   1      43.915  25.627  38.116  1.00  0.00    -0.237 OA
ATOM     93  O   UNL A   1      44.864  24.181  36.361  1.00  0.00    -0.237 OA
ATOM     94  O   UNL A   1      46.354  25.294  37.966  1.00  0.00    -0.744 OA
ENDBRANCH  88  91
ENDBRANCH  61  84
ENDBRANCH  35  36
ENDBRANCH  27  30
ENDBRANCH  25  26
ENDBRANCH  24  25
ENDBRANCH   1  24
TORSDOF 18
ENDMDL
MODEL 3
REMARK VINA RESULT:     -11.3      5.280      8.465
REMARK SMILES CCN1C(=O)N(CC)[C@H]2NC(=O)N(CCCC(=O)NCCCNC(=O)c3ccc(-c4c5nc(c(-c6cccc(S(=O)(=O)[O-])c6F)c6ccc([nH]6)c(-c6cccc(S(=O)(=O)[O-])c6F)c6nc(c(-c7cccc(S(=O)(=O)[O-])c7F)c7ccc4[nH]7)C=C6)C=C5)cc3)[C@@H]21
REMARK SMILES IDX 20 1 19 2 17 3 18 4 16 6 15 7 14 8 13 9 3 10 4 11 89 12 5 13
REMARK SMILES IDX 6 14 9 15 10 16 11 17 12 19 2 20 1 21 7 22 8 23 21 24 22 25
REMARK SMILES IDX 23 26 24 27 25 29 26 30 27 31 88 32 28 33 87 34 29 35 30 36
REMARK SMILES IDX 31 37 81 38 32 39 86 40 80 41 82 42 33 43 85 44 79 45 78 46
REMARK SMILES IDX 34 48 66 49 46 50 65 51 47 52 50 53 64 54 83 55 48 56 49 57
REMARK SMILES IDX 63 59 84 60 51 61 35 62 36 63 44 64 37 65 39 66 45 67 38 68
REMARK SMILES IDX 40 69 41 70 42 71 43 72 67 73 68 74 76 75 69 76 71 77 77 78
REMARK SMILES IDX 70 79 72 80 73 81 74 82 75 83 52 84 53 85 61 86 54 87 56 88
REMARK SMILES IDX 62 89 55 90 57 91 58 92 59 93 60 94
REMARK H PARENT 19 5 10 18 23 28 82 47 50 58
REMARK Flexibility Score: inf
ROOT
ATOM      1  C   UNL A   1      31.768  30.600  26.051  1.00  0.00     0.117 C 
ENDROOT
BRANCH   1   2
ATOM      2  N   UNL A   1      33.103  30.124  26.349  1.00  0.00    -0.356 N 
ATOM      3  C   UNL A   1      33.604  28.866  26.479  1.00  0.00     0.220 C 
ATOM      4  O   UNL A   1      34.834  28.760  26.498  1.00  0.00    -0.275 OA
ATOM      5  H   UNL A   1      33.768  30.838  26.481  1.00  0.00     0.163 HD
BRANCH   3   6
ATOM      6  C   UNL A   1      32.746  27.610  26.505  1.00  0.00     0.102 C 
BRANCH   6   7
ATOM      7  C   UNL A   1      33.078  26.458  25.593  1.00  0.00     0.031 C 
BRANCH   7   8
ATOM      8  C   UNL A   1      32.917  26.661  24.100  1.00  0.00     0.124 C 
BRANCH   8   9
ATOM      9  N   UNL A   1      32.042  27.670  23.484  1.00  0.00    -0.300 N 
ATOM     10  N   UNL A   1      29.272  27.455  23.399  1.00  0.00    -0.300 N 
ATOM     11  C   UNL A   1      28.447  28.521  22.869  1.00  0.00     0.323 C 
ATOM     12  C   UNL A   1      30.618  28.048  23.565  1.00  0.00     0.231 C 
ATOM     13  O   UNL A   1      27.233  28.609  22.907  1.00  0.00    -0.248 OA
ATOM     14  N   UNL A   1      29.300  29.487  22.328  1.00  0.00    -0.300 N 
ATOM     15  C   UNL A   1      30.577  28.907  22.280  1.00  0.00     0.228 C 
ATOM     16  N   UNL A   1      31.778  29.619  22.290  1.00  0.00    -0.314 N 
ATOM     17  C   UNL A   1      32.725  28.749  22.820  1.00  0.00     0.320 C 
ATOM     18  H   UNL A   1      31.924  30.544  21.985  1.00  0.00     0.167 HD
ATOM     19  O   UNL A   1      33.923  28.903  22.687  1.00  0.00    -0.249 OA
BRANCH  10  20
ATOM     20  C   UNL A   1      28.644  26.434  24.232  1.00  0.00     0.120 C 
ATOM     21  C   UNL A   1      29.461  25.795  25.353  1.00  0.00     0.027 C 
ENDBRANCH  10  20
BRANCH  14  22
ATOM     22  C   UNL A   1      28.928  30.772  21.784  1.00  0.00     0.120 C 
ATOM     23  C   UNL A   1      28.543  31.797  22.833  1.00  0.00     0.027 C 
ENDBRANCH  14  22
ENDBRANCH   8   9
ENDBRANCH   7   8
ENDBRANCH   6   7
ENDBRANCH   3   6
ENDBRANCH   1   2
BRANCH   1  24
ATOM     24  C   UNL A   1      31.476  31.971  26.630  1.00  0.00     0.042 C 
BRANCH  24  25
ATOM     25  C   UNL A   1      32.738  32.682  27.050  1.00  0.00     0.118 C 
BRANCH  25  26
ATOM     26  N   UNL A   1      32.475  33.979  27.667  1.00  0.00    -0.352 N 
ATOM     27  C   UNL A   1      33.130  34.555  28.734  1.00  0.00     0.251 C 
ATOM     28  H   UNL A   1      31.742  34.506  27.274  1.00  0.00     0.163 HD
ATOM     29  O   UNL A   1      32.710  35.593  29.234  1.00  0.00    -0.269 OA
BRANCH  27  30
ATOM     30  C   UNL A   1      34.317  33.869  29.289  1.00  0.00     0.039 A 
ATOM     31  C   UNL A   1      35.589  34.389  29.047  1.00  0.00     0.014 A 
ATOM     32  C   UNL A   1      34.152  32.770  30.132  1.00  0.00     0.014 A 
ATOM     33  C   UNL A   1      36.686  33.839  29.711  1.00  0.00     0.010 A 
ATOM     34  C   UNL A   1      35.214  32.336  30.907  1.00  0.00     0.010 A 
ATOM     35  C   UNL A   1      36.500  32.834  30.676  1.00  0.00    -0.014 A 
BRANCH  35  36
ATOM     36  C   UNL A   1      37.641  32.249  31.422  1.00  0.00     0.031 A 
ATOM     37  C   UNL A   1      38.438  31.127  30.805  1.00  0.00     0.074 A 
ATOM     38  C   UNL A   1      37.916  32.673  32.671  1.00  0.00     0.049 A 
ATOM     39  N   UNL A   1      39.460  30.476  31.294  1.00  0.00    -0.248 NA
ATOM     40  C   UNL A   1      38.002  30.642  29.483  1.00  0.00     0.031 C 
ATOM     41  C   UNL A   1      37.156  33.685  33.411  1.00  0.00     0.029 A 
ATOM     42  N   UNL A   1      38.907  32.303  33.542  1.00  0.00    -0.354 N 
ATOM     43  C   UNL A   1      39.760  29.491  30.360  1.00  0.00     0.074 A 
ATOM     44  C   UNL A   1      38.766  29.575  29.318  1.00  0.00     0.031 C 
ATOM     45  C   UNL A   1      37.739  33.887  34.603  1.00  0.00     0.029 A 
ATOM     46  C   UNL A   1      38.889  32.999  34.727  1.00  0.00     0.049 A 
ATOM     47  H   UNL A   1      39.570  31.603  33.338  1.00  0.00     0.167 HD
ATOM     48  C   UNL A   1      40.800  28.625  30.340  1.00  0.00     0.034 A 
ATOM     49  C   UNL A   1      39.718  32.935  35.787  1.00  0.00     0.034 A 
ATOM     50  C   UNL A   1      41.808  28.577  31.360  1.00  0.00     0.049 A 
ATOM     51  C   UNL A   1      40.885  31.987  35.734  1.00  0.00     0.074 A 
ATOM     52  C   UNL A   1      42.950  27.801  31.409  1.00  0.00     0.029 A 
ATOM     53  N   UNL A   1      41.788  29.339  32.520  1.00  0.00    -0.354 N 
ATOM     54  N   UNL A   1      41.244  31.171  34.772  1.00  0.00    -0.248 NA
ATOM     55  C   UNL A   1      41.782  31.978  36.898  1.00  0.00     0.031 C 
ATOM     56  C   UNL A   1      43.604  28.068  32.617  1.00  0.00     0.029 A 
ATOM     57  C   UNL A   1      42.890  29.042  33.300  1.00  0.00     0.049 A 
ATOM     58  H   UNL A   1      41.091  29.994  32.754  1.00  0.00     0.167 HD
ATOM     59  C   UNL A   1      42.430  30.581  35.195  1.00  0.00     0.074 A 
ATOM     60  C   UNL A   1      42.735  31.148  36.495  1.00  0.00     0.031 C 
ATOM     61  C   UNL A   1      43.195  29.651  34.571  1.00  0.00     0.034 A 
BRANCH  48  62
ATOM     62  C   UNL A   1      40.907  27.701  29.152  1.00  0.00     0.023 A 
ATOM     63  C   UNL A   1      40.200  26.479  29.149  1.00  0.00     0.012 A 
ATOM     64  C   UNL A   1      41.706  28.034  28.042  1.00  0.00     0.148 A 
ATOM     65  C   UNL A   1      40.335  25.578  28.094  1.00  0.00     0.002 A 
ATOM     66  C   UNL A   1      41.790  27.156  26.968  1.00  0.00     0.091 A 
ATOM     67  F   UNL A   1      42.391  29.187  28.068  1.00  0.00    -0.205 F 
ATOM     68  C   UNL A   1      41.123  25.920  27.000  1.00  0.00     0.022 A 
BRANCH  66  69
ATOM     69  S   UNL A   1      42.711  27.542  25.475  1.00  0.00     0.127 S 
ATOM     70  O   UNL A   1      44.074  27.663  25.990  1.00  0.00    -0.237 OA
ATOM     71  O   UNL A   1      42.473  26.356  24.652  1.00  0.00    -0.237 OA
ATOM     72  O   UNL A   1      42.127  28.770  24.951  1.00  0.00    -0.744 OA
ENDBRANCH  66  69
ENDBRANCH  48  62
BRANCH  49  73
ATOM     73  C   UNL A   1      39.532  33.867  36.935  1.00  0.00     0.023 A 
ATOM     74  C   UNL A   1      39.897  35.220  36.788  1.00  0.00     0.012 A 
ATOM     75  C   UNL A   1      38.962  33.438  38.149  1.00  0.00     0.148 A 
ATOM     76  C   UNL A   1      39.724  36.123  37.837  1.00  0.00     0.002 A 
ATOM     77  C   UNL A   1      38.745  34.353  39.172  1.00  0.00     0.091 A 
ATOM     78  F   UNL A   1      38.624  32.146  38.268  1.00  0.00    -0.205 F 
ATOM     79  C   UNL A   1      39.140  35.692  39.025  1.00  0.00     0.022 A 
BRANCH  77  80
ATOM     80  S   UNL A   1      37.891  33.921  40.692  1.00  0.00     0.127 S 
ATOM     81  O   UNL A   1      36.706  33.232  40.184  1.00  0.00    -0.237 OA
ATOM     82  O   UNL A   1      38.871  33.058  41.351  1.00  0.00    -0.237 OA
ATOM     83  O   UNL A   1      37.637  35.182  41.375  1.00  0.00    -0.744 OA
ENDBRANCH  77  80
ENDBRANCH  49  73
BRANCH  61  84
ATOM     84  C   UNL A   1      44.461  29.215  35.258  1.00  0.00     0.023 A 
ATOM     85  C   UNL A   1      44.451  28.093  36.111  1.00  0.00     0.012 A 
ATOM     86  C   UNL A   1      45.678  29.874  34.992  1.00  0.00     0.148 A 
ATOM     87  C   UNL A   1      45.628  27.657  36.717  1.00  0.00     0.002 A 
ATOM     88  C   UNL A   1      46.855  29.399  35.556  1.00  0.00     0.091 A 
ATOM     89  F   UNL A   1      45.660  30.948  34.191  1.00  0.00    -0.205 F 
ATOM     90  C   UNL A   1      46.830  28.300  36.430  1.00  0.00     0.022 A 
BRANCH  88  91
ATOM     91  S   UNL A   1      48.460  30.097  35.161  1.00  0.00     0.127 S 
ATOM     92  O   UNL A   1      48.448  30.063  33.699  1.00  0.00    -0.237 OA
ATOM     93  O   UNL A   1      48.366  31.438  35.742  1.00  0.00    -0.237 OA
ATOM     94  O   UNL A   1      49.445  29.232  35.795  1.00  0.00    -0.744 OA
ENDBRANCH  88  91
ENDBRANCH  61  84
ENDBRANCH  35  36
ENDBRANCH  27  30
ENDBRANCH  25  26
ENDBRANCH  24  25
ENDBRANCH   1  24
TORSDOF 18
ENDMDL
