MODEL 1
REMARK VINA RESULT:     -12.1      0.000      0.000
REMARK SMILES Cc1c(Br)c(C)c2c(c1Br)O[C@H](C(F)(F)F)C(C(=O)NCCCNC(=O)c1ccc(-c3c4nc(c(-c5cccc(S(=O)(=O)[O-])c5F)c5ccc([nH]5)c(-c5cccc(S(=O)(=O)[O-])c5F)c5nc(c(-c6cccc(S(=O)(=O)[O-])c6F)c6ccc3[nH]6)C=C5)C=C4)cc1)=C2
REMARK SMILES IDX 23 1 22 2 21 3 20 4 18 5 19 6 17 8 1 9 2 10 3 11 9 12 4 13
REMARK SMILES IDX 5 14 8 15 10 16 6 17 7 18 11 19 90 20 12 21 13 22 14 23
REMARK SMILES IDX 15 24 16 25 24 26 25 27 26 29 27 30 28 31 89 32 29 33 88 34
REMARK SMILES IDX 30 35 31 36 32 37 82 38 33 39 87 40 81 41 83 42 34 43 86 44
REMARK SMILES IDX 80 45 79 46 35 48 67 49 47 50 66 51 48 52 51 53 65 54 84 55
REMARK SMILES IDX 49 56 50 57 64 59 85 60 52 61 36 62 37 63 45 64 38 65 40 66
REMARK SMILES IDX 46 67 39 68 41 69 42 70 43 71 44 72 68 73 69 74 77 75 70 76
REMARK SMILES IDX 72 77 78 78 71 79 73 80 74 81 75 82 76 83 53 84 54 85 62 86
REMARK SMILES IDX 55 87 57 88 63 89 56 90 58 91 59 92 60 93 61 94
REMARK H PARENT 20 7 24 28 83 47 51 58
REMARK Flexibility Score: inf
ROOT
ATOM      1  C   UNL A   1      34.081  28.495  26.214  1.00  0.00     0.118 C 
ENDROOT
BRANCH   1   2
ATOM      2  C   UNL A   1      34.019  28.396  24.695  1.00  0.00     0.042 C 
BRANCH   2   3
ATOM      3  C   UNL A   1      33.031  27.336  24.231  1.00  0.00     0.118 C 
BRANCH   3   4
ATOM      4  N   UNL A   1      32.139  26.921  25.304  1.00  0.00    -0.352 N 
ATOM      5  C   UNL A   1      31.823  25.773  25.945  1.00  0.00     0.251 C 
ATOM      6  O   UNL A   1      30.974  25.884  26.836  1.00  0.00    -0.270 OA
ATOM      7  H   UNL A   1      31.626  27.682  25.660  1.00  0.00     0.163 HD
BRANCH   5   8
ATOM      8  C   UNL A   1      32.430  24.439  25.667  1.00  0.00     0.067 C 
ATOM      9  C   UNL A   1      36.237  19.191  24.753  1.00  0.00     0.047 C 
ATOM     10  C   UNL A   1      35.648  20.547  25.064  1.00  0.00    -0.019 A 
ATOM     11  C   UNL A   1      36.440  21.675  25.393  1.00  0.00     0.025 A 
ATOM     12  C   UNL A   1      34.247  20.698  25.061  1.00  0.00     0.064 A 
ATOM     13  Br  UNL A   1      38.348  21.482  25.488  1.00  0.00    -0.050 Br
ATOM     14  C   UNL A   1      35.852  22.939  25.674  1.00  0.00    -0.026 A 
ATOM     15  C   UNL A   1      33.658  21.939  25.337  1.00  0.00     0.142 A 
ATOM     16  Br  UNL A   1      33.095  19.217  24.668  1.00  0.00    -0.046 Br
ATOM     17  C   UNL A   1      36.674  24.164  26.013  1.00  0.00     0.046 C 
ATOM     18  C   UNL A   1      34.441  23.058  25.642  1.00  0.00     0.022 A 
ATOM     19  O   UNL A   1      32.288  21.998  25.348  1.00  0.00    -0.474 OA
ATOM     20  C   UNL A   1      33.741  24.314  25.947  1.00  0.00     0.026 C 
ATOM     21  C   UNL A   1      31.686  23.285  25.075  1.00  0.00     0.314 C 
BRANCH  21  22
ATOM     22  C   UNL A   1      31.450  23.440  23.561  1.00  0.00     0.429 C 
ATOM     23  F   UNL A   1      31.545  22.243  22.932  1.00  0.00    -0.167 F 
ATOM     24  F   UNL A   1      30.218  23.926  23.274  1.00  0.00    -0.167 F 
ATOM     25  F   UNL A   1      32.340  24.275  22.978  1.00  0.00    -0.167 F 
ENDBRANCH  21  22
ENDBRANCH   5   8
ENDBRANCH   3   4
ENDBRANCH   2   3
ENDBRANCH   1   2
BRANCH   1  26
ATOM     26  N   UNL A   1      33.846  29.860  26.677  1.00  0.00    -0.352 N 
ATOM     27  C   UNL A   1      34.502  30.591  27.637  1.00  0.00     0.251 C 
ATOM     28  H   UNL A   1      33.104  30.330  26.232  1.00  0.00     0.163 HD
ATOM     29  O   UNL A   1      33.980  31.608  28.092  1.00  0.00    -0.269 OA
BRANCH  27  30
ATOM     30  C   UNL A   1      35.827  30.157  28.117  1.00  0.00     0.039 A 
ATOM     31  C   UNL A   1      35.940  29.523  29.357  1.00  0.00     0.014 A 
ATOM     32  C   UNL A   1      36.965  30.403  27.347  1.00  0.00     0.014 A 
ATOM     33  C   UNL A   1      37.191  29.084  29.792  1.00  0.00     0.010 A 
ATOM     34  C   UNL A   1      38.187  29.871  27.729  1.00  0.00     0.010 A 
ATOM     35  C   UNL A   1      38.320  29.228  28.967  1.00  0.00    -0.014 A 
BRANCH  35  36
ATOM     36  C   UNL A   1      39.656  28.748  29.389  1.00  0.00     0.031 A 
ATOM     37  C   UNL A   1      40.409  29.477  30.469  1.00  0.00     0.074 A 
ATOM     38  C   UNL A   1      40.217  27.699  28.757  1.00  0.00     0.049 A 
ATOM     39  N   UNL A   1      41.592  29.222  30.963  1.00  0.00    -0.248 NA
ATOM     40  C   UNL A   1      39.762  30.667  31.050  1.00  0.00     0.031 C 
ATOM     41  C   UNL A   1      39.613  26.964  27.645  1.00  0.00     0.029 A 
ATOM     42  N   UNL A   1      41.421  27.074  28.954  1.00  0.00    -0.354 N 
ATOM     43  C   UNL A   1      41.835  30.225  31.894  1.00  0.00     0.074 A 
ATOM     44  C   UNL A   1      40.712  31.134  31.845  1.00  0.00     0.031 C 
ATOM     45  C   UNL A   1      40.430  25.962  27.287  1.00  0.00     0.029 A 
ATOM     46  C   UNL A   1      41.627  25.999  28.120  1.00  0.00     0.049 A 
ATOM     47  H   UNL A   1      42.077  27.368  29.628  1.00  0.00     0.167 HD
ATOM     48  C   UNL A   1      42.870  30.349  32.757  1.00  0.00     0.034 A 
ATOM     49  C   UNL A   1      42.656  25.133  28.053  1.00  0.00     0.034 A 
ATOM     50  C   UNL A   1      43.958  29.416  32.830  1.00  0.00     0.049 A 
ATOM     51  C   UNL A   1      43.800  25.287  29.019  1.00  0.00     0.074 A 
ATOM     52  C   UNL A   1      45.025  29.407  33.709  1.00  0.00     0.029 A 
ATOM     53  N   UNL A   1      44.117  28.322  31.992  1.00  0.00    -0.354 N 
ATOM     54  N   UNL A   1      43.946  26.157  29.989  1.00  0.00    -0.248 NA
ATOM     55  C   UNL A   1      44.907  24.328  28.899  1.00  0.00     0.031 C 
ATOM     56  C   UNL A   1      45.840  28.316  33.390  1.00  0.00     0.029 A 
ATOM     57  C   UNL A   1      45.272  27.637  32.323  1.00  0.00     0.049 A 
ATOM     58  H   UNL A   1      43.500  28.071  31.268  1.00  0.00     0.167 HD
ATOM     59  C   UNL A   1      45.148  25.841  30.610  1.00  0.00     0.074 A 
ATOM     60  C   UNL A   1      45.680  24.683  29.919  1.00  0.00     0.031 C 
ATOM     61  C   UNL A   1      45.764  26.461  31.647  1.00  0.00     0.034 A 
BRANCH  48  62
ATOM     62  C   UNL A   1      42.819  31.490  33.741  1.00  0.00     0.023 A 
ATOM     63  C   UNL A   1      43.342  32.745  33.363  1.00  0.00     0.012 A 
ATOM     64  C   UNL A   1      42.240  31.341  35.015  1.00  0.00     0.148 A 
ATOM     65  C   UNL A   1      43.331  33.819  34.250  1.00  0.00     0.002 A 
ATOM     66  C   UNL A   1      42.191  32.431  35.879  1.00  0.00     0.091 A 
ATOM     67  F   UNL A   1      41.770  30.136  35.369  1.00  0.00    -0.205 F 
ATOM     68  C   UNL A   1      42.748  33.664  35.504  1.00  0.00     0.022 A 
BRANCH  66  69
ATOM     69  S   UNL A   1      41.390  32.358  37.485  1.00  0.00     0.127 S 
ATOM     70  O   UNL A   1      42.207  31.362  38.176  1.00  0.00    -0.237 OA
ATOM     71  O   UNL A   1      41.555  33.726  37.975  1.00  0.00    -0.237 OA
ATOM     72  O   UNL A   1      40.011  31.969  37.226  1.00  0.00    -0.744 OA
ENDBRANCH  66  69
ENDBRANCH  48  62
BRANCH  49  73
ATOM     73  C   UNL A   1      42.578  23.978  27.114  1.00  0.00     0.023 A 
ATOM     74  C   UNL A   1      43.131  24.114  25.825  1.00  0.00     0.012 A 
ATOM     75  C   UNL A   1      42.055  22.731  27.509  1.00  0.00     0.148 A 
ATOM     76  C   UNL A   1      43.158  23.032  24.944  1.00  0.00     0.002 A 
ATOM     77  C   UNL A   1      42.130  21.643  26.644  1.00  0.00     0.091 A 
ATOM     78  F   UNL A   1      41.532  22.624  28.738  1.00  0.00    -0.205 F 
ATOM     79  C   UNL A   1      42.669  21.796  25.357  1.00  0.00     0.022 A 
BRANCH  77  80
ATOM     80  S   UNL A   1      41.654  19.980  27.130  1.00  0.00     0.127 S 
ATOM     81  O   UNL A   1      40.491  20.237  27.976  1.00  0.00    -0.237 OA
ATOM     82  O   UNL A   1      41.351  19.368  25.835  1.00  0.00    -0.237 OA
ATOM     83  O   UNL A   1      42.812  19.418  27.809  1.00  0.00    -0.744 OA
ENDBRANCH  77  80
ENDBRANCH  49  73
BRANCH  61  84
ATOM     84  C   UNL A   1      47.094  25.924  32.106  1.00  0.00     0.023 A 
ATOM     85  C   UNL A   1      48.276  26.440  31.539  1.00  0.00     0.012 A 
ATOM     86  C   UNL A   1      47.177  25.028  33.191  1.00  0.00     0.148 A 
ATOM     87  C   UNL A   1      49.522  26.066  32.040  1.00  0.00     0.002 A 
ATOM     88  C   UNL A   1      48.420  24.699  33.716  1.00  0.00     0.091 A 
ATOM     89  F   UNL A   1      46.038  24.542  33.706  1.00  0.00    -0.205 F 
ATOM     90  C   UNL A   1      49.593  25.209  33.137  1.00  0.00     0.022 A 
BRANCH  88  91
ATOM     91  S   UNL A   1      48.615  23.692  35.191  1.00  0.00     0.127 S 
ATOM     92  O   UNL A   1      50.070  23.634  35.323  1.00  0.00    -0.237 OA
ATOM     93  O   UNL A   1      47.940  24.501  36.207  1.00  0.00    -0.237 OA
ATOM     94  O   UNL A   1      47.969  22.418  34.900  1.00  0.00    -0.744 OA
ENDBRANCH  88  91
ENDBRANCH  61  84
ENDBRANCH  35  36
ENDBRANCH  27  30
ENDBRANCH   1  26
TORSDOF 14
ENDMDL
MODEL 2
REMARK VINA RESULT:     -12.0      2.463      3.373
REMARK SMILES Cc1c(Br)c(C)c2c(c1Br)O[C@H](C(F)(F)F)C(C(=O)NCCCNC(=O)c1ccc(-c3c4nc(c(-c5cccc(S(=O)(=O)[O-])c5F)c5ccc([nH]5)c(-c5cccc(S(=O)(=O)[O-])c5F)c5nc(c(-c6cccc(S(=O)(=O)[O-])c6F)c6ccc3[nH]6)C=C5)C=C4)cc1)=C2
REMARK SMILES IDX 23 1 22 2 21 3 20 4 18 5 19 6 17 8 1 9 2 10 3 11 9 12 4 13
REMARK SMILES IDX 5 14 8 15 10 16 6 17 7 18 11 19 90 20 12 21 13 22 14 23
REMARK SMILES IDX 15 24 16 25 24 26 25 27 26 29 27 30 28 31 89 32 29 33 88 34
REMARK SMILES IDX 30 35 31 36 32 37 82 38 33 39 87 40 81 41 83 42 34 43 86 44
REMARK SMILES IDX 80 45 79 46 35 48 67 49 47 50 66 51 48 52 51 53 65 54 84 55
REMARK SMILES IDX 49 56 50 57 64 59 85 60 52 61 36 62 37 63 45 64 38 65 40 66
REMARK SMILES IDX 46 67 39 68 41 69 42 70 43 71 44 72 68 73 69 74 77 75 70 76
REMARK SMILES IDX 72 77 78 78 71 79 73 80 74 81 75 82 76 83 53 84 54 85 62 86
REMARK SMILES IDX 55 87 57 88 63 89 56 90 58 91 59 92 60 93 61 94
REMARK H PARENT 20 7 24 28 83 47 51 58
REMARK Flexibility Score: inf
ROOT
ATOM      1  C   UNL A   1      32.099  30.318  26.851  1.00  0.00     0.118 C 
ENDROOT
BRANCH   1   2
ATOM      2  C   UNL A   1      32.257  29.688  25.472  1.00  0.00     0.042 C 
BRANCH   2   3
ATOM      3  C   UNL A   1      33.704  29.325  25.173  1.00  0.00     0.118 C 
BRANCH   3   4
ATOM      4  N   UNL A   1      33.879  28.884  23.797  1.00  0.00    -0.352 N 
ATOM      5  C   UNL A   1      33.785  27.726  23.105  1.00  0.00     0.251 C 
ATOM      6  O   UNL A   1      34.028  27.814  21.896  1.00  0.00    -0.270 OA
ATOM      7  H   UNL A   1      34.133  29.632  23.210  1.00  0.00     0.163 HD
BRANCH   5   8
ATOM      8  C   UNL A   1      33.400  26.407  23.686  1.00  0.00     0.067 C 
ATOM      9  C   UNL A   1      32.977  20.291  25.984  1.00  0.00     0.047 C 
ATOM     10  C   UNL A   1      33.402  21.623  25.412  1.00  0.00    -0.019 A 
ATOM     11  C   UNL A   1      34.693  21.857  24.875  1.00  0.00     0.025 A 
ATOM     12  C   UNL A   1      32.491  22.698  25.440  1.00  0.00     0.064 A 
ATOM     13  Br  UNL A   1      35.986  20.438  24.899  1.00  0.00    -0.050 Br
ATOM     14  C   UNL A   1      35.056  23.123  24.339  1.00  0.00    -0.026 A 
ATOM     15  C   UNL A   1      32.839  23.949  24.914  1.00  0.00     0.142 A 
ATOM     16  Br  UNL A   1      30.737  22.487  26.185  1.00  0.00    -0.046 Br
ATOM     17  C   UNL A   1      36.422  23.395  23.745  1.00  0.00     0.046 C 
ATOM     18  C   UNL A   1      34.107  24.174  24.365  1.00  0.00     0.022 A 
ATOM     19  O   UNL A   1      31.911  24.953  25.008  1.00  0.00    -0.474 OA
ATOM     20  C   UNL A   1      34.400  25.524  23.862  1.00  0.00     0.026 C 
ATOM     21  C   UNL A   1      31.999  26.019  24.034  1.00  0.00     0.314 C 
BRANCH  21  22
ATOM     22  C   UNL A   1      31.152  25.667  22.796  1.00  0.00     0.429 C 
ATOM     23  F   UNL A   1      30.283  24.665  23.076  1.00  0.00    -0.167 F 
ATOM     24  F   UNL A   1      30.405  26.711  22.363  1.00  0.00    -0.167 F 
ATOM     25  F   UNL A   1      31.906  25.269  21.746  1.00  0.00    -0.167 F 
ENDBRANCH  21  22
ENDBRANCH   5   8
ENDBRANCH   3   4
ENDBRANCH   2   3
ENDBRANCH   1   2
BRANCH   1  26
ATOM     26  N   UNL A   1      32.178  31.775  26.791  1.00  0.00    -0.352 N 
ATOM     27  C   UNL A   1      33.044  32.638  27.416  1.00  0.00     0.251 C 
ATOM     28  H   UNL A   1      31.507  32.206  26.213  1.00  0.00     0.163 HD
ATOM     29  O   UNL A   1      32.773  33.836  27.478  1.00  0.00    -0.269 OA
BRANCH  27  30
ATOM     30  C   UNL A   1      34.294  32.127  28.009  1.00  0.00     0.039 A 
ATOM     31  C   UNL A   1      35.401  32.971  28.126  1.00  0.00     0.014 A 
ATOM     32  C   UNL A   1      34.376  30.798  28.428  1.00  0.00     0.014 A 
ATOM     33  C   UNL A   1      36.570  32.492  28.719  1.00  0.00     0.010 A 
ATOM     34  C   UNL A   1      35.498  30.357  29.114  1.00  0.00     0.010 A 
ATOM     35  C   UNL A   1      36.616  31.190  29.245  1.00  0.00    -0.014 A 
BRANCH  35  36
ATOM     36  C   UNL A   1      37.834  30.662  29.904  1.00  0.00     0.031 A 
ATOM     37  C   UNL A   1      38.193  31.117  31.293  1.00  0.00     0.074 A 
ATOM     38  C   UNL A   1      38.647  29.827  29.229  1.00  0.00     0.049 A 
ATOM     39  N   UNL A   1      39.221  30.784  32.028  1.00  0.00    -0.248 NA
ATOM     40  C   UNL A   1      37.296  32.099  31.928  1.00  0.00     0.031 C 
ATOM     41  C   UNL A   1      38.439  29.378  27.852  1.00  0.00     0.029 A 
ATOM     42  N   UNL A   1      39.812  29.212  29.608  1.00  0.00    -0.354 N 
ATOM     43  C   UNL A   1      39.102  31.525  33.198  1.00  0.00     0.074 A 
ATOM     44  C   UNL A   1      37.947  32.380  33.046  1.00  0.00     0.031 C 
ATOM     45  C   UNL A   1      39.420  28.527  27.515  1.00  0.00     0.029 A 
ATOM     46  C   UNL A   1      40.341  28.391  28.639  1.00  0.00     0.049 A 
ATOM     47  H   UNL A   1      40.231  29.346  30.489  1.00  0.00     0.167 HD
ATOM     48  C   UNL A   1      39.852  31.460  34.322  1.00  0.00     0.034 A 
ATOM     49  C   UNL A   1      41.434  27.603  28.665  1.00  0.00     0.034 A 
ATOM     50  C   UNL A   1      40.971  30.575  34.481  1.00  0.00     0.049 A 
ATOM     51  C   UNL A   1      42.257  27.544  29.924  1.00  0.00     0.074 A 
ATOM     52  C   UNL A   1      41.760  30.378  35.598  1.00  0.00     0.029 A 
ATOM     53  N   UNL A   1      41.459  29.735  33.490  1.00  0.00    -0.354 N 
ATOM     54  N   UNL A   1      42.049  28.145  31.072  1.00  0.00    -0.248 NA
ATOM     55  C   UNL A   1      43.449  26.684  29.902  1.00  0.00     0.031 C 
ATOM     56  C   UNL A   1      42.737  29.431  35.277  1.00  0.00     0.029 A 
ATOM     57  C   UNL A   1      42.547  29.026  33.964  1.00  0.00     0.049 A 
ATOM     58  H   UNL A   1      41.086  29.656  32.583  1.00  0.00     0.167 HD
ATOM     59  C   UNL A   1      43.069  27.720  31.916  1.00  0.00     0.074 A 
ATOM     60  C   UNL A   1      43.881  26.794  31.153  1.00  0.00     0.031 C 
ATOM     61  C   UNL A   1      43.319  28.077  33.200  1.00  0.00     0.034 A 
BRANCH  48  62
ATOM     62  C   UNL A   1      39.425  32.311  35.491  1.00  0.00     0.023 A 
ATOM     63  C   UNL A   1      38.550  31.763  36.453  1.00  0.00     0.012 A 
ATOM     64  C   UNL A   1      39.897  33.626  35.660  1.00  0.00     0.148 A 
ATOM     65  C   UNL A   1      38.116  32.522  37.537  1.00  0.00     0.002 A 
ATOM     66  C   UNL A   1      39.496  34.362  36.770  1.00  0.00     0.091 A 
ATOM     67  F   UNL A   1      40.708  34.141  34.725  1.00  0.00    -0.205 F 
ATOM     68  C   UNL A   1      38.596  33.818  37.701  1.00  0.00     0.022 A 
BRANCH  66  69
ATOM     69  S   UNL A   1      40.120  36.011  37.115  1.00  0.00     0.127 S 
ATOM     70  O   UNL A   1      39.739  36.730  35.900  1.00  0.00    -0.237 OA
ATOM     71  O   UNL A   1      39.358  36.387  38.307  1.00  0.00    -0.237 OA
ATOM     72  O   UNL A   1      41.551  35.860  37.333  1.00  0.00    -0.744 OA
ENDBRANCH  66  69
ENDBRANCH  48  62
BRANCH  49  73
ATOM     73  C   UNL A   1      41.728  26.723  27.499  1.00  0.00     0.023 A 
ATOM     74  C   UNL A   1      42.417  27.265  26.396  1.00  0.00     0.012 A 
ATOM     75  C   UNL A   1      41.421  25.348  27.508  1.00  0.00     0.148 A 
ATOM     76  C   UNL A   1      42.789  26.457  25.322  1.00  0.00     0.002 A 
ATOM     77  C   UNL A   1      41.839  24.538  26.457  1.00  0.00     0.091 A 
ATOM     78  F   UNL A   1      40.763  24.853  28.566  1.00  0.00    -0.205 F 
ATOM     79  C   UNL A   1      42.511  25.094  25.356  1.00  0.00     0.022 A 
BRANCH  77  80
ATOM     80  S   UNL A   1      41.650  22.751  26.471  1.00  0.00     0.127 S 
ATOM     81  O   UNL A   1      42.295  22.392  27.731  1.00  0.00    -0.237 OA
ATOM     82  O   UNL A   1      40.193  22.607  26.460  1.00  0.00    -0.237 OA
ATOM     83  O   UNL A   1      42.314  22.272  25.268  1.00  0.00    -0.744 OA
ENDBRANCH  77  80
ENDBRANCH  49  73
BRANCH  61  84
ATOM     84  C   UNL A   1      44.526  27.485  33.877  1.00  0.00     0.023 A 
ATOM     85  C   UNL A   1      45.757  28.165  33.807  1.00  0.00     0.012 A 
ATOM     86  C   UNL A   1      44.408  26.346  34.700  1.00  0.00     0.148 A 
ATOM     87  C   UNL A   1      46.856  27.717  34.538  1.00  0.00     0.002 A 
ATOM     88  C   UNL A   1      45.493  25.935  35.464  1.00  0.00     0.091 A 
ATOM     89  F   UNL A   1      43.228  25.709  34.742  1.00  0.00    -0.205 F 
ATOM     90  C   UNL A   1      46.719  26.613  35.378  1.00  0.00     0.022 A 
BRANCH  88  91
ATOM     91  S   UNL A   1      45.389  24.593  36.655  1.00  0.00     0.127 S 
ATOM     92  O   UNL A   1      45.170  23.439  35.784  1.00  0.00    -0.237 OA
ATOM     93  O   UNL A   1      46.708  24.641  37.286  1.00  0.00    -0.237 OA
ATOM     94  O   UNL A   1      44.278  24.921  37.539  1.00  0.00    -0.744 OA
ENDBRANCH  88  91
ENDBRANCH  61  84
ENDBRANCH  35  36
ENDBRANCH  27  30
ENDBRANCH   1  26
TORSDOF 14
ENDMDL
MODEL 3
REMARK VINA RESULT:     -12.0      3.196      4.427
REMARK SMILES Cc1c(Br)c(C)c2c(c1Br)O[C@H](C(F)(F)F)C(C(=O)NCCCNC(=O)c1ccc(-c3c4nc(c(-c5cccc(S(=O)(=O)[O-])c5F)c5ccc([nH]5)c(-c5cccc(S(=O)(=O)[O-])c5F)c5nc(c(-c6cccc(S(=O)(=O)[O-])c6F)c6ccc3[nH]6)C=C5)C=C4)cc1)=C2
REMARK SMILES IDX 23 1 22 2 21 3 20 4 18 5 19 6 17 8 1 9 2 10 3 11 9 12 4 13
REMARK SMILES IDX 5 14 8 15 10 16 6 17 7 18 11 19 90 20 12 21 13 22 14 23
REMARK SMILES IDX 15 24 16 25 24 26 25 27 26 29 27 30 28 31 89 32 29 33 88 34
REMARK SMILES IDX 30 35 31 36 32 37 82 38 33 39 87 40 81 41 83 42 34 43 86 44
REMARK SMILES IDX 80 45 79 46 35 48 67 49 47 50 66 51 48 52 51 53 65 54 84 55
REMARK SMILES IDX 49 56 50 57 64 59 85 60 52 61 36 62 37 63 45 64 38 65 40 66
REMARK SMILES IDX 46 67 39 68 41 69 42 70 43 71 44 72 68 73 69 74 77 75 70 76
REMARK SMILES IDX 72 77 78 78 71 79 73 80 74 81 75 82 76 83 53 84 54 85 62 86
REMARK SMILES IDX 55 87 57 88 63 89 56 90 58 91 59 92 60 93 61 94
REMARK H PARENT 20 7 24 28 83 47 51 58
REMARK Flexibility Score: inf
ROOT
ATOM      1  C   UNL A   1      32.336  32.110  27.112  1.00  0.00     0.118 C 
ENDROOT
BRANCH   1   2
ATOM      2  C   UNL A   1      31.176  31.827  26.165  1.00  0.00     0.042 C 
BRANCH   2   3
ATOM      3  C   UNL A   1      31.326  30.486  25.463  1.00  0.00     0.118 C 
BRANCH   3   4
ATOM      4  N   UNL A   1      30.512  30.412  24.257  1.00  0.00    -0.352 N 
ATOM      5  C   UNL A   1      30.235  29.497  23.301  1.00  0.00     0.251 C 
ATOM      6  O   UNL A   1      29.454  29.875  22.422  1.00  0.00    -0.270 OA
ATOM      7  H   UNL A   1      30.034  31.256  24.094  1.00  0.00     0.163 HD
BRANCH   5   8
ATOM      8  C   UNL A   1      30.777  28.108  23.258  1.00  0.00     0.067 C 
ATOM      9  C   UNL A   1      32.387  21.822  24.136  1.00  0.00     0.047 C 
ATOM     10  C   UNL A   1      31.803  23.214  24.192  1.00  0.00    -0.019 A 
ATOM     11  C   UNL A   1      30.928  23.645  25.220  1.00  0.00     0.025 A 
ATOM     12  C   UNL A   1      32.110  24.123  23.159  1.00  0.00     0.064 A 
ATOM     13  Br  UNL A   1      30.422  22.405  26.596  1.00  0.00    -0.050 Br
ATOM     14  C   UNL A   1      30.402  24.966  25.244  1.00  0.00    -0.026 A 
ATOM     15  C   UNL A   1      31.596  25.427  23.173  1.00  0.00     0.142 A 
ATOM     16  Br  UNL A   1      33.251  23.617  21.704  1.00  0.00    -0.046 Br
ATOM     17  C   UNL A   1      29.478  25.456  26.339  1.00  0.00     0.046 C 
ATOM     18  C   UNL A   1      30.749  25.858  24.200  1.00  0.00     0.022 A 
ATOM     19  O   UNL A   1      31.914  26.241  22.117  1.00  0.00    -0.474 OA
ATOM     20  C   UNL A   1      30.232  27.232  24.122  1.00  0.00     0.026 C 
ATOM     21  C   UNL A   1      31.887  27.667  22.358  1.00  0.00     0.314 C 
BRANCH  21  22
ATOM     22  C   UNL A   1      33.271  28.142  22.840  1.00  0.00     0.429 C 
ATOM     23  F   UNL A   1      34.259  27.551  22.124  1.00  0.00    -0.167 F 
ATOM     24  F   UNL A   1      33.441  29.478  22.698  1.00  0.00    -0.167 F 
ATOM     25  F   UNL A   1      33.492  27.860  24.145  1.00  0.00    -0.167 F 
ENDBRANCH  21  22
ENDBRANCH   5   8
ENDBRANCH   3   4
ENDBRANCH   2   3
ENDBRANCH   1   2
BRANCH   1  26
ATOM     26  N   UNL A   1      32.428  33.529  27.445  1.00  0.00    -0.352 N 
ATOM     27  C   UNL A   1      33.248  34.174  28.338  1.00  0.00     0.251 C 
ATOM     28  H   UNL A   1      31.808  34.114  26.953  1.00  0.00     0.163 HD
ATOM     29  O   UNL A   1      32.979  35.321  28.694  1.00  0.00    -0.269 OA
BRANCH  27  30
ATOM     30  C   UNL A   1      34.443  33.492  28.868  1.00  0.00     0.039 A 
ATOM     31  C   UNL A   1      35.708  34.039  28.644  1.00  0.00     0.014 A 
ATOM     32  C   UNL A   1      34.310  32.291  29.567  1.00  0.00     0.014 A 
ATOM     33  C   UNL A   1      36.834  33.408  29.176  1.00  0.00     0.010 A 
ATOM     34  C   UNL A   1      35.415  31.725  30.186  1.00  0.00     0.010 A 
ATOM     35  C   UNL A   1      36.691  32.262  29.976  1.00  0.00    -0.014 A 
BRANCH  35  36
ATOM     36  C   UNL A   1      37.864  31.585  30.577  1.00  0.00     0.031 A 
ATOM     37  C   UNL A   1      38.300  31.935  31.974  1.00  0.00     0.074 A 
ATOM     38  C   UNL A   1      38.573  30.705  29.843  1.00  0.00     0.049 A 
ATOM     39  N   UNL A   1      39.305  31.467  32.665  1.00  0.00    -0.248 NA
ATOM     40  C   UNL A   1      37.522  32.970  32.678  1.00  0.00     0.031 C 
ATOM     41  C   UNL A   1      38.290  30.345  28.453  1.00  0.00     0.029 A 
ATOM     42  N   UNL A   1      39.679  29.960  30.161  1.00  0.00    -0.354 N 
ATOM     43  C   UNL A   1      39.290  32.160  33.869  1.00  0.00     0.074 A 
ATOM     44  C   UNL A   1      38.224  33.131  33.789  1.00  0.00     0.031 C 
ATOM     45  C   UNL A   1      39.172  29.418  28.052  1.00  0.00     0.029 A 
ATOM     46  C   UNL A   1      40.100  29.137  29.142  1.00  0.00     0.049 A 
ATOM     47  H   UNL A   1      40.130  30.009  31.035  1.00  0.00     0.167 HD
ATOM     48  C   UNL A   1      40.055  31.967  34.969  1.00  0.00     0.034 A 
ATOM     49  C   UNL A   1      41.108  28.244  29.102  1.00  0.00     0.034 A 
ATOM     50  C   UNL A   1      41.082  30.967  35.056  1.00  0.00     0.049 A 
ATOM     51  C   UNL A   1      41.950  28.044  30.334  1.00  0.00     0.074 A 
ATOM     52  C   UNL A   1      41.873  30.640  36.141  1.00  0.00     0.029 A 
ATOM     53  N   UNL A   1      41.460  30.131  34.016  1.00  0.00    -0.354 N 
ATOM     54  N   UNL A   1      41.830  28.607  31.512  1.00  0.00    -0.248 NA
ATOM     55  C   UNL A   1      43.048  27.071  30.240  1.00  0.00     0.031 C 
ATOM     56  C   UNL A   1      42.742  29.616  35.751  1.00  0.00     0.029 A 
ATOM     57  C   UNL A   1      42.482  29.296  34.427  1.00  0.00     0.049 A 
ATOM     58  H   UNL A   1      41.060  30.133  33.117  1.00  0.00     0.167 HD
ATOM     59  C   UNL A   1      42.821  28.043  32.308  1.00  0.00     0.074 A 
ATOM     60  C   UNL A   1      43.518  27.077  31.482  1.00  0.00     0.031 C 
ATOM     61  C   UNL A   1      43.136  28.312  33.599  1.00  0.00     0.034 A 
BRANCH  48  62
ATOM     62  C   UNL A   1      39.743  32.799  36.186  1.00  0.00     0.023 A 
ATOM     63  C   UNL A   1      40.366  34.057  36.333  1.00  0.00     0.012 A 
ATOM     64  C   UNL A   1      38.826  32.367  37.161  1.00  0.00     0.148 A 
ATOM     65  C   UNL A   1      40.119  34.849  37.452  1.00  0.00     0.002 A 
ATOM     66  C   UNL A   1      38.548  33.184  38.253  1.00  0.00     0.091 A 
ATOM     67  F   UNL A   1      38.260  31.160  37.020  1.00  0.00    -0.205 F 
ATOM     68  C   UNL A   1      39.204  34.417  38.407  1.00  0.00     0.022 A 
BRANCH  66  69
ATOM     69  S   UNL A   1      37.326  32.755  39.498  1.00  0.00     0.127 S 
ATOM     70  O   UNL A   1      36.102  32.694  38.699  1.00  0.00    -0.237 OA
ATOM     71  O   UNL A   1      37.808  31.458  39.971  1.00  0.00    -0.237 OA
ATOM     72  O   UNL A   1      37.376  33.819  40.490  1.00  0.00    -0.744 OA
ENDBRANCH  66  69
ENDBRANCH  48  62
BRANCH  49  73
ATOM     73  C   UNL A   1      41.284  27.395  27.890  1.00  0.00     0.023 A 
ATOM     74  C   UNL A   1      41.932  27.944  26.766  1.00  0.00     0.012 A 
ATOM     75  C   UNL A   1      40.908  26.037  27.870  1.00  0.00     0.148 A 
ATOM     76  C   UNL A   1      42.195  27.160  25.642  1.00  0.00     0.002 A 
ATOM     77  C   UNL A   1      41.219  25.249  26.767  1.00  0.00     0.091 A 
ATOM     78  F   UNL A   1      40.292  25.536  28.949  1.00  0.00    -0.205 F 
ATOM     79  C   UNL A   1      41.851  25.812  25.647  1.00  0.00     0.022 A 
BRANCH  77  80
ATOM     80  S   UNL A   1      40.940  23.474  26.731  1.00  0.00     0.127 S 
ATOM     81  O   UNL A   1      41.816  23.055  25.641  1.00  0.00    -0.237 OA
ATOM     82  O   UNL A   1      41.384  23.076  28.067  1.00  0.00    -0.237 OA
ATOM     83  O   UNL A   1      39.514  23.302  26.491  1.00  0.00    -0.744 OA
ENDBRANCH  77  80
ENDBRANCH  49  73
BRANCH  61  84
ATOM     84  C   UNL A   1      44.292  27.570  34.216  1.00  0.00     0.023 A 
ATOM     85  C   UNL A   1      45.583  28.131  34.148  1.00  0.00     0.012 A 
ATOM     86  C   UNL A   1      44.080  26.407  34.983  1.00  0.00     0.148 A 
ATOM     87  C   UNL A   1      46.647  27.540  34.828  1.00  0.00     0.002 A 
ATOM     88  C   UNL A   1      45.134  25.854  35.698  1.00  0.00     0.091 A 
ATOM     89  F   UNL A   1      42.844  25.887  35.024  1.00  0.00    -0.205 F 
ATOM     90  C   UNL A   1      46.420  26.413  35.615  1.00  0.00     0.022 A 
BRANCH  88  91
ATOM     91  S   UNL A   1      44.924  24.469  36.823  1.00  0.00     0.127 S 
ATOM     92  O   UNL A   1      44.392  23.439  35.932  1.00  0.00    -0.237 OA
ATOM     93  O   UNL A   1      46.294  24.233  37.281  1.00  0.00    -0.237 OA
ATOM     94  O   UNL A   1      44.006  24.924  37.859  1.00  0.00    -0.744 OA
ENDBRANCH  88  91
ENDBRANCH  61  84
ENDBRANCH  35  36
ENDBRANCH  27  30
ENDBRANCH   1  26
TORSDOF 14
ENDMDL
