MODEL 1
REMARK VINA RESULT:     -11.6      0.000      0.000
REMARK SMILES Cc1cc(C(=O)NCCCNC(=O)c2ccc(-c3c4nc(c(-c5cccc(S(=O)(=O)[O-])c5F)c5ccc([nH]5)c(-c5cccc(S(=O)(=O)[O-])c5F)c5nc(c(-c6cccc(S(=O)(=O)[O-])c6F)c6ccc3[nH]6)C=C5)C=C4)cc2)cc(C)c1OC[C@H]1C[N@@H+](C)CCO1
REMARK SMILES IDX 9 1 8 2 7 3 5 4 6 5 4 7 1 8 2 9 3 10 80 11 78 12 77 13 79 14
REMARK SMILES IDX 81 15 82 16 83 17 84 18 89 19 85 20 88 21 86 22 87 23 10 25
REMARK SMILES IDX 11 26 12 27 13 29 14 30 15 31 76 32 16 33 75 34 17 35 18 36
REMARK SMILES IDX 19 37 69 38 20 39 74 40 68 41 70 42 21 43 73 44 67 45 66 46
REMARK SMILES IDX 22 48 54 49 34 50 53 51 35 52 38 53 52 54 71 55 36 56 37 57
REMARK SMILES IDX 51 59 72 60 39 61 23 62 24 63 32 64 25 65 27 66 33 67 26 68
REMARK SMILES IDX 28 69 29 70 30 71 31 72 55 73 56 74 64 75 57 76 59 77 65 78
REMARK SMILES IDX 58 79 60 80 61 81 62 82 63 83 40 84 41 85 49 86 42 87 44 88
REMARK SMILES IDX 50 89 43 90 45 91 46 92 47 93 48 94
REMARK H PARENT 7 6 85 24 11 28 70 47 38 58
REMARK Flexibility Score: inf
ROOT
ATOM      1  C   UNL A   1      32.795  29.006  25.319  1.00  0.00     0.042 C 
ENDROOT
BRANCH   1   2
ATOM      2  C   UNL A   1      33.145  29.179  23.851  1.00  0.00     0.118 C 
BRANCH   2   3
ATOM      3  N   UNL A   1      31.983  29.343  22.992  1.00  0.00    -0.352 N 
ATOM      4  C   UNL A   1      30.973  28.485  22.640  1.00  0.00     0.251 C 
ATOM      5  O   UNL A   1      30.144  28.865  21.813  1.00  0.00    -0.269 OA
ATOM      6  H   UNL A   1      31.908  30.237  22.587  1.00  0.00     0.163 HD
BRANCH   4   7
ATOM      7  C   UNL A   1      30.875  27.108  23.182  1.00  0.00     0.040 A 
ATOM      8  C   UNL A   1      32.586  23.894  22.262  1.00  0.00     0.048 C 
ATOM      9  C   UNL A   1      31.648  24.781  23.019  1.00  0.00    -0.008 A 
ATOM     10  C   UNL A   1      31.615  26.113  22.545  1.00  0.00     0.021 A 
ATOM     11  C   UNL A   1      30.878  24.436  24.142  1.00  0.00     0.125 A 
ATOM     12  C   UNL A   1      30.161  25.458  24.812  1.00  0.00    -0.008 A 
ATOM     13  C   UNL A   1      30.107  26.760  24.283  1.00  0.00     0.021 A 
ATOM     14  C   UNL A   1      29.564  25.256  26.183  1.00  0.00     0.048 C 
BRANCH  11  15
ATOM     15  O   UNL A   1      30.776  23.213  24.742  1.00  0.00    -0.490 OA
BRANCH  15  16
ATOM     16  C   UNL A   1      31.829  22.612  25.509  1.00  0.00     0.267 C 
BRANCH  16  17
ATOM     17  C   UNL A   1      32.609  21.458  24.847  1.00  0.00     0.210 C 
ATOM     18  C   UNL A   1      33.990  21.293  25.511  1.00  0.00     0.298 C 
ATOM     19  O   UNL A   1      31.913  20.196  25.039  1.00  0.00    -0.363 OA
ATOM     20  N   UNL A   1      34.766  20.350  24.690  1.00  0.00    -0.333 N 
ATOM     21  C   UNL A   1      32.629  19.121  24.395  1.00  0.00     0.222 C 
ATOM     22  C   UNL A   1      36.174  20.347  25.049  1.00  0.00     0.332 C 
ATOM     23  C   UNL A   1      34.120  19.035  24.804  1.00  0.00     0.290 C 
ATOM     24  H   UNL A   1      34.764  20.635  23.711  1.00  0.00     0.348 HD
ENDBRANCH  16  17
ENDBRANCH  15  16
ENDBRANCH  11  15
ENDBRANCH   4   7
ENDBRANCH   2   3
ENDBRANCH   1   2
BRANCH   1  25
ATOM     25  C   UNL A   1      33.942  29.277  26.279  1.00  0.00     0.118 C 
BRANCH  25  26
ATOM     26  N   UNL A   1      33.834  30.571  26.942  1.00  0.00    -0.352 N 
ATOM     27  C   UNL A   1      34.587  31.135  27.942  1.00  0.00     0.251 C 
ATOM     28  H   UNL A   1      33.095  31.135  26.619  1.00  0.00     0.163 HD
ATOM     29  O   UNL A   1      34.177  32.153  28.499  1.00  0.00    -0.269 OA
BRANCH  27  30
ATOM     30  C   UNL A   1      35.870  30.531  28.362  1.00  0.00     0.039 A 
ATOM     31  C   UNL A   1      37.041  30.863  27.675  1.00  0.00     0.014 A 
ATOM     32  C   UNL A   1      35.920  29.610  29.409  1.00  0.00     0.014 A 
ATOM     33  C   UNL A   1      38.263  30.319  28.081  1.00  0.00     0.010 A 
ATOM     34  C   UNL A   1      37.147  29.167  29.888  1.00  0.00     0.010 A 
ATOM     35  C   UNL A   1      38.330  29.491  29.214  1.00  0.00    -0.014 A 
BRANCH  35  36
ATOM     36  C   UNL A   1      39.618  28.927  29.696  1.00  0.00     0.031 A 
ATOM     37  C   UNL A   1      40.357  29.597  30.827  1.00  0.00     0.074 A 
ATOM     38  C   UNL A   1      40.167  27.874  29.059  1.00  0.00     0.049 A 
ATOM     39  N   UNL A   1      41.524  29.304  31.339  1.00  0.00    -0.248 NA
ATOM     40  C   UNL A   1      39.719  30.776  31.439  1.00  0.00     0.031 C 
ATOM     41  C   UNL A   1      39.597  27.196  27.892  1.00  0.00     0.029 A 
ATOM     42  N   UNL A   1      41.343  27.204  29.286  1.00  0.00    -0.354 N 
ATOM     43  C   UNL A   1      41.779  30.284  32.291  1.00  0.00     0.074 A 
ATOM     44  C   UNL A   1      40.668  31.207  32.256  1.00  0.00     0.031 C 
ATOM     45  C   UNL A   1      40.415  26.200  27.515  1.00  0.00     0.029 A 
ATOM     46  C   UNL A   1      41.581  26.186  28.392  1.00  0.00     0.049 A 
ATOM     47  H   UNL A   1      41.958  27.430  30.021  1.00  0.00     0.167 HD
ATOM     48  C   UNL A   1      42.824  30.389  33.145  1.00  0.00     0.034 A 
ATOM     49  C   UNL A   1      42.623  25.338  28.290  1.00  0.00     0.034 A 
ATOM     50  C   UNL A   1      43.894  29.432  33.219  1.00  0.00     0.049 A 
ATOM     51  C   UNL A   1      43.737  25.431  29.298  1.00  0.00     0.074 A 
ATOM     52  C   UNL A   1      44.949  29.388  34.113  1.00  0.00     0.029 A 
ATOM     53  N   UNL A   1      44.044  28.349  32.367  1.00  0.00    -0.354 N 
ATOM     54  N   UNL A   1      43.879  26.270  30.295  1.00  0.00    -0.248 NA
ATOM     55  C   UNL A   1      44.810  24.432  29.195  1.00  0.00     0.031 C 
ATOM     56  C   UNL A   1      45.748  28.287  33.788  1.00  0.00     0.029 A 
ATOM     57  C   UNL A   1      45.175  27.631  32.710  1.00  0.00     0.049 A 
ATOM     58  H   UNL A   1      43.436  28.126  31.627  1.00  0.00     0.167 HD
ATOM     59  C   UNL A   1      45.035  25.879  30.960  1.00  0.00     0.074 A 
ATOM     60  C   UNL A   1      45.541  24.713  30.265  1.00  0.00     0.031 C 
ATOM     61  C   UNL A   1      45.633  26.441  32.041  1.00  0.00     0.034 A 
BRANCH  48  62
ATOM     62  C   UNL A   1      42.826  31.547  34.112  1.00  0.00     0.023 A 
ATOM     63  C   UNL A   1      43.382  32.782  33.719  1.00  0.00     0.012 A 
ATOM     64  C   UNL A   1      42.238  31.431  35.386  1.00  0.00     0.148 A 
ATOM     65  C   UNL A   1      43.392  33.869  34.591  1.00  0.00     0.002 A 
ATOM     66  C   UNL A   1      42.206  32.534  36.232  1.00  0.00     0.091 A 
ATOM     67  F   UNL A   1      41.732  30.245  35.753  1.00  0.00    -0.205 F 
ATOM     68  C   UNL A   1      42.794  33.748  35.842  1.00  0.00     0.022 A 
BRANCH  66  69
ATOM     69  S   UNL A   1      41.387  32.506  37.831  1.00  0.00     0.127 S 
ATOM     70  O   UNL A   1      42.213  31.550  38.569  1.00  0.00    -0.237 OA
ATOM     71  O   UNL A   1      41.526  33.895  38.271  1.00  0.00    -0.237 OA
ATOM     72  O   UNL A   1      40.019  32.084  37.575  1.00  0.00    -0.744 OA
ENDBRANCH  66  69
ENDBRANCH  48  62
BRANCH  49  73
ATOM     73  C   UNL A   1      42.621  24.277  27.243  1.00  0.00     0.023 A 
ATOM     74  C   UNL A   1      43.303  24.502  26.032  1.00  0.00     0.012 A 
ATOM     75  C   UNL A   1      41.979  23.040  27.450  1.00  0.00     0.148 A 
ATOM     76  C   UNL A   1      43.317  23.530  25.030  1.00  0.00     0.002 A 
ATOM     77  C   UNL A   1      42.042  22.056  26.470  1.00  0.00     0.091 A 
ATOM     78  F   UNL A   1      41.327  22.849  28.605  1.00  0.00    -0.205 F 
ATOM     79  C   UNL A   1      42.695  22.305  25.252  1.00  0.00     0.022 A 
BRANCH  77  80
ATOM     80  S   UNL A   1      41.385  20.404  26.727  1.00  0.00     0.127 S 
ATOM     81  O   UNL A   1      39.954  20.672  26.873  1.00  0.00    -0.237 OA
ATOM     82  O   UNL A   1      41.758  19.735  25.476  1.00  0.00    -0.237 OA
ATOM     83  O   UNL A   1      42.057  19.889  27.905  1.00  0.00    -0.744 OA
ENDBRANCH  77  80
ENDBRANCH  49  73
BRANCH  61  84
ATOM     84  C   UNL A   1      46.878  25.780  32.569  1.00  0.00     0.023 A 
ATOM     85  C   UNL A   1      48.143  26.184  32.098  1.00  0.00     0.012 A 
ATOM     86  C   UNL A   1      46.796  24.807  33.585  1.00  0.00     0.148 A 
ATOM     87  C   UNL A   1      49.305  25.602  32.602  1.00  0.00     0.002 A 
ATOM     88  C   UNL A   1      47.960  24.268  34.118  1.00  0.00     0.091 A 
ATOM     89  F   UNL A   1      45.582  24.422  34.006  1.00  0.00    -0.205 F 
ATOM     90  C   UNL A   1      49.214  24.654  33.618  1.00  0.00     0.022 A 
BRANCH  88  91
ATOM     91  S   UNL A   1      47.940  23.118  35.497  1.00  0.00     0.127 S 
ATOM     92  O   UNL A   1      47.289  23.913  36.537  1.00  0.00    -0.237 OA
ATOM     93  O   UNL A   1      47.129  22.018  34.974  1.00  0.00    -0.237 OA
ATOM     94  O   UNL A   1      49.332  22.771  35.750  1.00  0.00    -0.744 OA
ENDBRANCH  88  91
ENDBRANCH  61  84
ENDBRANCH  35  36
ENDBRANCH  27  30
ENDBRANCH  25  26
ENDBRANCH   1  25
TORSDOF 16
ENDMDL
MODEL 2
REMARK VINA RESULT:     -11.6      3.341      8.612
REMARK SMILES Cc1cc(C(=O)NCCCNC(=O)c2ccc(-c3c4nc(c(-c5cccc(S(=O)(=O)[O-])c5F)c5ccc([nH]5)c(-c5cccc(S(=O)(=O)[O-])c5F)c5nc(c(-c6cccc(S(=O)(=O)[O-])c6F)c6ccc3[nH]6)C=C5)C=C4)cc2)cc(C)c1OC[C@H]1C[N@@H+](C)CCO1
REMARK SMILES IDX 9 1 8 2 7 3 5 4 6 5 4 7 1 8 2 9 3 10 80 11 78 12 77 13 79 14
REMARK SMILES IDX 81 15 82 16 83 17 84 18 89 19 85 20 88 21 86 22 87 23 10 25
REMARK SMILES IDX 11 26 12 27 13 29 14 30 15 31 76 32 16 33 75 34 17 35 18 36
REMARK SMILES IDX 19 37 69 38 20 39 74 40 68 41 70 42 21 43 73 44 67 45 66 46
REMARK SMILES IDX 22 48 54 49 34 50 53 51 35 52 38 53 52 54 71 55 36 56 37 57
REMARK SMILES IDX 51 59 72 60 39 61 23 62 24 63 32 64 25 65 27 66 33 67 26 68
REMARK SMILES IDX 28 69 29 70 30 71 31 72 55 73 56 74 64 75 57 76 59 77 65 78
REMARK SMILES IDX 58 79 60 80 61 81 62 82 63 83 40 84 41 85 49 86 42 87 44 88
REMARK SMILES IDX 50 89 43 90 45 91 46 92 47 93 48 94
REMARK H PARENT 7 6 85 24 11 28 70 47 38 58
REMARK Flexibility Score: inf
ROOT
ATOM      1  C   UNL A   1      31.556  32.041  26.861  1.00  0.00     0.042 C 
ENDROOT
BRANCH   1   2
ATOM      2  C   UNL A   1      31.824  30.546  26.823  1.00  0.00     0.118 C 
BRANCH   2   3
ATOM      3  N   UNL A   1      33.206  30.196  27.108  1.00  0.00    -0.352 N 
ATOM      4  C   UNL A   1      33.954  29.088  26.801  1.00  0.00     0.251 C 
ATOM      5  O   UNL A   1      35.100  29.014  27.245  1.00  0.00    -0.269 OA
ATOM      6  H   UNL A   1      33.697  30.882  27.617  1.00  0.00     0.163 HD
BRANCH   4   7
ATOM      7  C   UNL A   1      33.418  27.965  25.996  1.00  0.00     0.040 A 
ATOM      8  C   UNL A   1      33.686  27.105  22.349  1.00  0.00     0.048 C 
ATOM      9  C   UNL A   1      33.245  26.938  23.770  1.00  0.00    -0.008 A 
ATOM     10  C   UNL A   1      33.651  27.990  24.621  1.00  0.00     0.021 A 
ATOM     11  C   UNL A   1      32.544  25.849  24.315  1.00  0.00     0.125 A 
ATOM     12  C   UNL A   1      32.346  25.805  25.717  1.00  0.00    -0.008 A 
ATOM     13  C   UNL A   1      32.716  26.893  26.528  1.00  0.00     0.021 A 
ATOM     14  C   UNL A   1      31.888  24.554  26.427  1.00  0.00     0.048 C 
BRANCH  11  15
ATOM     15  O   UNL A   1      32.068  24.748  23.661  1.00  0.00    -0.490 OA
BRANCH  15  16
ATOM     16  C   UNL A   1      32.879  23.903  22.832  1.00  0.00     0.267 C 
BRANCH  16  17
ATOM     17  C   UNL A   1      33.189  22.489  23.361  1.00  0.00     0.210 C 
ATOM     18  C   UNL A   1      34.309  22.545  24.419  1.00  0.00     0.298 C 
ATOM     19  O   UNL A   1      32.026  21.928  24.030  1.00  0.00    -0.363 OA
ATOM     20  N   UNL A   1      34.718  21.161  24.704  1.00  0.00    -0.333 N 
ATOM     21  C   UNL A   1      32.309  20.593  24.500  1.00  0.00     0.222 C 
ATOM     22  C   UNL A   1      35.959  21.104  25.457  1.00  0.00     0.332 C 
ATOM     23  C   UNL A   1      33.587  20.498  25.370  1.00  0.00     0.290 C 
ATOM     24  H   UNL A   1      34.932  20.660  23.842  1.00  0.00     0.348 HD
ENDBRANCH  16  17
ENDBRANCH  15  16
ENDBRANCH  11  15
ENDBRANCH   4   7
ENDBRANCH   2   3
ENDBRANCH   1   2
BRANCH   1  25
ATOM     25  C   UNL A   1      32.803  32.904  26.971  1.00  0.00     0.118 C 
BRANCH  25  26
ATOM     26  N   UNL A   1      32.558  34.171  27.649  1.00  0.00    -0.352 N 
ATOM     27  C   UNL A   1      33.091  34.693  28.802  1.00  0.00     0.251 C 
ATOM     28  H   UNL A   1      31.898  34.751  27.205  1.00  0.00     0.163 HD
ATOM     29  O   UNL A   1      32.573  35.690  29.304  1.00  0.00    -0.269 OA
BRANCH  27  30
ATOM     30  C   UNL A   1      34.264  34.066  29.449  1.00  0.00     0.039 A 
ATOM     31  C   UNL A   1      35.547  34.510  29.118  1.00  0.00     0.014 A 
ATOM     32  C   UNL A   1      34.107  33.018  30.357  1.00  0.00     0.014 A 
ATOM     33  C   UNL A   1      36.661  33.944  29.744  1.00  0.00     0.010 A 
ATOM     34  C   UNL A   1      35.203  32.543  31.067  1.00  0.00     0.010 A 
ATOM     35  C   UNL A   1      36.496  32.978  30.750  1.00  0.00    -0.014 A 
BRANCH  35  36
ATOM     36  C   UNL A   1      37.656  32.383  31.463  1.00  0.00     0.031 A 
ATOM     37  C   UNL A   1      38.427  31.250  30.833  1.00  0.00     0.074 A 
ATOM     38  C   UNL A   1      37.957  32.793  32.711  1.00  0.00     0.049 A 
ATOM     39  N   UNL A   1      39.417  30.550  31.325  1.00  0.00    -0.248 NA
ATOM     40  C   UNL A   1      38.005  30.819  29.488  1.00  0.00     0.031 C 
ATOM     41  C   UNL A   1      37.228  33.816  33.467  1.00  0.00     0.029 A 
ATOM     42  N   UNL A   1      38.940  32.384  33.576  1.00  0.00    -0.354 N 
ATOM     43  C   UNL A   1      39.700  29.573  30.377  1.00  0.00     0.074 A 
ATOM     44  C   UNL A   1      38.750  29.739  29.301  1.00  0.00     0.031 C 
ATOM     45  C   UNL A   1      37.797  33.962  34.674  1.00  0.00     0.029 A 
ATOM     46  C   UNL A   1      38.910  33.025  34.793  1.00  0.00     0.049 A 
ATOM     47  H   UNL A   1      39.605  31.694  33.347  1.00  0.00     0.167 HD
ATOM     48  C   UNL A   1      40.685  28.645  30.381  1.00  0.00     0.034 A 
ATOM     49  C   UNL A   1      39.690  32.875  35.880  1.00  0.00     0.034 A 
ATOM     50  C   UNL A   1      41.667  28.527  31.424  1.00  0.00     0.049 A 
ATOM     51  C   UNL A   1      40.824  31.886  35.830  1.00  0.00     0.074 A 
ATOM     52  C   UNL A   1      42.766  27.688  31.480  1.00  0.00     0.029 A 
ATOM     53  N   UNL A   1      41.669  29.271  32.593  1.00  0.00    -0.354 N 
ATOM     54  N   UNL A   1      41.173  31.081  34.856  1.00  0.00    -0.248 NA
ATOM     55  C   UNL A   1      41.696  31.817  37.010  1.00  0.00     0.031 C 
ATOM     56  C   UNL A   1      43.422  27.914  32.695  1.00  0.00     0.029 A 
ATOM     57  C   UNL A   1      42.748  28.911  33.380  1.00  0.00     0.049 A 
ATOM     58  H   UNL A   1      41.001  29.954  32.828  1.00  0.00     0.167 HD
ATOM     59  C   UNL A   1      42.326  30.437  35.289  1.00  0.00     0.074 A 
ATOM     60  C   UNL A   1      42.628  30.964  36.605  1.00  0.00     0.031 C 
ATOM     61  C   UNL A   1      43.064  29.486  34.663  1.00  0.00     0.034 A 
BRANCH  48  62
ATOM     62  C   UNL A   1      40.787  27.726  29.189  1.00  0.00     0.023 A 
ATOM     63  C   UNL A   1      39.992  26.561  29.138  1.00  0.00     0.012 A 
ATOM     64  C   UNL A   1      41.627  28.034  28.102  1.00  0.00     0.148 A 
ATOM     65  C   UNL A   1      40.063  25.697  28.046  1.00  0.00     0.002 A 
ATOM     66  C   UNL A   1      41.655  27.195  26.994  1.00  0.00     0.091 A 
ATOM     67  F   UNL A   1      42.391  29.134  28.175  1.00  0.00    -0.205 F 
ATOM     68  C   UNL A   1      40.885  26.020  26.971  1.00  0.00     0.022 A 
BRANCH  66  69
ATOM     69  S   UNL A   1      42.617  27.564  25.522  1.00  0.00     0.127 S 
ATOM     70  O   UNL A   1      43.971  27.655  26.070  1.00  0.00    -0.237 OA
ATOM     71  O   UNL A   1      42.375  26.381  24.694  1.00  0.00    -0.237 OA
ATOM     72  O   UNL A   1      42.074  28.802  24.987  1.00  0.00    -0.744 OA
ENDBRANCH  66  69
ENDBRANCH  48  62
BRANCH  49  73
ATOM     73  C   UNL A   1      39.477  33.738  37.077  1.00  0.00     0.023 A 
ATOM     74  C   UNL A   1      39.909  35.078  37.046  1.00  0.00     0.012 A 
ATOM     75  C   UNL A   1      38.824  33.253  38.227  1.00  0.00     0.148 A 
ATOM     76  C   UNL A   1      39.729  35.911  38.152  1.00  0.00     0.002 A 
ATOM     77  C   UNL A   1      38.598  34.104  39.304  1.00  0.00     0.091 A 
ATOM     78  F   UNL A   1      38.428  31.974  38.240  1.00  0.00    -0.205 F 
ATOM     79  C   UNL A   1      39.066  35.427  39.275  1.00  0.00     0.022 A 
BRANCH  77  80
ATOM     80  S   UNL A   1      37.636  33.603  40.735  1.00  0.00     0.127 S 
ATOM     81  O   UNL A   1      37.453  34.879  41.431  1.00  0.00    -0.237 OA
ATOM     82  O   UNL A   1      36.422  33.069  40.109  1.00  0.00    -0.237 OA
ATOM     83  O   UNL A   1      38.439  32.613  41.426  1.00  0.00    -0.744 OA
ENDBRANCH  77  80
ENDBRANCH  49  73
BRANCH  61  84
ATOM     84  C   UNL A   1      44.293  28.981  35.368  1.00  0.00     0.023 A 
ATOM     85  C   UNL A   1      45.540  29.596  35.134  1.00  0.00     0.012 A 
ATOM     86  C   UNL A   1      44.200  27.942  36.314  1.00  0.00     0.148 A 
ATOM     87  C   UNL A   1      46.681  29.158  35.805  1.00  0.00     0.002 A 
ATOM     88  C   UNL A   1      45.333  27.545  37.015  1.00  0.00     0.091 A 
ATOM     89  F   UNL A   1      43.010  27.357  36.508  1.00  0.00    -0.205 F 
ATOM     90  C   UNL A   1      46.576  28.142  36.752  1.00  0.00     0.022 A 
BRANCH  88  91
ATOM     91  S   UNL A   1      45.268  26.317  38.323  1.00  0.00     0.127 S 
ATOM     92  O   UNL A   1      44.264  26.888  39.219  1.00  0.00    -0.237 OA
ATOM     93  O   UNL A   1      44.833  25.118  37.605  1.00  0.00    -0.237 OA
ATOM     94  O   UNL A   1      46.619  26.236  38.864  1.00  0.00    -0.744 OA
ENDBRANCH  88  91
ENDBRANCH  61  84
ENDBRANCH  35  36
ENDBRANCH  27  30
ENDBRANCH  25  26
ENDBRANCH   1  25
TORSDOF 16
ENDMDL
MODEL 3
REMARK VINA RESULT:     -11.6      2.287      7.852
REMARK SMILES Cc1cc(C(=O)NCCCNC(=O)c2ccc(-c3c4nc(c(-c5cccc(S(=O)(=O)[O-])c5F)c5ccc([nH]5)c(-c5cccc(S(=O)(=O)[O-])c5F)c5nc(c(-c6cccc(S(=O)(=O)[O-])c6F)c6ccc3[nH]6)C=C5)C=C4)cc2)cc(C)c1OC[C@H]1C[N@@H+](C)CCO1
REMARK SMILES IDX 9 1 8 2 7 3 5 4 6 5 4 7 1 8 2 9 3 10 80 11 78 12 77 13 79 14
REMARK SMILES IDX 81 15 82 16 83 17 84 18 89 19 85 20 88 21 86 22 87 23 10 25
REMARK SMILES IDX 11 26 12 27 13 29 14 30 15 31 76 32 16 33 75 34 17 35 18 36
REMARK SMILES IDX 19 37 69 38 20 39 74 40 68 41 70 42 21 43 73 44 67 45 66 46
REMARK SMILES IDX 22 48 54 49 34 50 53 51 35 52 38 53 52 54 71 55 36 56 37 57
REMARK SMILES IDX 51 59 72 60 39 61 23 62 24 63 32 64 25 65 27 66 33 67 26 68
REMARK SMILES IDX 28 69 29 70 30 71 31 72 55 73 56 74 64 75 57 76 59 77 65 78
REMARK SMILES IDX 58 79 60 80 61 81 62 82 63 83 40 84 41 85 49 86 42 87 44 88
REMARK SMILES IDX 50 89 43 90 45 91 46 92 47 93 48 94
REMARK H PARENT 7 6 85 24 11 28 70 47 38 58
REMARK Flexibility Score: inf
ROOT
ATOM      1  C   UNL A   1      33.242  29.173  24.132  1.00  0.00     0.042 C 
ENDROOT
BRANCH   1   2
ATOM      2  C   UNL A   1      32.179  28.956  23.069  1.00  0.00     0.118 C 
BRANCH   2   3
ATOM      3  N   UNL A   1      32.596  28.056  22.005  1.00  0.00    -0.352 N 
ATOM      4  C   UNL A   1      32.888  26.717  21.997  1.00  0.00     0.251 C 
ATOM      5  O   UNL A   1      33.305  26.214  20.954  1.00  0.00    -0.269 OA
ATOM      6  H   UNL A   1      32.687  28.491  21.126  1.00  0.00     0.163 HD
BRANCH   4   7
ATOM      7  C   UNL A   1      32.763  25.869  23.208  1.00  0.00     0.040 A 
ATOM      8  C   UNL A   1      35.312  24.245  25.438  1.00  0.00     0.048 C 
ATOM      9  C   UNL A   1      33.941  24.600  24.952  1.00  0.00    -0.008 A 
ATOM     10  C   UNL A   1      33.938  25.362  23.761  1.00  0.00     0.021 A 
ATOM     11  C   UNL A   1      32.718  24.305  25.578  1.00  0.00     0.125 A 
ATOM     12  C   UNL A   1      31.530  24.856  25.037  1.00  0.00    -0.008 A 
ATOM     13  C   UNL A   1      31.557  25.565  23.822  1.00  0.00     0.021 A 
ATOM     14  C   UNL A   1      30.226  24.857  25.795  1.00  0.00     0.048 C 
BRANCH  11  15
ATOM     15  O   UNL A   1      32.517  23.586  26.721  1.00  0.00    -0.490 OA
BRANCH  15  16
ATOM     16  C   UNL A   1      32.205  22.185  26.737  1.00  0.00     0.267 C 
BRANCH  16  17
ATOM     17  C   UNL A   1      32.854  21.310  25.646  1.00  0.00     0.210 C 
ATOM     18  C   UNL A   1      34.307  20.966  26.028  1.00  0.00     0.298 C 
ATOM     19  O   UNL A   1      32.155  20.041  25.526  1.00  0.00    -0.363 OA
ATOM     20  N   UNL A   1      34.937  20.342  24.854  1.00  0.00    -0.333 N 
ATOM     21  C   UNL A   1      32.746  19.234  24.485  1.00  0.00     0.222 C 
ATOM     22  C   UNL A   1      36.380  20.248  24.996  1.00  0.00     0.332 C 
ATOM     23  C   UNL A   1      34.276  19.047  24.638  1.00  0.00     0.290 C 
ATOM     24  H   UNL A   1      34.811  20.919  24.024  1.00  0.00     0.348 HD
ENDBRANCH  16  17
ENDBRANCH  15  16
ENDBRANCH  11  15
ENDBRANCH   4   7
ENDBRANCH   2   3
ENDBRANCH   1   2
BRANCH   1  25
ATOM     25  C   UNL A   1      32.711  29.228  25.555  1.00  0.00     0.118 C 
BRANCH  25  26
ATOM     26  N   UNL A   1      32.299  30.568  25.956  1.00  0.00    -0.352 N 
ATOM     27  C   UNL A   1      32.781  31.403  26.933  1.00  0.00     0.251 C 
ATOM     28  H   UNL A   1      31.546  30.935  25.440  1.00  0.00     0.163 HD
ATOM     29  O   UNL A   1      32.134  32.405  27.238  1.00  0.00    -0.269 OA
BRANCH  27  30
ATOM     30  C   UNL A   1      34.054  31.108  27.626  1.00  0.00     0.039 A 
ATOM     31  C   UNL A   1      34.940  32.152  27.905  1.00  0.00     0.014 A 
ATOM     32  C   UNL A   1      34.396  29.800  27.974  1.00  0.00     0.014 A 
ATOM     33  C   UNL A   1      36.133  31.889  28.585  1.00  0.00     0.010 A 
ATOM     34  C   UNL A   1      35.519  29.559  28.754  1.00  0.00     0.010 A 
ATOM     35  C   UNL A   1      36.417  30.594  29.045  1.00  0.00    -0.014 A 
BRANCH  35  36
ATOM     36  C   UNL A   1      37.657  30.286  29.804  1.00  0.00     0.031 A 
ATOM     37  C   UNL A   1      38.693  29.365  29.211  1.00  0.00     0.074 A 
ATOM     38  C   UNL A   1      37.807  30.754  31.059  1.00  0.00     0.049 A 
ATOM     39  N   UNL A   1      39.800  28.916  29.743  1.00  0.00    -0.248 NA
ATOM     40  C   UNL A   1      38.433  28.848  27.855  1.00  0.00     0.031 C 
ATOM     41  C   UNL A   1      36.833  31.577  31.780  1.00  0.00     0.029 A 
ATOM     42  N   UNL A   1      38.827  30.585  31.961  1.00  0.00    -0.354 N 
ATOM     43  C   UNL A   1      40.338  28.033  28.813  1.00  0.00     0.074 A 
ATOM     44  C   UNL A   1      39.416  27.973  27.703  1.00  0.00     0.031 C 
ATOM     45  C   UNL A   1      37.307  31.851  33.006  1.00  0.00     0.029 A 
ATOM     46  C   UNL A   1      38.603  31.201  33.171  1.00  0.00     0.049 A 
ATOM     47  H   UNL A   1      39.643  30.070  31.762  1.00  0.00     0.167 HD
ATOM     48  C   UNL A   1      41.513  27.361  28.860  1.00  0.00     0.034 A 
ATOM     49  C   UNL A   1      39.357  31.236  34.287  1.00  0.00     0.034 A 
ATOM     50  C   UNL A   1      42.456  27.474  29.937  1.00  0.00     0.049 A 
ATOM     51  C   UNL A   1      40.691  30.539  34.284  1.00  0.00     0.074 A 
ATOM     52  C   UNL A   1      43.718  26.916  30.039  1.00  0.00     0.029 A 
ATOM     53  N   UNL A   1      42.242  28.198  31.100  1.00  0.00    -0.354 N 
ATOM     54  N   UNL A   1      41.254  29.839  33.330  1.00  0.00    -0.248 NA
ATOM     55  C   UNL A   1      41.512  30.675  35.496  1.00  0.00     0.031 C 
ATOM     56  C   UNL A   1      44.259  27.287  31.275  1.00  0.00     0.029 A 
ATOM     57  C   UNL A   1      43.345  28.099  31.928  1.00  0.00     0.049 A 
ATOM     58  H   UNL A   1      41.424  28.705  31.306  1.00  0.00     0.167 HD
ATOM     59  C   UNL A   1      42.509  29.483  33.809  1.00  0.00     0.074 A 
ATOM     60  C   UNL A   1      42.632  30.064  35.130  1.00  0.00     0.031 C 
ATOM     61  C   UNL A   1      43.471  28.731  33.217  1.00  0.00     0.034 A 
BRANCH  48  62
ATOM     62  C   UNL A   1      41.870  26.491  27.679  1.00  0.00     0.023 A 
ATOM     63  C   UNL A   1      42.519  27.063  26.564  1.00  0.00     0.012 A 
ATOM     64  C   UNL A   1      41.610  25.108  27.690  1.00  0.00     0.148 A 
ATOM     65  C   UNL A   1      42.864  26.281  25.463  1.00  0.00     0.002 A 
ATOM     66  C   UNL A   1      42.002  24.325  26.610  1.00  0.00     0.091 A 
ATOM     67  F   UNL A   1      40.974  24.584  28.748  1.00  0.00    -0.205 F 
ATOM     68  C   UNL A   1      42.617  24.912  25.491  1.00  0.00     0.022 A 
BRANCH  66  69
ATOM     69  S   UNL A   1      41.805  22.540  26.583  1.00  0.00     0.127 S 
ATOM     70  O   UNL A   1      42.321  22.206  25.255  1.00  0.00    -0.237 OA
ATOM     71  O   UNL A   1      42.663  22.119  27.692  1.00  0.00    -0.237 OA
ATOM     72  O   UNL A   1      40.386  22.289  26.783  1.00  0.00    -0.744 OA
ENDBRANCH  66  69
ENDBRANCH  48  62
BRANCH  49  73
ATOM     73  C   UNL A   1      38.904  32.024  35.468  1.00  0.00     0.023 A 
ATOM     74  C   UNL A   1      39.078  33.422  35.472  1.00  0.00     0.012 A 
ATOM     75  C   UNL A   1      38.277  31.408  36.569  1.00  0.00     0.148 A 
ATOM     76  C   UNL A   1      38.670  34.188  36.565  1.00  0.00     0.002 A 
ATOM     77  C   UNL A   1      37.823  32.183  37.629  1.00  0.00     0.091 A 
ATOM     78  F   UNL A   1      38.128  30.076  36.550  1.00  0.00    -0.205 F 
ATOM     79  C   UNL A   1      38.035  33.571  37.638  1.00  0.00     0.022 A 
BRANCH  77  80
ATOM     80  S   UNL A   1      36.876  31.488  38.988  1.00  0.00     0.127 S 
ATOM     81  O   UNL A   1      36.648  30.119  38.523  1.00  0.00    -0.237 OA
ATOM     82  O   UNL A   1      37.820  31.607  40.104  1.00  0.00    -0.237 OA
ATOM     83  O   UNL A   1      35.694  32.320  39.113  1.00  0.00    -0.744 OA
ENDBRANCH  77  80
ENDBRANCH  49  73
BRANCH  61  84
ATOM     84  C   UNL A   1      44.758  28.527  33.969  1.00  0.00     0.023 A 
ATOM     85  C   UNL A   1      45.815  29.446  33.816  1.00  0.00     0.012 A 
ATOM     86  C   UNL A   1      44.894  27.461  34.881  1.00  0.00     0.148 A 
ATOM     87  C   UNL A   1      47.001  29.286  34.531  1.00  0.00     0.002 A 
ATOM     88  C   UNL A   1      46.059  27.337  35.627  1.00  0.00     0.091 A 
ATOM     89  F   UNL A   1      43.884  26.586  34.997  1.00  0.00    -0.205 F 
ATOM     90  C   UNL A   1      47.119  28.240  35.443  1.00  0.00     0.022 A 
BRANCH  88  91
ATOM     91  S   UNL A   1      46.255  26.082  36.896  1.00  0.00     0.127 S 
ATOM     92  O   UNL A   1      45.104  26.346  37.757  1.00  0.00    -0.237 OA
ATOM     93  O   UNL A   1      46.167  24.841  36.123  1.00  0.00    -0.237 OA
ATOM     94  O   UNL A   1      47.560  26.323  37.499  1.00  0.00    -0.744 OA
ENDBRANCH  88  91
ENDBRANCH  61  84
ENDBRANCH  35  36
ENDBRANCH  27  30
ENDBRANCH  25  26
ENDBRANCH   1  25
TORSDOF 16
ENDMDL
