MODEL 1
REMARK VINA RESULT:     -12.2      0.000      0.000
REMARK SMILES O=C(Cc1cn2ccsc2n1)N[C@@H]1C=C[C@H](C(=O)NCCCNC(=O)c2ccc(-c3c4nc(c(-c5cccc(S(=O)(=O)[O-])c5F)c5ccc([nH]5)c(-c5cccc(S(=O)(=O)[O-])c5F)c5nc(c(-c6cccc(S(=O)(=O)[O-])c6F)c6ccc3[nH]6)C=C5)C=C4)cc2)C1
REMARK SMILES IDX 21 1 20 2 19 3 17 4 18 5 16 7 13 8 14 9 89 10 15 11 12 12
REMARK SMILES IDX 1 13 2 14 3 16 4 17 5 18 11 19 6 20 10 21 7 22 9 23 8 24
REMARK SMILES IDX 22 25 23 26 24 27 25 29 26 30 27 31 88 32 28 33 87 34 29 35
REMARK SMILES IDX 30 36 31 37 81 38 32 39 86 40 80 41 82 42 33 43 85 44 79 45
REMARK SMILES IDX 78 46 34 48 66 49 46 50 65 51 47 52 50 53 64 54 83 55 48 56
REMARK SMILES IDX 49 57 63 59 84 60 51 61 35 62 36 63 44 64 37 65 39 66 45 67
REMARK SMILES IDX 38 68 40 69 41 70 42 71 43 72 67 73 68 74 76 75 69 76 71 77
REMARK SMILES IDX 77 78 70 79 72 80 73 81 74 82 75 83 52 84 53 85 61 86 54 87
REMARK SMILES IDX 56 88 62 89 55 90 57 91 58 92 59 93 60 94
REMARK H PARENT 19 6 12 15 23 28 82 47 50 58
REMARK Flexibility Score: inf
ROOT
ATOM      1  C   UNL A   1      31.703  29.352  26.428  1.00  0.00     0.042 C 
ENDROOT
BRANCH   1   2
ATOM      2  C   UNL A   1      31.772  28.181  27.392  1.00  0.00     0.117 C 
BRANCH   2   3
ATOM      3  N   UNL A   1      31.129  26.986  26.884  1.00  0.00    -0.356 N 
ATOM      4  C   UNL A   1      31.524  26.063  25.966  1.00  0.00     0.227 C 
ATOM      5  O   UNL A   1      30.774  25.089  25.832  1.00  0.00    -0.274 OA
ATOM      6  H   UNL A   1      30.243  26.809  27.276  1.00  0.00     0.163 HD
BRANCH   4   7
ATOM      7  C   UNL A   1      32.751  26.258  25.048  1.00  0.00     0.103 C 
ATOM      8  C   UNL A   1      33.803  24.167  24.238  1.00  0.00     0.106 C 
ATOM      9  C   UNL A   1      34.653  24.864  25.235  1.00  0.00    -0.006 C 
ATOM     10  C   UNL A   1      32.735  25.221  23.899  1.00  0.00     0.047 C 
ATOM     11  C   UNL A   1      34.117  26.023  25.621  1.00  0.00    -0.016 C 
BRANCH   8  12
ATOM     12  N   UNL A   1      33.262  22.968  24.825  1.00  0.00    -0.350 N 
ATOM     13  O   UNL A   1      32.700  21.991  22.822  1.00  0.00    -0.275 OA
ATOM     14  C   UNL A   1      32.694  21.979  24.052  1.00  0.00     0.226 C 
ATOM     15  H   UNL A   1      33.300  22.854  25.802  1.00  0.00     0.164 HD
BRANCH  14  16
ATOM     16  C   UNL A   1      31.958  20.907  24.826  1.00  0.00     0.157 C 
BRANCH  16  17
ATOM     17  C   UNL A   1      32.707  19.628  24.912  1.00  0.00     0.070 A 
ATOM     18  C   UNL A   1      34.014  19.366  24.509  1.00  0.00     0.118 A 
ATOM     19  N   UNL A   1      32.083  18.473  25.368  1.00  0.00    -0.223 NA
ATOM     20  N   UNL A   1      34.177  18.033  24.731  1.00  0.00    -0.297 N 
ATOM     21  C   UNL A   1      33.009  17.562  25.248  1.00  0.00     0.193 A 
ATOM     22  C   UNL A   1      35.172  17.100  24.554  1.00  0.00     0.104 A 
ATOM     23  S   UNL A   1      33.106  15.858  25.558  1.00  0.00    -0.105 S 
ATOM     24  C   UNL A   1      34.772  15.877  24.945  1.00  0.00     0.087 A 
ENDBRANCH  16  17
ENDBRANCH  14  16
ENDBRANCH   8  12
ENDBRANCH   4   7
ENDBRANCH   2   3
ENDBRANCH   1   2
BRANCH   1  25
ATOM     25  C   UNL A   1      33.025  30.077  26.242  1.00  0.00     0.118 C 
BRANCH  25  26
ATOM     26  N   UNL A   1      32.967  31.473  26.662  1.00  0.00    -0.352 N 
ATOM     27  C   UNL A   1      33.741  32.167  27.562  1.00  0.00     0.251 C 
ATOM     28  H   UNL A   1      32.258  32.004  26.233  1.00  0.00     0.163 HD
ATOM     29  O   UNL A   1      33.392  33.286  27.924  1.00  0.00    -0.269 OA
BRANCH  27  30
ATOM     30  C   UNL A   1      34.980  31.566  28.104  1.00  0.00     0.039 A 
ATOM     31  C   UNL A   1      36.148  32.332  28.141  1.00  0.00     0.014 A 
ATOM     32  C   UNL A   1      34.996  30.249  28.566  1.00  0.00     0.014 A 
ATOM     33  C   UNL A   1      37.309  31.797  28.706  1.00  0.00     0.010 A 
ATOM     34  C   UNL A   1      36.116  29.760  29.227  1.00  0.00     0.010 A 
ATOM     35  C   UNL A   1      37.290  30.522  29.293  1.00  0.00    -0.014 A 
BRANCH  35  36
ATOM     36  C   UNL A   1      38.484  29.961  29.977  1.00  0.00     0.031 A 
ATOM     37  C   UNL A   1      38.876  30.456  31.344  1.00  0.00     0.074 A 
ATOM     38  C   UNL A   1      39.270  29.079  29.328  1.00  0.00     0.049 A 
ATOM     39  N   UNL A   1      39.922  30.145  32.065  1.00  0.00    -0.248 NA
ATOM     40  C   UNL A   1      37.994  31.454  31.970  1.00  0.00     0.031 C 
ATOM     41  C   UNL A   1      39.048  28.592  27.965  1.00  0.00     0.029 A 
ATOM     42  N   UNL A   1      40.431  28.459  29.718  1.00  0.00    -0.354 N 
ATOM     43  C   UNL A   1      39.844  30.933  33.208  1.00  0.00     0.074 A 
ATOM     44  C   UNL A   1      38.675  31.773  33.061  1.00  0.00     0.031 C 
ATOM     45  C   UNL A   1      40.039  27.750  27.633  1.00  0.00     0.029 A 
ATOM     46  C   UNL A   1      40.984  27.664  28.741  1.00  0.00     0.049 A 
ATOM     47  H   UNL A   1      40.830  28.573  30.610  1.00  0.00     0.167 HD
ATOM     48  C   UNL A   1      40.648  30.935  34.297  1.00  0.00     0.034 A 
ATOM     49  C   UNL A   1      42.131  26.956  28.732  1.00  0.00     0.034 A 
ATOM     50  C   UNL A   1      41.791  30.077  34.451  1.00  0.00     0.049 A 
ATOM     51  C   UNL A   1      42.990  26.945  29.965  1.00  0.00     0.074 A 
ATOM     52  C   UNL A   1      42.626  29.943  35.546  1.00  0.00     0.029 A 
ATOM     53  N   UNL A   1      42.268  29.214  33.477  1.00  0.00    -0.354 N 
ATOM     54  N   UNL A   1      42.816  27.582  31.097  1.00  0.00    -0.248 NA
ATOM     55  C   UNL A   1      44.185  26.089  29.935  1.00  0.00     0.031 C 
ATOM     56  C   UNL A   1      43.626  29.020  35.223  1.00  0.00     0.029 A 
ATOM     57  C   UNL A   1      43.392  28.550  33.940  1.00  0.00     0.049 A 
ATOM     58  H   UNL A   1      41.867  29.090  32.586  1.00  0.00     0.167 HD
ATOM     59  C   UNL A   1      43.858  27.180  31.926  1.00  0.00     0.074 A 
ATOM     60  C   UNL A   1      44.646  26.227  31.171  1.00  0.00     0.031 C 
ATOM     61  C   UNL A   1      44.142  27.573  33.193  1.00  0.00     0.034 A 
BRANCH  48  62
ATOM     62  C   UNL A   1      40.283  31.864  35.428  1.00  0.00     0.023 A 
ATOM     63  C   UNL A   1      41.019  33.054  35.616  1.00  0.00     0.012 A 
ATOM     64  C   UNL A   1      39.199  31.583  36.282  1.00  0.00     0.148 A 
ATOM     65  C   UNL A   1      40.715  33.922  36.665  1.00  0.00     0.002 A 
ATOM     66  C   UNL A   1      38.869  32.479  37.294  1.00  0.00     0.091 A 
ATOM     67  F   UNL A   1      38.521  30.441  36.103  1.00  0.00    -0.205 F 
ATOM     68  C   UNL A   1      39.635  33.639  37.496  1.00  0.00     0.022 A 
BRANCH  66  69
ATOM     69  S   UNL A   1      37.447  32.251  38.366  1.00  0.00     0.127 S 
ATOM     70  O   UNL A   1      36.432  33.052  37.684  1.00  0.00    -0.237 OA
ATOM     71  O   UNL A   1      37.234  30.805  38.290  1.00  0.00    -0.237 OA
ATOM     72  O   UNL A   1      37.851  32.737  39.678  1.00  0.00    -0.744 OA
ENDBRANCH  66  69
ENDBRANCH  48  62
BRANCH  49  73
ATOM     73  C   UNL A   1      42.499  26.164  27.525  1.00  0.00     0.023 A 
ATOM     74  C   UNL A   1      43.261  26.764  26.503  1.00  0.00     0.012 A 
ATOM     75  C   UNL A   1      42.139  24.808  27.409  1.00  0.00     0.148 A 
ATOM     76  C   UNL A   1      43.631  26.034  25.373  1.00  0.00     0.002 A 
ATOM     77  C   UNL A   1      42.561  24.071  26.309  1.00  0.00     0.091 A 
ATOM     78  F   UNL A   1      41.409  24.260  28.391  1.00  0.00    -0.205 F 
ATOM     79  C   UNL A   1      43.291  24.686  25.280  1.00  0.00     0.022 A 
BRANCH  77  80
ATOM     80  S   UNL A   1      42.289  22.301  26.171  1.00  0.00     0.127 S 
ATOM     81  O   UNL A   1      40.836  22.230  26.050  1.00  0.00    -0.237 OA
ATOM     82  O   UNL A   1      43.027  21.979  24.950  1.00  0.00    -0.237 OA
ATOM     83  O   UNL A   1      42.849  21.719  27.383  1.00  0.00    -0.744 OA
ENDBRANCH  77  80
ENDBRANCH  49  73
BRANCH  61  84
ATOM     84  C   UNL A   1      45.336  26.947  33.866  1.00  0.00     0.023 A 
ATOM     85  C   UNL A   1      46.606  27.547  33.751  1.00  0.00     0.012 A 
ATOM     86  C   UNL A   1      45.183  25.804  34.675  1.00  0.00     0.148 A 
ATOM     87  C   UNL A   1      47.710  26.999  34.400  1.00  0.00     0.002 A 
ATOM     88  C   UNL A   1      46.277  25.293  35.361  1.00  0.00     0.091 A 
ATOM     89  F   UNL A   1      43.970  25.238  34.757  1.00  0.00    -0.205 F 
ATOM     90  C   UNL A   1      47.545  25.881  35.215  1.00  0.00     0.022 A 
BRANCH  88  91
ATOM     91  S   UNL A   1      46.139  23.919  36.509  1.00  0.00     0.127 S 
ATOM     92  O   UNL A   1      45.239  24.466  37.523  1.00  0.00    -0.237 OA
ATOM     93  O   UNL A   1      45.550  22.874  35.671  1.00  0.00    -0.237 OA
ATOM     94  O   UNL A   1      47.494  23.636  36.964  1.00  0.00    -0.744 OA
ENDBRANCH  88  91
ENDBRANCH  61  84
ENDBRANCH  35  36
ENDBRANCH  27  30
ENDBRANCH  25  26
ENDBRANCH   1  25
TORSDOF 16
ENDMDL
MODEL 2
REMARK VINA RESULT:     -12.1      2.060      2.664
REMARK SMILES O=C(Cc1cn2ccsc2n1)N[C@@H]1C=C[C@H](C(=O)NCCCNC(=O)c2ccc(-c3c4nc(c(-c5cccc(S(=O)(=O)[O-])c5F)c5ccc([nH]5)c(-c5cccc(S(=O)(=O)[O-])c5F)c5nc(c(-c6cccc(S(=O)(=O)[O-])c6F)c6ccc3[nH]6)C=C5)C=C4)cc2)C1
REMARK SMILES IDX 21 1 20 2 19 3 17 4 18 5 16 7 13 8 14 9 89 10 15 11 12 12
REMARK SMILES IDX 1 13 2 14 3 16 4 17 5 18 11 19 6 20 10 21 7 22 9 23 8 24
REMARK SMILES IDX 22 25 23 26 24 27 25 29 26 30 27 31 88 32 28 33 87 34 29 35
REMARK SMILES IDX 30 36 31 37 81 38 32 39 86 40 80 41 82 42 33 43 85 44 79 45
REMARK SMILES IDX 78 46 34 48 66 49 46 50 65 51 47 52 50 53 64 54 83 55 48 56
REMARK SMILES IDX 49 57 63 59 84 60 51 61 35 62 36 63 44 64 37 65 39 66 45 67
REMARK SMILES IDX 38 68 40 69 41 70 42 71 43 72 67 73 68 74 76 75 69 76 71 77
REMARK SMILES IDX 77 78 70 79 72 80 73 81 74 82 75 83 52 84 53 85 61 86 54 87
REMARK SMILES IDX 56 88 62 89 55 90 57 91 58 92 59 93 60 94
REMARK H PARENT 19 6 12 15 23 28 82 47 50 58
REMARK Flexibility Score: inf
ROOT
ATOM      1  C   UNL A   1      33.074  29.672  25.129  1.00  0.00     0.042 C 
ENDROOT
BRANCH   1   2
ATOM      2  C   UNL A   1      33.976  28.460  25.278  1.00  0.00     0.117 C 
BRANCH   2   3
ATOM      3  N   UNL A   1      33.609  27.365  24.402  1.00  0.00    -0.356 N 
ATOM      4  C   UNL A   1      32.400  26.847  24.055  1.00  0.00     0.227 C 
ATOM      5  O   UNL A   1      32.427  25.964  23.190  1.00  0.00    -0.274 OA
ATOM      6  H   UNL A   1      34.375  26.913  23.981  1.00  0.00     0.163 HD
BRANCH   4   7
ATOM      7  C   UNL A   1      31.084  27.225  24.770  1.00  0.00     0.103 C 
ATOM      8  C   UNL A   1      29.764  25.310  25.624  1.00  0.00     0.106 C 
ATOM      9  C   UNL A   1      29.113  25.954  24.456  1.00  0.00    -0.006 C 
ATOM     10  C   UNL A   1      30.861  26.318  26.005  1.00  0.00     0.047 C 
ATOM     11  C   UNL A   1      29.790  27.025  24.037  1.00  0.00    -0.016 C 
BRANCH   8  12
ATOM     12  N   UNL A   1      30.275  24.021  25.239  1.00  0.00    -0.350 N 
ATOM     13  O   UNL A   1      30.367  23.185  27.377  1.00  0.00    -0.275 OA
ATOM     14  C   UNL A   1      30.592  23.061  26.174  1.00  0.00     0.226 C 
ATOM     15  H   UNL A   1      30.401  23.822  24.282  1.00  0.00     0.164 HD
BRANCH  14  16
ATOM     16  C   UNL A   1      31.341  21.863  25.632  1.00  0.00     0.157 C 
BRANCH  16  17
ATOM     17  C   UNL A   1      32.811  22.069  25.574  1.00  0.00     0.070 A 
ATOM     18  C   UNL A   1      33.820  21.114  25.667  1.00  0.00     0.118 A 
ATOM     19  N   UNL A   1      33.342  23.351  25.495  1.00  0.00    -0.223 NA
ATOM     20  N   UNL A   1      34.974  21.834  25.639  1.00  0.00    -0.297 N 
ATOM     21  C   UNL A   1      34.630  23.146  25.526  1.00  0.00     0.193 A 
ATOM     22  C   UNL A   1      36.323  21.573  25.710  1.00  0.00     0.104 A 
ATOM     23  S   UNL A   1      36.038  24.159  25.495  1.00  0.00    -0.105 S 
ATOM     24  C   UNL A   1      37.045  22.705  25.647  1.00  0.00     0.087 A 
ENDBRANCH  16  17
ENDBRANCH  14  16
ENDBRANCH   8  12
ENDBRANCH   4   7
ENDBRANCH   2   3
ENDBRANCH   1   2
BRANCH   1  25
ATOM     25  C   UNL A   1      32.410  30.111  26.424  1.00  0.00     0.118 C 
BRANCH  25  26
ATOM     26  N   UNL A   1      32.447  31.557  26.614  1.00  0.00    -0.352 N 
ATOM     27  C   UNL A   1      33.295  32.337  27.365  1.00  0.00     0.251 C 
ATOM     28  H   UNL A   1      31.752  32.055  26.126  1.00  0.00     0.163 HD
ATOM     29  O   UNL A   1      33.025  33.519  27.551  1.00  0.00    -0.269 OA
BRANCH  27  30
ATOM     30  C   UNL A   1      34.518  31.755  27.960  1.00  0.00     0.039 A 
ATOM     31  C   UNL A   1      35.647  32.563  28.121  1.00  0.00     0.014 A 
ATOM     32  C   UNL A   1      34.561  30.415  28.347  1.00  0.00     0.014 A 
ATOM     33  C   UNL A   1      36.789  32.043  28.737  1.00  0.00     0.010 A 
ATOM     34  C   UNL A   1      35.653  29.933  29.058  1.00  0.00     0.010 A 
ATOM     35  C   UNL A   1      36.786  30.736  29.249  1.00  0.00    -0.014 A 
BRANCH  35  36
ATOM     36  C   UNL A   1      37.953  30.184  29.984  1.00  0.00     0.031 A 
ATOM     37  C   UNL A   1      38.246  30.636  31.390  1.00  0.00     0.074 A 
ATOM     38  C   UNL A   1      38.804  29.351  29.352  1.00  0.00     0.049 A 
ATOM     39  N   UNL A   1      39.256  30.328  32.161  1.00  0.00    -0.248 NA
ATOM     40  C   UNL A   1      37.297  31.583  31.998  1.00  0.00     0.031 C 
ATOM     41  C   UNL A   1      38.680  28.911  27.961  1.00  0.00     0.029 A 
ATOM     42  N   UNL A   1      39.959  28.750  29.789  1.00  0.00    -0.354 N 
ATOM     43  C   UNL A   1      39.084  31.068  33.326  1.00  0.00     0.074 A 
ATOM     44  C   UNL A   1      37.901  31.878  33.139  1.00  0.00     0.031 C 
ATOM     45  C   UNL A   1      39.715  28.112  27.659  1.00  0.00     0.029 A 
ATOM     46  C   UNL A   1      40.594  28.010  28.819  1.00  0.00     0.049 A 
ATOM     47  H   UNL A   1      40.299  28.841  30.707  1.00  0.00     0.167 HD
ATOM     48  C   UNL A   1      39.821  31.051  34.462  1.00  0.00     0.034 A 
ATOM     49  C   UNL A   1      41.761  27.338  28.854  1.00  0.00     0.034 A 
ATOM     50  C   UNL A   1      40.979  30.221  34.653  1.00  0.00     0.049 A 
ATOM     51  C   UNL A   1      42.545  27.303  30.136  1.00  0.00     0.074 A 
ATOM     52  C   UNL A   1      41.750  30.069  35.792  1.00  0.00     0.029 A 
ATOM     53  N   UNL A   1      41.542  29.411  33.679  1.00  0.00    -0.354 N 
ATOM     54  N   UNL A   1      42.283  27.890  31.279  1.00  0.00    -0.248 NA
ATOM     55  C   UNL A   1      43.766  26.484  30.148  1.00  0.00     0.031 C 
ATOM     56  C   UNL A   1      42.797  29.190  35.496  1.00  0.00     0.029 A 
ATOM     57  C   UNL A   1      42.655  28.763  34.185  1.00  0.00     0.049 A 
ATOM     58  H   UNL A   1      41.199  29.311  32.761  1.00  0.00     0.167 HD
ATOM     59  C   UNL A   1      43.285  27.487  32.154  1.00  0.00     0.074 A 
ATOM     60  C   UNL A   1      44.147  26.588  31.414  1.00  0.00     0.031 C 
ATOM     61  C   UNL A   1      43.480  27.838  33.450  1.00  0.00     0.034 A 
BRANCH  48  62
ATOM     62  C   UNL A   1      39.360  31.924  35.602  1.00  0.00     0.023 A 
ATOM     63  C   UNL A   1      38.483  31.397  36.573  1.00  0.00     0.012 A 
ATOM     64  C   UNL A   1      39.816  33.251  35.734  1.00  0.00     0.148 A 
ATOM     65  C   UNL A   1      38.026  32.189  37.627  1.00  0.00     0.002 A 
ATOM     66  C   UNL A   1      39.397  34.018  36.816  1.00  0.00     0.091 A 
ATOM     67  F   UNL A   1      40.633  33.745  34.794  1.00  0.00    -0.205 F 
ATOM     68  C   UNL A   1      38.491  33.494  37.753  1.00  0.00     0.022 A 
BRANCH  66  69
ATOM     69  S   UNL A   1      40.001  35.682  37.117  1.00  0.00     0.127 S 
ATOM     70  O   UNL A   1      39.264  36.050  38.325  1.00  0.00    -0.237 OA
ATOM     71  O   UNL A   1      41.432  35.457  37.320  1.00  0.00    -0.237 OA
ATOM     72  O   UNL A   1      39.671  36.451  35.924  1.00  0.00    -0.744 OA
ENDBRANCH  66  69
ENDBRANCH  48  62
BRANCH  49  73
ATOM     73  C   UNL A   1      42.226  26.604  27.643  1.00  0.00     0.023 A 
ATOM     74  C   UNL A   1      42.999  27.276  26.676  1.00  0.00     0.012 A 
ATOM     75  C   UNL A   1      41.948  25.235  27.472  1.00  0.00     0.148 A 
ATOM     76  C   UNL A   1      43.460  26.602  25.543  1.00  0.00     0.002 A 
ATOM     77  C   UNL A   1      42.459  24.557  26.372  1.00  0.00     0.091 A 
ATOM     78  F   UNL A   1      41.206  24.618  28.403  1.00  0.00    -0.205 F 
ATOM     79  C   UNL A   1      43.199  25.242  25.397  1.00  0.00     0.022 A 
BRANCH  77  80
ATOM     80  S   UNL A   1      42.291  22.780  26.172  1.00  0.00     0.127 S 
ATOM     81  O   UNL A   1      42.980  22.555  24.904  1.00  0.00    -0.237 OA
ATOM     82  O   UNL A   1      42.993  22.278  27.354  1.00  0.00    -0.237 OA
ATOM     83  O   UNL A   1      40.859  22.515  26.166  1.00  0.00    -0.744 OA
ENDBRANCH  77  80
ENDBRANCH  49  73
BRANCH  61  84
ATOM     84  C   UNL A   1      44.650  27.222  34.171  1.00  0.00     0.023 A 
ATOM     85  C   UNL A   1      45.899  27.874  34.175  1.00  0.00     0.012 A 
ATOM     86  C   UNL A   1      44.489  26.032  34.908  1.00  0.00     0.148 A 
ATOM     87  C   UNL A   1      46.979  27.332  34.870  1.00  0.00     0.002 A 
ATOM     88  C   UNL A   1      45.555  25.526  35.642  1.00  0.00     0.091 A 
ATOM     89  F   UNL A   1      43.298  25.418  34.878  1.00  0.00    -0.205 F 
ATOM     90  C   UNL A   1      46.805  26.167  35.614  1.00  0.00     0.022 A 
BRANCH  88  91
ATOM     91  S   UNL A   1      45.396  24.088  36.706  1.00  0.00     0.127 S 
ATOM     92  O   UNL A   1      46.760  23.940  37.212  1.00  0.00    -0.237 OA
ATOM     93  O   UNL A   1      44.423  24.544  37.700  1.00  0.00    -0.237 OA
ATOM     94  O   UNL A   1      44.926  23.005  35.853  1.00  0.00    -0.744 OA
ENDBRANCH  88  91
ENDBRANCH  61  84
ENDBRANCH  35  36
ENDBRANCH  27  30
ENDBRANCH  25  26
ENDBRANCH   1  25
TORSDOF 16
ENDMDL
MODEL 3
REMARK VINA RESULT:     -12.1      2.736      8.284
REMARK SMILES O=C(Cc1cn2ccsc2n1)N[C@@H]1C=C[C@H](C(=O)NCCCNC(=O)c2ccc(-c3c4nc(c(-c5cccc(S(=O)(=O)[O-])c5F)c5ccc([nH]5)c(-c5cccc(S(=O)(=O)[O-])c5F)c5nc(c(-c6cccc(S(=O)(=O)[O-])c6F)c6ccc3[nH]6)C=C5)C=C4)cc2)C1
REMARK SMILES IDX 21 1 20 2 19 3 17 4 18 5 16 7 13 8 14 9 89 10 15 11 12 12
REMARK SMILES IDX 1 13 2 14 3 16 4 17 5 18 11 19 6 20 10 21 7 22 9 23 8 24
REMARK SMILES IDX 22 25 23 26 24 27 25 29 26 30 27 31 88 32 28 33 87 34 29 35
REMARK SMILES IDX 30 36 31 37 81 38 32 39 86 40 80 41 82 42 33 43 85 44 79 45
REMARK SMILES IDX 78 46 34 48 66 49 46 50 65 51 47 52 50 53 64 54 83 55 48 56
REMARK SMILES IDX 49 57 63 59 84 60 51 61 35 62 36 63 44 64 37 65 39 66 45 67
REMARK SMILES IDX 38 68 40 69 41 70 42 71 43 72 67 73 68 74 76 75 69 76 71 77
REMARK SMILES IDX 77 78 70 79 72 80 73 81 74 82 75 83 52 84 53 85 61 86 54 87
REMARK SMILES IDX 56 88 62 89 55 90 57 91 58 92 59 93 60 94
REMARK H PARENT 19 6 12 15 23 28 82 47 50 58
REMARK Flexibility Score: inf
ROOT
ATOM      1  C   UNL A   1      31.659  31.653  26.939  1.00  0.00     0.042 C 
ENDROOT
BRANCH   1   2
ATOM      2  C   UNL A   1      31.864  30.426  26.068  1.00  0.00     0.117 C 
BRANCH   2   3
ATOM      3  N   UNL A   1      31.911  29.191  26.823  1.00  0.00    -0.356 N 
ATOM      4  C   UNL A   1      31.633  27.905  26.478  1.00  0.00     0.227 C 
ATOM      5  O   UNL A   1      31.877  27.056  27.343  1.00  0.00    -0.274 OA
ATOM      6  H   UNL A   1      32.198  29.303  27.759  1.00  0.00     0.163 HD
BRANCH   4   7
ATOM      7  C   UNL A   1      30.938  27.519  25.154  1.00  0.00     0.103 C 
ATOM      8  C   UNL A   1      31.106  25.125  24.537  1.00  0.00     0.106 C 
ATOM      9  C   UNL A   1      31.932  25.984  23.652  1.00  0.00    -0.006 C 
ATOM     10  C   UNL A   1      30.237  26.144  25.294  1.00  0.00     0.047 C 
ATOM     11  C   UNL A   1      31.789  27.279  23.943  1.00  0.00    -0.016 C 
BRANCH   8  12
ATOM     12  N   UNL A   1      31.966  24.353  25.395  1.00  0.00    -0.350 N 
ATOM     13  O   UNL A   1      30.337  22.868  26.042  1.00  0.00    -0.275 OA
ATOM     14  C   UNL A   1      31.487  23.295  26.135  1.00  0.00     0.226 C 
ATOM     15  H   UNL A   1      32.921  24.588  25.453  1.00  0.00     0.164 HD
BRANCH  14  16
ATOM     16  C   UNL A   1      32.450  22.745  27.164  1.00  0.00     0.157 C 
BRANCH  16  17
ATOM     17  C   UNL A   1      33.825  22.553  26.635  1.00  0.00     0.070 A 
ATOM     18  C   UNL A   1      34.439  21.367  26.242  1.00  0.00     0.118 A 
ATOM     19  N   UNL A   1      34.709  23.622  26.559  1.00  0.00    -0.223 NA
ATOM     20  N   UNL A   1      35.710  21.732  25.922  1.00  0.00    -0.297 N 
ATOM     21  C   UNL A   1      35.807  23.075  26.118  1.00  0.00     0.193 A 
ATOM     22  C   UNL A   1      36.856  21.106  25.489  1.00  0.00     0.104 A 
ATOM     23  S   UNL A   1      37.404  23.645  25.749  1.00  0.00    -0.105 S 
ATOM     24  C   UNL A   1      37.866  21.981  25.341  1.00  0.00     0.087 A 
ENDBRANCH  16  17
ENDBRANCH  14  16
ENDBRANCH   8  12
ENDBRANCH   4   7
ENDBRANCH   2   3
ENDBRANCH   1   2
BRANCH   1  25
ATOM     25  C   UNL A   1      32.924  32.464  27.171  1.00  0.00     0.118 C 
BRANCH  25  26
ATOM     26  N   UNL A   1      32.646  33.843  27.555  1.00  0.00    -0.352 N 
ATOM     27  C   UNL A   1      33.152  34.603  28.583  1.00  0.00     0.251 C 
ATOM     28  H   UNL A   1      31.988  34.305  26.987  1.00  0.00     0.163 HD
ATOM     29  O   UNL A   1      32.630  35.679  28.855  1.00  0.00    -0.269 OA
BRANCH  27  30
ATOM     30  C   UNL A   1      34.310  34.123  29.369  1.00  0.00     0.039 A 
ATOM     31  C   UNL A   1      34.083  33.369  30.523  1.00  0.00     0.014 A 
ATOM     32  C   UNL A   1      35.616  34.423  28.979  1.00  0.00     0.014 A 
ATOM     33  C   UNL A   1      35.168  32.858  31.242  1.00  0.00     0.010 A 
ATOM     34  C   UNL A   1      36.688  33.822  29.627  1.00  0.00     0.010 A 
ATOM     35  C   UNL A   1      36.479  33.045  30.774  1.00  0.00    -0.014 A 
BRANCH  35  36
ATOM     36  C   UNL A   1      37.646  32.442  31.468  1.00  0.00     0.031 A 
ATOM     37  C   UNL A   1      38.386  31.288  30.844  1.00  0.00     0.074 A 
ATOM     38  C   UNL A   1      37.980  32.868  32.702  1.00  0.00     0.049 A 
ATOM     39  N   UNL A   1      39.375  30.583  31.329  1.00  0.00    -0.248 NA
ATOM     40  C   UNL A   1      37.933  30.847  29.514  1.00  0.00     0.031 C 
ATOM     41  C   UNL A   1      37.284  33.916  33.452  1.00  0.00     0.029 A 
ATOM     42  N   UNL A   1      38.971  32.452  33.556  1.00  0.00    -0.354 N 
ATOM     43  C   UNL A   1      39.638  29.598  30.385  1.00  0.00     0.074 A 
ATOM     44  C   UNL A   1      38.671  29.764  29.322  1.00  0.00     0.031 C 
ATOM     45  C   UNL A   1      37.868  34.060  34.652  1.00  0.00     0.029 A 
ATOM     46  C   UNL A   1      38.956  33.094  34.772  1.00  0.00     0.049 A 
ATOM     47  H   UNL A   1      39.629  31.759  33.321  1.00  0.00     0.167 HD
ATOM     48  C   UNL A   1      40.616  28.662  30.382  1.00  0.00     0.034 A 
ATOM     49  C   UNL A   1      39.719  32.916  35.868  1.00  0.00     0.034 A 
ATOM     50  C   UNL A   1      41.593  28.520  31.426  1.00  0.00     0.049 A 
ATOM     51  C   UNL A   1      40.822  31.895  35.829  1.00  0.00     0.074 A 
ATOM     52  C   UNL A   1      42.673  27.657  31.484  1.00  0.00     0.029 A 
ATOM     53  N   UNL A   1      41.604  29.252  32.603  1.00  0.00    -0.354 N 
ATOM     54  N   UNL A   1      41.153  31.074  34.862  1.00  0.00    -0.248 NA
ATOM     55  C   UNL A   1      41.683  31.801  37.017  1.00  0.00     0.031 C 
ATOM     56  C   UNL A   1      43.320  27.847  32.710  1.00  0.00     0.029 A 
ATOM     57  C   UNL A   1      42.666  28.856  33.399  1.00  0.00     0.049 A 
ATOM     58  H   UNL A   1      40.953  29.952  32.839  1.00  0.00     0.167 HD
ATOM     59  C   UNL A   1      42.277  30.389  35.310  1.00  0.00     0.074 A 
ATOM     60  C   UNL A   1      42.583  30.908  36.628  1.00  0.00     0.031 C 
ATOM     61  C   UNL A   1      42.984  29.411  34.691  1.00  0.00     0.034 A 
BRANCH  48  62
ATOM     62  C   UNL A   1      40.702  27.750  29.183  1.00  0.00     0.023 A 
ATOM     63  C   UNL A   1      39.889  26.599  29.123  1.00  0.00     0.012 A 
ATOM     64  C   UNL A   1      41.557  28.045  28.102  1.00  0.00     0.148 A 
ATOM     65  C   UNL A   1      39.961  25.729  28.035  1.00  0.00     0.002 A 
ATOM     66  C   UNL A   1      41.586  27.201  26.997  1.00  0.00     0.091 A 
ATOM     67  F   UNL A   1      42.337  29.132  28.181  1.00  0.00    -0.205 F 
ATOM     68  C   UNL A   1      40.801  26.036  26.969  1.00  0.00     0.022 A 
BRANCH  66  69
ATOM     69  S   UNL A   1      42.571  27.550  25.536  1.00  0.00     0.127 S 
ATOM     70  O   UNL A   1      43.926  27.544  26.087  1.00  0.00    -0.237 OA
ATOM     71  O   UNL A   1      42.257  26.409  24.675  1.00  0.00    -0.237 OA
ATOM     72  O   UNL A   1      42.104  28.835  25.035  1.00  0.00    -0.744 OA
ENDBRANCH  66  69
ENDBRANCH  48  62
BRANCH  49  73
ATOM     73  C   UNL A   1      39.491  33.763  37.072  1.00  0.00     0.023 A 
ATOM     74  C   UNL A   1      39.903  35.110  37.066  1.00  0.00     0.012 A 
ATOM     75  C   UNL A   1      38.826  33.253  38.203  1.00  0.00     0.148 A 
ATOM     76  C   UNL A   1      39.683  35.924  38.178  1.00  0.00     0.002 A 
ATOM     77  C   UNL A   1      38.558  34.085  39.283  1.00  0.00     0.091 A 
ATOM     78  F   UNL A   1      38.447  31.966  38.189  1.00  0.00    -0.205 F 
ATOM     79  C   UNL A   1      39.002  35.416  39.281  1.00  0.00     0.022 A 
BRANCH  77  80
ATOM     80  S   UNL A   1      37.567  33.557  40.685  1.00  0.00     0.127 S 
ATOM     81  O   UNL A   1      37.427  34.800  41.438  1.00  0.00    -0.237 OA
ATOM     82  O   UNL A   1      36.345  33.091  40.029  1.00  0.00    -0.237 OA
ATOM     83  O   UNL A   1      38.336  32.507  41.339  1.00  0.00    -0.744 OA
ENDBRANCH  77  80
ENDBRANCH  49  73
BRANCH  61  84
ATOM     84  C   UNL A   1      44.186  28.858  35.410  1.00  0.00     0.023 A 
ATOM     85  C   UNL A   1      45.457  29.428  35.201  1.00  0.00     0.012 A 
ATOM     86  C   UNL A   1      44.041  27.818  36.350  1.00  0.00     0.148 A 
ATOM     87  C   UNL A   1      46.571  28.948  35.889  1.00  0.00     0.002 A 
ATOM     88  C   UNL A   1      45.145  27.381  37.071  1.00  0.00     0.091 A 
ATOM     89  F   UNL A   1      42.826  27.277  36.521  1.00  0.00    -0.205 F 
ATOM     90  C   UNL A   1      46.414  27.935  36.832  1.00  0.00     0.022 A 
BRANCH  88  91
ATOM     91  S   UNL A   1      45.020  26.152  38.374  1.00  0.00     0.127 S 
ATOM     92  O   UNL A   1      44.542  24.983  37.637  1.00  0.00    -0.237 OA
ATOM     93  O   UNL A   1      46.404  26.054  38.841  1.00  0.00    -0.237 OA
ATOM     94  O   UNL A   1      44.089  26.695  39.353  1.00  0.00    -0.744 OA
ENDBRANCH  88  91
ENDBRANCH  61  84
ENDBRANCH  35  36
ENDBRANCH  27  30
ENDBRANCH  25  26
ENDBRANCH   1  25
TORSDOF 16
ENDMDL
