MODEL 1
REMARK VINA RESULT:     -12.8      0.000      0.000
REMARK SMILES Cc1ccccc1CCNC(=O)N[C@H](C)C(=O)NCCCNC(=O)c1ccc(-c2c3nc(c(-c4cccc(S(=O)(=O)[O-])c4F)c4ccc([nH]4)c(-c4cccc(S(=O)(=O)[O-])c4F)c4nc(c(-c5cccc(S(=O)(=O)[O-])c5F)c5ccc2[nH]5)C=C4)C=C3)cc1
REMARK SMILES IDX 19 1 18 2 16 3 17 4 14 6 15 7 13 8 10 9 11 10 12 12 9 14
REMARK SMILES IDX 8 15 7 16 1 17 2 18 3 19 4 20 6 21 5 22 20 23 21 24 22 25
REMARK SMILES IDX 23 26 24 28 25 29 26 30 87 31 27 32 86 33 28 34 29 35 30 36
REMARK SMILES IDX 80 37 31 38 85 39 79 40 81 41 32 42 84 43 78 44 77 45 33 47
REMARK SMILES IDX 65 48 45 49 64 50 46 51 49 52 63 53 82 54 47 55 48 56 62 58
REMARK SMILES IDX 83 59 50 60 34 61 35 62 43 63 36 64 38 65 44 66 37 67 39 68
REMARK SMILES IDX 40 69 41 70 42 71 66 72 67 73 75 74 68 75 70 76 76 77 69 78
REMARK SMILES IDX 71 79 72 80 73 81 74 82 51 83 52 84 60 85 53 86 55 87 61 88
REMARK SMILES IDX 54 89 56 90 57 91 58 92 59 93
REMARK H PARENT 18 5 10 11 13 13 22 27 81 46 49 57
REMARK Flexibility Score: inf
ROOT
ATOM      1  C   UNL A   1      32.240  26.867  26.471  1.00  0.00     0.117 C 
ENDROOT
BRANCH   1   2
ATOM      2  N   UNL A   1      31.568  25.577  26.887  1.00  0.00    -0.354 N 
ATOM      3  C   UNL A   1      31.680  24.200  26.764  1.00  0.00     0.242 C 
ATOM      4  O   UNL A   1      30.785  23.514  27.277  1.00  0.00    -0.273 OA
ATOM      5  H   UNL A   1      30.777  25.789  27.434  1.00  0.00     0.163 HD
BRANCH   3   6
ATOM      6  C   UNL A   1      32.857  23.477  26.083  1.00  0.00     0.170 C 
ATOM      7  C   UNL A   1      34.308  23.625  26.579  1.00  0.00     0.041 C 
BRANCH   6   8
ATOM      8  N   UNL A   1      32.544  22.100  26.026  1.00  0.00    -0.327 N 
ATOM      9  N   UNL A   1      32.954  21.798  23.706  1.00  0.00    -0.338 N 
ATOM     10  C   UNL A   1      32.418  21.404  24.894  1.00  0.00     0.315 C 
ATOM     11  H   UNL A   1      32.727  21.122  23.027  1.00  0.00     0.165 HD
ATOM     12  O   UNL A   1      31.846  20.316  24.985  1.00  0.00    -0.249 OA
ATOM     13  H   UNL A   1      32.409  21.623  26.876  1.00  0.00     0.166 HD
BRANCH   9  14
ATOM     14  C   UNL A   1      33.775  22.895  23.026  1.00  0.00     0.122 C 
BRANCH  14  15
ATOM     15  C   UNL A   1      33.228  24.237  22.250  1.00  0.00     0.057 C 
BRANCH  15  16
ATOM     16  C   UNL A   1      32.917  25.502  23.065  1.00  0.00    -0.043 A 
ATOM     17  C   UNL A   1      30.344  24.430  23.423  1.00  0.00     0.044 C 
ATOM     18  C   UNL A   1      31.129  25.680  23.049  1.00  0.00    -0.048 A 
ATOM     19  C   UNL A   1      30.388  27.295  22.943  1.00  0.00     0.004 A 
ATOM     20  C   UNL A   1      31.399  28.800  22.969  1.00  0.00     0.000 A 
ATOM     21  C   UNL A   1      33.985  26.987  23.286  1.00  0.00     0.004 A 
ATOM     22  C   UNL A   1      33.216  28.662  23.183  1.00  0.00     0.000 A 
ENDBRANCH  15  16
ENDBRANCH  14  15
ENDBRANCH   9  14
ENDBRANCH   6   8
ENDBRANCH   3   6
ENDBRANCH   1   2
BRANCH   1  23
ATOM     23  C   UNL A   1      32.191  28.425  27.087  1.00  0.00     0.042 C 
BRANCH  23  24
ATOM     24  C   UNL A   1      32.967  30.045  26.643  1.00  0.00     0.118 C 
BRANCH  24  25
ATOM     25  N   UNL A   1      34.275  31.190  27.777  1.00  0.00    -0.352 N 
ATOM     26  C   UNL A   1      34.477  32.137  28.904  1.00  0.00     0.251 C 
ATOM     27  H   UNL A   1      35.168  31.035  27.394  1.00  0.00     0.163 HD
ATOM     28  O   UNL A   1      33.676  32.871  29.474  1.00  0.00    -0.269 OA
BRANCH  26  29
ATOM     29  C   UNL A   1      35.864  32.104  29.417  1.00  0.00     0.039 A 
ATOM     30  C   UNL A   1      36.926  32.868  28.925  1.00  0.00     0.014 A 
ATOM     31  C   UNL A   1      36.076  31.283  30.507  1.00  0.00     0.014 A 
ATOM     32  C   UNL A   1      38.205  32.522  29.345  1.00  0.00     0.010 A 
ATOM     33  C   UNL A   1      37.202  31.347  31.196  1.00  0.00     0.010 A 
ATOM     34  C   UNL A   1      38.277  31.623  30.390  1.00  0.00    -0.014 A 
BRANCH  34  35
ATOM     35  C   UNL A   1      39.353  30.807  30.870  1.00  0.00     0.031 A 
ATOM     36  C   UNL A   1      39.460  29.568  30.094  1.00  0.00     0.074 A 
ATOM     37  C   UNL A   1      40.347  31.585  31.398  1.00  0.00     0.049 A 
ATOM     38  N   UNL A   1      40.005  28.483  30.508  1.00  0.00    -0.248 NA
ATOM     39  C   UNL A   1      38.810  29.418  28.765  1.00  0.00     0.031 C 
ATOM     40  C   UNL A   1      41.786  31.534  31.160  1.00  0.00     0.029 A 
ATOM     41  N   UNL A   1      40.232  32.793  32.106  1.00  0.00    -0.354 N 
ATOM     42  C   UNL A   1      40.229  27.801  29.332  1.00  0.00     0.074 A 
ATOM     43  C   UNL A   1      39.148  28.164  28.463  1.00  0.00     0.031 C 
ATOM     44  C   UNL A   1      42.403  32.431  31.960  1.00  0.00     0.029 A 
ATOM     45  C   UNL A   1      41.399  33.023  32.833  1.00  0.00     0.049 A 
ATOM     46  H   UNL A   1      39.446  33.387  32.089  1.00  0.00     0.167 HD
ATOM     47  C   UNL A   1      41.512  27.477  29.002  1.00  0.00     0.034 A 
ATOM     48  C   UNL A   1      41.401  32.924  34.199  1.00  0.00     0.034 A 
ATOM     49  C   UNL A   1      42.464  27.894  30.061  1.00  0.00     0.049 A 
ATOM     50  C   UNL A   1      41.874  31.533  34.626  1.00  0.00     0.074 A 
ATOM     51  C   UNL A   1      43.574  28.720  30.104  1.00  0.00     0.029 A 
ATOM     52  N   UNL A   1      42.138  27.650  31.396  1.00  0.00    -0.354 N 
ATOM     53  N   UNL A   1      42.375  30.644  33.808  1.00  0.00    -0.248 NA
ATOM     54  C   UNL A   1      41.836  31.034  35.997  1.00  0.00     0.031 C 
ATOM     55  C   UNL A   1      43.842  29.032  31.481  1.00  0.00     0.029 A 
ATOM     56  C   UNL A   1      42.919  28.375  32.280  1.00  0.00     0.049 A 
ATOM     57  H   UNL A   1      41.429  27.028  31.678  1.00  0.00     0.167 HD
ATOM     58  C   UNL A   1      42.481  29.430  34.427  1.00  0.00     0.074 A 
ATOM     59  C   UNL A   1      42.265  29.770  35.827  1.00  0.00     0.031 C 
ATOM     60  C   UNL A   1      42.659  28.259  33.726  1.00  0.00     0.034 A 
BRANCH  47  61
ATOM     61  C   UNL A   1      41.934  26.900  27.662  1.00  0.00     0.023 A 
ATOM     62  C   UNL A   1      42.192  27.850  26.656  1.00  0.00     0.012 A 
ATOM     63  C   UNL A   1      42.161  25.540  27.310  1.00  0.00     0.148 A 
ATOM     64  C   UNL A   1      42.700  27.491  25.403  1.00  0.00     0.002 A 
ATOM     65  C   UNL A   1      42.756  25.190  26.095  1.00  0.00     0.091 A 
ATOM     66  F   UNL A   1      41.713  24.551  28.088  1.00  0.00    -0.205 F 
ATOM     67  C   UNL A   1      43.021  26.167  25.135  1.00  0.00     0.022 A 
BRANCH  65  68
ATOM     68  S   UNL A   1      43.276  23.503  25.711  1.00  0.00     0.127 S 
ATOM     69  O   UNL A   1      43.929  23.668  24.413  1.00  0.00    -0.237 OA
ATOM     70  O   UNL A   1      44.186  23.196  26.815  1.00  0.00    -0.237 OA
ATOM     71  O   UNL A   1      42.061  22.695  25.693  1.00  0.00    -0.744 OA
ENDBRANCH  65  68
ENDBRANCH  47  61
BRANCH  48  72
ATOM     72  C   UNL A   1      40.285  33.720  34.812  1.00  0.00     0.023 A 
ATOM     73  C   UNL A   1      39.012  33.088  34.840  1.00  0.00     0.012 A 
ATOM     74  C   UNL A   1      40.563  34.718  35.759  1.00  0.00     0.148 A 
ATOM     75  C   UNL A   1      38.125  33.301  35.898  1.00  0.00     0.002 A 
ATOM     76  C   UNL A   1      39.704  34.873  36.844  1.00  0.00     0.091 A 
ATOM     77  F   UNL A   1      41.726  35.376  35.670  1.00  0.00    -0.205 F 
ATOM     78  C   UNL A   1      38.499  34.150  36.928  1.00  0.00     0.022 A 
BRANCH  76  79
ATOM     79  S   UNL A   1      40.223  35.688  38.358  1.00  0.00     0.127 S 
ATOM     80  O   UNL A   1      39.433  34.997  39.372  1.00  0.00    -0.237 OA
ATOM     81  O   UNL A   1      41.639  35.349  38.356  1.00  0.00    -0.237 OA
ATOM     82  O   UNL A   1      39.917  37.099  38.175  1.00  0.00    -0.744 OA
ENDBRANCH  76  79
ENDBRANCH  48  72
BRANCH  60  83
ATOM     83  C   UNL A   1      42.563  26.856  34.336  1.00  0.00     0.023 A 
ATOM     84  C   UNL A   1      41.420  26.392  35.011  1.00  0.00     0.012 A 
ATOM     85  C   UNL A   1      43.607  25.903  34.164  1.00  0.00     0.148 A 
ATOM     86  C   UNL A   1      41.352  25.114  35.580  1.00  0.00     0.002 A 
ATOM     87  C   UNL A   1      43.471  24.587  34.593  1.00  0.00     0.091 A 
ATOM     88  F   UNL A   1      44.776  26.268  33.618  1.00  0.00    -0.205 F 
ATOM     89  C   UNL A   1      42.368  24.202  35.351  1.00  0.00     0.022 A 
BRANCH  87  90
ATOM     90  S   UNL A   1      44.624  23.306  34.080  1.00  0.00     0.127 S 
ATOM     91  O   UNL A   1      44.127  22.145  34.815  1.00  0.00    -0.237 OA
ATOM     92  O   UNL A   1      44.403  23.254  32.634  1.00  0.00    -0.237 OA
ATOM     93  O   UNL A   1      45.943  23.792  34.465  1.00  0.00    -0.744 OA
ENDBRANCH  87  90
ENDBRANCH  60  83
ENDBRANCH  34  35
ENDBRANCH  26  29
ENDBRANCH  24  25
ENDBRANCH  23  24
ENDBRANCH   1  23
TORSDOF 17
ENDMDL
MODEL 2
REMARK VINA RESULT:     -12.5      1.527      2.934
REMARK SMILES Cc1ccccc1CCNC(=O)N[C@H](C)C(=O)NCCCNC(=O)c1ccc(-c2c3nc(c(-c4cccc(S(=O)(=O)[O-])c4F)c4ccc([nH]4)c(-c4cccc(S(=O)(=O)[O-])c4F)c4nc(c(-c5cccc(S(=O)(=O)[O-])c5F)c5ccc2[nH]5)C=C4)C=C3)cc1
REMARK SMILES IDX 19 1 18 2 16 3 17 4 14 6 15 7 13 8 10 9 11 10 12 12 9 14
REMARK SMILES IDX 8 15 7 16 1 17 2 18 3 19 4 20 6 21 5 22 20 23 21 24 22 25
REMARK SMILES IDX 23 26 24 28 25 29 26 30 87 31 27 32 86 33 28 34 29 35 30 36
REMARK SMILES IDX 80 37 31 38 85 39 79 40 81 41 32 42 84 43 78 44 77 45 33 47
REMARK SMILES IDX 65 48 45 49 64 50 46 51 49 52 63 53 82 54 47 55 48 56 62 58
REMARK SMILES IDX 83 59 50 60 34 61 35 62 43 63 36 64 38 65 44 66 37 67 39 68
REMARK SMILES IDX 40 69 41 70 42 71 66 72 67 73 75 74 68 75 70 76 76 77 69 78
REMARK SMILES IDX 71 79 72 80 73 81 74 82 51 83 52 84 60 85 53 86 55 87 61 88
REMARK SMILES IDX 54 89 56 90 57 91 58 92 59 93
REMARK H PARENT 18 5 10 11 13 13 22 27 81 46 49 57
REMARK Flexibility Score: inf
ROOT
ATOM      1  C   UNL A   1      32.198  26.212  26.122  1.00  0.00     0.117 C 
ENDROOT
BRANCH   1   2
ATOM      2  N   UNL A   1      31.448  25.045  26.724  1.00  0.00    -0.354 N 
ATOM      3  C   UNL A   1      31.560  23.682  26.963  1.00  0.00     0.242 C 
ATOM      4  O   UNL A   1      30.583  23.118  27.473  1.00  0.00    -0.273 OA
ATOM      5  H   UNL A   1      30.579  25.361  27.063  1.00  0.00     0.163 HD
BRANCH   3   6
ATOM      6  C   UNL A   1      32.824  22.849  26.685  1.00  0.00     0.170 C 
ATOM      7  C   UNL A   1      33.951  22.696  27.725  1.00  0.00     0.041 C 
BRANCH   6   8
ATOM      8  N   UNL A   1      32.412  21.558  26.284  1.00  0.00    -0.327 N 
ATOM      9  N   UNL A   1      33.607  21.489  24.233  1.00  0.00    -0.338 N 
ATOM     10  C   UNL A   1      32.637  21.040  25.074  1.00  0.00     0.315 C 
ATOM     11  H   UNL A   1      33.574  20.949  23.410  1.00  0.00     0.165 HD
ATOM     12  O   UNL A   1      31.960  20.054  24.771  1.00  0.00    -0.249 OA
ATOM     13  H   UNL A   1      31.927  21.005  26.938  1.00  0.00     0.166 HD
BRANCH   9  14
ATOM     14  C   UNL A   1      34.730  22.517  24.080  1.00  0.00     0.122 C 
BRANCH  14  15
ATOM     15  C   UNL A   1      36.340  22.240  23.891  1.00  0.00     0.057 C 
BRANCH  15  16
ATOM     16  C   UNL A   1      37.108  21.492  24.991  1.00  0.00    -0.043 A 
ATOM     17  C   UNL A   1      37.261  23.961  26.324  1.00  0.00     0.044 C 
ATOM     18  C   UNL A   1      38.051  22.737  25.878  1.00  0.00    -0.048 A 
ATOM     19  C   UNL A   1      39.688  22.370  26.473  1.00  0.00     0.004 A 
ATOM     20  C   UNL A   1      40.400  20.711  26.310  1.00  0.00     0.000 A 
ATOM     21  C   UNL A   1      37.694  19.745  24.963  1.00  0.00     0.004 A 
ATOM     22  C   UNL A   1      39.388  19.362  25.586  1.00  0.00     0.000 A 
ENDBRANCH  15  16
ENDBRANCH  14  15
ENDBRANCH   9  14
ENDBRANCH   6   8
ENDBRANCH   3   6
ENDBRANCH   1   2
BRANCH   1  23
ATOM     23  C   UNL A   1      32.701  27.684  26.746  1.00  0.00     0.042 C 
BRANCH  23  24
ATOM     24  C   UNL A   1      33.750  29.084  26.143  1.00  0.00     0.118 C 
BRANCH  24  25
ATOM     25  N   UNL A   1      34.893  30.402  27.267  1.00  0.00    -0.352 N 
ATOM     26  C   UNL A   1      34.941  31.542  28.218  1.00  0.00     0.251 C 
ATOM     27  H   UNL A   1      35.830  30.163  27.088  1.00  0.00     0.163 HD
ATOM     28  O   UNL A   1      34.090  32.384  28.488  1.00  0.00    -0.269 OA
BRANCH  26  29
ATOM     29  C   UNL A   1      36.212  31.584  28.973  1.00  0.00     0.039 A 
ATOM     30  C   UNL A   1      37.220  32.538  28.806  1.00  0.00     0.014 A 
ATOM     31  C   UNL A   1      36.355  30.622  29.953  1.00  0.00     0.014 A 
ATOM     32  C   UNL A   1      38.447  32.278  29.405  1.00  0.00     0.010 A 
ATOM     33  C   UNL A   1      37.328  30.699  30.844  1.00  0.00     0.010 A 
ATOM     34  C   UNL A   1      38.471  31.231  30.303  1.00  0.00    -0.014 A 
BRANCH  34  35
ATOM     35  C   UNL A   1      39.558  30.475  30.855  1.00  0.00     0.031 A 
ATOM     36  C   UNL A   1      39.803  29.259  30.074  1.00  0.00     0.074 A 
ATOM     37  C   UNL A   1      40.458  31.306  31.465  1.00  0.00     0.049 A 
ATOM     38  N   UNL A   1      40.383  28.204  30.515  1.00  0.00    -0.248 NA
ATOM     39  C   UNL A   1      39.265  29.090  28.698  1.00  0.00     0.031 C 
ATOM     40  C   UNL A   1      41.912  31.349  31.337  1.00  0.00     0.029 A 
ATOM     41  N   UNL A   1      40.213  32.492  32.176  1.00  0.00    -0.354 N 
ATOM     42  C   UNL A   1      40.738  27.557  29.352  1.00  0.00     0.074 A 
ATOM     43  C   UNL A   1      39.705  27.865  28.408  1.00  0.00     0.031 C 
ATOM     44  C   UNL A   1      42.407  32.270  32.193  1.00  0.00     0.029 A 
ATOM     45  C   UNL A   1      41.305  32.783  32.993  1.00  0.00     0.049 A 
ATOM     46  H   UNL A   1      39.394  33.035  32.107  1.00  0.00     0.167 HD
ATOM     47  C   UNL A   1      42.061  27.320  29.117  1.00  0.00     0.034 A 
ATOM     48  C   UNL A   1      41.211  32.661  34.355  1.00  0.00     0.034 A 
ATOM     49  C   UNL A   1      42.901  27.778  30.250  1.00  0.00     0.049 A 
ATOM     50  C   UNL A   1      41.739  31.297  34.799  1.00  0.00     0.074 A 
ATOM     51  C   UNL A   1      43.949  28.671  30.387  1.00  0.00     0.029 A 
ATOM     52  N   UNL A   1      42.492  27.492  31.553  1.00  0.00    -0.354 N 
ATOM     53  N   UNL A   1      42.355  30.454  34.011  1.00  0.00    -0.248 NA
ATOM     54  C   UNL A   1      41.629  30.774  36.157  1.00  0.00     0.031 C 
ATOM     55  C   UNL A   1      44.093  28.976  31.785  1.00  0.00     0.029 A 
ATOM     56  C   UNL A   1      43.157  28.249  32.503  1.00  0.00     0.049 A 
ATOM     57  H   UNL A   1      41.805  26.822  31.774  1.00  0.00     0.167 HD
ATOM     58  C   UNL A   1      42.492  29.239  34.622  1.00  0.00     0.074 A 
ATOM     59  C   UNL A   1      42.149  29.541  36.006  1.00  0.00     0.031 C 
ATOM     60  C   UNL A   1      42.796  28.093  33.924  1.00  0.00     0.034 A 
BRANCH  47  61
ATOM     61  C   UNL A   1      42.618  26.792  27.806  1.00  0.00     0.023 A 
ATOM     62  C   UNL A   1      42.884  27.772  26.831  1.00  0.00     0.012 A 
ATOM     63  C   UNL A   1      42.962  25.456  27.458  1.00  0.00     0.148 A 
ATOM     64  C   UNL A   1      43.506  27.467  25.617  1.00  0.00     0.002 A 
ATOM     65  C   UNL A   1      43.668  25.166  26.287  1.00  0.00     0.091 A 
ATOM     66  F   UNL A   1      42.527  24.428  28.191  1.00  0.00    -0.205 F 
ATOM     67  C   UNL A   1      43.935  26.173  25.360  1.00  0.00     0.022 A 
BRANCH  65  68
ATOM     68  S   UNL A   1      44.328  23.523  25.926  1.00  0.00     0.127 S 
ATOM     69  O   UNL A   1      45.075  23.215  27.145  1.00  0.00    -0.237 OA
ATOM     70  O   UNL A   1      43.112  22.729  25.742  1.00  0.00    -0.237 OA
ATOM     71  O   UNL A   1      45.140  23.665  24.722  1.00  0.00    -0.744 OA
ENDBRANCH  65  68
ENDBRANCH  47  61
BRANCH  48  72
ATOM     72  C   UNL A   1      40.003  33.375  34.890  1.00  0.00     0.023 A 
ATOM     73  C   UNL A   1      38.799  32.622  34.924  1.00  0.00     0.012 A 
ATOM     74  C   UNL A   1      40.152  34.449  35.781  1.00  0.00     0.148 A 
ATOM     75  C   UNL A   1      37.862  32.805  35.945  1.00  0.00     0.002 A 
ATOM     76  C   UNL A   1      39.249  34.580  36.833  1.00  0.00     0.091 A 
ATOM     77  F   UNL A   1      41.246  35.215  35.681  1.00  0.00    -0.205 F 
ATOM     78  C   UNL A   1      38.119  33.746  36.931  1.00  0.00     0.022 A 
BRANCH  76  79
ATOM     79  S   UNL A   1      39.637  35.530  38.307  1.00  0.00     0.127 S 
ATOM     80  O   UNL A   1      40.979  35.060  38.636  1.00  0.00    -0.237 OA
ATOM     81  O   UNL A   1      39.585  36.878  37.760  1.00  0.00    -0.237 OA
ATOM     82  O   UNL A   1      38.601  35.205  39.275  1.00  0.00    -0.744 OA
ENDBRANCH  76  79
ENDBRANCH  48  72
BRANCH  60  83
ATOM     83  C   UNL A   1      42.745  26.677  34.508  1.00  0.00     0.023 A 
ATOM     84  C   UNL A   1      41.574  26.113  35.043  1.00  0.00     0.012 A 
ATOM     85  C   UNL A   1      43.875  25.813  34.450  1.00  0.00     0.148 A 
ATOM     86  C   UNL A   1      41.544  24.824  35.591  1.00  0.00     0.002 A 
ATOM     87  C   UNL A   1      43.797  24.483  34.851  1.00  0.00     0.091 A 
ATOM     88  F   UNL A   1      45.065  26.278  34.045  1.00  0.00    -0.205 F 
ATOM     89  C   UNL A   1      42.650  24.000  35.474  1.00  0.00     0.022 A 
BRANCH  87  90
ATOM     90  S   UNL A   1      45.101  23.306  34.464  1.00  0.00     0.127 S 
ATOM     91  O   UNL A   1      45.544  23.773  33.152  1.00  0.00    -0.237 OA
ATOM     92  O   UNL A   1      46.056  23.537  35.549  1.00  0.00    -0.237 OA
ATOM     93  O   UNL A   1      44.465  21.996  34.496  1.00  0.00    -0.744 OA
ENDBRANCH  87  90
ENDBRANCH  60  83
ENDBRANCH  34  35
ENDBRANCH  26  29
ENDBRANCH  24  25
ENDBRANCH  23  24
ENDBRANCH   1  23
TORSDOF 17
ENDMDL
MODEL 3
REMARK VINA RESULT:     -12.5      5.299      8.018
REMARK SMILES Cc1ccccc1CCNC(=O)N[C@H](C)C(=O)NCCCNC(=O)c1ccc(-c2c3nc(c(-c4cccc(S(=O)(=O)[O-])c4F)c4ccc([nH]4)c(-c4cccc(S(=O)(=O)[O-])c4F)c4nc(c(-c5cccc(S(=O)(=O)[O-])c5F)c5ccc2[nH]5)C=C4)C=C3)cc1
REMARK SMILES IDX 19 1 18 2 16 3 17 4 14 6 15 7 13 8 10 9 11 10 12 12 9 14
REMARK SMILES IDX 8 15 7 16 1 17 2 18 3 19 4 20 6 21 5 22 20 23 21 24 22 25
REMARK SMILES IDX 23 26 24 28 25 29 26 30 87 31 27 32 86 33 28 34 29 35 30 36
REMARK SMILES IDX 80 37 31 38 85 39 79 40 81 41 32 42 84 43 78 44 77 45 33 47
REMARK SMILES IDX 65 48 45 49 64 50 46 51 49 52 63 53 82 54 47 55 48 56 62 58
REMARK SMILES IDX 83 59 50 60 34 61 35 62 43 63 36 64 38 65 44 66 37 67 39 68
REMARK SMILES IDX 40 69 41 70 42 71 66 72 67 73 75 74 68 75 70 76 76 77 69 78
REMARK SMILES IDX 71 79 72 80 73 81 74 82 51 83 52 84 60 85 53 86 55 87 61 88
REMARK SMILES IDX 54 89 56 90 57 91 58 92 59 93
REMARK H PARENT 18 5 10 11 13 13 22 27 81 46 49 57
REMARK Flexibility Score: inf
ROOT
ATOM      1  C   UNL A   1      35.888  23.436  25.973  1.00  0.00     0.117 C 
ENDROOT
BRANCH   1   2
ATOM      2  N   UNL A   1      34.918  22.892  26.998  1.00  0.00    -0.354 N 
ATOM      3  C   UNL A   1      33.585  22.543  27.161  1.00  0.00     0.242 C 
ATOM      4  O   UNL A   1      33.234  22.171  28.289  1.00  0.00    -0.273 OA
ATOM      5  H   UNL A   1      35.399  22.731  27.842  1.00  0.00     0.163 HD
BRANCH   3   6
ATOM      6  C   UNL A   1      32.539  22.539  26.031  1.00  0.00     0.170 C 
ATOM      7  C   UNL A   1      32.684  21.646  24.783  1.00  0.00     0.041 C 
BRANCH   6   8
ATOM      8  N   UNL A   1      31.275  22.290  26.611  1.00  0.00    -0.327 N 
ATOM      9  N   UNL A   1      30.399  24.483  26.366  1.00  0.00    -0.338 N 
ATOM     10  C   UNL A   1      30.390  23.240  26.919  1.00  0.00     0.315 C 
ATOM     11  H   UNL A   1      29.651  24.996  26.751  1.00  0.00     0.165 HD
ATOM     12  O   UNL A   1      29.486  22.912  27.692  1.00  0.00    -0.249 OA
ATOM     13  H   UNL A   1      31.032  21.356  26.803  1.00  0.00     0.166 HD
BRANCH   9  14
ATOM     14  C   UNL A   1      31.132  25.387  25.373  1.00  0.00     0.122 C 
BRANCH  14  15
ATOM     15  C   UNL A   1      30.852  26.975  25.048  1.00  0.00     0.057 C 
BRANCH  15  16
ATOM     16  C   UNL A   1      29.929  27.350  23.878  1.00  0.00    -0.043 A 
ATOM     17  C   UNL A   1      32.210  28.441  22.653  1.00  0.00     0.044 C 
ATOM     18  C   UNL A   1      30.748  28.688  23.003  1.00  0.00    -0.048 A 
ATOM     19  C   UNL A   1      29.798  30.025  22.314  1.00  0.00     0.004 A 
ATOM     20  C   UNL A   1      27.986  30.020  22.366  1.00  0.00     0.000 A 
ATOM     21  C   UNL A   1      28.095  27.190  23.799  1.00  0.00     0.004 A 
ATOM     22  C   UNL A   1      27.109  28.573  23.077  1.00  0.00     0.000 A 
ENDBRANCH  15  16
ENDBRANCH  14  15
ENDBRANCH   9  14
ENDBRANCH   6   8
ENDBRANCH   3   6
ENDBRANCH   1   2
BRANCH   1  23
ATOM     23  C   UNL A   1      37.259  22.794  25.252  1.00  0.00     0.042 C 
BRANCH  23  24
ATOM     24  C   UNL A   1      38.602  21.632  25.770  1.00  0.00     0.118 C 
BRANCH  24  25
ATOM     25  N   UNL A   1      40.504  22.101  26.455  1.00  0.00    -0.352 N 
ATOM     26  C   UNL A   1      41.968  22.130  26.205  1.00  0.00     0.251 C 
ATOM     27  H   UNL A   1      40.379  22.474  27.357  1.00  0.00     0.163 HD
ATOM     28  O   UNL A   1      42.646  21.503  25.396  1.00  0.00    -0.269 OA
BRANCH  26  29
ATOM     29  C   UNL A   1      42.657  23.133  27.046  1.00  0.00     0.039 A 
ATOM     30  C   UNL A   1      42.359  24.498  27.083  1.00  0.00     0.014 A 
ATOM     31  C   UNL A   1      43.629  22.635  27.891  1.00  0.00     0.014 A 
ATOM     32  C   UNL A   1      43.269  25.330  27.726  1.00  0.00     0.010 A 
ATOM     33  C   UNL A   1      44.144  23.384  28.850  1.00  0.00     0.010 A 
ATOM     34  C   UNL A   1      44.245  24.698  28.470  1.00  0.00    -0.014 A 
BRANCH  34  35
ATOM     35  C   UNL A   1      45.498  25.166  28.987  1.00  0.00     0.031 A 
ATOM     36  C   UNL A   1      46.569  24.996  28.001  1.00  0.00     0.074 A 
ATOM     37  C   UNL A   1      45.299  26.182  29.881  1.00  0.00     0.049 A 
ATOM     38  N   UNL A   1      47.819  24.915  28.276  1.00  0.00    -0.248 NA
ATOM     39  C   UNL A   1      46.279  24.765  26.561  1.00  0.00     0.031 C 
ATOM     40  C   UNL A   1      45.959  27.482  29.965  1.00  0.00     0.029 A 
ATOM     41  N   UNL A   1      44.245  26.353  30.793  1.00  0.00    -0.354 N 
ATOM     42  C   UNL A   1      48.406  25.186  27.060  1.00  0.00     0.074 A 
ATOM     43  C   UNL A   1      47.515  24.649  26.074  1.00  0.00     0.031 C 
ATOM     44  C   UNL A   1      45.515  28.137  31.060  1.00  0.00     0.029 A 
ATOM     45  C   UNL A   1      44.631  27.243  31.795  1.00  0.00     0.049 A 
ATOM     46  H   UNL A   1      43.366  25.912  30.732  1.00  0.00     0.167 HD
ATOM     47  C   UNL A   1      49.229  26.269  26.961  1.00  0.00     0.034 A 
ATOM     48  C   UNL A   1      44.861  26.800  33.071  1.00  0.00     0.034 A 
ATOM     49  C   UNL A   1      49.387  26.947  28.271  1.00  0.00     0.049 A 
ATOM     50  C   UNL A   1      46.352  26.531  33.275  1.00  0.00     0.074 A 
ATOM     51  C   UNL A   1      49.148  28.227  28.742  1.00  0.00     0.029 A 
ATOM     52  N   UNL A   1      49.597  26.172  29.412  1.00  0.00    -0.354 N 
ATOM     53  N   UNL A   1      47.282  26.854  32.414  1.00  0.00    -0.248 NA
ATOM     54  C   UNL A   1      46.920  25.893  34.459  1.00  0.00     0.031 C 
ATOM     55  C   UNL A   1      49.130  28.176  30.178  1.00  0.00     0.029 A 
ATOM     56  C   UNL A   1      49.389  26.876  30.586  1.00  0.00     0.049 A 
ATOM     57  H   UNL A   1      49.865  25.225  29.386  1.00  0.00     0.167 HD
ATOM     58  C   UNL A   1      48.474  26.280  32.759  1.00  0.00     0.074 A 
ATOM     59  C   UNL A   1      48.219  25.812  34.115  1.00  0.00     0.031 C 
ATOM     60  C   UNL A   1      49.524  26.175  31.876  1.00  0.00     0.034 A 
BRANCH  47  61
ATOM     61  C   UNL A   1      49.793  26.802  25.656  1.00  0.00     0.023 A 
ATOM     62  C   UNL A   1      51.195  26.916  25.613  1.00  0.00     0.012 A 
ATOM     63  C   UNL A   1      49.102  27.139  24.459  1.00  0.00     0.148 A 
ATOM     64  C   UNL A   1      51.879  27.279  24.448  1.00  0.00     0.002 A 
ATOM     65  C   UNL A   1      49.789  27.410  23.272  1.00  0.00     0.091 A 
ATOM     66  F   UNL A   1      47.778  27.312  24.463  1.00  0.00    -0.205 F 
ATOM     67  C   UNL A   1      51.181  27.487  23.267  1.00  0.00     0.022 A 
BRANCH  65  68
ATOM     68  S   UNL A   1      48.951  27.609  21.683  1.00  0.00     0.127 S 
ATOM     69  O   UNL A   1      50.053  27.988  20.799  1.00  0.00    -0.237 OA
ATOM     70  O   UNL A   1      48.413  26.270  21.441  1.00  0.00    -0.237 OA
ATOM     71  O   UNL A   1      47.936  28.637  21.882  1.00  0.00    -0.744 OA
ENDBRANCH  65  68
ENDBRANCH  47  61
BRANCH  48  72
ATOM     72  C   UNL A   1      43.720  25.966  33.579  1.00  0.00     0.023 A 
ATOM     73  C   UNL A   1      43.912  24.559  33.540  1.00  0.00     0.012 A 
ATOM     74  C   UNL A   1      42.813  26.498  34.509  1.00  0.00     0.148 A 
ATOM     75  C   UNL A   1      43.372  23.730  34.527  1.00  0.00     0.002 A 
ATOM     76  C   UNL A   1      42.335  25.676  35.527  1.00  0.00     0.091 A 
ATOM     77  F   UNL A   1      42.564  27.813  34.478  1.00  0.00    -0.205 F 
ATOM     78  C   UNL A   1      42.632  24.300  35.552  1.00  0.00     0.022 A 
BRANCH  76  79
ATOM     79  S   UNL A   1      41.647  26.345  37.044  1.00  0.00     0.127 S 
ATOM     80  O   UNL A   1      40.713  25.300  37.452  1.00  0.00    -0.237 OA
ATOM     81  O   UNL A   1      42.854  26.429  37.855  1.00  0.00    -0.237 OA
ATOM     82  O   UNL A   1      41.047  27.620  36.682  1.00  0.00    -0.744 OA
ENDBRANCH  76  79
ENDBRANCH  48  72
BRANCH  60  83
ATOM     83  C   UNL A   1      50.793  25.354  32.124  1.00  0.00     0.023 A 
ATOM     84  C   UNL A   1      52.088  25.885  31.988  1.00  0.00     0.012 A 
ATOM     85  C   UNL A   1      50.725  24.016  32.606  1.00  0.00     0.148 A 
ATOM     86  C   UNL A   1      53.241  25.119  32.200  1.00  0.00     0.002 A 
ATOM     87  C   UNL A   1      51.868  23.310  32.966  1.00  0.00     0.091 A 
ATOM     88  F   UNL A   1      49.546  23.382  32.683  1.00  0.00    -0.205 F 
ATOM     89  C   UNL A   1      53.132  23.838  32.712  1.00  0.00     0.022 A 
BRANCH  87  90
ATOM     90  S   UNL A   1      51.772  21.770  33.889  1.00  0.00     0.127 S 
ATOM     91  O   UNL A   1      51.083  20.897  32.942  1.00  0.00    -0.237 OA
ATOM     92  O   UNL A   1      53.185  21.448  34.100  1.00  0.00    -0.237 OA
ATOM     93  O   UNL A   1      51.045  22.092  35.109  1.00  0.00    -0.744 OA
ENDBRANCH  87  90
ENDBRANCH  60  83
ENDBRANCH  34  35
ENDBRANCH  26  29
ENDBRANCH  24  25
ENDBRANCH  23  24
ENDBRANCH   1  23
TORSDOF 17
ENDMDL
