MODEL 1
REMARK VINA RESULT:      -9.9      0.000      0.000
REMARK SMILES CCCCCC[C@H]1OCC[C@H]1C(=O)NCCCNC(=O)c1ccc(-c2c3nc(c(-c4cccc(S(=O)(=O)[O-])c4F)c4ccc([nH]4)c(-c4cccc(S(=O)(=O)[O-])c4F)c4nc(c(-c5cccc(S(=O)(=O)[O-])c5F)c5ccc2[nH]5)C=C4)C=C3)cc1
REMARK SMILES IDX 15 1 14 2 12 3 13 4 11 6 7 7 8 8 9 9 10 10 6 11 5 12 4 13
REMARK SMILES IDX 3 14 2 15 1 16 16 17 17 18 18 19 19 20 20 22 21 23 22 24
REMARK SMILES IDX 83 25 23 26 82 27 24 28 25 29 26 30 76 31 27 32 81 33 75 34
REMARK SMILES IDX 77 35 28 36 80 37 74 38 73 39 29 41 61 42 41 43 60 44 42 45
REMARK SMILES IDX 45 46 59 47 78 48 43 49 44 50 58 52 79 53 46 54 30 55 31 56
REMARK SMILES IDX 39 57 32 58 34 59 40 60 33 61 35 62 36 63 37 64 38 65 62 66
REMARK SMILES IDX 63 67 71 68 64 69 66 70 72 71 65 72 67 73 68 74 69 75 70 76
REMARK SMILES IDX 47 77 48 78 56 79 49 80 51 81 57 82 50 83 52 84 53 85 54 86
REMARK SMILES IDX 55 87
REMARK H PARENT 14 5 18 21 77 40 45 51
REMARK Flexibility Score: inf
ROOT
ATOM      1  C   UNL A   1      31.683  28.351  27.157  1.00  0.00     0.117 C 
ENDROOT
BRANCH   1   2
ATOM      2  N   UNL A   1      31.025  27.056  27.230  1.00  0.00    -0.356 N 
ATOM      3  C   UNL A   1      30.784  26.095  26.304  1.00  0.00     0.225 C 
ATOM      4  O   UNL A   1      30.224  25.070  26.716  1.00  0.00    -0.275 OA
ATOM      5  H   UNL A   1      30.689  26.833  28.129  1.00  0.00     0.163 HD
BRANCH   3   6
ATOM      6  C   UNL A   1      31.181  26.175  24.831  1.00  0.00     0.109 C 
ATOM      7  C   UNL A   1      32.401  25.396  24.357  1.00  0.00     0.130 C 
ATOM      8  O   UNL A   1      31.886  24.194  23.770  1.00  0.00    -0.377 OA
ATOM      9  C   UNL A   1      30.604  24.491  23.204  1.00  0.00     0.161 C 
ATOM     10  C   UNL A   1      30.074  25.735  23.891  1.00  0.00     0.044 C 
BRANCH   7  11
ATOM     11  C   UNL A   1      33.504  25.149  25.392  1.00  0.00     0.033 C 
BRANCH  11  12
ATOM     12  C   UNL A   1      34.887  24.853  24.803  1.00  0.00     0.003 C 
BRANCH  12  13
ATOM     13  C   UNL A   1      35.477  23.499  25.194  1.00  0.00     0.000 C 
BRANCH  13  14
ATOM     14  C   UNL A   1      36.585  22.989  24.268  1.00  0.00    -0.000 C 
BRANCH  14  15
ATOM     15  C   UNL A   1      37.299  21.715  24.731  1.00  0.00    -0.003 C 
ATOM     16  C   UNL A   1      36.355  20.551  24.991  1.00  0.00     0.004 C 
ENDBRANCH  14  15
ENDBRANCH  13  14
ENDBRANCH  12  13
ENDBRANCH  11  12
ENDBRANCH   7  11
ENDBRANCH   3   6
ENDBRANCH   1   2
BRANCH   1  17
ATOM     17  C   UNL A   1      33.203  28.261  27.175  1.00  0.00     0.042 C 
BRANCH  17  18
ATOM     18  C   UNL A   1      33.892  29.261  26.261  1.00  0.00     0.118 C 
BRANCH  18  19
ATOM     19  N   UNL A   1      33.862  30.614  26.802  1.00  0.00    -0.352 N 
ATOM     20  C   UNL A   1      34.628  31.200  27.778  1.00  0.00     0.251 C 
ATOM     21  H   UNL A   1      33.181  31.202  26.403  1.00  0.00     0.163 HD
ATOM     22  O   UNL A   1      34.269  32.284  28.245  1.00  0.00    -0.269 OA
BRANCH  20  23
ATOM     23  C   UNL A   1      35.860  30.551  28.281  1.00  0.00     0.039 A 
ATOM     24  C   UNL A   1      37.059  30.738  27.587  1.00  0.00     0.014 A 
ATOM     25  C   UNL A   1      35.838  29.726  29.408  1.00  0.00     0.014 A 
ATOM     26  C   UNL A   1      38.236  30.146  28.054  1.00  0.00     0.010 A 
ATOM     27  C   UNL A   1      37.027  29.233  29.935  1.00  0.00     0.010 A 
ATOM     28  C   UNL A   1      38.238  29.415  29.254  1.00  0.00    -0.014 A 
BRANCH  28  29
ATOM     29  C   UNL A   1      39.484  28.814  29.799  1.00  0.00     0.031 A 
ATOM     30  C   UNL A   1      40.129  29.394  31.034  1.00  0.00     0.074 A 
ATOM     31  C   UNL A   1      40.081  27.799  29.143  1.00  0.00     0.049 A 
ATOM     32  N   UNL A   1      41.245  29.047  31.622  1.00  0.00    -0.248 NA
ATOM     33  C   UNL A   1      39.452  30.537  31.670  1.00  0.00     0.031 C 
ATOM     34  C   UNL A   1      39.605  27.203  27.893  1.00  0.00     0.029 A 
ATOM     35  N   UNL A   1      41.231  27.104  29.423  1.00  0.00    -0.354 N 
ATOM     36  C   UNL A   1      41.423  29.950  32.665  1.00  0.00     0.074 A 
ATOM     37  C   UNL A   1      40.324  30.887  32.604  1.00  0.00     0.031 C 
ATOM     38  C   UNL A   1      40.447  26.226  27.521  1.00  0.00     0.029 A 
ATOM     39  C   UNL A   1      41.540  26.146  28.484  1.00  0.00     0.049 A 
ATOM     40  H   UNL A   1      41.784  27.275  30.220  1.00  0.00     0.167 HD
ATOM     41  C   UNL A   1      42.391  29.978  33.611  1.00  0.00     0.034 A 
ATOM     42  C   UNL A   1      42.588  25.303  28.405  1.00  0.00     0.034 A 
ATOM     43  C   UNL A   1      43.453  29.012  33.701  1.00  0.00     0.049 A 
ATOM     44  C   UNL A   1      43.625  25.323  29.496  1.00  0.00     0.074 A 
ATOM     45  C   UNL A   1      44.429  28.896  34.674  1.00  0.00     0.029 A 
ATOM     46  N   UNL A   1      43.681  28.000  32.782  1.00  0.00    -0.354 N 
ATOM     47  N   UNL A   1      43.687  26.084  30.561  1.00  0.00    -0.248 NA
ATOM     48  C   UNL A   1      44.715  24.342  29.393  1.00  0.00     0.031 C 
ATOM     49  C   UNL A   1      45.266  27.830  34.328  1.00  0.00     0.029 A 
ATOM     50  C   UNL A   1      44.788  27.260  33.159  1.00  0.00     0.049 A 
ATOM     51  H   UNL A   1      43.136  27.833  31.980  1.00  0.00     0.167 HD
ATOM     52  C   UNL A   1      44.798  25.649  31.275  1.00  0.00     0.074 A 
ATOM     53  C   UNL A   1      45.366  24.544  30.530  1.00  0.00     0.031 C 
ATOM     54  C   UNL A   1      45.311  26.130  32.434  1.00  0.00     0.034 A 
BRANCH  41  55
ATOM     55  C   UNL A   1      42.317  31.059  34.659  1.00  0.00     0.023 A 
ATOM     56  C   UNL A   1      41.648  30.808  35.876  1.00  0.00     0.012 A 
ATOM     57  C   UNL A   1      42.951  32.302  34.466  1.00  0.00     0.148 A 
ATOM     58  C   UNL A   1      41.576  31.788  36.864  1.00  0.00     0.002 A 
ATOM     59  C   UNL A   1      42.918  33.256  35.477  1.00  0.00     0.091 A 
ATOM     60  F   UNL A   1      43.565  32.532  33.298  1.00  0.00    -0.205 F 
ATOM     61  C   UNL A   1      42.219  33.006  36.670  1.00  0.00     0.022 A 
BRANCH  59  62
ATOM     62  S   UNL A   1      43.783  34.825  35.359  1.00  0.00     0.127 S 
ATOM     63  O   UNL A   1      43.483  35.427  36.658  1.00  0.00    -0.237 OA
ATOM     64  O   UNL A   1      45.173  34.396  35.195  1.00  0.00    -0.237 OA
ATOM     65  O   UNL A   1      43.219  35.511  34.207  1.00  0.00    -0.744 OA
ENDBRANCH  59  62
ENDBRANCH  41  55
BRANCH  42  66
ATOM     66  C   UNL A   1      42.673  24.323  27.285  1.00  0.00     0.023 A 
ATOM     67  C   UNL A   1      43.370  24.673  26.111  1.00  0.00     0.012 A 
ATOM     68  C   UNL A   1      42.092  23.044  27.382  1.00  0.00     0.148 A 
ATOM     69  C   UNL A   1      43.456  23.781  25.041  1.00  0.00     0.002 A 
ATOM     70  C   UNL A   1      42.230  22.140  26.336  1.00  0.00     0.091 A 
ATOM     71  F   UNL A   1      41.426  22.733  28.503  1.00  0.00    -0.205 F 
ATOM     72  C   UNL A   1      42.895  22.512  25.157  1.00  0.00     0.022 A 
BRANCH  70  73
ATOM     73  S   UNL A   1      41.653  20.442  26.448  1.00  0.00     0.127 S 
ATOM     74  O   UNL A   1      42.366  19.812  25.337  1.00  0.00    -0.237 OA
ATOM     75  O   UNL A   1      42.123  20.053  27.780  1.00  0.00    -0.237 OA
ATOM     76  O   UNL A   1      40.207  20.507  26.316  1.00  0.00    -0.744 OA
ENDBRANCH  70  73
ENDBRANCH  42  66
BRANCH  54  77
ATOM     77  C   UNL A   1      46.525  25.440  33.001  1.00  0.00     0.023 A 
ATOM     78  C   UNL A   1      47.815  25.906  32.680  1.00  0.00     0.012 A 
ATOM     79  C   UNL A   1      46.382  24.371  33.908  1.00  0.00     0.148 A 
ATOM     80  C   UNL A   1      48.944  25.297  33.223  1.00  0.00     0.002 A 
ATOM     81  C   UNL A   1      47.510  23.803  34.487  1.00  0.00     0.091 A 
ATOM     82  F   UNL A   1      45.146  23.930  34.188  1.00  0.00    -0.205 F 
ATOM     83  C   UNL A   1      48.792  24.254  34.134  1.00  0.00     0.022 A 
BRANCH  81  84
ATOM     84  S   UNL A   1      47.406  22.525  35.744  1.00  0.00     0.127 S 
ATOM     85  O   UNL A   1      46.656  23.205  36.800  1.00  0.00    -0.237 OA
ATOM     86  O   UNL A   1      46.666  21.468  35.053  1.00  0.00    -0.237 OA
ATOM     87  O   UNL A   1      48.780  22.178  36.079  1.00  0.00    -0.744 OA
ENDBRANCH  81  84
ENDBRANCH  54  77
ENDBRANCH  28  29
ENDBRANCH  20  23
ENDBRANCH  18  19
ENDBRANCH  17  18
ENDBRANCH   1  17
TORSDOF 18
ENDMDL
MODEL 2
REMARK VINA RESULT:      -9.8      4.820      9.676
REMARK SMILES CCCCCC[C@H]1OCC[C@H]1C(=O)NCCCNC(=O)c1ccc(-c2c3nc(c(-c4cccc(S(=O)(=O)[O-])c4F)c4ccc([nH]4)c(-c4cccc(S(=O)(=O)[O-])c4F)c4nc(c(-c5cccc(S(=O)(=O)[O-])c5F)c5ccc2[nH]5)C=C4)C=C3)cc1
REMARK SMILES IDX 15 1 14 2 12 3 13 4 11 6 7 7 8 8 9 9 10 10 6 11 5 12 4 13
REMARK SMILES IDX 3 14 2 15 1 16 16 17 17 18 18 19 19 20 20 22 21 23 22 24
REMARK SMILES IDX 83 25 23 26 82 27 24 28 25 29 26 30 76 31 27 32 81 33 75 34
REMARK SMILES IDX 77 35 28 36 80 37 74 38 73 39 29 41 61 42 41 43 60 44 42 45
REMARK SMILES IDX 45 46 59 47 78 48 43 49 44 50 58 52 79 53 46 54 30 55 31 56
REMARK SMILES IDX 39 57 32 58 34 59 40 60 33 61 35 62 36 63 37 64 38 65 62 66
REMARK SMILES IDX 63 67 71 68 64 69 66 70 72 71 65 72 67 73 68 74 69 75 70 76
REMARK SMILES IDX 47 77 48 78 56 79 49 80 51 81 57 82 50 83 52 84 53 85 54 86
REMARK SMILES IDX 55 87
REMARK H PARENT 14 5 18 21 77 40 45 51
REMARK Flexibility Score: inf
ROOT
ATOM      1  C   UNL A   1      34.335  22.735  27.217  1.00  0.00     0.117 C 
ENDROOT
BRANCH   1   2
ATOM      2  N   UNL A   1      32.936  22.914  26.865  1.00  0.00    -0.356 N 
ATOM      3  C   UNL A   1      32.236  23.977  26.393  1.00  0.00     0.225 C 
ATOM      4  O   UNL A   1      31.038  23.776  26.152  1.00  0.00    -0.275 OA
ATOM      5  H   UNL A   1      32.389  22.106  26.993  1.00  0.00     0.163 HD
BRANCH   3   6
ATOM      6  C   UNL A   1      32.822  25.359  26.112  1.00  0.00     0.109 C 
ATOM      7  C   UNL A   1      33.328  25.669  24.709  1.00  0.00     0.130 C 
ATOM      8  O   UNL A   1      32.270  26.395  24.070  1.00  0.00    -0.377 OA
ATOM      9  C   UNL A   1      31.577  27.145  25.074  1.00  0.00     0.161 C 
ATOM     10  C   UNL A   1      31.854  26.489  26.413  1.00  0.00     0.044 C 
BRANCH   7  11
ATOM     11  C   UNL A   1      33.843  24.484  23.886  1.00  0.00     0.033 C 
BRANCH  11  12
ATOM     12  C   UNL A   1      33.272  24.385  22.468  1.00  0.00     0.003 C 
BRANCH  12  13
ATOM     13  C   UNL A   1      32.901  22.972  22.019  1.00  0.00     0.000 C 
BRANCH  13  14
ATOM     14  C   UNL A   1      32.154  22.141  23.065  1.00  0.00    -0.000 C 
BRANCH  14  15
ATOM     15  C   UNL A   1      32.878  20.879  23.546  1.00  0.00    -0.003 C 
ATOM     16  C   UNL A   1      32.154  20.156  24.672  1.00  0.00     0.004 C 
ENDBRANCH  14  15
ENDBRANCH  13  14
ENDBRANCH  12  13
ENDBRANCH  11  12
ENDBRANCH   7  11
ENDBRANCH   3   6
ENDBRANCH   1   2
BRANCH   1  17
ATOM     17  C   UNL A   1      34.996  21.565  26.501  1.00  0.00     0.042 C 
BRANCH  17  18
ATOM     18  C   UNL A   1      36.225  21.949  25.693  1.00  0.00     0.118 C 
BRANCH  18  19
ATOM     19  N   UNL A   1      37.276  20.944  25.777  1.00  0.00    -0.352 N 
ATOM     20  C   UNL A   1      38.631  21.083  25.940  1.00  0.00     0.251 C 
ATOM     21  H   UNL A   1      36.962  20.014  25.704  1.00  0.00     0.163 HD
ATOM     22  O   UNL A   1      39.358  20.106  25.741  1.00  0.00    -0.269 OA
BRANCH  20  23
ATOM     23  C   UNL A   1      39.228  22.379  26.335  1.00  0.00     0.039 A 
ATOM     24  C   UNL A   1      40.401  22.382  27.097  1.00  0.00     0.014 A 
ATOM     25  C   UNL A   1      38.624  23.591  25.997  1.00  0.00     0.014 A 
ATOM     26  C   UNL A   1      40.989  23.594  27.469  1.00  0.00     0.010 A 
ATOM     27  C   UNL A   1      39.270  24.793  26.268  1.00  0.00     0.010 A 
ATOM     28  C   UNL A   1      40.447  24.813  27.028  1.00  0.00    -0.014 A 
BRANCH  28  29
ATOM     29  C   UNL A   1      41.078  26.116  27.367  1.00  0.00     0.031 A 
ATOM     30  C   UNL A   1      42.500  26.402  26.952  1.00  0.00     0.074 A 
ATOM     31  C   UNL A   1      40.404  27.010  28.117  1.00  0.00     0.049 A 
ATOM     32  N   UNL A   1      43.239  27.451  27.206  1.00  0.00    -0.248 NA
ATOM     33  C   UNL A   1      43.196  25.358  26.180  1.00  0.00     0.031 C 
ATOM     34  C   UNL A   1      39.056  26.820  28.655  1.00  0.00     0.029 A 
ATOM     35  N   UNL A   1      40.772  28.250  28.579  1.00  0.00    -0.354 N 
ATOM     36  C   UNL A   1      44.491  27.177  26.666  1.00  0.00     0.074 A 
ATOM     37  C   UNL A   1      44.426  25.845  26.108  1.00  0.00     0.031 C 
ATOM     38  C   UNL A   1      38.704  27.907  29.360  1.00  0.00     0.029 A 
ATOM     39  C   UNL A   1      39.811  28.857  29.356  1.00  0.00     0.049 A 
ATOM     40  H   UNL A   1      41.641  28.666  28.375  1.00  0.00     0.167 HD
ATOM     41  C   UNL A   1      45.586  27.971  26.607  1.00  0.00     0.034 A 
ATOM     42  C   UNL A   1      39.823  30.042  29.997  1.00  0.00     0.034 A 
ATOM     43  C   UNL A   1      45.630  29.315  27.116  1.00  0.00     0.049 A 
ATOM     44  C   UNL A   1      41.034  30.927  29.874  1.00  0.00     0.074 A 
ATOM     45  C   UNL A   1      46.658  30.237  27.023  1.00  0.00     0.029 A 
ATOM     46  N   UNL A   1      44.605  29.929  27.818  1.00  0.00    -0.354 N 
ATOM     47  N   UNL A   1      42.151  30.710  29.223  1.00  0.00    -0.248 NA
ATOM     48  C   UNL A   1      40.972  32.234  30.543  1.00  0.00     0.031 C 
ATOM     49  C   UNL A   1      46.264  31.399  27.694  1.00  0.00     0.029 A 
ATOM     50  C   UNL A   1      44.978  31.213  28.174  1.00  0.00     0.049 A 
ATOM     51  H   UNL A   1      43.739  29.511  28.032  1.00  0.00     0.167 HD
ATOM     52  C   UNL A   1      42.908  31.867  29.370  1.00  0.00     0.074 A 
ATOM     53  C   UNL A   1      42.112  32.789  30.155  1.00  0.00     0.031 C 
ATOM     54  C   UNL A   1      44.154  32.138  28.911  1.00  0.00     0.034 A 
BRANCH  41  55
ATOM     55  C   UNL A   1      46.812  27.426  25.920  1.00  0.00     0.023 A 
ATOM     56  C   UNL A   1      46.971  27.606  24.529  1.00  0.00     0.012 A 
ATOM     57  C   UNL A   1      47.829  26.784  26.652  1.00  0.00     0.148 A 
ATOM     58  C   UNL A   1      48.101  27.120  23.873  1.00  0.00     0.002 A 
ATOM     59  C   UNL A   1      48.977  26.347  25.998  1.00  0.00     0.091 A 
ATOM     60  F   UNL A   1      47.654  26.603  27.967  1.00  0.00    -0.205 F 
ATOM     61  C   UNL A   1      49.107  26.502  24.608  1.00  0.00     0.022 A 
BRANCH  59  62
ATOM     62  S   UNL A   1      50.367  25.612  26.866  1.00  0.00     0.127 S 
ATOM     63  O   UNL A   1      49.743  24.446  27.489  1.00  0.00    -0.237 OA
ATOM     64  O   UNL A   1      51.282  25.297  25.768  1.00  0.00    -0.237 OA
ATOM     65  O   UNL A   1      50.850  26.629  27.787  1.00  0.00    -0.744 OA
ENDBRANCH  59  62
ENDBRANCH  41  55
BRANCH  42  66
ATOM     66  C   UNL A   1      38.622  30.490  30.758  1.00  0.00     0.023 A 
ATOM     67  C   UNL A   1      38.531  30.209  32.136  1.00  0.00     0.012 A 
ATOM     68  C   UNL A   1      37.583  31.209  30.135  1.00  0.00     0.148 A 
ATOM     69  C   UNL A   1      37.413  30.605  32.872  1.00  0.00     0.002 A 
ATOM     70  C   UNL A   1      36.499  31.650  30.885  1.00  0.00     0.091 A 
ATOM     71  F   UNL A   1      37.684  31.458  28.822  1.00  0.00    -0.205 F 
ATOM     72  C   UNL A   1      36.403  31.333  32.249  1.00  0.00     0.022 A 
BRANCH  70  73
ATOM     73  S   UNL A   1      35.217  32.703  30.198  1.00  0.00     0.127 S 
ATOM     74  O   UNL A   1      34.672  31.856  29.137  1.00  0.00    -0.237 OA
ATOM     75  O   UNL A   1      34.333  32.891  31.350  1.00  0.00    -0.237 OA
ATOM     76  O   UNL A   1      35.894  33.912  29.757  1.00  0.00    -0.744 OA
ENDBRANCH  70  73
ENDBRANCH  42  66
BRANCH  54  77
ATOM     77  C   UNL A   1      44.727  33.501  29.202  1.00  0.00     0.023 A 
ATOM     78  C   UNL A   1      45.461  33.719  30.385  1.00  0.00     0.012 A 
ATOM     79  C   UNL A   1      44.594  34.547  28.268  1.00  0.00     0.148 A 
ATOM     80  C   UNL A   1      46.022  34.967  30.649  1.00  0.00     0.002 A 
ATOM     81  C   UNL A   1      45.201  35.772  28.513  1.00  0.00     0.091 A 
ATOM     82  F   UNL A   1      43.876  34.325  27.156  1.00  0.00    -0.205 F 
ATOM     83  C   UNL A   1      45.902  35.989  29.711  1.00  0.00     0.022 A 
BRANCH  81  84
ATOM     84  S   UNL A   1      45.185  37.111  27.318  1.00  0.00     0.127 S 
ATOM     85  O   UNL A   1      45.786  38.202  28.082  1.00  0.00    -0.237 OA
ATOM     86  O   UNL A   1      46.027  36.580  26.245  1.00  0.00    -0.237 OA
ATOM     87  O   UNL A   1      43.789  37.304  26.948  1.00  0.00    -0.744 OA
ENDBRANCH  81  84
ENDBRANCH  54  77
ENDBRANCH  28  29
ENDBRANCH  20  23
ENDBRANCH  18  19
ENDBRANCH  17  18
ENDBRANCH   1  17
TORSDOF 18
ENDMDL
MODEL 3
REMARK VINA RESULT:      -9.7      2.003      2.651
REMARK SMILES CCCCCC[C@H]1OCC[C@H]1C(=O)NCCCNC(=O)c1ccc(-c2c3nc(c(-c4cccc(S(=O)(=O)[O-])c4F)c4ccc([nH]4)c(-c4cccc(S(=O)(=O)[O-])c4F)c4nc(c(-c5cccc(S(=O)(=O)[O-])c5F)c5ccc2[nH]5)C=C4)C=C3)cc1
REMARK SMILES IDX 15 1 14 2 12 3 13 4 11 6 7 7 8 8 9 9 10 10 6 11 5 12 4 13
REMARK SMILES IDX 3 14 2 15 1 16 16 17 17 18 18 19 19 20 20 22 21 23 22 24
REMARK SMILES IDX 83 25 23 26 82 27 24 28 25 29 26 30 76 31 27 32 81 33 75 34
REMARK SMILES IDX 77 35 28 36 80 37 74 38 73 39 29 41 61 42 41 43 60 44 42 45
REMARK SMILES IDX 45 46 59 47 78 48 43 49 44 50 58 52 79 53 46 54 30 55 31 56
REMARK SMILES IDX 39 57 32 58 34 59 40 60 33 61 35 62 36 63 37 64 38 65 62 66
REMARK SMILES IDX 63 67 71 68 64 69 66 70 72 71 65 72 67 73 68 74 69 75 70 76
REMARK SMILES IDX 47 77 48 78 56 79 49 80 51 81 57 82 50 83 52 84 53 85 54 86
REMARK SMILES IDX 55 87
REMARK H PARENT 14 5 18 21 77 40 45 51
REMARK Flexibility Score: inf
ROOT
ATOM      1  C   UNL A   1      32.002  27.348  26.609  1.00  0.00     0.117 C 
ENDROOT
BRANCH   1   2
ATOM      2  N   UNL A   1      31.180  26.443  25.823  1.00  0.00    -0.356 N 
ATOM      3  C   UNL A   1      31.252  26.020  24.536  1.00  0.00     0.225 C 
ATOM      4  O   UNL A   1      30.397  25.196  24.186  1.00  0.00    -0.275 OA
ATOM      5  H   UNL A   1      30.422  26.061  26.323  1.00  0.00     0.163 HD
BRANCH   3   6
ATOM      6  C   UNL A   1      32.312  26.455  23.526  1.00  0.00     0.109 C 
ATOM      7  C   UNL A   1      33.632  25.697  23.477  1.00  0.00     0.130 C 
ATOM      8  O   UNL A   1      33.505  24.774  22.389  1.00  0.00    -0.377 OA
ATOM      9  C   UNL A   1      32.653  25.365  21.402  1.00  0.00     0.161 C 
ATOM     10  C   UNL A   1      31.816  26.426  22.092  1.00  0.00     0.044 C 
BRANCH   7  11
ATOM     11  C   UNL A   1      34.100  25.045  24.783  1.00  0.00     0.033 C 
BRANCH  11  12
ATOM     12  C   UNL A   1      35.441  24.311  24.695  1.00  0.00     0.003 C 
BRANCH  12  13
ATOM     13  C   UNL A   1      35.816  23.501  25.934  1.00  0.00     0.000 C 
BRANCH  13  14
ATOM     14  C   UNL A   1      36.984  22.531  25.740  1.00  0.00    -0.000 C 
BRANCH  14  15
ATOM     15  C   UNL A   1      36.760  21.427  24.701  1.00  0.00    -0.003 C 
ATOM     16  C   UNL A   1      35.620  20.483  25.055  1.00  0.00     0.004 C 
ENDBRANCH  14  15
ENDBRANCH  13  14
ENDBRANCH  12  13
ENDBRANCH  11  12
ENDBRANCH   7  11
ENDBRANCH   3   6
ENDBRANCH   1   2
BRANCH   1  17
ATOM     17  C   UNL A   1      31.644  28.816  26.417  1.00  0.00     0.042 C 
BRANCH  17  18
ATOM     18  C   UNL A   1      32.790  29.669  25.897  1.00  0.00     0.118 C 
BRANCH  18  19
ATOM     19  N   UNL A   1      32.631  31.075  26.242  1.00  0.00    -0.352 N 
ATOM     20  C   UNL A   1      33.271  31.838  27.185  1.00  0.00     0.251 C 
ATOM     21  H   UNL A   1      31.955  31.555  25.712  1.00  0.00     0.163 HD
ATOM     22  O   UNL A   1      32.808  32.946  27.468  1.00  0.00    -0.269 OA
BRANCH  20  23
ATOM     23  C   UNL A   1      34.489  31.352  27.871  1.00  0.00     0.039 A 
ATOM     24  C   UNL A   1      35.556  32.234  28.068  1.00  0.00     0.014 A 
ATOM     25  C   UNL A   1      34.609  30.023  28.284  1.00  0.00     0.014 A 
ATOM     26  C   UNL A   1      36.710  31.798  28.726  1.00  0.00     0.010 A 
ATOM     27  C   UNL A   1      35.708  29.623  29.038  1.00  0.00     0.010 A 
ATOM     28  C   UNL A   1      36.784  30.496  29.248  1.00  0.00    -0.014 A 
BRANCH  28  29
ATOM     29  C   UNL A   1      37.979  30.021  29.994  1.00  0.00     0.031 A 
ATOM     30  C   UNL A   1      38.247  30.513  31.394  1.00  0.00     0.074 A 
ATOM     31  C   UNL A   1      38.867  29.209  29.386  1.00  0.00     0.049 A 
ATOM     32  N   UNL A   1      39.263  30.261  32.178  1.00  0.00    -0.248 NA
ATOM     33  C   UNL A   1      37.262  31.441  31.978  1.00  0.00     0.031 C 
ATOM     34  C   UNL A   1      38.769  28.728  28.006  1.00  0.00     0.029 A 
ATOM     35  N   UNL A   1      40.042  28.664  29.843  1.00  0.00    -0.354 N 
ATOM     36  C   UNL A   1      39.062  31.025  33.322  1.00  0.00     0.074 A 
ATOM     37  C   UNL A   1      37.850  31.785  33.114  1.00  0.00     0.031 C 
ATOM     38  C   UNL A   1      39.829  27.951  27.733  1.00  0.00     0.029 A 
ATOM     39  C   UNL A   1      40.700  27.904  28.903  1.00  0.00     0.049 A 
ATOM     40  H   UNL A   1      40.382  28.804  30.756  1.00  0.00     0.167 HD
ATOM     41  C   UNL A   1      39.797  31.068  34.459  1.00  0.00     0.034 A 
ATOM     42  C   UNL A   1      41.875  27.248  28.973  1.00  0.00     0.034 A 
ATOM     43  C   UNL A   1      40.973  30.270  34.683  1.00  0.00     0.049 A 
ATOM     44  C   UNL A   1      42.648  27.272  30.264  1.00  0.00     0.074 A 
ATOM     45  C   UNL A   1      41.736  30.168  35.833  1.00  0.00     0.029 A 
ATOM     46  N   UNL A   1      41.559  29.443  33.739  1.00  0.00    -0.354 N 
ATOM     47  N   UNL A   1      42.356  27.877  31.390  1.00  0.00    -0.248 NA
ATOM     48  C   UNL A   1      43.892  26.490  30.307  1.00  0.00     0.031 C 
ATOM     49  C   UNL A   1      42.801  29.300  35.574  1.00  0.00     0.029 A 
ATOM     50  C   UNL A   1      42.680  28.833  34.275  1.00  0.00     0.049 A 
ATOM     51  H   UNL A   1      41.226  29.309  32.822  1.00  0.00     0.167 HD
ATOM     52  C   UNL A   1      43.358  27.520  32.285  1.00  0.00     0.074 A 
ATOM     53  C   UNL A   1      44.253  26.628  31.576  1.00  0.00     0.031 C 
ATOM     54  C   UNL A   1      43.531  27.907  33.573  1.00  0.00     0.034 A 
BRANCH  41  55
ATOM     55  C   UNL A   1      39.321  31.969  35.569  1.00  0.00     0.023 A 
ATOM     56  C   UNL A   1      38.434  31.465  36.545  1.00  0.00     0.012 A 
ATOM     57  C   UNL A   1      39.788  33.292  35.681  1.00  0.00     0.148 A 
ATOM     58  C   UNL A   1      37.989  32.276  37.588  1.00  0.00     0.002 A 
ATOM     59  C   UNL A   1      39.378  34.079  36.753  1.00  0.00     0.091 A 
ATOM     60  F   UNL A   1      40.614  33.761  34.737  1.00  0.00    -0.205 F 
ATOM     61  C   UNL A   1      38.468  33.577  37.698  1.00  0.00     0.022 A 
BRANCH  59  62
ATOM     62  S   UNL A   1      40.002  35.740  37.031  1.00  0.00     0.127 S 
ATOM     63  O   UNL A   1      39.286  36.125  38.246  1.00  0.00    -0.237 OA
ATOM     64  O   UNL A   1      41.434  35.502  37.219  1.00  0.00    -0.237 OA
ATOM     65  O   UNL A   1      39.664  36.503  35.839  1.00  0.00    -0.744 OA
ENDBRANCH  59  62
ENDBRANCH  41  55
BRANCH  42  66
ATOM     66  C   UNL A   1      42.358  26.457  27.806  1.00  0.00     0.023 A 
ATOM     67  C   UNL A   1      43.263  27.046  26.899  1.00  0.00     0.012 A 
ATOM     68  C   UNL A   1      41.949  25.126  27.599  1.00  0.00     0.148 A 
ATOM     69  C   UNL A   1      43.724  26.335  25.790  1.00  0.00     0.002 A 
ATOM     70  C   UNL A   1      42.456  24.405  26.524  1.00  0.00     0.091 A 
ATOM     71  F   UNL A   1      41.082  24.587  28.467  1.00  0.00    -0.205 F 
ATOM     72  C   UNL A   1      43.328  25.012  25.608  1.00  0.00     0.022 A 
BRANCH  70  73
ATOM     73  S   UNL A   1      42.104  22.659  26.284  1.00  0.00     0.127 S 
ATOM     74  O   UNL A   1      42.717  22.066  27.472  1.00  0.00    -0.237 OA
ATOM     75  O   UNL A   1      40.640  22.646  26.276  1.00  0.00    -0.237 OA
ATOM     76  O   UNL A   1      42.715  22.305  25.014  1.00  0.00    -0.744 OA
ENDBRANCH  70  73
ENDBRANCH  42  66
BRANCH  54  77
ATOM     77  C   UNL A   1      44.708  27.336  34.322  1.00  0.00     0.023 A 
ATOM     78  C   UNL A   1      45.935  28.027  34.339  1.00  0.00     0.012 A 
ATOM     79  C   UNL A   1      44.573  26.148  35.067  1.00  0.00     0.148 A 
ATOM     80  C   UNL A   1      47.020  27.525  35.055  1.00  0.00     0.002 A 
ATOM     81  C   UNL A   1      45.642  25.682  35.821  1.00  0.00     0.091 A 
ATOM     82  F   UNL A   1      43.401  25.495  35.024  1.00  0.00    -0.205 F 
ATOM     83  C   UNL A   1      46.871  26.361  35.804  1.00  0.00     0.022 A 
BRANCH  81  84
ATOM     84  S   UNL A   1      45.511  24.248  36.894  1.00  0.00     0.127 S 
ATOM     85  O   UNL A   1      45.144  23.197  35.946  1.00  0.00    -0.237 OA
ATOM     86  O   UNL A   1      46.867  24.138  37.433  1.00  0.00    -0.237 OA
ATOM     87  O   UNL A   1      44.494  24.578  37.883  1.00  0.00    -0.744 OA
ENDBRANCH  81  84
ENDBRANCH  54  77
ENDBRANCH  28  29
ENDBRANCH  20  23
ENDBRANCH  18  19
ENDBRANCH  17  18
ENDBRANCH   1  17
TORSDOF 18
ENDMDL
