MODEL 1
REMARK VINA RESULT:     -11.4      0.000      0.000
REMARK SMILES C#CC[C@@]1(C(=O)NCCCNC(=O)c2ccc(-c3c4nc(c(-c5cccc(S(=O)(=O)[O-])c5F)c5ccc([nH]5)c(-c5cccc(S(=O)(=O)[O-])c5F)c5nc(c(-c6cccc(S(=O)(=O)[O-])c6F)c6ccc3[nH]6)C=C5)C=C4)cc2)CCCN1C(=O)OC(C)(C)C
REMARK SMILES IDX 9 1 8 2 7 3 5 4 6 5 4 7 77 8 80 9 78 10 79 11 3 12 2 13 1 14
REMARK SMILES IDX 81 15 82 16 83 17 84 18 85 19 86 20 87 21 10 22 11 23 12 24
REMARK SMILES IDX 13 26 14 27 15 28 76 29 16 30 75 31 17 32 18 33 19 34 69 35
REMARK SMILES IDX 20 36 74 37 68 38 70 39 21 40 73 41 67 42 66 43 22 45 54 46
REMARK SMILES IDX 34 47 53 48 35 49 38 50 52 51 71 52 36 53 37 54 51 56 72 57
REMARK SMILES IDX 39 58 23 59 24 60 32 61 25 62 27 63 33 64 26 65 28 66 29 67
REMARK SMILES IDX 30 68 31 69 55 70 56 71 64 72 57 73 59 74 65 75 58 76 60 77
REMARK SMILES IDX 61 78 62 79 63 80 40 81 41 82 49 83 42 84 44 85 50 86 43 87
REMARK SMILES IDX 45 88 46 89 47 90 48 91
REMARK H PARENT 7 6 11 25 70 44 38 55
REMARK Flexibility Score: inf
ROOT
ATOM      1  C   UNL A   1      36.449  22.824  23.516  1.00  0.00     0.042 C 
ENDROOT
BRANCH   1   2
ATOM      2  C   UNL A   1      35.099  23.459  23.263  1.00  0.00     0.117 C 
BRANCH   2   3
ATOM      3  N   UNL A   1      33.968  22.674  22.858  1.00  0.00    -0.354 N 
ATOM      4  C   UNL A   1      32.713  22.787  23.414  1.00  0.00     0.247 C 
ATOM      5  O   UNL A   1      31.761  22.448  22.701  1.00  0.00    -0.272 OA
ATOM      6  H   UNL A   1      34.096  22.013  22.139  1.00  0.00     0.163 HD
BRANCH   4   7
ATOM      7  C   UNL A   1      32.526  23.214  24.921  1.00  0.00     0.136 C 
ATOM      8  C   UNL A   1      31.003  22.937  25.237  1.00  0.00     0.042 C 
ATOM      9  N   UNL A   1      32.513  24.658  25.418  1.00  0.00    -0.292 N 
ATOM     10  C   UNL A   1      30.770  23.555  26.611  1.00  0.00     0.025 C 
ATOM     11  C   UNL A   1      31.680  24.767  26.610  1.00  0.00     0.124 C 
BRANCH   7  12
ATOM     12  C   UNL A   1      33.322  22.254  25.899  1.00  0.00     0.128 C 
BRANCH  12  13
ATOM     13  C   UNL A   1      33.259  20.797  25.679  1.00  0.00    -0.104 C 
ATOM     14  C   UNL A   1      33.179  19.621  25.462  1.00  0.00     0.004 C 
ENDBRANCH  12  13
ENDBRANCH   7  12
BRANCH   9  15
ATOM     15  C   UNL A   1      33.201  25.822  25.101  1.00  0.00     0.411 C 
ATOM     16  O   UNL A   1      34.382  25.970  25.401  1.00  0.00    -0.224 OA
BRANCH  15  17
ATOM     17  O   UNL A   1      32.458  26.823  24.564  1.00  0.00    -0.444 OA
BRANCH  17  18
ATOM     18  C   UNL A   1      32.799  27.368  23.241  1.00  0.00     0.106 C 
ATOM     19  C   UNL A   1      33.974  28.342  23.304  1.00  0.00     0.056 C 
ATOM     20  C   UNL A   1      33.011  26.244  22.211  1.00  0.00     0.056 C 
ATOM     21  C   UNL A   1      31.596  28.193  22.765  1.00  0.00     0.056 C 
ENDBRANCH  17  18
ENDBRANCH  15  17
ENDBRANCH   9  15
ENDBRANCH   4   7
ENDBRANCH   2   3
ENDBRANCH   1   2
BRANCH   1  22
ATOM     22  C   UNL A   1      36.812  22.612  24.978  1.00  0.00     0.118 C 
BRANCH  22  23
ATOM     23  N   UNL A   1      37.598  21.401  25.246  1.00  0.00    -0.352 N 
ATOM     24  C   UNL A   1      38.848  21.224  25.808  1.00  0.00     0.251 C 
ATOM     25  H   UNL A   1      37.155  20.564  24.976  1.00  0.00     0.163 HD
ATOM     26  O   UNL A   1      39.417  20.138  25.735  1.00  0.00    -0.269 OA
BRANCH  24  27
ATOM     27  C   UNL A   1      39.507  22.342  26.502  1.00  0.00     0.039 A 
ATOM     28  C   UNL A   1      40.485  22.120  27.480  1.00  0.00     0.014 A 
ATOM     29  C   UNL A   1      39.126  23.635  26.170  1.00  0.00     0.014 A 
ATOM     30  C   UNL A   1      41.149  23.214  28.045  1.00  0.00     0.010 A 
ATOM     31  C   UNL A   1      39.877  24.701  26.616  1.00  0.00     0.010 A 
ATOM     32  C   UNL A   1      40.884  24.507  27.570  1.00  0.00    -0.014 A 
BRANCH  32  33
ATOM     33  C   UNL A   1      41.618  25.713  28.013  1.00  0.00     0.031 A 
ATOM     34  C   UNL A   1      40.863  26.791  28.745  1.00  0.00     0.074 A 
ATOM     35  C   UNL A   1      42.872  25.920  27.567  1.00  0.00     0.049 A 
ATOM     36  N   UNL A   1      41.213  28.025  28.987  1.00  0.00    -0.248 NA
ATOM     37  C   UNL A   1      39.504  26.451  29.209  1.00  0.00     0.031 C 
ATOM     38  C   UNL A   1      43.657  24.969  26.774  1.00  0.00     0.029 A 
ATOM     39  N   UNL A   1      43.684  27.019  27.666  1.00  0.00    -0.354 N 
ATOM     40  C   UNL A   1      40.102  28.622  29.572  1.00  0.00     0.074 A 
ATOM     41  C   UNL A   1      39.053  27.630  29.611  1.00  0.00     0.031 C 
ATOM     42  C   UNL A   1      44.832  25.529  26.452  1.00  0.00     0.029 A 
ATOM     43  C   UNL A   1      44.862  26.894  26.964  1.00  0.00     0.049 A 
ATOM     44  H   UNL A   1      43.449  27.821  28.186  1.00  0.00     0.167 HD
ATOM     45  C   UNL A   1      39.979  29.879  30.055  1.00  0.00     0.034 A 
ATOM     46  C   UNL A   1      45.838  27.791  26.731  1.00  0.00     0.034 A 
ATOM     47  C   UNL A   1      41.049  30.836  30.035  1.00  0.00     0.049 A 
ATOM     48  C   UNL A   1      45.689  29.174  27.304  1.00  0.00     0.074 A 
ATOM     49  C   UNL A   1      41.082  32.102  30.588  1.00  0.00     0.029 A 
ATOM     50  N   UNL A   1      42.272  30.636  29.411  1.00  0.00    -0.354 N 
ATOM     51  N   UNL A   1      44.697  29.673  28.001  1.00  0.00    -0.248 NA
ATOM     52  C   UNL A   1      46.801  30.108  27.081  1.00  0.00     0.031 C 
ATOM     53  C   UNL A   1      42.307  32.687  30.257  1.00  0.00     0.029 A 
ATOM     54  C   UNL A   1      43.056  31.767  29.540  1.00  0.00     0.049 A 
ATOM     55  H   UNL A   1      42.540  29.811  28.946  1.00  0.00     0.167 HD
ATOM     56  C   UNL A   1      45.073  30.970  28.323  1.00  0.00     0.074 A 
ATOM     57  C   UNL A   1      46.398  31.169  27.767  1.00  0.00     0.031 C 
ATOM     58  C   UNL A   1      44.385  31.920  29.004  1.00  0.00     0.034 A 
BRANCH  45  59
ATOM     59  C   UNL A   1      38.660  30.276  30.668  1.00  0.00     0.023 A 
ATOM     60  C   UNL A   1      38.399  29.990  32.024  1.00  0.00     0.012 A 
ATOM     61  C   UNL A   1      37.696  30.973  29.914  1.00  0.00     0.148 A 
ATOM     62  C   UNL A   1      37.186  30.352  32.609  1.00  0.00     0.002 A 
ATOM     63  C   UNL A   1      36.511  31.378  30.517  1.00  0.00     0.091 A 
ATOM     64  F   UNL A   1      37.949  31.218  28.621  1.00  0.00    -0.205 F 
ATOM     65  C   UNL A   1      36.249  31.055  31.859  1.00  0.00     0.022 A 
BRANCH  63  66
ATOM     66  S   UNL A   1      35.272  32.359  29.665  1.00  0.00     0.127 S 
ATOM     67  O   UNL A   1      34.324  32.638  30.743  1.00  0.00    -0.237 OA
ATOM     68  O   UNL A   1      36.051  33.516  29.224  1.00  0.00    -0.237 OA
ATOM     69  O   UNL A   1      34.760  31.519  28.590  1.00  0.00    -0.744 OA
ENDBRANCH  63  66
ENDBRANCH  45  59
BRANCH  46  70
ATOM     70  C   UNL A   1      47.047  27.399  25.953  1.00  0.00     0.023 A 
ATOM     71  C   UNL A   1      48.057  26.647  26.583  1.00  0.00     0.012 A 
ATOM     72  C   UNL A   1      47.187  27.731  24.591  1.00  0.00     0.148 A 
ATOM     73  C   UNL A   1      49.200  26.262  25.881  1.00  0.00     0.002 A 
ATOM     74  C   UNL A   1      48.301  27.296  23.883  1.00  0.00     0.091 A 
ATOM     75  F   UNL A   1      46.214  28.448  24.011  1.00  0.00    -0.205 F 
ATOM     76  C   UNL A   1      49.318  26.578  24.530  1.00  0.00     0.022 A 
BRANCH  74  77
ATOM     77  S   UNL A   1      48.479  27.545  22.113  1.00  0.00     0.127 S 
ATOM     78  O   UNL A   1      49.663  28.397  22.049  1.00  0.00    -0.237 OA
ATOM     79  O   UNL A   1      48.677  26.176  21.637  1.00  0.00    -0.237 OA
ATOM     80  O   UNL A   1      47.235  28.162  21.673  1.00  0.00    -0.744 OA
ENDBRANCH  74  77
ENDBRANCH  46  70
BRANCH  58  81
ATOM     81  C   UNL A   1      45.056  33.251  29.208  1.00  0.00     0.023 A 
ATOM     82  C   UNL A   1      45.899  33.449  30.318  1.00  0.00     0.012 A 
ATOM     83  C   UNL A   1      44.921  34.270  28.246  1.00  0.00     0.148 A 
ATOM     84  C   UNL A   1      46.577  34.655  30.482  1.00  0.00     0.002 A 
ATOM     85  C   UNL A   1      45.643  35.447  28.386  1.00  0.00     0.091 A 
ATOM     86  F   UNL A   1      44.104  34.060  27.204  1.00  0.00    -0.205 F 
ATOM     87  C   UNL A   1      46.460  35.648  29.510  1.00  0.00     0.022 A 
BRANCH  85  88
ATOM     88  S   UNL A   1      45.636  36.739  27.140  1.00  0.00     0.127 S 
ATOM     89  O   UNL A   1      46.490  37.752  27.759  1.00  0.00    -0.237 OA
ATOM     90  O   UNL A   1      46.231  36.058  25.991  1.00  0.00    -0.237 OA
ATOM     91  O   UNL A   1      44.244  37.128  26.964  1.00  0.00    -0.744 OA
ENDBRANCH  85  88
ENDBRANCH  58  81
ENDBRANCH  32  33
ENDBRANCH  24  27
ENDBRANCH  22  23
ENDBRANCH   1  22
TORSDOF 18
ENDMDL
MODEL 2
REMARK VINA RESULT:     -11.3      5.234      9.980
REMARK SMILES C#CC[C@@]1(C(=O)NCCCNC(=O)c2ccc(-c3c4nc(c(-c5cccc(S(=O)(=O)[O-])c5F)c5ccc([nH]5)c(-c5cccc(S(=O)(=O)[O-])c5F)c5nc(c(-c6cccc(S(=O)(=O)[O-])c6F)c6ccc3[nH]6)C=C5)C=C4)cc2)CCCN1C(=O)OC(C)(C)C
REMARK SMILES IDX 9 1 8 2 7 3 5 4 6 5 4 7 77 8 80 9 78 10 79 11 3 12 2 13 1 14
REMARK SMILES IDX 81 15 82 16 83 17 84 18 85 19 86 20 87 21 10 22 11 23 12 24
REMARK SMILES IDX 13 26 14 27 15 28 76 29 16 30 75 31 17 32 18 33 19 34 69 35
REMARK SMILES IDX 20 36 74 37 68 38 70 39 21 40 73 41 67 42 66 43 22 45 54 46
REMARK SMILES IDX 34 47 53 48 35 49 38 50 52 51 71 52 36 53 37 54 51 56 72 57
REMARK SMILES IDX 39 58 23 59 24 60 32 61 25 62 27 63 33 64 26 65 28 66 29 67
REMARK SMILES IDX 30 68 31 69 55 70 56 71 64 72 57 73 59 74 65 75 58 76 60 77
REMARK SMILES IDX 61 78 62 79 63 80 40 81 41 82 49 83 42 84 44 85 50 86 43 87
REMARK SMILES IDX 45 88 46 89 47 90 48 91
REMARK H PARENT 7 6 11 25 70 44 38 55
REMARK Flexibility Score: inf
ROOT
ATOM      1  C   UNL A   1      31.710  27.775  26.124  1.00  0.00     0.042 C 
ENDROOT
BRANCH   1   2
ATOM      2  C   UNL A   1      32.150  26.336  25.966  1.00  0.00     0.117 C 
BRANCH   2   3
ATOM      3  N   UNL A   1      31.581  25.289  26.766  1.00  0.00    -0.354 N 
ATOM      4  C   UNL A   1      31.776  23.946  26.530  1.00  0.00     0.247 C 
ATOM      5  O   UNL A   1      31.665  23.192  27.503  1.00  0.00    -0.272 OA
ATOM      6  H   UNL A   1      31.016  25.545  27.532  1.00  0.00     0.163 HD
BRANCH   4   7
ATOM      7  C   UNL A   1      32.008  23.404  25.066  1.00  0.00     0.136 C 
ATOM      8  C   UNL A   1      31.695  21.858  25.151  1.00  0.00     0.042 C 
ATOM      9  N   UNL A   1      33.378  23.235  24.412  1.00  0.00    -0.292 N 
ATOM     10  C   UNL A   1      32.134  21.295  23.803  1.00  0.00     0.025 C 
ATOM     11  C   UNL A   1      33.336  22.147  23.443  1.00  0.00     0.124 C 
BRANCH   7  12
ATOM     12  C   UNL A   1      30.931  23.980  24.056  1.00  0.00     0.128 C 
BRANCH  12  13
ATOM     13  C   UNL A   1      31.371  24.892  22.984  1.00  0.00    -0.104 C 
ATOM     14  C   UNL A   1      31.704  25.669  22.135  1.00  0.00     0.004 C 
ENDBRANCH  12  13
ENDBRANCH   7  12
BRANCH   9  15
ATOM     15  C   UNL A   1      34.572  23.944  24.413  1.00  0.00     0.411 C 
ATOM     16  O   UNL A   1      34.593  25.163  24.555  1.00  0.00    -0.224 OA
BRANCH  15  17
ATOM     17  O   UNL A   1      35.688  23.228  24.120  1.00  0.00    -0.444 OA
BRANCH  17  18
ATOM     18  C   UNL A   1      36.534  22.703  25.202  1.00  0.00     0.106 C 
ATOM     19  C   UNL A   1      37.411  21.541  24.737  1.00  0.00     0.056 C 
ATOM     20  C   UNL A   1      37.341  23.826  25.877  1.00  0.00     0.056 C 
ATOM     21  C   UNL A   1      35.597  22.119  26.268  1.00  0.00     0.056 C 
ENDBRANCH  17  18
ENDBRANCH  15  17
ENDBRANCH   9  15
ENDBRANCH   4   7
ENDBRANCH   2   3
ENDBRANCH   1   2
BRANCH   1  22
ATOM     22  C   UNL A   1      32.657  28.670  26.909  1.00  0.00     0.118 C 
BRANCH  22  23
ATOM     23  N   UNL A   1      32.380  30.107  26.796  1.00  0.00    -0.352 N 
ATOM     24  C   UNL A   1      33.078  31.214  27.239  1.00  0.00     0.251 C 
ATOM     25  H   UNL A   1      31.546  30.320  26.318  1.00  0.00     0.163 HD
ATOM     26  O   UNL A   1      32.554  32.325  27.235  1.00  0.00    -0.269 OA
BRANCH  24  27
ATOM     27  C   UNL A   1      34.460  31.067  27.722  1.00  0.00     0.039 A 
ATOM     28  C   UNL A   1      35.343  32.154  27.752  1.00  0.00     0.014 A 
ATOM     29  C   UNL A   1      34.878  29.811  28.141  1.00  0.00     0.014 A 
ATOM     30  C   UNL A   1      36.616  31.987  28.305  1.00  0.00     0.010 A 
ATOM     31  C   UNL A   1      36.072  29.682  28.815  1.00  0.00     0.010 A 
ATOM     32  C   UNL A   1      36.963  30.761  28.891  1.00  0.00    -0.014 A 
BRANCH  32  33
ATOM     33  C   UNL A   1      38.235  30.521  29.608  1.00  0.00     0.031 A 
ATOM     34  C   UNL A   1      39.221  29.545  29.025  1.00  0.00     0.074 A 
ATOM     35  C   UNL A   1      38.385  31.003  30.856  1.00  0.00     0.049 A 
ATOM     36  N   UNL A   1      40.253  28.977  29.588  1.00  0.00    -0.248 NA
ATOM     37  C   UNL A   1      38.973  29.098  27.641  1.00  0.00     0.031 C 
ATOM     38  C   UNL A   1      37.440  31.888  31.544  1.00  0.00     0.029 A 
ATOM     39  N   UNL A   1      39.359  30.769  31.792  1.00  0.00    -0.354 N 
ATOM     40  C   UNL A   1      40.737  28.068  28.656  1.00  0.00     0.074 A 
ATOM     41  C   UNL A   1      39.863  28.126  27.507  1.00  0.00     0.031 C 
ATOM     42  C   UNL A   1      37.875  32.115  32.791  1.00  0.00     0.029 A 
ATOM     43  C   UNL A   1      39.096  31.350  33.012  1.00  0.00     0.049 A 
ATOM     44  H   UNL A   1      40.168  30.238  31.610  1.00  0.00     0.167 HD
ATOM     45  C   UNL A   1      41.827  27.271  28.743  1.00  0.00     0.034 A 
ATOM     46  C   UNL A   1      39.748  31.245  34.186  1.00  0.00     0.034 A 
ATOM     47  C   UNL A   1      42.699  27.258  29.883  1.00  0.00     0.049 A 
ATOM     48  C   UNL A   1      40.974  30.377  34.248  1.00  0.00     0.074 A 
ATOM     49  C   UNL A   1      43.891  26.577  30.047  1.00  0.00     0.029 A 
ATOM     50  N   UNL A   1      42.461  27.945  31.065  1.00  0.00    -0.354 N 
ATOM     51  N   UNL A   1      41.514  29.647  33.302  1.00  0.00    -0.248 NA
ATOM     52  C   UNL A   1      41.694  30.335  35.527  1.00  0.00     0.031 C 
ATOM     53  C   UNL A   1      44.349  26.815  31.346  1.00  0.00     0.029 A 
ATOM     54  C   UNL A   1      43.468  27.682  31.974  1.00  0.00     0.049 A 
ATOM     55  H   UNL A   1      41.688  28.532  31.230  1.00  0.00     0.167 HD
ATOM     56  C   UNL A   1      42.652  29.080  33.861  1.00  0.00     0.074 A 
ATOM     57  C   UNL A   1      42.736  29.574  35.222  1.00  0.00     0.031 C 
ATOM     58  C   UNL A   1      43.541  28.217  33.309  1.00  0.00     0.034 A 
BRANCH  45  59
ATOM     59  C   UNL A   1      42.150  26.383  27.570  1.00  0.00     0.023 A 
ATOM     60  C   UNL A   1      42.859  26.902  26.466  1.00  0.00     0.012 A 
ATOM     61  C   UNL A   1      41.793  25.020  27.578  1.00  0.00     0.148 A 
ATOM     62  C   UNL A   1      43.169  26.093  25.373  1.00  0.00     0.002 A 
ATOM     63  C   UNL A   1      42.153  24.207  26.510  1.00  0.00     0.091 A 
ATOM     64  F   UNL A   1      41.101  24.547  28.623  1.00  0.00    -0.205 F 
ATOM     65  C   UNL A   1      42.827  24.745  25.401  1.00  0.00     0.022 A 
BRANCH  63  66
ATOM     66  S   UNL A   1      41.830  22.441  26.480  1.00  0.00     0.127 S 
ATOM     67  O   UNL A   1      42.453  22.049  25.216  1.00  0.00    -0.237 OA
ATOM     68  O   UNL A   1      42.538  21.983  27.676  1.00  0.00    -0.237 OA
ATOM     69  O   UNL A   1      40.382  22.293  26.531  1.00  0.00    -0.744 OA
ENDBRANCH  63  66
ENDBRANCH  45  59
BRANCH  46  70
ATOM     70  C   UNL A   1      39.274  32.006  35.376  1.00  0.00     0.023 A 
ATOM     71  C   UNL A   1      38.403  31.384  36.290  1.00  0.00     0.012 A 
ATOM     72  C   UNL A   1      39.707  33.323  35.629  1.00  0.00     0.148 A 
ATOM     73  C   UNL A   1      37.943  32.069  37.415  1.00  0.00     0.002 A 
ATOM     74  C   UNL A   1      39.290  33.980  36.781  1.00  0.00     0.091 A 
ATOM     75  F   UNL A   1      40.536  33.898  34.746  1.00  0.00    -0.205 F 
ATOM     76  C   UNL A   1      38.393  33.362  37.666  1.00  0.00     0.022 A 
BRANCH  74  77
ATOM     77  S   UNL A   1      39.917  35.596  37.251  1.00  0.00     0.127 S 
ATOM     78  O   UNL A   1      41.341  35.327  37.424  1.00  0.00    -0.237 OA
ATOM     79  O   UNL A   1      39.579  36.402  36.077  1.00  0.00    -0.237 OA
ATOM     80  O   UNL A   1      39.194  35.964  38.461  1.00  0.00    -0.744 OA
ENDBRANCH  74  77
ENDBRANCH  46  70
BRANCH  58  81
ATOM     81  C   UNL A   1      44.694  27.769  34.165  1.00  0.00     0.023 A 
ATOM     82  C   UNL A   1      45.875  28.535  34.209  1.00  0.00     0.012 A 
ATOM     83  C   UNL A   1      44.567  26.637  34.994  1.00  0.00     0.148 A 
ATOM     84  C   UNL A   1      46.924  28.164  35.048  1.00  0.00     0.002 A 
ATOM     85  C   UNL A   1      45.593  26.307  35.867  1.00  0.00     0.091 A 
ATOM     86  F   UNL A   1      43.436  25.920  34.925  1.00  0.00    -0.205 F 
ATOM     87  C   UNL A   1      46.779  27.060  35.886  1.00  0.00     0.022 A 
BRANCH  85  88
ATOM     88  S   UNL A   1      45.459  24.967  37.054  1.00  0.00     0.127 S 
ATOM     89  O   UNL A   1      46.753  25.040  37.731  1.00  0.00    -0.237 OA
ATOM     90  O   UNL A   1      44.320  25.391  37.866  1.00  0.00    -0.237 OA
ATOM     91  O   UNL A   1      45.236  23.756  36.276  1.00  0.00    -0.744 OA
ENDBRANCH  85  88
ENDBRANCH  58  81
ENDBRANCH  32  33
ENDBRANCH  24  27
ENDBRANCH  22  23
ENDBRANCH   1  22
TORSDOF 18
ENDMDL
MODEL 3
REMARK VINA RESULT:     -11.2      1.072      2.496
REMARK SMILES C#CC[C@@]1(C(=O)NCCCNC(=O)c2ccc(-c3c4nc(c(-c5cccc(S(=O)(=O)[O-])c5F)c5ccc([nH]5)c(-c5cccc(S(=O)(=O)[O-])c5F)c5nc(c(-c6cccc(S(=O)(=O)[O-])c6F)c6ccc3[nH]6)C=C5)C=C4)cc2)CCCN1C(=O)OC(C)(C)C
REMARK SMILES IDX 9 1 8 2 7 3 5 4 6 5 4 7 77 8 80 9 78 10 79 11 3 12 2 13 1 14
REMARK SMILES IDX 81 15 82 16 83 17 84 18 85 19 86 20 87 21 10 22 11 23 12 24
REMARK SMILES IDX 13 26 14 27 15 28 76 29 16 30 75 31 17 32 18 33 19 34 69 35
REMARK SMILES IDX 20 36 74 37 68 38 70 39 21 40 73 41 67 42 66 43 22 45 54 46
REMARK SMILES IDX 34 47 53 48 35 49 38 50 52 51 71 52 36 53 37 54 51 56 72 57
REMARK SMILES IDX 39 58 23 59 24 60 32 61 25 62 27 63 33 64 26 65 28 66 29 67
REMARK SMILES IDX 30 68 31 69 55 70 56 71 64 72 57 73 59 74 65 75 58 76 60 77
REMARK SMILES IDX 61 78 62 79 63 80 40 81 41 82 49 83 42 84 44 85 50 86 43 87
REMARK SMILES IDX 45 88 46 89 47 90 48 91
REMARK H PARENT 7 6 11 25 70 44 38 55
REMARK Flexibility Score: inf
ROOT
ATOM      1  C   UNL A   1      35.772  23.540  24.302  1.00  0.00     0.042 C 
ENDROOT
BRANCH   1   2
ATOM      2  C   UNL A   1      34.532  24.406  24.297  1.00  0.00     0.117 C 
BRANCH   2   3
ATOM      3  N   UNL A   1      33.874  24.762  23.072  1.00  0.00    -0.354 N 
ATOM      4  C   UNL A   1      33.405  26.026  22.788  1.00  0.00     0.247 C 
ATOM      5  O   UNL A   1      33.315  26.326  21.592  1.00  0.00    -0.272 OA
ATOM      6  H   UNL A   1      33.751  24.060  22.391  1.00  0.00     0.163 HD
BRANCH   4   7
ATOM      7  C   UNL A   1      32.900  26.982  23.936  1.00  0.00     0.136 C 
ATOM      8  C   UNL A   1      34.170  27.240  24.840  1.00  0.00     0.042 C 
ATOM      9  N   UNL A   1      31.994  26.551  25.087  1.00  0.00    -0.292 N 
ATOM     10  C   UNL A   1      33.637  27.973  26.065  1.00  0.00     0.025 C 
ATOM     11  C   UNL A   1      32.261  27.367  26.265  1.00  0.00     0.124 C 
BRANCH   7  12
ATOM     12  C   UNL A   1      32.509  28.411  23.372  1.00  0.00     0.128 C 
BRANCH  12  13
ATOM     13  C   UNL A   1      31.103  28.679  23.016  1.00  0.00    -0.104 C 
ATOM     14  C   UNL A   1      29.976  28.914  22.685  1.00  0.00     0.004 C 
ENDBRANCH  12  13
ENDBRANCH   7  12
BRANCH   9  15
ATOM     15  C   UNL A   1      30.909  25.695  25.229  1.00  0.00     0.411 C 
ATOM     16  O   UNL A   1      29.992  25.681  24.412  1.00  0.00    -0.224 OA
BRANCH  15  17
ATOM     17  O   UNL A   1      30.866  24.977  26.380  1.00  0.00    -0.444 OA
BRANCH  17  18
ATOM     18  C   UNL A   1      30.990  23.512  26.342  1.00  0.00     0.106 C 
ATOM     19  C   UNL A   1      29.815  22.816  27.028  1.00  0.00     0.056 C 
ATOM     20  C   UNL A   1      31.226  23.006  24.908  1.00  0.00     0.056 C 
ATOM     21  C   UNL A   1      32.232  23.139  27.161  1.00  0.00     0.056 C 
ENDBRANCH  17  18
ENDBRANCH  15  17
ENDBRANCH   9  15
ENDBRANCH   4   7
ENDBRANCH   2   3
ENDBRANCH   1   2
BRANCH   1  22
ATOM     22  C   UNL A   1      36.080  22.840  25.617  1.00  0.00     0.118 C 
BRANCH  22  23
ATOM     23  N   UNL A   1      36.975  21.682  25.503  1.00  0.00    -0.352 N 
ATOM     24  C   UNL A   1      38.329  21.542  25.736  1.00  0.00     0.251 C 
ATOM     25  H   UNL A   1      36.528  20.856  25.206  1.00  0.00     0.163 HD
ATOM     26  O   UNL A   1      38.926  20.536  25.362  1.00  0.00    -0.269 OA
BRANCH  24  27
ATOM     27  C   UNL A   1      39.069  22.604  26.437  1.00  0.00     0.039 A 
ATOM     28  C   UNL A   1      40.107  22.305  27.328  1.00  0.00     0.014 A 
ATOM     29  C   UNL A   1      38.701  23.923  26.202  1.00  0.00     0.014 A 
ATOM     30  C   UNL A   1      40.841  23.349  27.900  1.00  0.00     0.010 A 
ATOM     31  C   UNL A   1      39.513  24.943  26.647  1.00  0.00     0.010 A 
ATOM     32  C   UNL A   1      40.580  24.672  27.514  1.00  0.00    -0.014 A 
BRANCH  32  33
ATOM     33  C   UNL A   1      41.377  25.834  27.965  1.00  0.00     0.031 A 
ATOM     34  C   UNL A   1      40.684  26.943  28.711  1.00  0.00     0.074 A 
ATOM     35  C   UNL A   1      42.639  25.979  27.516  1.00  0.00     0.049 A 
ATOM     36  N   UNL A   1      41.098  28.155  28.963  1.00  0.00    -0.248 NA
ATOM     37  C   UNL A   1      39.311  26.670  29.178  1.00  0.00     0.031 C 
ATOM     38  C   UNL A   1      43.370  24.997  26.710  1.00  0.00     0.029 A 
ATOM     39  N   UNL A   1      43.508  27.033  27.621  1.00  0.00    -0.354 N 
ATOM     40  C   UNL A   1      40.023  28.803  29.559  1.00  0.00     0.074 A 
ATOM     41  C   UNL A   1      38.923  27.867  29.593  1.00  0.00     0.031 C 
ATOM     42  C   UNL A   1      44.572  25.497  26.388  1.00  0.00     0.029 A 
ATOM     43  C   UNL A   1      44.675  26.853  26.913  1.00  0.00     0.049 A 
ATOM     44  H   UNL A   1      43.318  27.841  28.150  1.00  0.00     0.167 HD
ATOM     45  C   UNL A   1      39.968  30.061  30.054  1.00  0.00     0.034 A 
ATOM     46  C   UNL A   1      45.696  27.701  26.684  1.00  0.00     0.034 A 
ATOM     47  C   UNL A   1      41.087  30.960  30.039  1.00  0.00     0.049 A 
ATOM     48  C   UNL A   1      45.622  29.083  27.270  1.00  0.00     0.074 A 
ATOM     49  C   UNL A   1      41.188  32.217  30.604  1.00  0.00     0.029 A 
ATOM     50  N   UNL A   1      42.295  30.702  29.407  1.00  0.00    -0.354 N 
ATOM     51  N   UNL A   1      44.660  29.627  27.977  1.00  0.00    -0.248 NA
ATOM     52  C   UNL A   1      46.780  29.960  27.052  1.00  0.00     0.031 C 
ATOM     53  C   UNL A   1      42.441  32.740  30.272  1.00  0.00     0.029 A 
ATOM     54  C   UNL A   1      43.138  31.789  29.543  1.00  0.00     0.049 A 
ATOM     55  H   UNL A   1      42.517  29.869  28.933  1.00  0.00     0.167 HD
ATOM     56  C   UNL A   1      45.105  30.900  28.310  1.00  0.00     0.074 A 
ATOM     57  C   UNL A   1      46.437  31.034  27.750  1.00  0.00     0.031 C 
ATOM     58  C   UNL A   1      44.471  31.877  29.003  1.00  0.00     0.034 A 
BRANCH  45  59
ATOM     59  C   UNL A   1      38.674  30.519  30.677  1.00  0.00     0.023 A 
ATOM     60  C   UNL A   1      38.452  30.334  32.058  1.00  0.00     0.012 A 
ATOM     61  C   UNL A   1      37.696  31.176  29.905  1.00  0.00     0.148 A 
ATOM     62  C   UNL A   1      37.263  30.755  32.651  1.00  0.00     0.002 A 
ATOM     63  C   UNL A   1      36.537  31.642  30.514  1.00  0.00     0.091 A 
ATOM     64  F   UNL A   1      37.912  31.326  28.591  1.00  0.00    -0.205 F 
ATOM     65  C   UNL A   1      36.312  31.418  31.883  1.00  0.00     0.022 A 
BRANCH  63  66
ATOM     66  S   UNL A   1      35.284  32.578  29.632  1.00  0.00     0.127 S 
ATOM     67  O   UNL A   1      34.325  32.865  30.697  1.00  0.00    -0.237 OA
ATOM     68  O   UNL A   1      36.044  33.739  29.167  1.00  0.00    -0.237 OA
ATOM     69  O   UNL A   1      34.794  31.704  28.575  1.00  0.00    -0.744 OA
ENDBRANCH  63  66
ENDBRANCH  45  59
BRANCH  46  70
ATOM     70  C   UNL A   1      46.879  27.253  25.897  1.00  0.00     0.023 A 
ATOM     71  C   UNL A   1      47.795  26.356  26.479  1.00  0.00     0.012 A 
ATOM     72  C   UNL A   1      47.085  27.678  24.569  1.00  0.00     0.148 A 
ATOM     73  C   UNL A   1      48.912  25.916  25.768  1.00  0.00     0.002 A 
ATOM     74  C   UNL A   1      48.168  27.192  23.846  1.00  0.00     0.091 A 
ATOM     75  F   UNL A   1      46.202  28.533  24.033  1.00  0.00    -0.205 F 
ATOM     76  C   UNL A   1      49.093  26.326  24.449  1.00  0.00     0.022 A 
BRANCH  74  77
ATOM     77  S   UNL A   1      48.413  27.563  22.106  1.00  0.00     0.127 S 
ATOM     78  O   UNL A   1      49.569  28.455  22.151  1.00  0.00    -0.237 OA
ATOM     79  O   UNL A   1      48.679  26.235  21.551  1.00  0.00    -0.237 OA
ATOM     80  O   UNL A   1      47.169  28.167  21.651  1.00  0.00    -0.744 OA
ENDBRANCH  74  77
ENDBRANCH  46  70
BRANCH  58  81
ATOM     81  C   UNL A   1      45.212  33.169  29.216  1.00  0.00     0.023 A 
ATOM     82  C   UNL A   1      46.063  33.315  30.328  1.00  0.00     0.012 A 
ATOM     83  C   UNL A   1      45.131  34.201  28.261  1.00  0.00     0.148 A 
ATOM     84  C   UNL A   1      46.804  34.482  30.501  1.00  0.00     0.002 A 
ATOM     85  C   UNL A   1      45.915  35.337  28.410  1.00  0.00     0.091 A 
ATOM     86  F   UNL A   1      44.305  34.042  27.217  1.00  0.00    -0.205 F 
ATOM     87  C   UNL A   1      46.741  35.486  29.536  1.00  0.00     0.022 A 
BRANCH  85  88
ATOM     88  S   UNL A   1      45.978  36.636  27.173  1.00  0.00     0.127 S 
ATOM     89  O   UNL A   1      46.932  37.569  27.771  1.00  0.00    -0.237 OA
ATOM     90  O   UNL A   1      46.479  35.918  26.002  1.00  0.00    -0.237 OA
ATOM     91  O   UNL A   1      44.618  37.141  27.043  1.00  0.00    -0.744 OA
ENDBRANCH  85  88
ENDBRANCH  58  81
ENDBRANCH  32  33
ENDBRANCH  24  27
ENDBRANCH  22  23
ENDBRANCH   1  22
TORSDOF 18
ENDMDL
