MODEL 1
REMARK VINA RESULT:     -12.1      0.000      0.000
REMARK SMILES CCOC(=O)c1sc(NC(=O)CCC(=O)NCCCNC(=O)c2ccc(-c3c4nc(c(-c5cccc(S(=O)(=O)[O-])c5F)c5ccc([nH]5)c(-c5cccc(S(=O)(=O)[O-])c5F)c5nc(c(-c6cccc(S(=O)(=O)[O-])c6F)c6ccc3[nH]6)C=C5)C=C4)cc2)c(C#N)c1C
REMARK SMILES IDX 14 1 15 2 16 3 13 5 12 6 10 7 9 8 11 10 8 11 6 12 7 13 89 14
REMARK SMILES IDX 86 15 90 16 4 17 5 18 3 19 2 20 1 21 87 22 88 23 17 24 18 25
REMARK SMILES IDX 19 26 20 27 21 28 22 30 23 31 24 32 85 33 25 34 84 35 26 36
REMARK SMILES IDX 27 37 28 38 78 39 29 40 83 41 77 42 79 43 30 44 82 45 76 46
REMARK SMILES IDX 75 47 31 49 63 50 43 51 62 52 44 53 47 54 61 55 80 56 45 57
REMARK SMILES IDX 46 58 60 60 81 61 48 62 32 63 33 64 41 65 34 66 36 67 42 68
REMARK SMILES IDX 35 69 37 70 38 71 39 72 40 73 64 74 65 75 73 76 66 77 68 78
REMARK SMILES IDX 74 79 67 80 69 81 70 82 71 83 72 84 49 85 50 86 58 87 51 88
REMARK SMILES IDX 53 89 59 90 52 91 54 92 55 93 56 94 57 95
REMARK H PARENT 16 4 9 9 20 29 79 48 47 59
REMARK Flexibility Score: inf
ROOT
ATOM      1  C   UNL A   1      31.380  28.039  22.942  1.00  0.00     0.220 C 
ATOM      2  O   UNL A   1      30.535  27.872  22.060  1.00  0.00    -0.275 OA
ATOM      3  N   UNL A   1      31.037  28.809  24.017  1.00  0.00    -0.356 N 
ATOM      4  H   UNL A   1      30.297  29.436  23.854  1.00  0.00     0.163 HD
ENDROOT
BRANCH   1   5
ATOM      5  C   UNL A   1      32.763  27.439  22.801  1.00  0.00     0.110 C 
BRANCH   5   6
ATOM      6  C   UNL A   1      32.860  25.918  22.918  1.00  0.00     0.110 C 
BRANCH   6   7
ATOM      7  C   UNL A   1      33.021  25.162  21.613  1.00  0.00     0.225 C 
ATOM      8  N   UNL A   1      33.033  23.796  21.528  1.00  0.00    -0.317 N 
ATOM      9  H   UNL A   1      32.919  23.437  20.619  1.00  0.00     0.170 HD
ATOM     10  O   UNL A   1      33.024  25.808  20.556  1.00  0.00    -0.275 OA
BRANCH   8  11
ATOM     11  C   UNL A   1      33.180  22.841  22.518  1.00  0.00     0.114 A 
ATOM     12  C   UNL A   1      32.867  20.886  23.956  1.00  0.00     0.118 A 
ATOM     13  S   UNL A   1      31.943  21.709  22.784  1.00  0.00    -0.109 S 
ATOM     14  C   UNL A   1      33.918  21.654  24.416  1.00  0.00    -0.006 A 
ATOM     15  C   UNL A   1      34.211  22.636  23.420  1.00  0.00     0.091 A 
ATOM     16  C   UNL A   1      34.853  21.369  25.554  1.00  0.00     0.048 C 
BRANCH  12  17
ATOM     17  C   UNL A   1      32.521  19.533  24.291  1.00  0.00     0.348 C 
ATOM     18  O   UNL A   1      32.381  19.097  25.429  1.00  0.00    -0.245 OA
BRANCH  17  19
ATOM     19  O   UNL A   1      32.297  18.855  23.149  1.00  0.00    -0.462 OA
BRANCH  19  20
ATOM     20  C   UNL A   1      32.606  17.465  23.127  1.00  0.00     0.230 C 
ATOM     21  C   UNL A   1      34.098  17.234  23.259  1.00  0.00     0.049 C 
ENDBRANCH  19  20
ENDBRANCH  17  19
ENDBRANCH  12  17
BRANCH  15  22
ATOM     22  C   UNL A   1      35.566  23.035  23.282  1.00  0.00     0.103 C 
ATOM     23  N   UNL A   1      36.726  23.154  23.137  1.00  0.00    -0.192 NA
ENDBRANCH  15  22
ENDBRANCH   8  11
ENDBRANCH   6   7
ENDBRANCH   5   6
ENDBRANCH   1   5
BRANCH   3  24
ATOM     24  C   UNL A   1      31.585  28.855  25.363  1.00  0.00     0.117 C 
BRANCH  24  25
ATOM     25  C   UNL A   1      32.048  30.216  25.911  1.00  0.00     0.042 C 
BRANCH  25  26
ATOM     26  C   UNL A   1      33.304  30.289  26.773  1.00  0.00     0.118 C 
BRANCH  26  27
ATOM     27  N   UNL A   1      33.482  31.450  27.621  1.00  0.00    -0.352 N 
ATOM     28  C   UNL A   1      34.518  31.790  28.485  1.00  0.00     0.251 C 
ATOM     29  H   UNL A   1      32.749  32.106  27.580  1.00  0.00     0.163 HD
ATOM     30  O   UNL A   1      34.301  32.717  29.270  1.00  0.00    -0.269 OA
BRANCH  28  31
ATOM     31  C   UNL A   1      35.898  31.190  28.439  1.00  0.00     0.039 A 
ATOM     32  C   UNL A   1      36.032  29.790  28.434  1.00  0.00     0.014 A 
ATOM     33  C   UNL A   1      37.066  31.933  28.547  1.00  0.00     0.014 A 
ATOM     34  C   UNL A   1      37.267  29.179  28.719  1.00  0.00     0.010 A 
ATOM     35  C   UNL A   1      38.253  31.345  28.973  1.00  0.00     0.010 A 
ATOM     36  C   UNL A   1      38.364  29.964  29.091  1.00  0.00    -0.014 A 
BRANCH  36  37
ATOM     37  C   UNL A   1      39.734  29.424  29.129  1.00  0.00     0.031 A 
ATOM     38  C   UNL A   1      40.146  29.302  30.558  1.00  0.00     0.074 A 
ATOM     39  C   UNL A   1      40.470  28.911  28.111  1.00  0.00     0.049 A 
ATOM     40  N   UNL A   1      40.812  30.181  31.238  1.00  0.00    -0.248 NA
ATOM     41  C   UNL A   1      39.502  28.279  31.409  1.00  0.00     0.031 C 
ATOM     42  C   UNL A   1      40.056  28.717  26.717  1.00  0.00     0.029 A 
ATOM     43  N   UNL A   1      41.728  28.351  28.114  1.00  0.00    -0.354 N 
ATOM     44  C   UNL A   1      40.955  29.598  32.494  1.00  0.00     0.074 A 
ATOM     45  C   UNL A   1      39.858  28.690  32.630  1.00  0.00     0.031 C 
ATOM     46  C   UNL A   1      40.929  27.892  26.087  1.00  0.00     0.029 A 
ATOM     47  C   UNL A   1      42.042  27.594  26.974  1.00  0.00     0.049 A 
ATOM     48  H   UNL A   1      42.360  28.472  28.860  1.00  0.00     0.167 HD
ATOM     49  C   UNL A   1      42.195  29.526  33.056  1.00  0.00     0.034 A 
ATOM     50  C   UNL A   1      43.120  26.778  26.782  1.00  0.00     0.034 A 
ATOM     51  C   UNL A   1      43.100  30.405  32.354  1.00  0.00     0.049 A 
ATOM     52  C   UNL A   1      44.170  27.226  27.714  1.00  0.00     0.074 A 
ATOM     53  C   UNL A   1      43.223  31.759  32.123  1.00  0.00     0.029 A 
ATOM     54  N   UNL A   1      43.779  29.756  31.360  1.00  0.00    -0.354 N 
ATOM     55  N   UNL A   1      44.801  28.354  27.571  1.00  0.00    -0.248 NA
ATOM     56  C   UNL A   1      44.303  26.583  29.014  1.00  0.00     0.031 C 
ATOM     57  C   UNL A   1      43.893  31.886  30.868  1.00  0.00     0.029 A 
ATOM     58  C   UNL A   1      44.238  30.617  30.409  1.00  0.00     0.049 A 
ATOM     59  H   UNL A   1      43.921  28.782  31.335  1.00  0.00     0.167 HD
ATOM     60  C   UNL A   1      44.935  28.800  28.870  1.00  0.00     0.074 A 
ATOM     61  C   UNL A   1      44.815  27.607  29.701  1.00  0.00     0.031 C 
ATOM     62  C   UNL A   1      44.749  30.120  29.154  1.00  0.00     0.034 A 
BRANCH  49  63
ATOM     63  C   UNL A   1      42.759  28.301  33.785  1.00  0.00     0.023 A 
ATOM     64  C   UNL A   1      43.475  27.374  32.993  1.00  0.00     0.012 A 
ATOM     65  C   UNL A   1      42.388  27.856  35.078  1.00  0.00     0.148 A 
ATOM     66  C   UNL A   1      43.756  26.075  33.439  1.00  0.00     0.002 A 
ATOM     67  C   UNL A   1      42.727  26.591  35.546  1.00  0.00     0.091 A 
ATOM     68  F   UNL A   1      41.587  28.588  35.847  1.00  0.00    -0.205 F 
ATOM     69  C   UNL A   1      43.386  25.683  34.719  1.00  0.00     0.022 A 
BRANCH  67  70
ATOM     70  S   UNL A   1      42.282  26.048  37.205  1.00  0.00     0.127 S 
ATOM     71  O   UNL A   1      42.636  24.633  37.152  1.00  0.00    -0.237 OA
ATOM     72  O   UNL A   1      43.159  26.882  38.027  1.00  0.00    -0.237 OA
ATOM     73  O   UNL A   1      40.862  26.340  37.356  1.00  0.00    -0.744 OA
ENDBRANCH  67  70
ENDBRANCH  49  63
BRANCH  50  74
ATOM     74  C   UNL A   1      43.364  25.540  25.981  1.00  0.00     0.023 A 
ATOM     75  C   UNL A   1      44.577  25.383  25.260  1.00  0.00     0.012 A 
ATOM     76  C   UNL A   1      42.599  24.385  26.221  1.00  0.00     0.148 A 
ATOM     77  C   UNL A   1      45.040  24.119  24.864  1.00  0.00     0.002 A 
ATOM     78  C   UNL A   1      43.075  23.127  25.846  1.00  0.00     0.091 A 
ATOM     79  F   UNL A   1      41.442  24.517  26.883  1.00  0.00    -0.205 F 
ATOM     80  C   UNL A   1      44.301  22.987  25.181  1.00  0.00     0.022 A 
BRANCH  78  81
ATOM     81  S   UNL A   1      42.229  21.612  26.313  1.00  0.00     0.127 S 
ATOM     82  O   UNL A   1      42.435  21.582  27.760  1.00  0.00    -0.237 OA
ATOM     83  O   UNL A   1      40.855  21.879  25.893  1.00  0.00    -0.237 OA
ATOM     84  O   UNL A   1      42.899  20.549  25.579  1.00  0.00    -0.744 OA
ENDBRANCH  78  81
ENDBRANCH  50  74
BRANCH  62  85
ATOM     85  C   UNL A   1      44.991  31.105  28.051  1.00  0.00     0.023 A 
ATOM     86  C   UNL A   1      43.980  31.635  27.225  1.00  0.00     0.012 A 
ATOM     87  C   UNL A   1      46.312  31.549  27.888  1.00  0.00     0.148 A 
ATOM     88  C   UNL A   1      44.295  32.570  26.235  1.00  0.00     0.002 A 
ATOM     89  C   UNL A   1      46.612  32.510  26.939  1.00  0.00     0.091 A 
ATOM     90  F   UNL A   1      47.260  31.017  28.674  1.00  0.00    -0.205 F 
ATOM     91  C   UNL A   1      45.609  33.017  26.100  1.00  0.00     0.022 A 
BRANCH  89  92
ATOM     92  S   UNL A   1      48.269  33.176  26.799  1.00  0.00     0.127 S 
ATOM     93  O   UNL A   1      49.049  31.986  26.470  1.00  0.00    -0.237 OA
ATOM     94  O   UNL A   1      48.128  34.140  25.706  1.00  0.00    -0.237 OA
ATOM     95  O   UNL A   1      48.565  33.786  28.090  1.00  0.00    -0.744 OA
ENDBRANCH  89  92
ENDBRANCH  62  85
ENDBRANCH  36  37
ENDBRANCH  28  31
ENDBRANCH  26  27
ENDBRANCH  25  26
ENDBRANCH  24  25
ENDBRANCH   3  24
TORSDOF 20
ENDMDL
MODEL 2
REMARK VINA RESULT:     -11.4      3.085      8.013
REMARK SMILES CCOC(=O)c1sc(NC(=O)CCC(=O)NCCCNC(=O)c2ccc(-c3c4nc(c(-c5cccc(S(=O)(=O)[O-])c5F)c5ccc([nH]5)c(-c5cccc(S(=O)(=O)[O-])c5F)c5nc(c(-c6cccc(S(=O)(=O)[O-])c6F)c6ccc3[nH]6)C=C5)C=C4)cc2)c(C#N)c1C
REMARK SMILES IDX 14 1 15 2 16 3 13 5 12 6 10 7 9 8 11 10 8 11 6 12 7 13 89 14
REMARK SMILES IDX 86 15 90 16 4 17 5 18 3 19 2 20 1 21 87 22 88 23 17 24 18 25
REMARK SMILES IDX 19 26 20 27 21 28 22 30 23 31 24 32 85 33 25 34 84 35 26 36
REMARK SMILES IDX 27 37 28 38 78 39 29 40 83 41 77 42 79 43 30 44 82 45 76 46
REMARK SMILES IDX 75 47 31 49 63 50 43 51 62 52 44 53 47 54 61 55 80 56 45 57
REMARK SMILES IDX 46 58 60 60 81 61 48 62 32 63 33 64 41 65 34 66 36 67 42 68
REMARK SMILES IDX 35 69 37 70 38 71 39 72 40 73 64 74 65 75 73 76 66 77 68 78
REMARK SMILES IDX 74 79 67 80 69 81 70 82 71 83 72 84 49 85 50 86 58 87 51 88
REMARK SMILES IDX 53 89 59 90 52 91 54 92 55 93 56 94 57 95
REMARK H PARENT 16 4 9 9 20 29 79 48 47 59
REMARK Flexibility Score: inf
ROOT
ATOM      1  C   UNL A   1      33.884  19.349  24.623  1.00  0.00     0.220 C 
ATOM      2  O   UNL A   1      33.101  18.429  24.382  1.00  0.00    -0.275 OA
ATOM      3  N   UNL A   1      35.143  19.024  25.040  1.00  0.00    -0.356 N 
ATOM      4  H   UNL A   1      35.224  18.128  25.439  1.00  0.00     0.163 HD
ENDROOT
BRANCH   1   5
ATOM      5  C   UNL A   1      33.434  20.789  24.497  1.00  0.00     0.110 C 
BRANCH   5   6
ATOM      6  C   UNL A   1      32.736  21.394  25.715  1.00  0.00     0.110 C 
BRANCH   6   7
ATOM      7  C   UNL A   1      33.642  22.043  26.743  1.00  0.00     0.225 C 
ATOM      8  N   UNL A   1      33.862  23.393  26.810  1.00  0.00    -0.317 N 
ATOM      9  H   UNL A   1      34.282  23.702  27.644  1.00  0.00     0.170 HD
ATOM     10  O   UNL A   1      34.118  21.334  27.639  1.00  0.00    -0.275 OA
BRANCH   8  11
ATOM     11  C   UNL A   1      33.586  24.390  25.891  1.00  0.00     0.114 A 
ATOM     12  C   UNL A   1      32.790  26.447  24.830  1.00  0.00     0.118 A 
ATOM     13  S   UNL A   1      32.504  25.633  26.301  1.00  0.00    -0.109 S 
ATOM     14  C   UNL A   1      33.383  25.623  23.893  1.00  0.00    -0.006 A 
ATOM     15  C   UNL A   1      34.038  24.563  24.594  1.00  0.00     0.091 A 
ATOM     16  C   UNL A   1      33.642  25.898  22.441  1.00  0.00     0.048 C 
BRANCH  12  17
ATOM     17  C   UNL A   1      32.462  27.841  24.729  1.00  0.00     0.348 C 
ATOM     18  O   UNL A   1      31.334  28.294  24.567  1.00  0.00    -0.245 OA
BRANCH  17  19
ATOM     19  O   UNL A   1      33.584  28.558  24.929  1.00  0.00    -0.462 OA
BRANCH  19  20
ATOM     20  C   UNL A   1      33.529  29.635  25.858  1.00  0.00     0.230 C 
ATOM     21  C   UNL A   1      34.334  29.326  27.104  1.00  0.00     0.049 C 
ENDBRANCH  19  20
ENDBRANCH  17  19
ENDBRANCH  12  17
BRANCH  15  22
ATOM     22  C   UNL A   1      35.230  24.047  24.022  1.00  0.00     0.103 C 
ATOM     23  N   UNL A   1      36.224  23.495  23.726  1.00  0.00    -0.192 NA
ENDBRANCH  15  22
ENDBRANCH   8  11
ENDBRANCH   6   7
ENDBRANCH   5   6
ENDBRANCH   1   5
BRANCH   3  24
ATOM     24  C   UNL A   1      36.383  19.781  24.993  1.00  0.00     0.117 C 
BRANCH  24  25
ATOM     25  C   UNL A   1      37.710  19.007  25.082  1.00  0.00     0.042 C 
BRANCH  25  26
ATOM     26  C   UNL A   1      38.969  19.730  25.548  1.00  0.00     0.118 C 
BRANCH  26  27
ATOM     27  N   UNL A   1      40.211  18.985  25.580  1.00  0.00    -0.352 N 
ATOM     28  C   UNL A   1      41.504  19.391  25.891  1.00  0.00     0.251 C 
ATOM     29  H   UNL A   1      40.126  18.034  25.340  1.00  0.00     0.163 HD
ATOM     30  O   UNL A   1      42.415  18.611  25.600  1.00  0.00    -0.269 OA
BRANCH  28  31
ATOM     31  C   UNL A   1      41.842  20.644  26.655  1.00  0.00     0.039 A 
ATOM     32  C   UNL A   1      41.215  20.878  27.892  1.00  0.00     0.014 A 
ATOM     33  C   UNL A   1      42.633  21.666  26.147  1.00  0.00     0.014 A 
ATOM     34  C   UNL A   1      41.235  22.154  28.484  1.00  0.00     0.010 A 
ATOM     35  C   UNL A   1      42.538  22.962  26.646  1.00  0.00     0.010 A 
ATOM     36  C   UNL A   1      41.817  23.229  27.805  1.00  0.00    -0.014 A 
BRANCH  36  37
ATOM     37  C   UNL A   1      42.117  24.508  28.474  1.00  0.00     0.031 A 
ATOM     38  C   UNL A   1      40.986  25.445  28.213  1.00  0.00     0.074 A 
ATOM     39  C   UNL A   1      43.110  24.788  29.355  1.00  0.00     0.049 A 
ATOM     40  N   UNL A   1      40.926  26.322  27.261  1.00  0.00    -0.248 NA
ATOM     41  C   UNL A   1      39.676  25.188  28.846  1.00  0.00     0.031 C 
ATOM     42  C   UNL A   1      44.107  23.862  29.904  1.00  0.00     0.029 A 
ATOM     43  N   UNL A   1      43.392  25.949  30.040  1.00  0.00    -0.354 N 
ATOM     44  C   UNL A   1      39.697  26.947  27.455  1.00  0.00     0.074 A 
ATOM     45  C   UNL A   1      38.878  25.993  28.137  1.00  0.00     0.031 C 
ATOM     46  C   UNL A   1      44.711  24.421  30.982  1.00  0.00     0.029 A 
ATOM     47  C   UNL A   1      44.256  25.794  31.137  1.00  0.00     0.049 A 
ATOM     48  H   UNL A   1      43.017  26.821  29.781  1.00  0.00     0.167 HD
ATOM     49  C   UNL A   1      39.644  28.307  27.509  1.00  0.00     0.034 A 
ATOM     50  C   UNL A   1      44.559  26.713  32.100  1.00  0.00     0.034 A 
ATOM     51  C   UNL A   1      40.876  28.863  26.999  1.00  0.00     0.049 A 
ATOM     52  C   UNL A   1      44.282  28.042  31.527  1.00  0.00     0.074 A 
ATOM     53  C   UNL A   1      41.561  28.883  25.803  1.00  0.00     0.029 A 
ATOM     54  N   UNL A   1      41.783  29.102  27.995  1.00  0.00    -0.354 N 
ATOM     55  N   UNL A   1      45.006  28.564  30.581  1.00  0.00    -0.248 NA
ATOM     56  C   UNL A   1      42.992  28.675  31.763  1.00  0.00     0.031 C 
ATOM     57  C   UNL A   1      42.942  29.008  26.141  1.00  0.00     0.029 A 
ATOM     58  C   UNL A   1      43.059  29.150  27.522  1.00  0.00     0.049 A 
ATOM     59  H   UNL A   1      41.542  29.225  28.941  1.00  0.00     0.167 HD
ATOM     60  C   UNL A   1      44.070  29.194  29.788  1.00  0.00     0.074 A 
ATOM     61  C   UNL A   1      42.915  29.412  30.653  1.00  0.00     0.031 C 
ATOM     62  C   UNL A   1      44.180  29.130  28.431  1.00  0.00     0.034 A 
BRANCH  49  63
ATOM     63  C   UNL A   1      38.823  29.115  28.520  1.00  0.00     0.023 A 
ATOM     64  C   UNL A   1      38.085  30.204  28.001  1.00  0.00     0.012 A 
ATOM     65  C   UNL A   1      38.961  29.075  29.930  1.00  0.00     0.148 A 
ATOM     66  C   UNL A   1      37.567  31.212  28.827  1.00  0.00     0.002 A 
ATOM     67  C   UNL A   1      38.388  30.038  30.753  1.00  0.00     0.091 A 
ATOM     68  F   UNL A   1      39.757  28.181  30.510  1.00  0.00    -0.205 F 
ATOM     69  C   UNL A   1      37.714  31.127  30.205  1.00  0.00     0.022 A 
BRANCH  67  70
ATOM     70  S   UNL A   1      38.539  29.957  32.546  1.00  0.00     0.127 S 
ATOM     71  O   UNL A   1      37.704  31.080  32.959  1.00  0.00    -0.237 OA
ATOM     72  O   UNL A   1      37.986  28.631  32.824  1.00  0.00    -0.237 OA
ATOM     73  O   UNL A   1      39.962  30.086  32.836  1.00  0.00    -0.744 OA
ENDBRANCH  67  70
ENDBRANCH  49  63
BRANCH  50  74
ATOM     74  C   UNL A   1      44.946  26.628  33.541  1.00  0.00     0.023 A 
ATOM     75  C   UNL A   1      46.129  27.264  34.002  1.00  0.00     0.012 A 
ATOM     76  C   UNL A   1      43.991  26.259  34.504  1.00  0.00     0.148 A 
ATOM     77  C   UNL A   1      46.313  27.584  35.356  1.00  0.00     0.002 A 
ATOM     78  C   UNL A   1      44.168  26.601  35.847  1.00  0.00     0.091 A 
ATOM     79  F   UNL A   1      42.877  25.641  34.090  1.00  0.00    -0.205 F 
ATOM     80  C   UNL A   1      45.319  27.275  36.276  1.00  0.00     0.022 A 
BRANCH  78  81
ATOM     81  S   UNL A   1      42.884  26.330  37.075  1.00  0.00     0.127 S 
ATOM     82  O   UNL A   1      42.611  24.902  36.919  1.00  0.00    -0.237 OA
ATOM     83  O   UNL A   1      43.558  26.694  38.318  1.00  0.00    -0.237 OA
ATOM     84  O   UNL A   1      41.787  27.206  36.692  1.00  0.00    -0.744 OA
ENDBRANCH  78  81
ENDBRANCH  50  74
BRANCH  62  85
ATOM     85  C   UNL A   1      45.549  28.919  27.858  1.00  0.00     0.023 A 
ATOM     86  C   UNL A   1      46.525  29.930  27.743  1.00  0.00     0.012 A 
ATOM     87  C   UNL A   1      45.870  27.610  27.469  1.00  0.00     0.148 A 
ATOM     88  C   UNL A   1      47.787  29.635  27.219  1.00  0.00     0.002 A 
ATOM     89  C   UNL A   1      47.135  27.313  26.995  1.00  0.00     0.091 A 
ATOM     90  F   UNL A   1      44.918  26.669  27.572  1.00  0.00    -0.205 F 
ATOM     91  C   UNL A   1      48.096  28.325  26.856  1.00  0.00     0.022 A 
BRANCH  89  92
ATOM     92  S   UNL A   1      47.599  25.627  26.608  1.00  0.00     0.127 S 
ATOM     93  O   UNL A   1      46.521  25.212  25.714  1.00  0.00    -0.237 OA
ATOM     94  O   UNL A   1      48.901  25.800  25.962  1.00  0.00    -0.237 OA
ATOM     95  O   UNL A   1      47.660  24.926  27.885  1.00  0.00    -0.744 OA
ENDBRANCH  89  92
ENDBRANCH  62  85
ENDBRANCH  36  37
ENDBRANCH  28  31
ENDBRANCH  26  27
ENDBRANCH  25  26
ENDBRANCH  24  25
ENDBRANCH   3  24
TORSDOF 20
ENDMDL
MODEL 3
REMARK VINA RESULT:     -11.3      3.185      7.749
REMARK SMILES CCOC(=O)c1sc(NC(=O)CCC(=O)NCCCNC(=O)c2ccc(-c3c4nc(c(-c5cccc(S(=O)(=O)[O-])c5F)c5ccc([nH]5)c(-c5cccc(S(=O)(=O)[O-])c5F)c5nc(c(-c6cccc(S(=O)(=O)[O-])c6F)c6ccc3[nH]6)C=C5)C=C4)cc2)c(C#N)c1C
REMARK SMILES IDX 14 1 15 2 16 3 13 5 12 6 10 7 9 8 11 10 8 11 6 12 7 13 89 14
REMARK SMILES IDX 86 15 90 16 4 17 5 18 3 19 2 20 1 21 87 22 88 23 17 24 18 25
REMARK SMILES IDX 19 26 20 27 21 28 22 30 23 31 24 32 85 33 25 34 84 35 26 36
REMARK SMILES IDX 27 37 28 38 78 39 29 40 83 41 77 42 79 43 30 44 82 45 76 46
REMARK SMILES IDX 75 47 31 49 63 50 43 51 62 52 44 53 47 54 61 55 80 56 45 57
REMARK SMILES IDX 46 58 60 60 81 61 48 62 32 63 33 64 41 65 34 66 36 67 42 68
REMARK SMILES IDX 35 69 37 70 38 71 39 72 40 73 64 74 65 75 73 76 66 77 68 78
REMARK SMILES IDX 74 79 67 80 69 81 70 82 71 83 72 84 49 85 50 86 58 87 51 88
REMARK SMILES IDX 53 89 59 90 52 91 54 92 55 93 56 94 57 95
REMARK H PARENT 16 4 9 9 20 29 79 48 47 59
REMARK Flexibility Score: inf
ROOT
ATOM      1  C   UNL A   1      37.298  23.493  25.426  1.00  0.00     0.220 C 
ATOM      2  O   UNL A   1      38.084  24.269  25.973  1.00  0.00    -0.275 OA
ATOM      3  N   UNL A   1      37.806  22.348  24.881  1.00  0.00    -0.356 N 
ATOM      4  H   UNL A   1      38.766  22.387  24.664  1.00  0.00     0.163 HD
ENDROOT
BRANCH   1   5
ATOM      5  C   UNL A   1      35.827  23.835  25.330  1.00  0.00     0.110 C 
BRANCH   5   6
ATOM      6  C   UNL A   1      35.155  23.580  23.981  1.00  0.00     0.110 C 
BRANCH   6   7
ATOM      7  C   UNL A   1      33.698  23.987  23.879  1.00  0.00     0.225 C 
ATOM      8  N   UNL A   1      32.656  23.130  24.115  1.00  0.00    -0.317 N 
ATOM      9  H   UNL A   1      31.782  23.566  24.234  1.00  0.00     0.170 HD
ATOM     10  O   UNL A   1      33.433  25.181  23.688  1.00  0.00    -0.275 OA
BRANCH   8  11
ATOM     11  C   UNL A   1      32.639  21.750  24.212  1.00  0.00     0.114 A 
ATOM     12  C   UNL A   1      32.558  19.363  23.681  1.00  0.00     0.118 A 
ATOM     13  S   UNL A   1      32.250  20.817  22.847  1.00  0.00    -0.109 S 
ATOM     14  C   UNL A   1      32.580  19.548  25.050  1.00  0.00    -0.006 A 
ATOM     15  C   UNL A   1      32.869  20.926  25.300  1.00  0.00     0.091 A 
ATOM     16  C   UNL A   1      32.649  18.510  26.130  1.00  0.00     0.048 C 
BRANCH  12  17
ATOM     17  C   UNL A   1      32.809  18.166  22.927  1.00  0.00     0.348 C 
ATOM     18  O   UNL A   1      32.081  17.715  22.050  1.00  0.00    -0.245 OA
BRANCH  17  19
ATOM     19  O   UNL A   1      34.011  17.680  23.289  1.00  0.00    -0.462 OA
BRANCH  19  20
ATOM     20  C   UNL A   1      34.136  16.272  23.459  1.00  0.00     0.230 C 
ATOM     21  C   UNL A   1      34.028  15.885  24.920  1.00  0.00     0.049 C 
ENDBRANCH  19  20
ENDBRANCH  17  19
ENDBRANCH  12  17
BRANCH  15  22
ATOM     22  C   UNL A   1      33.620  21.229  26.466  1.00  0.00     0.103 C 
ATOM     23  N   UNL A   1      34.050  21.528  27.517  1.00  0.00    -0.192 NA
ENDBRANCH  15  22
ENDBRANCH   8  11
ENDBRANCH   6   7
ENDBRANCH   5   6
ENDBRANCH   1   5
BRANCH   3  24
ATOM     24  C   UNL A   1      37.166  21.081  24.569  1.00  0.00     0.117 C 
BRANCH  24  25
ATOM     25  C   UNL A   1      37.950  19.785  24.838  1.00  0.00     0.042 C 
BRANCH  25  26
ATOM     26  C   UNL A   1      38.970  19.748  25.972  1.00  0.00     0.118 C 
BRANCH  26  27
ATOM     27  N   UNL A   1      40.251  19.123  25.716  1.00  0.00    -0.352 N 
ATOM     28  C   UNL A   1      41.543  19.630  25.810  1.00  0.00     0.251 C 
ATOM     29  H   UNL A   1      40.200  18.183  25.426  1.00  0.00     0.163 HD
ATOM     30  O   UNL A   1      42.441  18.957  25.298  1.00  0.00    -0.269 OA
BRANCH  28  31
ATOM     31  C   UNL A   1      41.918  20.864  26.588  1.00  0.00     0.039 A 
ATOM     32  C   UNL A   1      41.349  21.067  27.859  1.00  0.00     0.014 A 
ATOM     33  C   UNL A   1      42.686  21.898  26.070  1.00  0.00     0.014 A 
ATOM     34  C   UNL A   1      41.399  22.328  28.480  1.00  0.00     0.010 A 
ATOM     35  C   UNL A   1      42.615  23.181  26.604  1.00  0.00     0.010 A 
ATOM     36  C   UNL A   1      41.950  23.420  27.801  1.00  0.00    -0.014 A 
BRANCH  36  37
ATOM     37  C   UNL A   1      42.282  24.681  28.487  1.00  0.00     0.031 A 
ATOM     38  C   UNL A   1      41.214  25.675  28.176  1.00  0.00     0.074 A 
ATOM     39  C   UNL A   1      43.245  24.910  29.415  1.00  0.00     0.049 A 
ATOM     40  N   UNL A   1      41.245  26.554  27.224  1.00  0.00    -0.248 NA
ATOM     41  C   UNL A   1      39.864  25.486  28.745  1.00  0.00     0.031 C 
ATOM     42  C   UNL A   1      44.166  23.935  30.008  1.00  0.00     0.029 A 
ATOM     43  N   UNL A   1      43.553  26.055  30.116  1.00  0.00    -0.354 N 
ATOM     44  C   UNL A   1      40.041  27.241  27.361  1.00  0.00     0.074 A 
ATOM     45  C   UNL A   1      39.143  26.330  28.001  1.00  0.00     0.031 C 
ATOM     46  C   UNL A   1      44.747  24.462  31.115  1.00  0.00     0.029 A 
ATOM     47  C   UNL A   1      44.355  25.857  31.252  1.00  0.00     0.049 A 
ATOM     48  H   UNL A   1      43.236  26.945  29.841  1.00  0.00     0.167 HD
ATOM     49  C   UNL A   1      40.055  28.602  27.416  1.00  0.00     0.034 A 
ATOM     50  C   UNL A   1      44.659  26.758  32.231  1.00  0.00     0.034 A 
ATOM     51  C   UNL A   1      41.336  29.094  26.967  1.00  0.00     0.049 A 
ATOM     52  C   UNL A   1      44.477  28.100  31.649  1.00  0.00     0.074 A 
ATOM     53  C   UNL A   1      42.077  29.079  25.804  1.00  0.00     0.029 A 
ATOM     54  N   UNL A   1      42.206  29.286  28.005  1.00  0.00    -0.354 N 
ATOM     55  N   UNL A   1      45.271  28.585  30.740  1.00  0.00    -0.248 NA
ATOM     56  C   UNL A   1      43.211  28.798  31.825  1.00  0.00     0.031 C 
ATOM     57  C   UNL A   1      43.446  29.134  26.208  1.00  0.00     0.029 A 
ATOM     58  C   UNL A   1      43.504  29.269  27.593  1.00  0.00     0.049 A 
ATOM     59  H   UNL A   1      41.927  29.422  28.939  1.00  0.00     0.167 HD
ATOM     60  C   UNL A   1      44.406  29.262  29.905  1.00  0.00     0.074 A 
ATOM     61  C   UNL A   1      43.225  29.539  30.714  1.00  0.00     0.031 C 
ATOM     62  C   UNL A   1      44.578  29.192  28.554  1.00  0.00     0.034 A 
BRANCH  49  63
ATOM     63  C   UNL A   1      39.229  29.451  28.389  1.00  0.00     0.023 A 
ATOM     64  C   UNL A   1      39.561  29.338  29.759  1.00  0.00     0.012 A 
ATOM     65  C   UNL A   1      37.997  30.090  28.100  1.00  0.00     0.148 A 
ATOM     66  C   UNL A   1      38.700  29.782  30.772  1.00  0.00     0.002 A 
ATOM     67  C   UNL A   1      37.176  30.592  29.103  1.00  0.00     0.091 A 
ATOM     68  F   UNL A   1      37.519  30.116  26.859  1.00  0.00    -0.205 F 
ATOM     69  C   UNL A   1      37.508  30.415  30.444  1.00  0.00     0.022 A 
BRANCH  67  70
ATOM     70  S   UNL A   1      35.630  31.434  28.722  1.00  0.00     0.127 S 
ATOM     71  O   UNL A   1      35.156  31.789  30.057  1.00  0.00    -0.237 OA
ATOM     72  O   UNL A   1      36.103  32.555  27.910  1.00  0.00    -0.237 OA
ATOM     73  O   UNL A   1      34.814  30.469  27.997  1.00  0.00    -0.744 OA
ENDBRANCH  67  70
ENDBRANCH  49  63
BRANCH  50  74
ATOM     74  C   UNL A   1      44.971  26.654  33.688  1.00  0.00     0.023 A 
ATOM     75  C   UNL A   1      46.124  27.291  34.219  1.00  0.00     0.012 A 
ATOM     76  C   UNL A   1      43.971  26.263  34.595  1.00  0.00     0.148 A 
ATOM     77  C   UNL A   1      46.236  27.591  35.585  1.00  0.00     0.002 A 
ATOM     78  C   UNL A   1      44.076  26.584  35.951  1.00  0.00     0.091 A 
ATOM     79  F   UNL A   1      42.885  25.643  34.115  1.00  0.00    -0.205 F 
ATOM     80  C   UNL A   1      45.198  27.260  36.448  1.00  0.00     0.022 A 
BRANCH  78  81
ATOM     81  S   UNL A   1      42.733  26.285  37.107  1.00  0.00     0.127 S 
ATOM     82  O   UNL A   1      42.473  24.860  36.907  1.00  0.00    -0.237 OA
ATOM     83  O   UNL A   1      43.343  26.623  38.390  1.00  0.00    -0.237 OA
ATOM     84  O   UNL A   1      41.654  27.167  36.688  1.00  0.00    -0.744 OA
ENDBRANCH  78  81
ENDBRANCH  50  74
BRANCH  62  85
ATOM     85  C   UNL A   1      45.960  28.912  28.047  1.00  0.00     0.023 A 
ATOM     86  C   UNL A   1      46.994  29.868  27.993  1.00  0.00     0.012 A 
ATOM     87  C   UNL A   1      46.227  27.591  27.656  1.00  0.00     0.148 A 
ATOM     88  C   UNL A   1      48.263  29.510  27.528  1.00  0.00     0.002 A 
ATOM     89  C   UNL A   1      47.496  27.230  27.240  1.00  0.00     0.091 A 
ATOM     90  F   UNL A   1      45.222  26.704  27.699  1.00  0.00    -0.205 F 
ATOM     91  C   UNL A   1      48.517  28.188  27.162  1.00  0.00     0.022 A 
BRANCH  89  92
ATOM     92  S   UNL A   1      47.885  25.525  26.854  1.00  0.00     0.127 S 
ATOM     93  O   UNL A   1      47.599  24.853  28.120  1.00  0.00    -0.237 OA
ATOM     94  O   UNL A   1      46.945  25.225  25.773  1.00  0.00    -0.237 OA
ATOM     95  O   UNL A   1      49.284  25.518  26.441  1.00  0.00    -0.744 OA
ENDBRANCH  89  92
ENDBRANCH  62  85
ENDBRANCH  36  37
ENDBRANCH  28  31
ENDBRANCH  26  27
ENDBRANCH  25  26
ENDBRANCH  24  25
ENDBRANCH   3  24
TORSDOF 20
ENDMDL
