MODEL 1
REMARK VINA RESULT:     -11.2      0.000      0.000
REMARK SMILES CSCc1ccc(C(=O)N[C@](C)(C(=O)NCCCNC(=O)c2ccc(-c3c4nc(c(-c5cccc(S(=O)(=O)[O-])c5F)c5ccc([nH]5)c(-c5cccc(S(=O)(=O)[O-])c5F)c5nc(c(-c6cccc(S(=O)(=O)[O-])c6F)c6ccc3[nH]6)C=C5)C=C4)cc2)C(F)(F)F)o1
REMARK SMILES IDX 16 1 15 2 13 3 14 4 11 6 12 7 10 8 8 9 9 10 7 12 4 13 5 14
REMARK SMILES IDX 89 15 6 16 3 17 2 18 1 19 85 20 86 21 87 22 88 23 17 24
REMARK SMILES IDX 18 25 19 26 20 27 21 29 22 30 23 31 84 32 24 33 83 34 25 35
REMARK SMILES IDX 26 36 27 37 77 38 28 39 82 40 76 41 78 42 29 43 81 44 75 45
REMARK SMILES IDX 74 46 30 48 62 49 42 50 61 51 43 52 46 53 60 54 79 55 44 56
REMARK SMILES IDX 45 57 59 59 80 60 47 61 31 62 32 63 40 64 33 65 35 66 41 67
REMARK SMILES IDX 34 68 36 69 37 70 38 71 39 72 63 73 64 74 72 75 65 76 67 77
REMARK SMILES IDX 73 78 66 79 68 80 69 81 70 82 71 83 48 84 49 85 57 86 50 87
REMARK SMILES IDX 52 88 58 89 51 90 53 91 54 92 55 93 56 94
REMARK H PARENT 15 5 10 11 19 28 78 47 46 58
REMARK Flexibility Score: inf
ROOT
ATOM      1  C   UNL A   1      31.760  30.350  25.887  1.00  0.00     0.117 C 
ENDROOT
BRANCH   1   2
ATOM      2  N   UNL A   1      30.971  30.143  24.679  1.00  0.00    -0.354 N 
ATOM      3  C   UNL A   1      31.044  29.131  23.757  1.00  0.00     0.254 C 
ATOM      4  O   UNL A   1      30.760  29.430  22.596  1.00  0.00    -0.272 OA
ATOM      5  H   UNL A   1      30.287  30.828  24.500  1.00  0.00     0.163 HD
BRANCH   3   6
ATOM      6  C   UNL A   1      31.543  27.733  24.158  1.00  0.00     0.212 C 
ATOM      7  C   UNL A   1      32.134  27.112  22.861  1.00  0.00     0.056 C 
BRANCH   6   8
ATOM      8  N   UNL A   1      32.612  27.879  25.206  1.00  0.00    -0.328 N 
ATOM      9  C   UNL A   1      33.518  26.999  25.766  1.00  0.00     0.288 C 
ATOM     10  O   UNL A   1      34.369  27.554  26.475  1.00  0.00    -0.266 OA
ATOM     11  H   UNL A   1      32.681  28.792  25.567  1.00  0.00     0.165 HD
BRANCH   9  12
ATOM     12  C   UNL A   1      33.484  25.549  25.598  1.00  0.00     0.191 A 
ATOM     13  C   UNL A   1      34.092  23.662  24.574  1.00  0.00     0.114 A 
ATOM     14  C   UNL A   1      33.295  23.290  25.624  1.00  0.00     0.047 A 
ATOM     15  O   UNL A   1      34.256  25.018  24.576  1.00  0.00    -0.455 OA
ATOM     16  C   UNL A   1      32.855  24.485  26.219  1.00  0.00     0.056 A 
BRANCH  13  17
ATOM     17  C   UNL A   1      34.764  22.871  23.515  1.00  0.00     0.144 C 
BRANCH  17  18
ATOM     18  S   UNL A   1      36.591  22.995  23.575  1.00  0.00    -0.157 SA
ATOM     19  C   UNL A   1      36.872  23.142  25.363  1.00  0.00     0.085 C 
ENDBRANCH  17  18
ENDBRANCH  13  17
ENDBRANCH   9  12
ENDBRANCH   6   8
BRANCH   6  20
ATOM     20  C   UNL A   1      30.385  26.809  24.607  1.00  0.00     0.420 C 
ATOM     21  F   UNL A   1      29.178  27.198  24.150  1.00  0.00    -0.168 F 
ATOM     22  F   UNL A   1      30.593  25.553  24.118  1.00  0.00    -0.168 F 
ATOM     23  F   UNL A   1      30.291  26.665  25.944  1.00  0.00    -0.168 F 
ENDBRANCH   6  20
ENDBRANCH   3   6
ENDBRANCH   1   2
BRANCH   1  24
ATOM     24  C   UNL A   1      31.487  31.740  26.460  1.00  0.00     0.042 C 
BRANCH  24  25
ATOM     25  C   UNL A   1      32.672  32.333  27.216  1.00  0.00     0.118 C 
BRANCH  25  26
ATOM     26  N   UNL A   1      32.486  33.744  27.511  1.00  0.00    -0.352 N 
ATOM     27  C   UNL A   1      33.090  34.525  28.464  1.00  0.00     0.251 C 
ATOM     28  H   UNL A   1      31.829  34.209  26.943  1.00  0.00     0.163 HD
ATOM     29  O   UNL A   1      32.644  35.650  28.691  1.00  0.00    -0.269 OA
BRANCH  27  30
ATOM     30  C   UNL A   1      34.253  34.020  29.226  1.00  0.00     0.039 A 
ATOM     31  C   UNL A   1      34.025  33.173  30.315  1.00  0.00     0.014 A 
ATOM     32  C   UNL A   1      35.558  34.390  28.890  1.00  0.00     0.014 A 
ATOM     33  C   UNL A   1      35.109  32.654  31.028  1.00  0.00     0.010 A 
ATOM     34  C   UNL A   1      36.639  33.808  29.553  1.00  0.00     0.010 A 
ATOM     35  C   UNL A   1      36.427  32.939  30.632  1.00  0.00    -0.014 A 
BRANCH  35  36
ATOM     36  C   UNL A   1      37.584  32.313  31.323  1.00  0.00     0.031 A 
ATOM     37  C   UNL A   1      38.329  31.166  30.693  1.00  0.00     0.074 A 
ATOM     38  C   UNL A   1      37.919  32.729  32.561  1.00  0.00     0.049 A 
ATOM     39  N   UNL A   1      39.341  30.484  31.165  1.00  0.00    -0.248 NA
ATOM     40  C   UNL A   1      37.865  30.708  29.373  1.00  0.00     0.031 C 
ATOM     41  C   UNL A   1      37.221  33.770  33.320  1.00  0.00     0.029 A 
ATOM     42  N   UNL A   1      38.911  32.309  33.413  1.00  0.00    -0.354 N 
ATOM     43  C   UNL A   1      39.608  29.496  30.224  1.00  0.00     0.074 A 
ATOM     44  C   UNL A   1      38.637  29.650  29.164  1.00  0.00     0.031 C 
ATOM     45  C   UNL A   1      37.805  33.909  34.521  1.00  0.00     0.029 A 
ATOM     46  C   UNL A   1      38.896  32.946  34.633  1.00  0.00     0.049 A 
ATOM     47  H   UNL A   1      39.570  31.619  33.174  1.00  0.00     0.167 HD
ATOM     48  C   UNL A   1      40.587  28.560  30.231  1.00  0.00     0.034 A 
ATOM     49  C   UNL A   1      39.662  32.766  35.727  1.00  0.00     0.034 A 
ATOM     50  C   UNL A   1      41.578  28.434  31.267  1.00  0.00     0.049 A 
ATOM     51  C   UNL A   1      40.771  31.751  35.687  1.00  0.00     0.074 A 
ATOM     52  C   UNL A   1      42.673  27.589  31.310  1.00  0.00     0.029 A 
ATOM     53  N   UNL A   1      41.585  29.156  32.450  1.00  0.00    -0.354 N 
ATOM     54  N   UNL A   1      41.120  30.950  34.710  1.00  0.00    -0.248 NA
ATOM     55  C   UNL A   1      41.618  31.642  36.884  1.00  0.00     0.031 C 
ATOM     56  C   UNL A   1      43.320  27.771  32.536  1.00  0.00     0.029 A 
ATOM     57  C   UNL A   1      42.653  28.761  33.239  1.00  0.00     0.049 A 
ATOM     58  H   UNL A   1      40.929  29.848  32.694  1.00  0.00     0.167 HD
ATOM     59  C   UNL A   1      42.243  30.265  35.162  1.00  0.00     0.074 A 
ATOM     60  C   UNL A   1      42.533  30.768  36.488  1.00  0.00     0.031 C 
ATOM     61  C   UNL A   1      42.960  29.298  34.540  1.00  0.00     0.034 A 
BRANCH  48  62
ATOM     62  C   UNL A   1      40.667  27.611  29.063  1.00  0.00     0.023 A 
ATOM     63  C   UNL A   1      39.761  26.535  28.971  1.00  0.00     0.012 A 
ATOM     64  C   UNL A   1      41.581  27.836  28.015  1.00  0.00     0.148 A 
ATOM     65  C   UNL A   1      39.784  25.680  27.871  1.00  0.00     0.002 A 
ATOM     66  C   UNL A   1      41.565  27.009  26.898  1.00  0.00     0.091 A 
ATOM     67  F   UNL A   1      42.446  28.853  28.129  1.00  0.00    -0.205 F 
ATOM     68  C   UNL A   1      40.675  25.924  26.830  1.00  0.00     0.022 A 
BRANCH  66  69
ATOM     69  S   UNL A   1      42.616  27.287  25.468  1.00  0.00     0.127 S 
ATOM     70  O   UNL A   1      43.929  27.440  26.092  1.00  0.00    -0.237 OA
ATOM     71  O   UNL A   1      42.440  26.046  24.714  1.00  0.00    -0.237 OA
ATOM     72  O   UNL A   1      42.096  28.478  24.812  1.00  0.00    -0.744 OA
ENDBRANCH  66  69
ENDBRANCH  48  62
BRANCH  49  73
ATOM     73  C   UNL A   1      39.429  33.593  36.946  1.00  0.00     0.023 A 
ATOM     74  C   UNL A   1      39.886  34.924  36.985  1.00  0.00     0.012 A 
ATOM     75  C   UNL A   1      38.742  33.070  38.059  1.00  0.00     0.148 A 
ATOM     76  C   UNL A   1      39.700  35.706  38.127  1.00  0.00     0.002 A 
ATOM     77  C   UNL A   1      38.506  33.874  39.167  1.00  0.00     0.091 A 
ATOM     78  F   UNL A   1      38.324  31.798  38.006  1.00  0.00    -0.205 F 
ATOM     79  C   UNL A   1      39.002  35.185  39.212  1.00  0.00     0.022 A 
BRANCH  77  80
ATOM     80  S   UNL A   1      37.495  33.329  40.548  1.00  0.00     0.127 S 
ATOM     81  O   UNL A   1      38.313  32.262  41.116  1.00  0.00    -0.237 OA
ATOM     82  O   UNL A   1      37.413  34.545  41.360  1.00  0.00    -0.237 OA
ATOM     83  O   UNL A   1      36.225  32.915  39.966  1.00  0.00    -0.744 OA
ENDBRANCH  77  80
ENDBRANCH  49  73
BRANCH  61  84
ATOM     84  C   UNL A   1      44.156  28.738  35.266  1.00  0.00     0.023 A 
ATOM     85  C   UNL A   1      45.429  29.313  35.077  1.00  0.00     0.012 A 
ATOM     86  C   UNL A   1      44.007  27.678  36.182  1.00  0.00     0.148 A 
ATOM     87  C   UNL A   1      46.539  28.816  35.757  1.00  0.00     0.002 A 
ATOM     88  C   UNL A   1      45.108  27.223  36.896  1.00  0.00     0.091 A 
ATOM     89  F   UNL A   1      42.792  27.131  36.335  1.00  0.00    -0.205 F 
ATOM     90  C   UNL A   1      46.378  27.781  36.675  1.00  0.00     0.022 A 
BRANCH  88  91
ATOM     91  S   UNL A   1      44.976  25.963  38.169  1.00  0.00     0.127 S 
ATOM     92  O   UNL A   1      46.360  25.860  38.631  1.00  0.00    -0.237 OA
ATOM     93  O   UNL A   1      44.060  26.585  39.127  1.00  0.00    -0.237 OA
ATOM     94  O   UNL A   1      44.448  24.777  37.509  1.00  0.00    -0.744 OA
ENDBRANCH  88  91
ENDBRANCH  61  84
ENDBRANCH  35  36
ENDBRANCH  27  30
ENDBRANCH  25  26
ENDBRANCH  24  25
ENDBRANCH   1  24
TORSDOF 18
ENDMDL
MODEL 2
REMARK VINA RESULT:     -11.1      6.618     11.563
REMARK SMILES CSCc1ccc(C(=O)N[C@](C)(C(=O)NCCCNC(=O)c2ccc(-c3c4nc(c(-c5cccc(S(=O)(=O)[O-])c5F)c5ccc([nH]5)c(-c5cccc(S(=O)(=O)[O-])c5F)c5nc(c(-c6cccc(S(=O)(=O)[O-])c6F)c6ccc3[nH]6)C=C5)C=C4)cc2)C(F)(F)F)o1
REMARK SMILES IDX 16 1 15 2 13 3 14 4 11 6 12 7 10 8 8 9 9 10 7 12 4 13 5 14
REMARK SMILES IDX 89 15 6 16 3 17 2 18 1 19 85 20 86 21 87 22 88 23 17 24
REMARK SMILES IDX 18 25 19 26 20 27 21 29 22 30 23 31 84 32 24 33 83 34 25 35
REMARK SMILES IDX 26 36 27 37 77 38 28 39 82 40 76 41 78 42 29 43 81 44 75 45
REMARK SMILES IDX 74 46 30 48 62 49 42 50 61 51 43 52 46 53 60 54 79 55 44 56
REMARK SMILES IDX 45 57 59 59 80 60 47 61 31 62 32 63 40 64 33 65 35 66 41 67
REMARK SMILES IDX 34 68 36 69 37 70 38 71 39 72 63 73 64 74 72 75 65 76 67 77
REMARK SMILES IDX 73 78 66 79 68 80 69 81 70 82 71 83 48 84 49 85 57 86 50 87
REMARK SMILES IDX 52 88 58 89 51 90 53 91 54 92 55 93 56 94
REMARK H PARENT 15 5 10 11 19 28 78 47 46 58
REMARK Flexibility Score: inf
ROOT
ATOM      1  C   UNL A   1      36.572  20.760  24.765  1.00  0.00     0.117 C 
ENDROOT
BRANCH   1   2
ATOM      2  N   UNL A   1      35.905  21.067  26.024  1.00  0.00    -0.354 N 
ATOM      3  C   UNL A   1      34.676  21.635  26.240  1.00  0.00     0.254 C 
ATOM      4  O   UNL A   1      34.564  22.323  27.256  1.00  0.00    -0.272 OA
ATOM      5  H   UNL A   1      36.409  20.832  26.836  1.00  0.00     0.163 HD
BRANCH   3   6
ATOM      6  C   UNL A   1      33.545  21.481  25.210  1.00  0.00     0.212 C 
ATOM      7  C   UNL A   1      32.357  22.317  25.766  1.00  0.00     0.056 C 
BRANCH   6   8
ATOM      8  N   UNL A   1      34.007  22.037  23.891  1.00  0.00    -0.328 N 
ATOM      9  C   UNL A   1      34.363  23.304  23.467  1.00  0.00     0.288 C 
ATOM     10  O   UNL A   1      34.872  23.319  22.338  1.00  0.00    -0.266 OA
ATOM     11  H   UNL A   1      34.071  21.357  23.183  1.00  0.00     0.165 HD
BRANCH   9  12
ATOM     12  C   UNL A   1      34.138  24.530  24.227  1.00  0.00     0.191 A 
ATOM     13  C   UNL A   1      33.221  26.546  24.503  1.00  0.00     0.114 A 
ATOM     14  C   UNL A   1      33.916  26.278  25.654  1.00  0.00     0.047 A 
ATOM     15  O   UNL A   1      33.304  25.479  23.655  1.00  0.00    -0.455 OA
ATOM     16  C   UNL A   1      34.552  25.043  25.443  1.00  0.00     0.056 A 
BRANCH  13  17
ATOM     17  C   UNL A   1      32.440  27.730  24.074  1.00  0.00     0.144 C 
BRANCH  17  18
ATOM     18  S   UNL A   1      32.891  29.257  24.980  1.00  0.00    -0.157 SA
ATOM     19  C   UNL A   1      31.266  30.044  25.169  1.00  0.00     0.085 C 
ENDBRANCH  17  18
ENDBRANCH  13  17
ENDBRANCH   9  12
ENDBRANCH   6   8
BRANCH   6  20
ATOM     20  C   UNL A   1      33.049  20.019  25.105  1.00  0.00     0.420 C 
ATOM     21  F   UNL A   1      32.979  19.387  26.293  1.00  0.00    -0.168 F 
ATOM     22  F   UNL A   1      31.787  20.005  24.588  1.00  0.00    -0.168 F 
ATOM     23  F   UNL A   1      33.787  19.253  24.276  1.00  0.00    -0.168 F 
ENDBRANCH   6  20
ENDBRANCH   3   6
ENDBRANCH   1   2
BRANCH   1  24
ATOM     24  C   UNL A   1      37.671  19.723  24.992  1.00  0.00     0.042 C 
BRANCH  24  25
ATOM     25  C   UNL A   1      38.863  20.258  25.781  1.00  0.00     0.118 C 
BRANCH  25  26
ATOM     26  N   UNL A   1      39.913  19.264  25.931  1.00  0.00    -0.352 N 
ATOM     27  C   UNL A   1      41.259  19.439  26.135  1.00  0.00     0.251 C 
ATOM     28  H   UNL A   1      39.616  18.326  25.877  1.00  0.00     0.163 HD
ATOM     29  O   UNL A   1      42.014  18.473  26.028  1.00  0.00    -0.269 OA
BRANCH  27  30
ATOM     30  C   UNL A   1      41.804  20.774  26.464  1.00  0.00     0.039 A 
ATOM     31  C   UNL A   1      42.154  21.633  25.418  1.00  0.00     0.014 A 
ATOM     32  C   UNL A   1      41.991  21.177  27.790  1.00  0.00     0.014 A 
ATOM     33  C   UNL A   1      42.637  22.912  25.702  1.00  0.00     0.010 A 
ATOM     34  C   UNL A   1      42.397  22.481  28.070  1.00  0.00     0.010 A 
ATOM     35  C   UNL A   1      42.731  23.362  27.030  1.00  0.00    -0.014 A 
BRANCH  35  36
ATOM     36  C   UNL A   1      43.149  24.754  27.338  1.00  0.00     0.031 A 
ATOM     37  C   UNL A   1      42.173  25.739  27.924  1.00  0.00     0.074 A 
ATOM     38  C   UNL A   1      44.396  25.156  27.017  1.00  0.00     0.049 A 
ATOM     39  N   UNL A   1      42.358  26.999  28.229  1.00  0.00    -0.248 NA
ATOM     40  C   UNL A   1      40.806  25.259  28.181  1.00  0.00     0.031 C 
ATOM     41  C   UNL A   1      45.409  24.324  26.363  1.00  0.00     0.029 A 
ATOM     42  N   UNL A   1      45.015  26.372  27.168  1.00  0.00    -0.354 N 
ATOM     43  C   UNL A   1      41.128  27.470  28.672  1.00  0.00     0.074 A 
ATOM     44  C   UNL A   1      40.196  26.369  28.575  1.00  0.00     0.031 C 
ATOM     45  C   UNL A   1      46.521  25.052  26.170  1.00  0.00     0.029 A 
ATOM     46  C   UNL A   1      46.291  26.409  26.654  1.00  0.00     0.049 A 
ATOM     47  H   UNL A   1      44.587  27.144  27.603  1.00  0.00     0.167 HD
ATOM     48  C   UNL A   1      40.809  28.701  29.139  1.00  0.00     0.034 A 
ATOM     49  C   UNL A   1      47.173  27.424  26.567  1.00  0.00     0.034 A 
ATOM     50  C   UNL A   1      41.748  29.783  29.273  1.00  0.00     0.049 A 
ATOM     51  C   UNL A   1      46.806  28.767  27.137  1.00  0.00     0.074 A 
ATOM     52  C   UNL A   1      41.544  31.031  29.835  1.00  0.00     0.029 A 
ATOM     53  N   UNL A   1      43.058  29.757  28.822  1.00  0.00    -0.354 N 
ATOM     54  N   UNL A   1      45.692  29.138  27.720  1.00  0.00    -0.248 NA
ATOM     55  C   UNL A   1      47.831  29.819  27.075  1.00  0.00     0.031 C 
ATOM     56  C   UNL A   1      42.720  31.774  29.690  1.00  0.00     0.029 A 
ATOM     57  C   UNL A   1      43.670  30.974  29.076  1.00  0.00     0.049 A 
ATOM     58  H   UNL A   1      43.491  28.987  28.388  1.00  0.00     0.167 HD
ATOM     59  C   UNL A   1      45.892  30.454  28.119  1.00  0.00     0.074 A 
ATOM     60  C   UNL A   1      47.245  30.805  27.740  1.00  0.00     0.031 C 
ATOM     61  C   UNL A   1      45.030  31.300  28.733  1.00  0.00     0.034 A 
BRANCH  48  62
ATOM     62  C   UNL A   1      39.388  28.944  29.579  1.00  0.00     0.023 A 
ATOM     63  C   UNL A   1      39.013  28.677  30.912  1.00  0.00     0.012 A 
ATOM     64  C   UNL A   1      38.450  29.518  28.699  1.00  0.00     0.148 A 
ATOM     65  C   UNL A   1      37.718  28.948  31.352  1.00  0.00     0.002 A 
ATOM     66  C   UNL A   1      37.176  29.829  29.157  1.00  0.00     0.091 A 
ATOM     67  F   UNL A   1      38.821  29.747  27.431  1.00  0.00    -0.205 F 
ATOM     68  C   UNL A   1      36.805  29.535  30.480  1.00  0.00     0.022 A 
BRANCH  66  69
ATOM     69  S   UNL A   1      35.954  30.662  28.138  1.00  0.00     0.127 S 
ATOM     70  O   UNL A   1      36.637  31.915  27.823  1.00  0.00    -0.237 OA
ATOM     71  O   UNL A   1      35.817  29.741  27.011  1.00  0.00    -0.237 OA
ATOM     72  O   UNL A   1      34.763  30.794  28.965  1.00  0.00    -0.744 OA
ENDBRANCH  66  69
ENDBRANCH  48  62
BRANCH  49  73
ATOM     73  C   UNL A   1      48.509  27.199  25.944  1.00  0.00     0.023 A 
ATOM     74  C   UNL A   1      49.567  26.688  26.721  1.00  0.00     0.012 A 
ATOM     75  C   UNL A   1      48.731  27.475  24.581  1.00  0.00     0.148 A 
ATOM     76  C   UNL A   1      50.831  26.496  26.163  1.00  0.00     0.002 A 
ATOM     77  C   UNL A   1      49.975  27.222  24.016  1.00  0.00     0.091 A 
ATOM     78  F   UNL A   1      47.715  27.970  23.860  1.00  0.00    -0.205 F 
ATOM     79  C   UNL A   1      51.033  26.753  24.809  1.00  0.00     0.022 A 
BRANCH  77  80
ATOM     80  S   UNL A   1      50.281  27.390  22.254  1.00  0.00     0.127 S 
ATOM     81  O   UNL A   1      51.666  26.942  22.146  1.00  0.00    -0.237 OA
ATOM     82  O   UNL A   1      49.288  26.475  21.687  1.00  0.00    -0.237 OA
ATOM     83  O   UNL A   1      50.042  28.794  21.946  1.00  0.00    -0.744 OA
ENDBRANCH  77  80
ENDBRANCH  49  73
BRANCH  61  84
ATOM     84  C   UNL A   1      45.526  32.683  29.071  1.00  0.00     0.023 A 
ATOM     85  C   UNL A   1      46.207  32.911  30.283  1.00  0.00     0.012 A 
ATOM     86  C   UNL A   1      45.370  33.743  28.157  1.00  0.00     0.148 A 
ATOM     87  C   UNL A   1      46.688  34.181  30.598  1.00  0.00     0.002 A 
ATOM     88  C   UNL A   1      45.899  34.993  28.454  1.00  0.00     0.091 A 
ATOM     89  F   UNL A   1      44.704  33.512  27.016  1.00  0.00    -0.205 F 
ATOM     90  C   UNL A   1      46.545  35.218  29.680  1.00  0.00     0.022 A 
BRANCH  88  91
ATOM     91  S   UNL A   1      45.850  36.360  27.289  1.00  0.00     0.127 S 
ATOM     92  O   UNL A   1      44.411  36.576  27.144  1.00  0.00    -0.237 OA
ATOM     93  O   UNL A   1      46.554  37.415  28.020  1.00  0.00    -0.237 OA
ATOM     94  O   UNL A   1      46.536  35.894  26.092  1.00  0.00    -0.744 OA
ENDBRANCH  88  91
ENDBRANCH  61  84
ENDBRANCH  35  36
ENDBRANCH  27  30
ENDBRANCH  25  26
ENDBRANCH  24  25
ENDBRANCH   1  24
TORSDOF 18
ENDMDL
MODEL 3
REMARK VINA RESULT:     -10.9      5.642      8.817
REMARK SMILES CSCc1ccc(C(=O)N[C@](C)(C(=O)NCCCNC(=O)c2ccc(-c3c4nc(c(-c5cccc(S(=O)(=O)[O-])c5F)c5ccc([nH]5)c(-c5cccc(S(=O)(=O)[O-])c5F)c5nc(c(-c6cccc(S(=O)(=O)[O-])c6F)c6ccc3[nH]6)C=C5)C=C4)cc2)C(F)(F)F)o1
REMARK SMILES IDX 16 1 15 2 13 3 14 4 11 6 12 7 10 8 8 9 9 10 7 12 4 13 5 14
REMARK SMILES IDX 89 15 6 16 3 17 2 18 1 19 85 20 86 21 87 22 88 23 17 24
REMARK SMILES IDX 18 25 19 26 20 27 21 29 22 30 23 31 84 32 24 33 83 34 25 35
REMARK SMILES IDX 26 36 27 37 77 38 28 39 82 40 76 41 78 42 29 43 81 44 75 45
REMARK SMILES IDX 74 46 30 48 62 49 42 50 61 51 43 52 46 53 60 54 79 55 44 56
REMARK SMILES IDX 45 57 59 59 80 60 47 61 31 62 32 63 40 64 33 65 35 66 41 67
REMARK SMILES IDX 34 68 36 69 37 70 38 71 39 72 63 73 64 74 72 75 65 76 67 77
REMARK SMILES IDX 73 78 66 79 68 80 69 81 70 82 71 83 48 84 49 85 57 86 50 87
REMARK SMILES IDX 52 88 58 89 51 90 53 91 54 92 55 93 56 94
REMARK H PARENT 15 5 10 11 19 28 78 47 46 58
REMARK Flexibility Score: inf
ROOT
ATOM      1  C   UNL A   1      35.921  23.476  23.484  1.00  0.00     0.117 C 
ENDROOT
BRANCH   1   2
ATOM      2  N   UNL A   1      35.327  24.030  24.694  1.00  0.00    -0.354 N 
ATOM      3  C   UNL A   1      34.033  24.419  24.927  1.00  0.00     0.254 C 
ATOM      4  O   UNL A   1      33.878  25.352  25.717  1.00  0.00    -0.272 OA
ATOM      5  H   UNL A   1      35.944  24.141  25.453  1.00  0.00     0.163 HD
BRANCH   3   6
ATOM      6  C   UNL A   1      32.866  23.771  24.165  1.00  0.00     0.212 C 
ATOM      7  C   UNL A   1      31.579  24.438  24.727  1.00  0.00     0.056 C 
BRANCH   6   8
ATOM      8  N   UNL A   1      33.016  24.069  22.698  1.00  0.00    -0.328 N 
ATOM      9  C   UNL A   1      32.873  25.219  21.944  1.00  0.00     0.288 C 
ATOM     10  O   UNL A   1      33.270  25.094  20.778  1.00  0.00    -0.266 OA
ATOM     11  H   UNL A   1      33.271  23.282  22.165  1.00  0.00     0.165 HD
BRANCH   9  12
ATOM     12  C   UNL A   1      32.278  26.463  22.426  1.00  0.00     0.191 A 
ATOM     13  C   UNL A   1      32.351  28.375  23.573  1.00  0.00     0.114 A 
ATOM     14  C   UNL A   1      31.128  28.343  22.957  1.00  0.00     0.047 A 
ATOM     15  O   UNL A   1      33.076  27.273  23.220  1.00  0.00    -0.455 OA
ATOM     16  C   UNL A   1      31.059  27.102  22.299  1.00  0.00     0.056 A 
BRANCH  13  17
ATOM     17  C   UNL A   1      32.969  29.362  24.491  1.00  0.00     0.144 C 
BRANCH  17  18
ATOM     18  S   UNL A   1      31.958  29.687  25.984  1.00  0.00    -0.157 SA
ATOM     19  C   UNL A   1      32.798  28.642  27.208  1.00  0.00     0.085 C 
ENDBRANCH  17  18
ENDBRANCH  13  17
ENDBRANCH   9  12
ENDBRANCH   6   8
BRANCH   6  20
ATOM     20  C   UNL A   1      32.748  22.256  24.460  1.00  0.00     0.420 C 
ATOM     21  F   UNL A   1      33.365  21.480  23.548  1.00  0.00    -0.168 F 
ATOM     22  F   UNL A   1      33.338  21.983  25.659  1.00  0.00    -0.168 F 
ATOM     23  F   UNL A   1      31.477  21.822  24.577  1.00  0.00    -0.168 F 
ENDBRANCH   6  20
ENDBRANCH   3   6
ENDBRANCH   1   2
BRANCH   1  24
ATOM     24  C   UNL A   1      36.709  22.210  23.818  1.00  0.00     0.042 C 
BRANCH  24  25
ATOM     25  C   UNL A   1      36.724  21.875  25.307  1.00  0.00     0.118 C 
BRANCH  25  26
ATOM     26  N   UNL A   1      37.699  20.845  25.628  1.00  0.00    -0.352 N 
ATOM     27  C   UNL A   1      38.997  20.974  26.056  1.00  0.00     0.251 C 
ATOM     28  H   UNL A   1      37.383  19.918  25.522  1.00  0.00     0.163 HD
ATOM     29  O   UNL A   1      39.726  19.982  26.074  1.00  0.00    -0.269 OA
BRANCH  27  30
ATOM     30  C   UNL A   1      39.526  22.290  26.475  1.00  0.00     0.039 A 
ATOM     31  C   UNL A   1      40.675  22.330  27.270  1.00  0.00     0.014 A 
ATOM     32  C   UNL A   1      38.889  23.480  26.109  1.00  0.00     0.014 A 
ATOM     33  C   UNL A   1      41.214  23.562  27.649  1.00  0.00     0.010 A 
ATOM     34  C   UNL A   1      39.474  24.707  26.421  1.00  0.00     0.010 A 
ATOM     35  C   UNL A   1      40.639  24.762  27.199  1.00  0.00    -0.014 A 
BRANCH  35  36
ATOM     36  C   UNL A   1      41.262  26.074  27.515  1.00  0.00     0.031 A 
ATOM     37  C   UNL A   1      42.683  26.368  27.111  1.00  0.00     0.074 A 
ATOM     38  C   UNL A   1      40.570  26.977  28.239  1.00  0.00     0.049 A 
ATOM     39  N   UNL A   1      43.394  27.445  27.329  1.00  0.00    -0.248 NA
ATOM     40  C   UNL A   1      43.409  25.310  26.391  1.00  0.00     0.031 C 
ATOM     41  C   UNL A   1      39.219  26.779  28.768  1.00  0.00     0.029 A 
ATOM     42  N   UNL A   1      40.917  28.231  28.680  1.00  0.00    -0.354 N 
ATOM     43  C   UNL A   1      44.656  27.181  26.812  1.00  0.00     0.074 A 
ATOM     44  C   UNL A   1      44.624  25.833  26.289  1.00  0.00     0.031 C 
ATOM     45  C   UNL A   1      38.851  27.869  29.460  1.00  0.00     0.029 A 
ATOM     46  C   UNL A   1      39.950  28.830  29.454  1.00  0.00     0.049 A 
ATOM     47  H   UNL A   1      41.776  28.659  28.463  1.00  0.00     0.167 HD
ATOM     48  C   UNL A   1      45.737  27.995  26.755  1.00  0.00     0.034 A 
ATOM     49  C   UNL A   1      39.950  30.012  30.100  1.00  0.00     0.034 A 
ATOM     50  C   UNL A   1      45.755  29.350  27.238  1.00  0.00     0.049 A 
ATOM     51  C   UNL A   1      41.148  30.914  29.979  1.00  0.00     0.074 A 
ATOM     52  C   UNL A   1      46.768  30.288  27.129  1.00  0.00     0.029 A 
ATOM     53  N   UNL A   1      44.725  29.956  27.940  1.00  0.00    -0.354 N 
ATOM     54  N   UNL A   1      42.267  30.714  29.327  1.00  0.00    -0.248 NA
ATOM     55  C   UNL A   1      41.068  32.220  30.649  1.00  0.00     0.031 C 
ATOM     56  C   UNL A   1      46.365  31.447  27.798  1.00  0.00     0.029 A 
ATOM     57  C   UNL A   1      45.085  31.248  28.287  1.00  0.00     0.049 A 
ATOM     58  H   UNL A   1      43.864  29.531  28.158  1.00  0.00     0.167 HD
ATOM     59  C   UNL A   1      43.011  31.879  29.482  1.00  0.00     0.074 A 
ATOM     60  C   UNL A   1      42.202  32.790  30.265  1.00  0.00     0.031 C 
ATOM     61  C   UNL A   1      44.256  32.163  29.029  1.00  0.00     0.034 A 
BRANCH  48  62
ATOM     62  C   UNL A   1      46.992  27.461  26.114  1.00  0.00     0.023 A 
ATOM     63  C   UNL A   1      47.270  27.756  24.764  1.00  0.00     0.012 A 
ATOM     64  C   UNL A   1      47.937  26.741  26.872  1.00  0.00     0.148 A 
ATOM     65  C   UNL A   1      48.453  27.317  24.170  1.00  0.00     0.002 A 
ATOM     66  C   UNL A   1      49.135  26.348  26.287  1.00  0.00     0.091 A 
ATOM     67  F   UNL A   1      47.646  26.454  28.149  1.00  0.00    -0.205 F 
ATOM     68  C   UNL A   1      49.389  26.626  24.934  1.00  0.00     0.022 A 
BRANCH  66  69
ATOM     69  S   UNL A   1      50.441  25.526  27.206  1.00  0.00     0.127 S 
ATOM     70  O   UNL A   1      50.739  26.513  28.242  1.00  0.00    -0.237 OA
ATOM     71  O   UNL A   1      49.765  24.322  27.687  1.00  0.00    -0.237 OA
ATOM     72  O   UNL A   1      51.513  25.283  26.251  1.00  0.00    -0.744 OA
ENDBRANCH  66  69
ENDBRANCH  48  62
BRANCH  49  73
ATOM     73  C   UNL A   1      38.758  30.430  30.894  1.00  0.00     0.023 A 
ATOM     74  C   UNL A   1      38.686  30.114  32.265  1.00  0.00     0.012 A 
ATOM     75  C   UNL A   1      37.706  31.151  30.299  1.00  0.00     0.148 A 
ATOM     76  C   UNL A   1      37.567  30.473  33.018  1.00  0.00     0.002 A 
ATOM     77  C   UNL A   1      36.624  31.559  31.069  1.00  0.00     0.091 A 
ATOM     78  F   UNL A   1      37.789  31.433  28.991  1.00  0.00    -0.205 F 
ATOM     79  C   UNL A   1      36.542  31.203  32.424  1.00  0.00     0.022 A 
BRANCH  77  80
ATOM     80  S   UNL A   1      35.331  32.622  30.419  1.00  0.00     0.127 S 
ATOM     81  O   UNL A   1      34.879  31.867  29.255  1.00  0.00    -0.237 OA
ATOM     82  O   UNL A   1      34.385  32.664  31.535  1.00  0.00    -0.237 OA
ATOM     83  O   UNL A   1      35.976  33.898  30.136  1.00  0.00    -0.744 OA
ENDBRANCH  77  80
ENDBRANCH  49  73
BRANCH  61  84
ATOM     84  C   UNL A   1      44.817  33.528  29.333  1.00  0.00     0.023 A 
ATOM     85  C   UNL A   1      45.577  33.735  30.502  1.00  0.00     0.012 A 
ATOM     86  C   UNL A   1      44.641  34.593  28.428  1.00  0.00     0.148 A 
ATOM     87  C   UNL A   1      46.117  34.988  30.785  1.00  0.00     0.002 A 
ATOM     88  C   UNL A   1      45.227  35.825  28.690  1.00  0.00     0.091 A 
ATOM     89  F   UNL A   1      43.900  34.384  27.330  1.00  0.00    -0.205 F 
ATOM     90  C   UNL A   1      45.953  36.029  29.875  1.00  0.00     0.022 A 
BRANCH  88  91
ATOM     91  S   UNL A   1      45.153  37.193  27.528  1.00  0.00     0.127 S 
ATOM     92  O   UNL A   1      46.013  36.713  26.447  1.00  0.00    -0.237 OA
ATOM     93  O   UNL A   1      43.728  37.242  27.197  1.00  0.00    -0.237 OA
ATOM     94  O   UNL A   1      45.647  38.360  28.247  1.00  0.00    -0.744 OA
ENDBRANCH  88  91
ENDBRANCH  61  84
ENDBRANCH  35  36
ENDBRANCH  27  30
ENDBRANCH  25  26
ENDBRANCH  24  25
ENDBRANCH   1  24
TORSDOF 18
ENDMDL
