MODEL 1
REMARK VINA RESULT:     -12.6      0.000      0.000
REMARK SMILES O=C(Nc1c(F)cc(F)cc1F)N[C@H]1C=C[C@@H](C(=O)NCCCNC(=O)c2ccc(-c3c4nc(c(-c5cccc(S(=O)(=O)[O-])c5F)c5ccc([nH]5)c(-c5cccc(S(=O)(=O)[O-])c5F)c5nc(c(-c6cccc(S(=O)(=O)[O-])c6F)c6ccc3[nH]6)C=C5)C=C4)cc2)C1
REMARK SMILES IDX 22 1 21 2 20 3 18 4 19 5 17 7 14 8 15 9 90 10 16 11 13 12
REMARK SMILES IDX 1 13 2 14 3 15 4 18 5 19 11 20 6 21 7 22 10 23 12 24 8 25
REMARK SMILES IDX 9 26 23 27 24 28 25 29 26 31 27 32 28 33 89 34 29 35 88 36
REMARK SMILES IDX 30 37 31 38 32 39 82 40 33 41 87 42 81 43 83 44 34 45 86 46
REMARK SMILES IDX 80 47 79 48 35 50 67 51 47 52 66 53 48 54 51 55 65 56 84 57
REMARK SMILES IDX 49 58 50 59 64 61 85 62 52 63 36 64 37 65 45 66 38 67 40 68
REMARK SMILES IDX 46 69 39 70 41 71 42 72 43 73 44 74 68 75 69 76 77 77 70 78
REMARK SMILES IDX 72 79 78 80 71 81 73 82 74 83 75 84 76 85 53 86 54 87 62 88
REMARK SMILES IDX 55 89 57 90 63 91 56 92 58 93 59 94 60 95 61 96
REMARK H PARENT 20 6 3 16 13 17 24 30 83 49 51 60
REMARK Flexibility Score: inf
ROOT
ATOM      1  C   UNL A   1      31.538  31.677  26.675  1.00  0.00     0.042 C 
ENDROOT
BRANCH   1   2
ATOM      2  C   UNL A   1      31.749  30.470  25.775  1.00  0.00     0.117 C 
BRANCH   2   3
ATOM      3  N   UNL A   1      31.714  29.230  26.521  1.00  0.00    -0.356 N 
ATOM      4  C   UNL A   1      31.393  27.967  26.132  1.00  0.00     0.227 C 
ATOM      5  O   UNL A   1      31.467  27.081  26.990  1.00  0.00    -0.274 OA
ATOM      6  H   UNL A   1      31.964  29.315  27.469  1.00  0.00     0.163 HD
BRANCH   4   7
ATOM      7  C   UNL A   1      30.969  27.618  24.701  1.00  0.00     0.103 C 
ATOM      8  C   UNL A   1      31.321  25.790  23.094  1.00  0.00     0.107 C 
ATOM      9  C   UNL A   1      29.987  25.704  23.763  1.00  0.00    -0.006 C 
ATOM     10  C   UNL A   1      32.038  26.921  23.852  1.00  0.00     0.047 C 
ATOM     11  C   UNL A   1      29.788  26.700  24.633  1.00  0.00    -0.016 C 
BRANCH   8  12
ATOM     12  N   UNL A   1      31.996  24.524  23.235  1.00  0.00    -0.332 N 
ATOM     13  O   UNL A   1      33.315  24.764  21.400  1.00  0.00    -0.248 OA
ATOM     14  C   UNL A   1      32.980  24.116  22.390  1.00  0.00     0.319 C 
ATOM     15  N   UNL A   1      33.711  23.025  22.751  1.00  0.00    -0.303 N 
ATOM     16  H   UNL A   1      34.550  22.929  22.247  1.00  0.00     0.172 HD
ATOM     17  H   UNL A   1      31.735  23.930  23.976  1.00  0.00     0.165 HD
BRANCH  15  18
ATOM     18  C   UNL A   1      33.505  22.006  23.704  1.00  0.00     0.115 A 
ATOM     19  C   UNL A   1      34.066  21.971  24.981  1.00  0.00     0.152 A 
ATOM     20  C   UNL A   1      32.633  20.969  23.350  1.00  0.00     0.152 A 
ATOM     21  F   UNL A   1      34.864  22.960  25.411  1.00  0.00    -0.204 F 
ATOM     22  C   UNL A   1      33.804  20.922  25.860  1.00  0.00     0.081 A 
ATOM     23  C   UNL A   1      32.387  19.891  24.197  1.00  0.00     0.081 A 
ATOM     24  F   UNL A   1      32.044  20.995  22.145  1.00  0.00    -0.204 F 
ATOM     25  C   UNL A   1      32.981  19.881  25.451  1.00  0.00     0.129 A 
ATOM     26  F   UNL A   1      32.756  18.864  26.290  1.00  0.00    -0.207 F 
ENDBRANCH  15  18
ENDBRANCH   8  12
ENDBRANCH   4   7
ENDBRANCH   2   3
ENDBRANCH   1   2
BRANCH   1  27
ATOM     27  C   UNL A   1      32.825  32.350  27.125  1.00  0.00     0.118 C 
BRANCH  27  28
ATOM     28  N   UNL A   1      32.612  33.733  27.534  1.00  0.00    -0.352 N 
ATOM     29  C   UNL A   1      33.172  34.457  28.556  1.00  0.00     0.251 C 
ATOM     30  H   UNL A   1      31.959  34.228  26.989  1.00  0.00     0.163 HD
ATOM     31  O   UNL A   1      32.683  35.548  28.852  1.00  0.00    -0.269 OA
BRANCH  29  32
ATOM     32  C   UNL A   1      34.332  33.938  29.312  1.00  0.00     0.039 A 
ATOM     33  C   UNL A   1      34.107  33.126  30.428  1.00  0.00     0.014 A 
ATOM     34  C   UNL A   1      35.639  34.268  28.948  1.00  0.00     0.014 A 
ATOM     35  C   UNL A   1      35.190  32.599  31.135  1.00  0.00     0.010 A 
ATOM     36  C   UNL A   1      36.714  33.660  29.587  1.00  0.00     0.010 A 
ATOM     37  C   UNL A   1      36.504  32.833  30.699  1.00  0.00    -0.014 A 
BRANCH  37  38
ATOM     38  C   UNL A   1      37.674  32.239  31.397  1.00  0.00     0.031 A 
ATOM     39  C   UNL A   1      38.439  31.109  30.761  1.00  0.00     0.074 A 
ATOM     40  C   UNL A   1      37.997  32.659  32.636  1.00  0.00     0.049 A 
ATOM     41  N   UNL A   1      39.443  30.420  31.240  1.00  0.00    -0.248 NA
ATOM     42  C   UNL A   1      38.000  30.674  29.425  1.00  0.00     0.031 C 
ATOM     43  C   UNL A   1      37.292  33.699  33.386  1.00  0.00     0.029 A 
ATOM     44  N   UNL A   1      38.988  32.248  33.491  1.00  0.00    -0.354 N 
ATOM     45  C   UNL A   1      39.730  29.453  30.285  1.00  0.00     0.074 A 
ATOM     46  C   UNL A   1      38.764  29.612  29.220  1.00  0.00     0.031 C 
ATOM     47  C   UNL A   1      37.881  33.858  34.581  1.00  0.00     0.029 A 
ATOM     48  C   UNL A   1      38.980  32.906  34.699  1.00  0.00     0.049 A 
ATOM     49  H   UNL A   1      39.643  31.549  33.262  1.00  0.00     0.167 HD
ATOM     50  C   UNL A   1      40.726  28.536  30.275  1.00  0.00     0.034 A 
ATOM     51  C   UNL A   1      39.767  32.754  35.783  1.00  0.00     0.034 A 
ATOM     52  C   UNL A   1      41.704  28.403  31.322  1.00  0.00     0.049 A 
ATOM     53  C   UNL A   1      40.874  31.737  35.744  1.00  0.00     0.074 A 
ATOM     54  C   UNL A   1      42.797  27.557  31.375  1.00  0.00     0.029 A 
ATOM     55  N   UNL A   1      41.702  29.129  32.502  1.00  0.00    -0.354 N 
ATOM     56  N   UNL A   1      41.216  30.927  34.774  1.00  0.00    -0.248 NA
ATOM     57  C   UNL A   1      41.727  31.640  36.937  1.00  0.00     0.031 C 
ATOM     58  C   UNL A   1      43.436  27.748  32.604  1.00  0.00     0.029 A 
ATOM     59  C   UNL A   1      42.767  28.744  33.298  1.00  0.00     0.049 A 
ATOM     60  H   UNL A   1      41.040  29.818  32.740  1.00  0.00     0.167 HD
ATOM     61  C   UNL A   1      42.348  30.254  35.219  1.00  0.00     0.074 A 
ATOM     62  C   UNL A   1      42.642  30.765  36.543  1.00  0.00     0.031 C 
ATOM     63  C   UNL A   1      43.076  29.297  34.592  1.00  0.00     0.034 A 
BRANCH  50  64
ATOM     64  C   UNL A   1      40.827  27.632  29.072  1.00  0.00     0.023 A 
ATOM     65  C   UNL A   1      40.010  26.484  28.990  1.00  0.00     0.012 A 
ATOM     66  C   UNL A   1      41.705  27.929  28.011  1.00  0.00     0.148 A 
ATOM     67  C   UNL A   1      40.102  25.622  27.898  1.00  0.00     0.002 A 
ATOM     68  C   UNL A   1      41.753  27.092  26.902  1.00  0.00     0.091 A 
ATOM     69  F   UNL A   1      42.489  29.012  28.113  1.00  0.00    -0.205 F 
ATOM     70  C   UNL A   1      40.965  25.930  26.852  1.00  0.00     0.022 A 
BRANCH  68  71
ATOM     71  S   UNL A   1      42.771  27.446  25.466  1.00  0.00     0.127 S 
ATOM     72  O   UNL A   1      44.058  27.758  26.086  1.00  0.00    -0.237 OA
ATOM     73  O   UNL A   1      42.736  26.174  24.743  1.00  0.00    -0.237 OA
ATOM     74  O   UNL A   1      42.123  28.553  24.777  1.00  0.00    -0.744 OA
ENDBRANCH  68  71
ENDBRANCH  50  64
BRANCH  51  75
ATOM     75  C   UNL A   1      39.576  33.635  36.970  1.00  0.00     0.023 A 
ATOM     76  C   UNL A   1      40.031  34.968  36.920  1.00  0.00     0.012 A 
ATOM     77  C   UNL A   1      38.923  33.175  38.129  1.00  0.00     0.148 A 
ATOM     78  C   UNL A   1      39.869  35.816  38.016  1.00  0.00     0.002 A 
ATOM     79  C   UNL A   1      38.714  34.043  39.194  1.00  0.00     0.091 A 
ATOM     80  F   UNL A   1      38.502  31.903  38.157  1.00  0.00    -0.205 F 
ATOM     81  C   UNL A   1      39.203  35.357  39.148  1.00  0.00     0.022 A 
BRANCH  79  82
ATOM     82  S   UNL A   1      37.741  33.584  40.633  1.00  0.00     0.127 S 
ATOM     83  O   UNL A   1      37.623  34.860  41.333  1.00  0.00    -0.237 OA
ATOM     84  O   UNL A   1      36.507  33.100  40.012  1.00  0.00    -0.237 OA
ATOM     85  O   UNL A   1      38.512  32.555  41.317  1.00  0.00    -0.744 OA
ENDBRANCH  79  82
ENDBRANCH  51  75
BRANCH  63  86
ATOM     86  C   UNL A   1      44.295  28.768  35.303  1.00  0.00     0.023 A 
ATOM     87  C   UNL A   1      45.558  29.348  35.070  1.00  0.00     0.012 A 
ATOM     88  C   UNL A   1      44.172  27.739  36.257  1.00  0.00     0.148 A 
ATOM     89  C   UNL A   1      46.684  28.887  35.752  1.00  0.00     0.002 A 
ATOM     90  C   UNL A   1      45.287  27.323  36.971  1.00  0.00     0.091 A 
ATOM     91  F   UNL A   1      42.964  27.187  36.449  1.00  0.00    -0.205 F 
ATOM     92  C   UNL A   1      46.548  27.885  36.709  1.00  0.00     0.022 A 
BRANCH  90  93
ATOM     93  S   UNL A   1      45.189  26.111  38.293  1.00  0.00     0.127 S 
ATOM     94  O   UNL A   1      46.584  26.022  38.720  1.00  0.00    -0.237 OA
ATOM     95  O   UNL A   1      44.299  26.769  39.249  1.00  0.00    -0.237 OA
ATOM     96  O   UNL A   1      44.644  24.901  37.691  1.00  0.00    -0.744 OA
ENDBRANCH  90  93
ENDBRANCH  63  86
ENDBRANCH  37  38
ENDBRANCH  29  32
ENDBRANCH  27  28
ENDBRANCH   1  27
TORSDOF 15
ENDMDL
MODEL 2
REMARK VINA RESULT:     -12.6      3.429      8.608
REMARK SMILES O=C(Nc1c(F)cc(F)cc1F)N[C@H]1C=C[C@@H](C(=O)NCCCNC(=O)c2ccc(-c3c4nc(c(-c5cccc(S(=O)(=O)[O-])c5F)c5ccc([nH]5)c(-c5cccc(S(=O)(=O)[O-])c5F)c5nc(c(-c6cccc(S(=O)(=O)[O-])c6F)c6ccc3[nH]6)C=C5)C=C4)cc2)C1
REMARK SMILES IDX 22 1 21 2 20 3 18 4 19 5 17 7 14 8 15 9 90 10 16 11 13 12
REMARK SMILES IDX 1 13 2 14 3 15 4 18 5 19 11 20 6 21 7 22 10 23 12 24 8 25
REMARK SMILES IDX 9 26 23 27 24 28 25 29 26 31 27 32 28 33 89 34 29 35 88 36
REMARK SMILES IDX 30 37 31 38 32 39 82 40 33 41 87 42 81 43 83 44 34 45 86 46
REMARK SMILES IDX 80 47 79 48 35 50 67 51 47 52 66 53 48 54 51 55 65 56 84 57
REMARK SMILES IDX 49 58 50 59 64 61 85 62 52 63 36 64 37 65 45 66 38 67 40 68
REMARK SMILES IDX 46 69 39 70 41 71 42 72 43 73 44 74 68 75 69 76 77 77 70 78
REMARK SMILES IDX 72 79 78 80 71 81 73 82 74 83 75 84 76 85 53 86 54 87 62 88
REMARK SMILES IDX 55 89 57 90 63 91 56 92 58 93 59 94 60 95 61 96
REMARK H PARENT 20 6 3 16 13 17 24 30 83 49 51 60
REMARK Flexibility Score: inf
ROOT
ATOM      1  C   UNL A   1      34.160  28.296  24.670  1.00  0.00     0.042 C 
ENDROOT
BRANCH   1   2
ATOM      2  C   UNL A   1      33.408  27.117  24.073  1.00  0.00     0.117 C 
BRANCH   2   3
ATOM      3  N   UNL A   1      32.529  27.530  22.999  1.00  0.00    -0.356 N 
ATOM      4  C   UNL A   1      31.171  27.534  22.914  1.00  0.00     0.227 C 
ATOM      5  O   UNL A   1      30.677  27.965  21.866  1.00  0.00    -0.274 OA
ATOM      6  H   UNL A   1      32.990  27.863  22.196  1.00  0.00     0.163 HD
BRANCH   4   7
ATOM      7  C   UNL A   1      30.263  27.051  24.050  1.00  0.00     0.103 C 
ATOM      8  C   UNL A   1      30.200  25.196  25.664  1.00  0.00     0.107 C 
ATOM      9  C   UNL A   1      30.695  26.464  26.282  1.00  0.00    -0.006 C 
ATOM     10  C   UNL A   1      30.110  25.530  24.165  1.00  0.00     0.047 C 
ATOM     11  C   UNL A   1      30.726  27.478  25.410  1.00  0.00    -0.016 C 
BRANCH   8  12
ATOM     12  N   UNL A   1      31.148  24.145  25.934  1.00  0.00    -0.332 N 
ATOM     13  O   UNL A   1      29.922  23.145  27.565  1.00  0.00    -0.248 OA
ATOM     14  C   UNL A   1      30.920  23.165  26.848  1.00  0.00     0.319 C 
ATOM     15  N   UNL A   1      31.764  22.096  26.851  1.00  0.00    -0.303 N 
ATOM     16  H   UNL A   1      31.414  21.319  27.344  1.00  0.00     0.172 HD
ATOM     17  H   UNL A   1      31.996  24.135  25.434  1.00  0.00     0.165 HD
BRANCH  15  18
ATOM     18  C   UNL A   1      33.039  21.878  26.289  1.00  0.00     0.115 A 
ATOM     19  C   UNL A   1      34.249  22.286  26.853  1.00  0.00     0.152 A 
ATOM     20  C   UNL A   1      33.093  21.157  25.091  1.00  0.00     0.152 A 
ATOM     21  F   UNL A   1      34.279  22.930  28.030  1.00  0.00    -0.204 F 
ATOM     22  C   UNL A   1      35.466  22.024  26.226  1.00  0.00     0.081 A 
ATOM     23  C   UNL A   1      34.294  20.917  24.427  1.00  0.00     0.081 A 
ATOM     24  F   UNL A   1      31.951  20.714  24.545  1.00  0.00    -0.204 F 
ATOM     25  C   UNL A   1      35.474  21.358  25.008  1.00  0.00     0.129 A 
ATOM     26  F   UNL A   1      36.644  21.134  24.399  1.00  0.00    -0.207 F 
ENDBRANCH  15  18
ENDBRANCH   8  12
ENDBRANCH   4   7
ENDBRANCH   2   3
ENDBRANCH   1   2
BRANCH   1  27
ATOM     27  C   UNL A   1      34.034  28.412  26.180  1.00  0.00     0.118 C 
BRANCH  27  28
ATOM     28  N   UNL A   1      33.798  29.786  26.611  1.00  0.00    -0.352 N 
ATOM     29  C   UNL A   1      34.486  30.572  27.499  1.00  0.00     0.251 C 
ATOM     30  H   UNL A   1      33.018  30.218  26.197  1.00  0.00     0.163 HD
ATOM     31  O   UNL A   1      33.981  31.631  27.874  1.00  0.00    -0.269 OA
BRANCH  29  32
ATOM     32  C   UNL A   1      35.805  30.158  28.023  1.00  0.00     0.039 A 
ATOM     33  C   UNL A   1      35.885  29.615  29.308  1.00  0.00     0.014 A 
ATOM     34  C   UNL A   1      36.969  30.328  27.268  1.00  0.00     0.014 A 
ATOM     35  C   UNL A   1      37.118  29.186  29.807  1.00  0.00     0.010 A 
ATOM     36  C   UNL A   1      38.175  29.807  27.723  1.00  0.00     0.010 A 
ATOM     37  C   UNL A   1      38.268  29.247  29.005  1.00  0.00    -0.014 A 
BRANCH  37  38
ATOM     38  C   UNL A   1      39.581  28.746  29.487  1.00  0.00     0.031 A 
ATOM     39  C   UNL A   1      40.301  29.460  30.600  1.00  0.00     0.074 A 
ATOM     40  C   UNL A   1      40.165  27.700  28.870  1.00  0.00     0.049 A 
ATOM     41  N   UNL A   1      41.480  29.214  31.111  1.00  0.00    -0.248 NA
ATOM     42  C   UNL A   1      39.621  30.622  31.196  1.00  0.00     0.031 C 
ATOM     43  C   UNL A   1      39.601  26.965  27.737  1.00  0.00     0.029 A 
ATOM     44  N   UNL A   1      41.371  27.085  29.095  1.00  0.00    -0.354 N 
ATOM     45  C   UNL A   1      41.697  30.207  32.058  1.00  0.00     0.074 A 
ATOM     46  C   UNL A   1      40.550  31.087  32.018  1.00  0.00     0.031 C 
ATOM     47  C   UNL A   1      40.449  25.990  27.376  1.00  0.00     0.029 A 
ATOM     48  C   UNL A   1      41.634  26.053  28.224  1.00  0.00     0.049 A 
ATOM     49  H   UNL A   1      41.990  27.357  29.811  1.00  0.00     0.167 HD
ATOM     50  C   UNL A   1      42.739  30.358  32.910  1.00  0.00     0.034 A 
ATOM     51  C   UNL A   1      42.712  25.251  28.118  1.00  0.00     0.034 A 
ATOM     52  C   UNL A   1      43.862  29.462  32.969  1.00  0.00     0.049 A 
ATOM     53  C   UNL A   1      43.852  25.429  29.083  1.00  0.00     0.074 A 
ATOM     54  C   UNL A   1      44.934  29.482  33.843  1.00  0.00     0.029 A 
ATOM     55  N   UNL A   1      44.064  28.390  32.114  1.00  0.00    -0.354 N 
ATOM     56  N   UNL A   1      43.975  26.289  30.064  1.00  0.00    -0.248 NA
ATOM     57  C   UNL A   1      44.985  24.503  28.948  1.00  0.00     0.031 C 
ATOM     58  C   UNL A   1      45.801  28.441  33.495  1.00  0.00     0.029 A 
ATOM     59  C   UNL A   1      45.248  27.747  32.430  1.00  0.00     0.049 A 
ATOM     60  H   UNL A   1      43.454  28.125  31.388  1.00  0.00     0.167 HD
ATOM     61  C   UNL A   1      45.177  25.981  30.692  1.00  0.00     0.074 A 
ATOM     62  C   UNL A   1      45.736  24.845  29.987  1.00  0.00     0.031 C 
ATOM     63  C   UNL A   1      45.767  26.587  31.751  1.00  0.00     0.034 A 
BRANCH  50  64
ATOM     64  C   UNL A   1      42.687  31.517  33.874  1.00  0.00     0.023 A 
ATOM     65  C   UNL A   1      43.285  32.746  33.522  1.00  0.00     0.012 A 
ATOM     66  C   UNL A   1      42.027  31.403  35.113  1.00  0.00     0.148 A 
ATOM     67  C   UNL A   1      43.270  33.824  34.406  1.00  0.00     0.002 A 
ATOM     68  C   UNL A   1      41.971  32.499  35.966  1.00  0.00     0.091 A 
ATOM     69  F   UNL A   1      41.481  30.223  35.442  1.00  0.00    -0.205 F 
ATOM     70  C   UNL A   1      42.605  33.704  35.622  1.00  0.00     0.022 A 
BRANCH  68  71
ATOM     71  S   UNL A   1      41.068  32.472  37.519  1.00  0.00     0.127 S 
ATOM     72  O   UNL A   1      39.802  31.865  37.113  1.00  0.00    -0.237 OA
ATOM     73  O   UNL A   1      41.915  31.614  38.350  1.00  0.00    -0.237 OA
ATOM     74  O   UNL A   1      40.986  33.856  37.961  1.00  0.00    -0.744 OA
ENDBRANCH  68  71
ENDBRANCH  50  64
BRANCH  51  75
ATOM     75  C   UNL A   1      42.732  24.162  27.100  1.00  0.00     0.023 A 
ATOM     76  C   UNL A   1      43.443  24.353  25.899  1.00  0.00     0.012 A 
ATOM     77  C   UNL A   1      42.081  22.934  27.326  1.00  0.00     0.148 A 
ATOM     78  C   UNL A   1      43.477  23.353  24.926  1.00  0.00     0.002 A 
ATOM     79  C   UNL A   1      42.168  21.922  26.378  1.00  0.00     0.091 A 
ATOM     80  F   UNL A   1      41.408  22.775  28.474  1.00  0.00    -0.205 F 
ATOM     81  C   UNL A   1      42.848  22.136  25.170  1.00  0.00     0.022 A 
BRANCH  79  82
ATOM     82  S   UNL A   1      41.514  20.274  26.666  1.00  0.00     0.127 S 
ATOM     83  O   UNL A   1      40.081  20.535  26.772  1.00  0.00    -0.237 OA
ATOM     84  O   UNL A   1      41.929  19.575  25.449  1.00  0.00    -0.237 OA
ATOM     85  O   UNL A   1      42.163  19.801  27.881  1.00  0.00    -0.744 OA
ENDBRANCH  79  82
ENDBRANCH  51  75
BRANCH  63  86
ATOM     86  C   UNL A   1      47.064  26.006  32.255  1.00  0.00     0.023 A 
ATOM     87  C   UNL A   1      48.291  26.444  31.720  1.00  0.00     0.012 A 
ATOM     88  C   UNL A   1      47.063  25.075  33.312  1.00  0.00     0.148 A 
ATOM     89  C   UNL A   1      49.496  25.937  32.206  1.00  0.00     0.002 A 
ATOM     90  C   UNL A   1      48.268  24.616  33.828  1.00  0.00     0.091 A 
ATOM     91  F   UNL A   1      45.884  24.657  33.795  1.00  0.00    -0.205 F 
ATOM     92  C   UNL A   1      49.486  25.034  33.266  1.00  0.00     0.022 A 
BRANCH  90  93
ATOM     93  S   UNL A   1      48.354  23.532  35.258  1.00  0.00     0.127 S 
ATOM     94  O   UNL A   1      49.795  23.460  35.490  1.00  0.00    -0.237 OA
ATOM     95  O   UNL A   1      47.609  24.288  36.264  1.00  0.00    -0.237 OA
ATOM     96  O   UNL A   1      47.725  22.281  34.852  1.00  0.00    -0.744 OA
ENDBRANCH  90  93
ENDBRANCH  63  86
ENDBRANCH  37  38
ENDBRANCH  29  32
ENDBRANCH  27  28
ENDBRANCH   1  27
TORSDOF 15
ENDMDL
MODEL 3
REMARK VINA RESULT:     -12.5      6.388      9.869
REMARK SMILES O=C(Nc1c(F)cc(F)cc1F)N[C@H]1C=C[C@@H](C(=O)NCCCNC(=O)c2ccc(-c3c4nc(c(-c5cccc(S(=O)(=O)[O-])c5F)c5ccc([nH]5)c(-c5cccc(S(=O)(=O)[O-])c5F)c5nc(c(-c6cccc(S(=O)(=O)[O-])c6F)c6ccc3[nH]6)C=C5)C=C4)cc2)C1
REMARK SMILES IDX 22 1 21 2 20 3 18 4 19 5 17 7 14 8 15 9 90 10 16 11 13 12
REMARK SMILES IDX 1 13 2 14 3 15 4 18 5 19 11 20 6 21 7 22 10 23 12 24 8 25
REMARK SMILES IDX 9 26 23 27 24 28 25 29 26 31 27 32 28 33 89 34 29 35 88 36
REMARK SMILES IDX 30 37 31 38 32 39 82 40 33 41 87 42 81 43 83 44 34 45 86 46
REMARK SMILES IDX 80 47 79 48 35 50 67 51 47 52 66 53 48 54 51 55 65 56 84 57
REMARK SMILES IDX 49 58 50 59 64 61 85 62 52 63 36 64 37 65 45 66 38 67 40 68
REMARK SMILES IDX 46 69 39 70 41 71 42 72 43 73 44 74 68 75 69 76 77 77 70 78
REMARK SMILES IDX 72 79 78 80 71 81 73 82 74 83 75 84 76 85 53 86 54 87 62 88
REMARK SMILES IDX 55 89 57 90 63 91 56 92 58 93 59 94 60 95 61 96
REMARK H PARENT 20 6 3 16 13 17 24 30 83 49 51 60
REMARK Flexibility Score: inf
ROOT
ATOM      1  C   UNL A   1      38.169  19.603  24.801  1.00  0.00     0.042 C 
ENDROOT
BRANCH   1   2
ATOM      2  C   UNL A   1      36.714  19.990  25.014  1.00  0.00     0.117 C 
BRANCH   2   3
ATOM      3  N   UNL A   1      36.584  21.355  25.477  1.00  0.00    -0.356 N 
ATOM      4  C   UNL A   1      35.487  22.063  25.860  1.00  0.00     0.227 C 
ATOM      5  O   UNL A   1      35.674  23.227  26.232  1.00  0.00    -0.274 OA
ATOM      6  H   UNL A   1      37.431  21.855  25.522  1.00  0.00     0.163 HD
BRANCH   4   7
ATOM      7  C   UNL A   1      34.073  21.474  25.858  1.00  0.00     0.103 C 
ATOM      8  C   UNL A   1      31.758  22.300  25.756  1.00  0.00     0.107 C 
ATOM      9  C   UNL A   1      32.231  21.783  24.435  1.00  0.00    -0.006 C 
ATOM     10  C   UNL A   1      33.024  22.283  26.630  1.00  0.00     0.047 C 
ATOM     11  C   UNL A   1      33.487  21.326  24.487  1.00  0.00    -0.016 C 
BRANCH   8  12
ATOM     12  N   UNL A   1      31.237  23.631  25.576  1.00  0.00    -0.332 N 
ATOM     13  O   UNL A   1      29.764  23.535  27.303  1.00  0.00    -0.248 OA
ATOM     14  C   UNL A   1      30.294  24.170  26.394  1.00  0.00     0.319 C 
ATOM     15  N   UNL A   1      30.050  25.505  26.284  1.00  0.00    -0.303 N 
ATOM     16  H   UNL A   1      29.561  25.881  27.050  1.00  0.00     0.172 HD
ATOM     17  H   UNL A   1      31.578  24.174  24.828  1.00  0.00     0.165 HD
BRANCH  15  18
ATOM     18  C   UNL A   1      30.360  26.458  25.291  1.00  0.00     0.115 A 
ATOM     19  C   UNL A   1      29.608  26.696  24.139  1.00  0.00     0.152 A 
ATOM     20  C   UNL A   1      31.490  27.257  25.504  1.00  0.00     0.152 A 
ATOM     21  F   UNL A   1      28.480  26.010  23.899  1.00  0.00    -0.204 F 
ATOM     22  C   UNL A   1      29.989  27.663  23.212  1.00  0.00     0.081 A 
ATOM     23  C   UNL A   1      31.911  28.202  24.571  1.00  0.00     0.081 A 
ATOM     24  F   UNL A   1      32.210  27.082  26.621  1.00  0.00    -0.204 F 
ATOM     25  C   UNL A   1      31.149  28.394  23.428  1.00  0.00     0.129 A 
ATOM     26  F   UNL A   1      31.524  29.301  22.519  1.00  0.00    -0.207 F 
ENDBRANCH  15  18
ENDBRANCH   8  12
ENDBRANCH   4   7
ENDBRANCH   2   3
ENDBRANCH   1   2
BRANCH   1  27
ATOM     27  C   UNL A   1      39.136  20.263  25.771  1.00  0.00     0.118 C 
BRANCH  27  28
ATOM     28  N   UNL A   1      40.262  19.398  26.103  1.00  0.00    -0.352 N 
ATOM     29  C   UNL A   1      41.556  19.707  26.436  1.00  0.00     0.251 C 
ATOM     30  H   UNL A   1      40.061  18.435  26.084  1.00  0.00     0.163 HD
ATOM     31  O   UNL A   1      42.396  18.807  26.467  1.00  0.00    -0.269 OA
BRANCH  29  32
ATOM     32  C   UNL A   1      41.955  21.099  26.737  1.00  0.00     0.039 A 
ATOM     33  C   UNL A   1      42.039  22.022  25.691  1.00  0.00     0.014 A 
ATOM     34  C   UNL A   1      42.275  21.494  28.038  1.00  0.00     0.014 A 
ATOM     35  C   UNL A   1      42.381  23.349  25.960  1.00  0.00     0.010 A 
ATOM     36  C   UNL A   1      42.513  22.836  28.318  1.00  0.00     0.010 A 
ATOM     37  C   UNL A   1      42.587  23.776  27.281  1.00  0.00    -0.014 A 
BRANCH  37  38
ATOM     38  C   UNL A   1      42.895  25.193  27.603  1.00  0.00     0.031 A 
ATOM     39  C   UNL A   1      44.306  25.706  27.485  1.00  0.00     0.074 A 
ATOM     40  C   UNL A   1      41.925  25.996  28.081  1.00  0.00     0.049 A 
ATOM     41  N   UNL A   1      44.782  26.888  27.782  1.00  0.00    -0.248 NA
ATOM     42  C   UNL A   1      45.322  24.757  26.999  1.00  0.00     0.031 C 
ATOM     43  C   UNL A   1      40.534  25.600  28.305  1.00  0.00     0.029 A 
ATOM     44  N   UNL A   1      41.964  27.307  28.484  1.00  0.00    -0.354 N 
ATOM     45  C   UNL A   1      46.151  26.814  27.555  1.00  0.00     0.074 A 
ATOM     46  C   UNL A   1      46.437  25.457  27.141  1.00  0.00     0.031 C 
ATOM     47  C   UNL A   1      39.848  26.647  28.788  1.00  0.00     0.029 A 
ATOM     48  C   UNL A   1      40.756  27.778  28.946  1.00  0.00     0.049 A 
ATOM     49  H   UNL A   1      42.778  27.859  28.446  1.00  0.00     0.167 HD
ATOM     50  C   UNL A   1      47.082  27.791  27.647  1.00  0.00     0.034 A 
ATOM     51  C   UNL A   1      40.420  28.983  29.446  1.00  0.00     0.034 A 
ATOM     52  C   UNL A   1      46.788  29.147  28.029  1.00  0.00     0.049 A 
ATOM     53  C   UNL A   1      41.469  30.057  29.528  1.00  0.00     0.074 A 
ATOM     54  C   UNL A   1      47.645  30.231  28.083  1.00  0.00     0.029 A 
ATOM     55  N   UNL A   1      45.541  29.602  28.428  1.00  0.00    -0.354 N 
ATOM     56  N   UNL A   1      42.730  30.007  29.176  1.00  0.00    -0.248 NA
ATOM     57  C   UNL A   1      41.041  31.365  30.044  1.00  0.00     0.031 C 
ATOM     58  C   UNL A   1      46.923  31.335  28.549  1.00  0.00     0.029 A 
ATOM     59  C   UNL A   1      45.607  30.948  28.744  1.00  0.00     0.049 A 
ATOM     60  H   UNL A   1      44.729  29.049  28.481  1.00  0.00     0.167 HD
ATOM     61  C   UNL A   1      43.236  31.285  29.385  1.00  0.00     0.074 A 
ATOM     62  C   UNL A   1      42.138  32.091  29.881  1.00  0.00     0.031 C 
ATOM     63  C   UNL A   1      44.495  31.749  29.189  1.00  0.00     0.034 A 
BRANCH  50  64
ATOM     64  C   UNL A   1      48.504  27.434  27.291  1.00  0.00     0.023 A 
ATOM     65  C   UNL A   1      49.341  26.846  28.264  1.00  0.00     0.012 A 
ATOM     66  C   UNL A   1      49.004  27.650  25.993  1.00  0.00     0.148 A 
ATOM     67  C   UNL A   1      50.665  26.528  27.965  1.00  0.00     0.002 A 
ATOM     68  C   UNL A   1      50.310  27.281  25.688  1.00  0.00     0.091 A 
ATOM     69  F   UNL A   1      48.203  28.227  25.086  1.00  0.00    -0.205 F 
ATOM     70  C   UNL A   1      51.145  26.736  26.676  1.00  0.00     0.022 A 
BRANCH  68  71
ATOM     71  S   UNL A   1      50.997  27.432  24.036  1.00  0.00     0.127 S 
ATOM     72  O   UNL A   1      51.052  28.883  23.870  1.00  0.00    -0.237 OA
ATOM     73  O   UNL A   1      52.302  26.786  24.186  1.00  0.00    -0.237 OA
ATOM     74  O   UNL A   1      50.074  26.735  23.151  1.00  0.00    -0.744 OA
ENDBRANCH  68  71
ENDBRANCH  50  64
BRANCH  51  75
ATOM     75  C   UNL A   1      39.009  29.257  29.842  1.00  0.00     0.023 A 
ATOM     76  C   UNL A   1      38.592  28.963  31.155  1.00  0.00     0.012 A 
ATOM     77  C   UNL A   1      38.092  29.832  28.942  1.00  0.00     0.148 A 
ATOM     78  C   UNL A   1      37.277  29.206  31.555  1.00  0.00     0.002 A 
ATOM     79  C   UNL A   1      36.801  30.124  29.364  1.00  0.00     0.091 A 
ATOM     80  F   UNL A   1      38.509  30.100  27.697  1.00  0.00    -0.205 F 
ATOM     81  C   UNL A   1      36.385  29.794  30.663  1.00  0.00     0.022 A 
BRANCH  79  82
ATOM     82  S   UNL A   1      35.628  31.012  28.333  1.00  0.00     0.127 S 
ATOM     83  O   UNL A   1      35.223  29.980  27.384  1.00  0.00    -0.237 OA
ATOM     84  O   UNL A   1      34.607  31.393  29.309  1.00  0.00    -0.237 OA
ATOM     85  O   UNL A   1      36.369  32.133  27.772  1.00  0.00    -0.744 OA
ENDBRANCH  79  82
ENDBRANCH  51  75
BRANCH  63  86
ATOM     86  C   UNL A   1      44.752  33.209  29.461  1.00  0.00     0.023 A 
ATOM     87  C   UNL A   1      45.220  33.623  30.723  1.00  0.00     0.012 A 
ATOM     88  C   UNL A   1      44.594  34.162  28.435  1.00  0.00     0.148 A 
ATOM     89  C   UNL A   1      45.494  34.968  30.970  1.00  0.00     0.002 A 
ATOM     90  C   UNL A   1      44.920  35.490  28.672  1.00  0.00     0.091 A 
ATOM     91  F   UNL A   1      44.128  33.750  27.246  1.00  0.00    -0.205 F 
ATOM     92  C   UNL A   1      45.356  35.899  29.943  1.00  0.00     0.022 A 
BRANCH  90  93
ATOM     93  S   UNL A   1      44.872  36.739  27.381  1.00  0.00     0.127 S 
ATOM     94  O   UNL A   1      45.277  37.938  28.113  1.00  0.00    -0.237 OA
ATOM     95  O   UNL A   1      45.864  36.239  26.430  1.00  0.00    -0.237 OA
ATOM     96  O   UNL A   1      43.503  36.748  26.881  1.00  0.00    -0.744 OA
ENDBRANCH  90  93
ENDBRANCH  63  86
ENDBRANCH  37  38
ENDBRANCH  29  32
ENDBRANCH  27  28
ENDBRANCH   1  27
TORSDOF 15
ENDMDL
