MODEL 1
REMARK VINA RESULT:     -11.3      0.000      0.000
REMARK SMILES CC(C)C[C@@H](C(=O)NCCCNC(=O)c1ccc(-c2c3nc(c(-c4cccc(S(=O)(=O)[O-])c4F)c4ccc([nH]4)c(-c4cccc(S(=O)(=O)[O-])c4F)c4nc(c(-c5cccc(S(=O)(=O)[O-])c5F)c5ccc2[nH]5)C=C4)C=C3)cc1)[C@@H]1CCC[C@@H](C)C1
REMARK SMILES IDX 10 1 9 2 8 3 6 4 7 5 5 7 4 8 2 9 1 10 3 11 78 12 79 13 84 14
REMARK SMILES IDX 80 15 82 16 81 17 83 18 11 19 12 20 13 21 14 23 15 24 16 25
REMARK SMILES IDX 77 26 17 27 76 28 18 29 19 30 20 31 70 32 21 33 75 34 69 35
REMARK SMILES IDX 71 36 22 37 74 38 68 39 67 40 23 42 55 43 35 44 54 45 36 46
REMARK SMILES IDX 39 47 53 48 72 49 37 50 38 51 52 53 73 54 40 55 24 56 25 57
REMARK SMILES IDX 33 58 26 59 28 60 34 61 27 62 29 63 30 64 31 65 32 66 56 67
REMARK SMILES IDX 57 68 65 69 58 70 60 71 66 72 59 73 61 74 62 75 63 76 64 77
REMARK SMILES IDX 41 78 42 79 50 80 43 81 45 82 51 83 44 84 46 85 47 86 48 87
REMARK SMILES IDX 49 88
REMARK H PARENT 8 6 12 22 71 41 39 52
REMARK Flexibility Score: inf
ROOT
ATOM      1  C   UNL A   1      33.141  29.129  24.252  1.00  0.00     0.042 C 
ENDROOT
BRANCH   1   2
ATOM      2  C   UNL A   1      33.898  27.834  23.976  1.00  0.00     0.117 C 
BRANCH   2   3
ATOM      3  N   UNL A   1      33.707  27.323  22.629  1.00  0.00    -0.356 N 
ATOM      4  C   UNL A   1      33.302  26.119  22.151  1.00  0.00     0.223 C 
ATOM      5  O   UNL A   1      33.242  25.996  20.924  1.00  0.00    -0.275 OA
ATOM      6  H   UNL A   1      33.912  27.979  21.924  1.00  0.00     0.163 HD
BRANCH   4   7
ATOM      7  C   UNL A   1      32.903  24.952  23.057  1.00  0.00     0.082 C 
BRANCH   7   8
ATOM      8  C   UNL A   1      33.753  23.700  22.721  1.00  0.00     0.016 C 
BRANCH   8   9
ATOM      9  C   UNL A   1      34.722  23.284  23.852  1.00  0.00    -0.017 C 
ATOM     10  C   UNL A   1      34.748  24.331  24.965  1.00  0.00     0.007 C 
ATOM     11  C   UNL A   1      34.317  21.924  24.428  1.00  0.00     0.007 C 
ENDBRANCH   8   9
ENDBRANCH   7   8
BRANCH   7  12
ATOM     12  C   UNL A   1      31.367  24.677  23.095  1.00  0.00     0.002 C 
ATOM     13  C   UNL A   1      30.510  25.899  23.489  1.00  0.00     0.004 C 
ATOM     14  C   UNL A   1      31.004  23.510  24.052  1.00  0.00     0.007 C 
ATOM     15  C   UNL A   1      30.654  26.295  24.952  1.00  0.00     0.001 C 
ATOM     16  C   UNL A   1      31.110  23.878  25.544  1.00  0.00    -0.014 C 
ATOM     17  C   UNL A   1      30.297  25.136  25.870  1.00  0.00     0.003 C 
ATOM     18  C   UNL A   1      30.652  22.718  26.431  1.00  0.00     0.007 C 
ENDBRANCH   7  12
ENDBRANCH   4   7
ENDBRANCH   2   3
ENDBRANCH   1   2
BRANCH   1  19
ATOM     19  C   UNL A   1      32.741  29.327  25.706  1.00  0.00     0.118 C 
BRANCH  19  20
ATOM     20  N   UNL A   1      32.506  30.730  26.026  1.00  0.00    -0.352 N 
ATOM     21  C   UNL A   1      33.119  31.521  26.963  1.00  0.00     0.251 C 
ATOM     22  H   UNL A   1      31.807  31.172  25.493  1.00  0.00     0.163 HD
ATOM     23  O   UNL A   1      32.630  32.614  27.252  1.00  0.00    -0.269 OA
BRANCH  21  24
ATOM     24  C   UNL A   1      34.354  31.063  27.635  1.00  0.00     0.039 A 
ATOM     25  C   UNL A   1      35.370  31.985  27.900  1.00  0.00     0.014 A 
ATOM     26  C   UNL A   1      34.519  29.721  27.988  1.00  0.00     0.014 A 
ATOM     27  C   UNL A   1      36.525  31.571  28.569  1.00  0.00     0.010 A 
ATOM     28  C   UNL A   1      35.631  29.329  28.726  1.00  0.00     0.010 A 
ATOM     29  C   UNL A   1      36.654  30.245  29.011  1.00  0.00    -0.014 A 
BRANCH  29  30
ATOM     30  C   UNL A   1      37.851  29.789  29.764  1.00  0.00     0.031 A 
ATOM     31  C   UNL A   1      38.123  30.324  31.145  1.00  0.00     0.074 A 
ATOM     32  C   UNL A   1      38.740  28.967  29.172  1.00  0.00     0.049 A 
ATOM     33  N   UNL A   1      39.147  30.105  31.928  1.00  0.00    -0.248 NA
ATOM     34  C   UNL A   1      37.128  31.252  31.709  1.00  0.00     0.031 C 
ATOM     35  C   UNL A   1      38.633  28.444  27.808  1.00  0.00     0.029 A 
ATOM     36  N   UNL A   1      39.926  28.452  29.632  1.00  0.00    -0.354 N 
ATOM     37  C   UNL A   1      38.943  30.895  33.053  1.00  0.00     0.074 A 
ATOM     38  C   UNL A   1      37.714  31.628  32.837  1.00  0.00     0.031 C 
ATOM     39  C   UNL A   1      39.705  27.680  27.545  1.00  0.00     0.029 A 
ATOM     40  C   UNL A   1      40.590  27.681  28.705  1.00  0.00     0.049 A 
ATOM     41  H   UNL A   1      40.270  28.617  30.540  1.00  0.00     0.167 HD
ATOM     42  C   UNL A   1      39.690  30.982  34.179  1.00  0.00     0.034 A 
ATOM     43  C   UNL A   1      41.778  27.050  28.780  1.00  0.00     0.034 A 
ATOM     44  C   UNL A   1      40.881  30.212  34.415  1.00  0.00     0.049 A 
ATOM     45  C   UNL A   1      42.563  27.120  30.063  1.00  0.00     0.074 A 
ATOM     46  C   UNL A   1      41.657  30.154  35.559  1.00  0.00     0.029 A 
ATOM     47  N   UNL A   1      41.469  29.363  33.489  1.00  0.00    -0.354 N 
ATOM     48  N   UNL A   1      42.270  27.746  31.177  1.00  0.00    -0.248 NA
ATOM     49  C   UNL A   1      43.825  26.367  30.113  1.00  0.00     0.031 C 
ATOM     50  C   UNL A   1      42.725  29.283  35.319  1.00  0.00     0.029 A 
ATOM     51  C   UNL A   1      42.601  28.783  34.033  1.00  0.00     0.049 A 
ATOM     52  H   UNL A   1      41.132  29.199  32.579  1.00  0.00     0.167 HD
ATOM     53  C   UNL A   1      43.287  27.432  32.071  1.00  0.00     0.074 A 
ATOM     54  C   UNL A   1      44.196  26.545  31.373  1.00  0.00     0.031 C 
ATOM     55  C   UNL A   1      43.463  27.854  33.347  1.00  0.00     0.034 A 
BRANCH  42  56
ATOM     56  C   UNL A   1      39.204  31.899  35.272  1.00  0.00     0.023 A 
ATOM     57  C   UNL A   1      38.233  31.435  36.184  1.00  0.00     0.012 A 
ATOM     58  C   UNL A   1      39.742  33.191  35.432  1.00  0.00     0.148 A 
ATOM     59  C   UNL A   1      37.778  32.256  37.215  1.00  0.00     0.002 A 
ATOM     60  C   UNL A   1      39.315  33.986  36.490  1.00  0.00     0.091 A 
ATOM     61  F   UNL A   1      40.648  33.623  34.544  1.00  0.00    -0.205 F 
ATOM     62  C   UNL A   1      38.326  33.525  37.374  1.00  0.00     0.022 A 
BRANCH  60  63
ATOM     63  S   UNL A   1      40.017  35.606  36.827  1.00  0.00     0.127 S 
ATOM     64  O   UNL A   1      39.653  36.343  35.617  1.00  0.00    -0.237 OA
ATOM     65  O   UNL A   1      39.288  36.013  38.030  1.00  0.00    -0.237 OA
ATOM     66  O   UNL A   1      41.442  35.391  37.025  1.00  0.00    -0.744 OA
ENDBRANCH  60  63
ENDBRANCH  42  56
BRANCH  43  67
ATOM     67  C   UNL A   1      42.261  26.233  27.630  1.00  0.00     0.023 A 
ATOM     68  C   UNL A   1      43.150  26.809  26.702  1.00  0.00     0.012 A 
ATOM     69  C   UNL A   1      41.874  24.889  27.468  1.00  0.00     0.148 A 
ATOM     70  C   UNL A   1      43.621  26.073  25.615  1.00  0.00     0.002 A 
ATOM     71  C   UNL A   1      42.390  24.143  26.413  1.00  0.00     0.091 A 
ATOM     72  F   UNL A   1      41.018  24.362  28.354  1.00  0.00    -0.205 F 
ATOM     73  C   UNL A   1      43.249  24.738  25.477  1.00  0.00     0.022 A 
BRANCH  71  74
ATOM     74  S   UNL A   1      42.072  22.384  26.235  1.00  0.00     0.127 S 
ATOM     75  O   UNL A   1      42.835  22.063  25.031  1.00  0.00    -0.237 OA
ATOM     76  O   UNL A   1      42.630  21.848  27.479  1.00  0.00    -0.237 OA
ATOM     77  O   UNL A   1      40.628  22.256  26.126  1.00  0.00    -0.744 OA
ENDBRANCH  71  74
ENDBRANCH  43  67
BRANCH  55  78
ATOM     78  C   UNL A   1      44.663  27.337  34.096  1.00  0.00     0.023 A 
ATOM     79  C   UNL A   1      45.863  28.075  34.089  1.00  0.00     0.012 A 
ATOM     80  C   UNL A   1      44.577  26.162  34.870  1.00  0.00     0.148 A 
ATOM     81  C   UNL A   1      46.968  27.637  34.819  1.00  0.00     0.002 A 
ATOM     82  C   UNL A   1      45.665  25.758  35.631  1.00  0.00     0.091 A 
ATOM     83  F   UNL A   1      43.432  25.464  34.847  1.00  0.00    -0.205 F 
ATOM     84  C   UNL A   1      46.865  26.486  35.599  1.00  0.00     0.022 A 
BRANCH  82  85
ATOM     85  S   UNL A   1      45.592  24.344  36.739  1.00  0.00     0.127 S 
ATOM     86  O   UNL A   1      44.730  24.848  37.806  1.00  0.00    -0.237 OA
ATOM     87  O   UNL A   1      44.982  23.318  35.894  1.00  0.00    -0.237 OA
ATOM     88  O   UNL A   1      46.969  24.067  37.124  1.00  0.00    -0.744 OA
ENDBRANCH  82  85
ENDBRANCH  55  78
ENDBRANCH  29  30
ENDBRANCH  21  24
ENDBRANCH  19  20
ENDBRANCH   1  19
TORSDOF 16
ENDMDL
MODEL 2
REMARK VINA RESULT:     -11.1      5.001     10.048
REMARK SMILES CC(C)C[C@@H](C(=O)NCCCNC(=O)c1ccc(-c2c3nc(c(-c4cccc(S(=O)(=O)[O-])c4F)c4ccc([nH]4)c(-c4cccc(S(=O)(=O)[O-])c4F)c4nc(c(-c5cccc(S(=O)(=O)[O-])c5F)c5ccc2[nH]5)C=C4)C=C3)cc1)[C@@H]1CCC[C@@H](C)C1
REMARK SMILES IDX 10 1 9 2 8 3 6 4 7 5 5 7 4 8 2 9 1 10 3 11 78 12 79 13 84 14
REMARK SMILES IDX 80 15 82 16 81 17 83 18 11 19 12 20 13 21 14 23 15 24 16 25
REMARK SMILES IDX 77 26 17 27 76 28 18 29 19 30 20 31 70 32 21 33 75 34 69 35
REMARK SMILES IDX 71 36 22 37 74 38 68 39 67 40 23 42 55 43 35 44 54 45 36 46
REMARK SMILES IDX 39 47 53 48 72 49 37 50 38 51 52 53 73 54 40 55 24 56 25 57
REMARK SMILES IDX 33 58 26 59 28 60 34 61 27 62 29 63 30 64 31 65 32 66 56 67
REMARK SMILES IDX 57 68 65 69 58 70 60 71 66 72 59 73 61 74 62 75 63 76 64 77
REMARK SMILES IDX 41 78 42 79 50 80 43 81 45 82 51 83 44 84 46 85 47 86 48 87
REMARK SMILES IDX 49 88
REMARK H PARENT 8 6 12 22 71 41 39 52
REMARK Flexibility Score: inf
ROOT
ATOM      1  C   UNL A   1      35.047  21.806  26.080  1.00  0.00     0.042 C 
ENDROOT
BRANCH   1   2
ATOM      2  C   UNL A   1      34.586  22.860  27.080  1.00  0.00     0.117 C 
BRANCH   2   3
ATOM      3  N   UNL A   1      33.186  22.737  27.454  1.00  0.00    -0.356 N 
ATOM      4  C   UNL A   1      32.045  23.245  26.925  1.00  0.00     0.223 C 
ATOM      5  O   UNL A   1      30.987  22.948  27.488  1.00  0.00    -0.275 OA
ATOM      6  H   UNL A   1      33.038  22.173  28.247  1.00  0.00     0.163 HD
BRANCH   4   7
ATOM      7  C   UNL A   1      32.024  24.127  25.675  1.00  0.00     0.082 C 
BRANCH   7   8
ATOM      8  C   UNL A   1      31.447  25.525  26.017  1.00  0.00     0.016 C 
BRANCH   8   9
ATOM      9  C   UNL A   1      32.529  26.599  26.272  1.00  0.00    -0.017 C 
ATOM     10  C   UNL A   1      33.835  26.242  25.564  1.00  0.00     0.007 C 
ATOM     11  C   UNL A   1      32.041  27.972  25.800  1.00  0.00     0.007 C 
ENDBRANCH   8   9
ENDBRANCH   7   8
BRANCH   7  12
ATOM     12  C   UNL A   1      31.351  23.455  24.437  1.00  0.00     0.002 C 
ATOM     13  C   UNL A   1      32.191  22.337  23.784  1.00  0.00     0.004 C 
ATOM     14  C   UNL A   1      30.987  24.485  23.336  1.00  0.00     0.007 C 
ATOM     15  C   UNL A   1      33.424  22.853  23.055  1.00  0.00     0.001 C 
ATOM     16  C   UNL A   1      32.205  25.012  22.554  1.00  0.00    -0.014 C 
ATOM     17  C   UNL A   1      33.044  23.863  21.983  1.00  0.00     0.003 C 
ATOM     18  C   UNL A   1      31.772  25.951  21.426  1.00  0.00     0.007 C 
ENDBRANCH   7  12
ENDBRANCH   4   7
ENDBRANCH   2   3
ENDBRANCH   1   2
BRANCH   1  19
ATOM     19  C   UNL A   1      36.397  22.094  25.439  1.00  0.00     0.118 C 
BRANCH  19  20
ATOM     20  N   UNL A   1      37.359  21.025  25.679  1.00  0.00    -0.352 N 
ATOM     21  C   UNL A   1      38.690  21.110  25.994  1.00  0.00     0.251 C 
ATOM     22  H   UNL A   1      37.001  20.111  25.603  1.00  0.00     0.163 HD
ATOM     23  O   UNL A   1      39.397  20.103  25.928  1.00  0.00    -0.269 OA
BRANCH  21  24
ATOM     24  C   UNL A   1      39.281  22.404  26.398  1.00  0.00     0.039 A 
ATOM     25  C   UNL A   1      40.387  22.412  27.253  1.00  0.00     0.014 A 
ATOM     26  C   UNL A   1      38.735  23.609  25.949  1.00  0.00     0.014 A 
ATOM     27  C   UNL A   1      40.977  23.627  27.611  1.00  0.00     0.010 A 
ATOM     28  C   UNL A   1      39.374  24.811  26.239  1.00  0.00     0.010 A 
ATOM     29  C   UNL A   1      40.492  24.835  27.085  1.00  0.00    -0.014 A 
BRANCH  29  30
ATOM     30  C   UNL A   1      41.128  26.137  27.413  1.00  0.00     0.031 A 
ATOM     31  C   UNL A   1      42.554  26.404  27.008  1.00  0.00     0.074 A 
ATOM     32  C   UNL A   1      40.457  27.042  28.153  1.00  0.00     0.049 A 
ATOM     33  N   UNL A   1      43.305  27.444  27.265  1.00  0.00    -0.248 NA
ATOM     34  C   UNL A   1      43.237  25.350  26.238  1.00  0.00     0.031 C 
ATOM     35  C   UNL A   1      39.100  26.870  28.677  1.00  0.00     0.029 A 
ATOM     36  N   UNL A   1      40.838  28.276  28.620  1.00  0.00    -0.354 N 
ATOM     37  C   UNL A   1      44.553  27.153  26.729  1.00  0.00     0.074 A 
ATOM     38  C   UNL A   1      44.472  25.825  26.162  1.00  0.00     0.031 C 
ATOM     39  C   UNL A   1      38.762  27.957  29.388  1.00  0.00     0.029 A 
ATOM     40  C   UNL A   1      39.883  28.891  29.397  1.00  0.00     0.049 A 
ATOM     41  H   UNL A   1      41.711  28.683  28.418  1.00  0.00     0.167 HD
ATOM     42  C   UNL A   1      45.660  27.932  26.681  1.00  0.00     0.034 A 
ATOM     43  C   UNL A   1      39.910  30.071  30.046  1.00  0.00     0.034 A 
ATOM     44  C   UNL A   1      45.723  29.273  27.196  1.00  0.00     0.049 A 
ATOM     45  C   UNL A   1      41.134  30.940  29.933  1.00  0.00     0.074 A 
ATOM     46  C   UNL A   1      46.764  30.180  27.113  1.00  0.00     0.029 A 
ATOM     47  N   UNL A   1      44.699  29.901  27.890  1.00  0.00    -0.354 N 
ATOM     48  N   UNL A   1      42.249  30.714  29.282  1.00  0.00    -0.248 NA
ATOM     49  C   UNL A   1      41.090  32.244  30.612  1.00  0.00     0.031 C 
ATOM     50  C   UNL A   1      46.377  31.351  27.773  1.00  0.00     0.029 A 
ATOM     51  C   UNL A   1      45.087  31.181  28.247  1.00  0.00     0.049 A 
ATOM     52  H   UNL A   1      43.827  29.496  28.099  1.00  0.00     0.167 HD
ATOM     53  C   UNL A   1      43.022  31.858  29.441  1.00  0.00     0.074 A 
ATOM     54  C   UNL A   1      42.239  32.784  30.234  1.00  0.00     0.031 C 
ATOM     55  C   UNL A   1      44.274  32.113  28.985  1.00  0.00     0.034 A 
BRANCH  42  56
ATOM     56  C   UNL A   1      46.879  27.374  25.992  1.00  0.00     0.023 A 
ATOM     57  C   UNL A   1      47.018  27.530  24.597  1.00  0.00     0.012 A 
ATOM     58  C   UNL A   1      47.908  26.748  26.724  1.00  0.00     0.148 A 
ATOM     59  C   UNL A   1      48.142  27.039  23.936  1.00  0.00     0.002 A 
ATOM     60  C   UNL A   1      49.047  26.302  26.062  1.00  0.00     0.091 A 
ATOM     61  F   UNL A   1      47.750  26.590  28.045  1.00  0.00    -0.205 F 
ATOM     62  C   UNL A   1      49.160  26.435  24.669  1.00  0.00     0.022 A 
BRANCH  60  63
ATOM     63  S   UNL A   1      50.448  25.582  26.927  1.00  0.00     0.127 S 
ATOM     64  O   UNL A   1      50.855  26.685  27.797  1.00  0.00    -0.237 OA
ATOM     65  O   UNL A   1      49.831  24.453  27.626  1.00  0.00    -0.237 OA
ATOM     66  O   UNL A   1      51.405  25.209  25.898  1.00  0.00    -0.744 OA
ENDBRANCH  60  63
ENDBRANCH  42  56
BRANCH  43  67
ATOM     67  C   UNL A   1      38.709  30.534  30.798  1.00  0.00     0.023 A 
ATOM     68  C   UNL A   1      38.634  30.304  32.186  1.00  0.00     0.012 A 
ATOM     69  C   UNL A   1      37.660  31.225  30.159  1.00  0.00     0.148 A 
ATOM     70  C   UNL A   1      37.524  30.724  32.919  1.00  0.00     0.002 A 
ATOM     71  C   UNL A   1      36.583  31.690  30.905  1.00  0.00     0.091 A 
ATOM     72  F   UNL A   1      37.743  31.424  28.837  1.00  0.00    -0.205 F 
ATOM     73  C   UNL A   1      36.504  31.425  32.281  1.00  0.00     0.022 A 
BRANCH  71  74
ATOM     74  S   UNL A   1      35.293  32.716  30.192  1.00  0.00     0.127 S 
ATOM     75  O   UNL A   1      34.400  32.910  31.332  1.00  0.00    -0.237 OA
ATOM     76  O   UNL A   1      36.042  33.907  29.788  1.00  0.00    -0.237 OA
ATOM     77  O   UNL A   1      34.750  31.949  29.082  1.00  0.00    -0.744 OA
ENDBRANCH  71  74
ENDBRANCH  43  67
BRANCH  55  78
ATOM     78  C   UNL A   1      44.871  33.460  29.298  1.00  0.00     0.023 A 
ATOM     79  C   UNL A   1      45.582  33.648  30.499  1.00  0.00     0.012 A 
ATOM     80  C   UNL A   1      44.796  34.514  28.365  1.00  0.00     0.148 A 
ATOM     81  C   UNL A   1      46.186  34.874  30.781  1.00  0.00     0.002 A 
ATOM     82  C   UNL A   1      45.439  35.716  28.631  1.00  0.00     0.091 A 
ATOM     83  F   UNL A   1      44.098  34.320  27.236  1.00  0.00    -0.205 F 
ATOM     84  C   UNL A   1      46.125  35.902  29.842  1.00  0.00     0.022 A 
BRANCH  82  85
ATOM     85  S   UNL A   1      45.495  37.060  27.440  1.00  0.00     0.127 S 
ATOM     86  O   UNL A   1      44.077  37.375  27.279  1.00  0.00    -0.237 OA
ATOM     87  O   UNL A   1      46.270  38.076  28.153  1.00  0.00    -0.237 OA
ATOM     88  O   UNL A   1      46.155  36.520  26.259  1.00  0.00    -0.744 OA
ENDBRANCH  82  85
ENDBRANCH  55  78
ENDBRANCH  29  30
ENDBRANCH  21  24
ENDBRANCH  19  20
ENDBRANCH   1  19
TORSDOF 16
ENDMDL
MODEL 3
REMARK VINA RESULT:     -11.1      1.925      2.574
REMARK SMILES CC(C)C[C@@H](C(=O)NCCCNC(=O)c1ccc(-c2c3nc(c(-c4cccc(S(=O)(=O)[O-])c4F)c4ccc([nH]4)c(-c4cccc(S(=O)(=O)[O-])c4F)c4nc(c(-c5cccc(S(=O)(=O)[O-])c5F)c5ccc2[nH]5)C=C4)C=C3)cc1)[C@@H]1CCC[C@@H](C)C1
REMARK SMILES IDX 10 1 9 2 8 3 6 4 7 5 5 7 4 8 2 9 1 10 3 11 78 12 79 13 84 14
REMARK SMILES IDX 80 15 82 16 81 17 83 18 11 19 12 20 13 21 14 23 15 24 16 25
REMARK SMILES IDX 77 26 17 27 76 28 18 29 19 30 20 31 70 32 21 33 75 34 69 35
REMARK SMILES IDX 71 36 22 37 74 38 68 39 67 40 23 42 55 43 35 44 54 45 36 46
REMARK SMILES IDX 39 47 53 48 72 49 37 50 38 51 52 53 73 54 40 55 24 56 25 57
REMARK SMILES IDX 33 58 26 59 28 60 34 61 27 62 29 63 30 64 31 65 32 66 56 67
REMARK SMILES IDX 57 68 65 69 58 70 60 71 66 72 59 73 61 74 62 75 63 76 64 77
REMARK SMILES IDX 41 78 42 79 50 80 43 81 45 82 51 83 44 84 46 85 47 86 48 87
REMARK SMILES IDX 49 88
REMARK H PARENT 8 6 12 22 71 41 39 52
REMARK Flexibility Score: inf
ROOT
ATOM      1  C   UNL A   1      33.881  28.465  24.607  1.00  0.00     0.042 C 
ENDROOT
BRANCH   1   2
ATOM      2  C   UNL A   1      32.902  27.375  24.184  1.00  0.00     0.117 C 
BRANCH   2   3
ATOM      3  N   UNL A   1      33.116  26.894  22.829  1.00  0.00    -0.356 N 
ATOM      4  C   UNL A   1      33.274  25.652  22.309  1.00  0.00     0.223 C 
ATOM      5  O   UNL A   1      33.441  25.573  21.088  1.00  0.00    -0.275 OA
ATOM      6  H   UNL A   1      33.153  27.612  22.156  1.00  0.00     0.163 HD
BRANCH   4   7
ATOM      7  C   UNL A   1      33.226  24.378  23.156  1.00  0.00     0.082 C 
BRANCH   7   8
ATOM      8  C   UNL A   1      34.495  23.523  22.908  1.00  0.00     0.016 C 
BRANCH   8   9
ATOM      9  C   UNL A   1      35.539  23.616  24.045  1.00  0.00    -0.017 C 
ATOM     10  C   UNL A   1      34.931  24.242  25.300  1.00  0.00     0.007 C 
ATOM     11  C   UNL A   1      36.095  22.227  24.374  1.00  0.00     0.007 C 
ENDBRANCH   8   9
ENDBRANCH   7   8
BRANCH   7  12
ATOM     12  C   UNL A   1      31.892  23.577  23.021  1.00  0.00     0.002 C 
ATOM     13  C   UNL A   1      30.791  24.001  24.016  1.00  0.00     0.004 C 
ATOM     14  C   UNL A   1      32.109  22.049  23.170  1.00  0.00     0.007 C 
ATOM     15  C   UNL A   1      31.089  23.605  25.456  1.00  0.00     0.001 C 
ATOM     16  C   UNL A   1      32.386  21.601  24.618  1.00  0.00    -0.014 C 
ATOM     17  C   UNL A   1      31.301  22.104  25.578  1.00  0.00     0.003 C 
ATOM     18  C   UNL A   1      32.499  20.078  24.712  1.00  0.00     0.007 C 
ENDBRANCH   7  12
ENDBRANCH   4   7
ENDBRANCH   2   3
ENDBRANCH   1   2
BRANCH   1  19
ATOM     19  C   UNL A   1      34.009  28.648  26.113  1.00  0.00     0.118 C 
BRANCH  19  20
ATOM     20  N   UNL A   1      33.785  30.029  26.520  1.00  0.00    -0.352 N 
ATOM     21  C   UNL A   1      34.438  30.771  27.470  1.00  0.00     0.251 C 
ATOM     22  H   UNL A   1      33.060  30.496  26.045  1.00  0.00     0.163 HD
ATOM     23  O   UNL A   1      33.959  31.843  27.841  1.00  0.00    -0.269 OA
BRANCH  21  24
ATOM     24  C   UNL A   1      35.705  30.283  28.058  1.00  0.00     0.039 A 
ATOM     25  C   UNL A   1      35.690  29.705  29.330  1.00  0.00     0.014 A 
ATOM     26  C   UNL A   1      36.910  30.410  27.361  1.00  0.00     0.014 A 
ATOM     27  C   UNL A   1      36.874  29.206  29.878  1.00  0.00     0.010 A 
ATOM     28  C   UNL A   1      38.070  29.838  27.873  1.00  0.00     0.010 A 
ATOM     29  C   UNL A   1      38.069  29.244  29.143  1.00  0.00    -0.014 A 
BRANCH  29  30
ATOM     30  C   UNL A   1      39.334  28.680  29.683  1.00  0.00     0.031 A 
ATOM     31  C   UNL A   1      39.985  29.307  30.888  1.00  0.00     0.074 A 
ATOM     32  C   UNL A   1      39.943  27.666  29.039  1.00  0.00     0.049 A 
ATOM     33  N   UNL A   1      41.122  29.007  31.461  1.00  0.00    -0.248 NA
ATOM     34  C   UNL A   1      39.282  30.441  31.513  1.00  0.00     0.031 C 
ATOM     35  C   UNL A   1      39.456  27.025  27.815  1.00  0.00     0.029 A 
ATOM     36  N   UNL A   1      41.122  27.015  29.307  1.00  0.00    -0.354 N 
ATOM     37  C   UNL A   1      41.290  29.936  32.482  1.00  0.00     0.074 A 
ATOM     38  C   UNL A   1      40.156  30.832  32.429  1.00  0.00     0.031 C 
ATOM     39  C   UNL A   1      40.325  26.073  27.442  1.00  0.00     0.029 A 
ATOM     40  C   UNL A   1      41.443  26.051  28.378  1.00  0.00     0.049 A 
ATOM     41  H   UNL A   1      41.683  27.217  30.090  1.00  0.00     0.167 HD
ATOM     42  C   UNL A   1      42.280  30.017  33.403  1.00  0.00     0.034 A 
ATOM     43  C   UNL A   1      42.520  25.246  28.289  1.00  0.00     0.034 A 
ATOM     44  C   UNL A   1      43.377  29.092  33.488  1.00  0.00     0.049 A 
ATOM     45  C   UNL A   1      43.580  25.323  29.356  1.00  0.00     0.074 A 
ATOM     46  C   UNL A   1      44.379  29.030  34.440  1.00  0.00     0.029 A 
ATOM     47  N   UNL A   1      43.616  28.065  32.587  1.00  0.00    -0.354 N 
ATOM     48  N   UNL A   1      43.638  26.102  30.408  1.00  0.00    -0.248 NA
ATOM     49  C   UNL A   1      44.705  24.382  29.244  1.00  0.00     0.031 C 
ATOM     50  C   UNL A   1      45.235  27.975  34.105  1.00  0.00     0.029 A 
ATOM     51  C   UNL A   1      44.753  27.368  32.957  1.00  0.00     0.049 A 
ATOM     52  H   UNL A   1      43.060  27.863  31.800  1.00  0.00     0.167 HD
ATOM     53  C   UNL A   1      44.780  25.723  31.102  1.00  0.00     0.074 A 
ATOM     54  C   UNL A   1      45.375  24.629  30.361  1.00  0.00     0.031 C 
ATOM     55  C   UNL A   1      45.300  26.243  32.242  1.00  0.00     0.034 A 
BRANCH  42  56
ATOM     56  C   UNL A   1      42.188  31.113  34.434  1.00  0.00     0.023 A 
ATOM     57  C   UNL A   1      41.533  30.858  35.657  1.00  0.00     0.012 A 
ATOM     58  C   UNL A   1      42.790  32.368  34.221  1.00  0.00     0.148 A 
ATOM     59  C   UNL A   1      41.447  31.847  36.636  1.00  0.00     0.002 A 
ATOM     60  C   UNL A   1      42.739  33.333  35.220  1.00  0.00     0.091 A 
ATOM     61  F   UNL A   1      43.390  32.599  33.044  1.00  0.00    -0.205 F 
ATOM     62  C   UNL A   1      42.058  33.079  36.422  1.00  0.00     0.022 A 
BRANCH  60  63
ATOM     63  S   UNL A   1      43.563  34.923  35.073  1.00  0.00     0.127 S 
ATOM     64  O   UNL A   1      42.818  35.541  33.976  1.00  0.00    -0.237 OA
ATOM     65  O   UNL A   1      43.317  35.521  36.387  1.00  0.00    -0.237 OA
ATOM     66  O   UNL A   1      44.959  34.626  34.794  1.00  0.00    -0.744 OA
ENDBRANCH  60  63
ENDBRANCH  42  56
BRANCH  43  67
ATOM     67  C   UNL A   1      42.610  24.244  27.189  1.00  0.00     0.023 A 
ATOM     68  C   UNL A   1      43.320  24.570  26.017  1.00  0.00     0.012 A 
ATOM     69  C   UNL A   1      42.030  22.966  27.308  1.00  0.00     0.148 A 
ATOM     70  C   UNL A   1      43.424  23.656  24.969  1.00  0.00     0.002 A 
ATOM     71  C   UNL A   1      42.184  22.039  26.283  1.00  0.00     0.091 A 
ATOM     72  F   UNL A   1      41.349  22.678  28.425  1.00  0.00    -0.205 F 
ATOM     73  C   UNL A   1      42.865  22.387  25.106  1.00  0.00     0.022 A 
BRANCH  71  74
ATOM     74  S   UNL A   1      41.615  20.341  26.429  1.00  0.00     0.127 S 
ATOM     75  O   UNL A   1      42.075  19.986  27.770  1.00  0.00    -0.237 OA
ATOM     76  O   UNL A   1      40.165  20.496  26.298  1.00  0.00    -0.237 OA
ATOM     77  O   UNL A   1      42.240  19.622  25.331  1.00  0.00    -0.744 OA
ENDBRANCH  71  74
ENDBRANCH  43  67
BRANCH  55  78
ATOM     78  C   UNL A   1      46.557  25.619  32.786  1.00  0.00     0.023 A 
ATOM     79  C   UNL A   1      47.813  26.145  32.425  1.00  0.00     0.012 A 
ATOM     80  C   UNL A   1      46.491  24.563  33.718  1.00  0.00     0.148 A 
ATOM     81  C   UNL A   1      48.985  25.612  32.960  1.00  0.00     0.002 A 
ATOM     82  C   UNL A   1      47.660  24.068  34.282  1.00  0.00     0.091 A 
ATOM     83  F   UNL A   1      45.287  24.063  34.033  1.00  0.00    -0.205 F 
ATOM     84  C   UNL A   1      48.908  24.583  33.897  1.00  0.00     0.022 A 
BRANCH  82  85
ATOM     85  S   UNL A   1      47.650  22.812  35.566  1.00  0.00     0.127 S 
ATOM     86  O   UNL A   1      46.624  23.322  36.474  1.00  0.00    -0.237 OA
ATOM     87  O   UNL A   1      47.267  21.610  34.824  1.00  0.00    -0.237 OA
ATOM     88  O   UNL A   1      49.003  22.780  36.104  1.00  0.00    -0.744 OA
ENDBRANCH  82  85
ENDBRANCH  55  78
ENDBRANCH  29  30
ENDBRANCH  21  24
ENDBRANCH  19  20
ENDBRANCH   1  19
TORSDOF 16
ENDMDL
