MODEL 1
REMARK VINA RESULT:      -9.8      0.000      0.000
REMARK SMILES CC(C)C[C@H](NC(=O)[C@H](C)NC(=O)[C@@H](NC(=O)CNC(=O)OCc1ccccc1)C(C)C)C(=O)NCCCNC(=O)c1ccc(-c2c3nc(c(-c4cccc(S(=O)(=O)[O-])c4F)c4ccc([nH]4)c(-c4cccc(S(=O)(=O)[O-])c4F)c4nc(c(-c5cccc(S(=O)(=O)[O-])c5F)c5ccc2[nH]5)C=C4)C=C3)cc1
REMARK SMILES IDX 6 1 7 2 8 3 5 5 4 6 2 7 1 8 3 9 33 10 34 11 35 12 36 14
REMARK SMILES IDX 37 15 38 16 39 17 40 18 41 20 42 21 43 22 104 23 44 24
REMARK SMILES IDX 103 25 45 26 46 27 47 28 97 29 48 30 102 31 96 32 98 33
REMARK SMILES IDX 49 34 101 35 95 36 94 37 50 39 82 40 62 41 81 42 63 43 66 44
REMARK SMILES IDX 80 45 99 46 64 47 65 48 79 50 100 51 67 52 51 53 52 54 60 55
REMARK SMILES IDX 53 56 55 57 61 58 54 59 56 60 57 61 58 62 59 63 83 64 84 65
REMARK SMILES IDX 92 66 85 67 87 68 93 69 86 70 88 71 89 72 90 73 91 74 68 75
REMARK SMILES IDX 69 76 77 77 70 78 72 79 78 80 71 81 73 82 74 83 75 84 76 85
REMARK SMILES IDX 9 86 10 87 11 88 12 89 13 91 14 92 15 93 16 94 17 96 18 97
REMARK SMILES IDX 19 98 20 99 21 101 22 102 23 103 24 104 25 105 29 106 26 107
REMARK SMILES IDX 28 108 27 109 30 110 31 111 32 112
REMARK H PARENT 6 4 35 13 39 19 98 38 66 49 11 90 15 95 19 100
REMARK Flexibility Score: inf
ROOT
ATOM      1  N   UNL A   1      39.767  21.351  26.112  1.00  0.00    -0.343 N 
ATOM      2  C   UNL A   1      38.525  21.856  25.823  1.00  0.00     0.242 C 
ATOM      3  O   UNL A   1      37.545  21.113  25.905  1.00  0.00    -0.273 OA
ATOM      4  H   UNL A   1      39.828  20.370  26.157  1.00  0.00     0.164 HD
ENDROOT
BRANCH   1   5
ATOM      5  C   UNL A   1      41.019  22.076  26.361  1.00  0.00     0.171 C 
BRANCH   5   6
ATOM      6  C   UNL A   1      41.063  22.658  27.780  1.00  0.00     0.038 C 
BRANCH   6   7
ATOM      7  C   UNL A   1      42.338  23.484  28.060  1.00  0.00    -0.015 C 
ATOM      8  C   UNL A   1      42.065  24.988  28.166  1.00  0.00     0.007 C 
ATOM      9  C   UNL A   1      42.986  23.000  29.358  1.00  0.00     0.007 C 
ENDBRANCH   6   7
ENDBRANCH   5   6
BRANCH   5  10
ATOM     10  C   UNL A   1      42.292  21.271  26.044  1.00  0.00     0.242 C 
ATOM     11  O   UNL A   1      42.385  20.095  26.411  1.00  0.00    -0.273 OA
ATOM     12  N   UNL A   1      43.324  21.756  25.318  1.00  0.00    -0.354 N 
ATOM     13  H   UNL A   1      44.068  21.121  25.212  1.00  0.00     0.163 HD
BRANCH  12  14
ATOM     14  C   UNL A   1      43.545  23.031  24.667  1.00  0.00     0.117 C 
BRANCH  14  15
ATOM     15  C   UNL A   1      44.987  23.183  24.195  1.00  0.00     0.042 C 
BRANCH  15  16
ATOM     16  C   UNL A   1      45.911  23.903  25.177  1.00  0.00     0.118 C 
BRANCH  16  17
ATOM     17  N   UNL A   1      46.903  24.746  24.517  1.00  0.00    -0.352 N 
ATOM     18  C   UNL A   1      47.208  26.069  24.720  1.00  0.00     0.251 C 
ATOM     19  H   UNL A   1      47.435  24.297  23.822  1.00  0.00     0.163 HD
ATOM     20  O   UNL A   1      47.971  26.642  23.947  1.00  0.00    -0.269 OA
BRANCH  18  21
ATOM     21  C   UNL A   1      46.605  26.805  25.851  1.00  0.00     0.039 A 
ATOM     22  C   UNL A   1      45.214  26.931  25.910  1.00  0.00     0.014 A 
ATOM     23  C   UNL A   1      47.408  27.370  26.844  1.00  0.00     0.014 A 
ATOM     24  C   UNL A   1      44.625  27.569  27.004  1.00  0.00     0.010 A 
ATOM     25  C   UNL A   1      46.817  27.938  27.969  1.00  0.00     0.010 A 
ATOM     26  C   UNL A   1      45.421  28.050  28.058  1.00  0.00    -0.014 A 
BRANCH  26  27
ATOM     27  C   UNL A   1      44.819  28.673  29.262  1.00  0.00     0.031 A 
ATOM     28  C   UNL A   1      44.614  27.858  30.510  1.00  0.00     0.074 A 
ATOM     29  C   UNL A   1      44.363  29.940  29.201  1.00  0.00     0.049 A 
ATOM     30  N   UNL A   1      44.033  28.198  31.631  1.00  0.00    -0.248 NA
ATOM     31  C   UNL A   1      45.096  26.466  30.483  1.00  0.00     0.031 C 
ATOM     32  C   UNL A   1      44.422  30.804  28.019  1.00  0.00     0.029 A 
ATOM     33  N   UNL A   1      43.734  30.712  30.145  1.00  0.00    -0.354 N 
ATOM     34  C   UNL A   1      44.038  27.055  32.422  1.00  0.00     0.074 A 
ATOM     35  C   UNL A   1      44.652  26.003  31.642  1.00  0.00     0.031 C 
ATOM     36  C   UNL A   1      43.854  31.987  28.310  1.00  0.00     0.029 A 
ATOM     37  C   UNL A   1      43.374  31.959  29.688  1.00  0.00     0.049 A 
ATOM     38  H   UNL A   1      43.558  30.403  31.062  1.00  0.00     0.167 HD
ATOM     39  C   UNL A   1      43.603  26.903  33.695  1.00  0.00     0.034 A 
ATOM     40  C   UNL A   1      42.728  32.964  30.309  1.00  0.00     0.034 A 
ATOM     41  C   UNL A   1      43.060  27.968  34.491  1.00  0.00     0.049 A 
ATOM     42  C   UNL A   1      42.327  32.795  31.750  1.00  0.00     0.074 A 
ATOM     43  C   UNL A   1      42.686  27.944  35.824  1.00  0.00     0.029 A 
ATOM     44  N   UNL A   1      42.817  29.253  34.031  1.00  0.00    -0.354 N 
ATOM     45  N   UNL A   1      42.492  31.757  32.535  1.00  0.00    -0.248 NA
ATOM     46  C   UNL A   1      41.688  33.947  32.404  1.00  0.00     0.031 C 
ATOM     47  C   UNL A   1      42.213  29.215  36.167  1.00  0.00     0.029 A 
ATOM     48  C   UNL A   1      42.301  30.033  35.051  1.00  0.00     0.049 A 
ATOM     49  H   UNL A   1      42.988  29.566  33.113  1.00  0.00     0.167 HD
ATOM     50  C   UNL A   1      42.010  32.140  33.781  1.00  0.00     0.074 A 
ATOM     51  C   UNL A   1      41.566  33.514  33.652  1.00  0.00     0.031 C 
ATOM     52  C   UNL A   1      41.924  31.416  34.923  1.00  0.00     0.034 A 
BRANCH  39  53
ATOM     53  C   UNL A   1      43.770  25.548  34.331  1.00  0.00     0.023 A 
ATOM     54  C   UNL A   1      42.679  24.653  34.344  1.00  0.00     0.012 A 
ATOM     55  C   UNL A   1      45.006  25.139  34.869  1.00  0.00     0.148 A 
ATOM     56  C   UNL A   1      42.806  23.387  34.914  1.00  0.00     0.002 A 
ATOM     57  C   UNL A   1      45.134  23.861  35.400  1.00  0.00     0.091 A 
ATOM     58  F   UNL A   1      46.025  26.012  34.870  1.00  0.00    -0.205 F 
ATOM     59  C   UNL A   1      44.034  22.988  35.432  1.00  0.00     0.022 A 
BRANCH  57  60
ATOM     60  S   UNL A   1      46.696  23.227  36.023  1.00  0.00     0.127 S 
ATOM     61  O   UNL A   1      46.248  22.349  37.103  1.00  0.00    -0.237 OA
ATOM     62  O   UNL A   1      47.238  22.530  34.856  1.00  0.00    -0.237 OA
ATOM     63  O   UNL A   1      47.462  24.395  36.439  1.00  0.00    -0.744 OA
ENDBRANCH  57  60
ENDBRANCH  39  53
BRANCH  40  64
ATOM     64  C   UNL A   1      42.504  34.253  29.598  1.00  0.00     0.023 A 
ATOM     65  C   UNL A   1      41.239  34.514  29.035  1.00  0.00     0.012 A 
ATOM     66  C   UNL A   1      43.510  35.234  29.510  1.00  0.00     0.148 A 
ATOM     67  C   UNL A   1      40.989  35.716  28.372  1.00  0.00     0.002 A 
ATOM     68  C   UNL A   1      43.238  36.450  28.892  1.00  0.00     0.091 A 
ATOM     69  F   UNL A   1      44.712  34.962  30.038  1.00  0.00    -0.205 F 
ATOM     70  C   UNL A   1      41.984  36.688  28.310  1.00  0.00     0.022 A 
BRANCH  68  71
ATOM     71  S   UNL A   1      44.421  37.803  28.886  1.00  0.00     0.127 S 
ATOM     72  O   UNL A   1      44.677  37.983  30.312  1.00  0.00    -0.237 OA
ATOM     73  O   UNL A   1      45.534  37.233  28.126  1.00  0.00    -0.237 OA
ATOM     74  O   UNL A   1      43.744  38.905  28.214  1.00  0.00    -0.744 OA
ENDBRANCH  68  71
ENDBRANCH  40  64
BRANCH  52  75
ATOM     75  C   UNL A   1      41.356  32.094  36.140  1.00  0.00     0.023 A 
ATOM     76  C   UNL A   1      42.178  32.940  36.911  1.00  0.00     0.012 A 
ATOM     77  C   UNL A   1      39.993  31.963  36.470  1.00  0.00     0.148 A 
ATOM     78  C   UNL A   1      41.657  33.627  38.006  1.00  0.00     0.002 A 
ATOM     79  C   UNL A   1      39.470  32.685  37.537  1.00  0.00     0.091 A 
ATOM     80  F   UNL A   1      39.233  31.135  35.737  1.00  0.00    -0.205 F 
ATOM     81  C   UNL A   1      40.303  33.510  38.311  1.00  0.00     0.022 A 
BRANCH  79  82
ATOM     82  S   UNL A   1      37.720  32.662  37.940  1.00  0.00     0.127 S 
ATOM     83  O   UNL A   1      37.463  31.229  38.074  1.00  0.00    -0.237 OA
ATOM     84  O   UNL A   1      37.678  33.408  39.198  1.00  0.00    -0.237 OA
ATOM     85  O   UNL A   1      37.049  33.322  36.829  1.00  0.00    -0.744 OA
ENDBRANCH  79  82
ENDBRANCH  52  75
ENDBRANCH  26  27
ENDBRANCH  18  21
ENDBRANCH  16  17
ENDBRANCH  15  16
ENDBRANCH  14  15
ENDBRANCH  12  14
ENDBRANCH   5  10
ENDBRANCH   1   5
BRANCH   2  86
ATOM     86  C   UNL A   1      38.368  23.345  25.469  1.00  0.00     0.168 C 
ATOM     87  C   UNL A   1      37.846  24.093  26.693  1.00  0.00     0.041 C 
BRANCH  86  88
ATOM     88  N   UNL A   1      37.402  23.506  24.386  1.00  0.00    -0.343 N 
ATOM     89  C   UNL A   1      36.054  23.353  24.383  1.00  0.00     0.243 C 
ATOM     90  H   UNL A   1      37.791  23.768  23.521  1.00  0.00     0.164 HD
ATOM     91  O   UNL A   1      35.559  22.867  23.359  1.00  0.00    -0.273 OA
BRANCH  89  92
ATOM     92  C   UNL A   1      35.119  24.001  25.451  1.00  0.00     0.174 C 
BRANCH  92  93
ATOM     93  N   UNL A   1      34.641  25.363  25.149  1.00  0.00    -0.343 N 
ATOM     94  C   UNL A   1      33.964  26.001  24.161  1.00  0.00     0.240 C 
ATOM     95  H   UNL A   1      34.883  25.988  25.872  1.00  0.00     0.164 HD
ATOM     96  O   UNL A   1      33.853  27.223  24.324  1.00  0.00    -0.273 OA
BRANCH  94  97
ATOM     97  C   UNL A   1      33.426  25.338  22.883  1.00  0.00     0.219 C 
BRANCH  97  98
ATOM     98  N   UNL A   1      32.028  25.013  23.047  1.00  0.00    -0.312 N 
ATOM     99  C   UNL A   1      31.432  23.808  23.203  1.00  0.00     0.407 C 
ATOM    100  H   UNL A   1      31.418  25.786  23.045  1.00  0.00     0.167 HD
ATOM    101  O   UNL A   1      30.208  23.745  23.128  1.00  0.00    -0.225 OA
BRANCH  99 102
ATOM    102  O   UNL A   1      32.285  22.772  23.349  1.00  0.00    -0.445 OA
BRANCH 102 103
ATOM    103  C   UNL A   1      32.034  21.625  22.515  1.00  0.00     0.270 C 
BRANCH 103 104
ATOM    104  C   UNL A   1      32.246  20.265  23.132  1.00  0.00    -0.011 A 
ATOM    105  C   UNL A   1      32.425  20.111  24.512  1.00  0.00     0.007 A 
ATOM    106  C   UNL A   1      32.334  19.128  22.312  1.00  0.00     0.007 A 
ATOM    107  C   UNL A   1      32.684  18.848  25.054  1.00  0.00     0.000 A 
ATOM    108  C   UNL A   1      32.570  17.866  22.855  1.00  0.00     0.000 A 
ATOM    109  C   UNL A   1      32.750  17.727  24.227  1.00  0.00     0.000 A 
ENDBRANCH 103 104
ENDBRANCH 102 103
ENDBRANCH  99 102
ENDBRANCH  97  98
ENDBRANCH  94  97
ENDBRANCH  92  93
BRANCH  92 110
ATOM    110  C   UNL A   1      34.055  23.002  25.955  1.00  0.00     0.015 C 
ATOM    111  C   UNL A   1      34.575  21.945  26.937  1.00  0.00     0.010 C 
ATOM    112  C   UNL A   1      32.873  23.725  26.612  1.00  0.00     0.010 C 
ENDBRANCH  92 110
ENDBRANCH  89  92
ENDBRANCH  86  88
ENDBRANCH   2  86
TORSDOF 26
ENDMDL
MODEL 2
REMARK VINA RESULT:      -9.0      3.770      5.076
REMARK SMILES CC(C)C[C@H](NC(=O)[C@H](C)NC(=O)[C@@H](NC(=O)CNC(=O)OCc1ccccc1)C(C)C)C(=O)NCCCNC(=O)c1ccc(-c2c3nc(c(-c4cccc(S(=O)(=O)[O-])c4F)c4ccc([nH]4)c(-c4cccc(S(=O)(=O)[O-])c4F)c4nc(c(-c5cccc(S(=O)(=O)[O-])c5F)c5ccc2[nH]5)C=C4)C=C3)cc1
REMARK SMILES IDX 6 1 7 2 8 3 5 5 4 6 2 7 1 8 3 9 33 10 34 11 35 12 36 14
REMARK SMILES IDX 37 15 38 16 39 17 40 18 41 20 42 21 43 22 104 23 44 24
REMARK SMILES IDX 103 25 45 26 46 27 47 28 97 29 48 30 102 31 96 32 98 33
REMARK SMILES IDX 49 34 101 35 95 36 94 37 50 39 82 40 62 41 81 42 63 43 66 44
REMARK SMILES IDX 80 45 99 46 64 47 65 48 79 50 100 51 67 52 51 53 52 54 60 55
REMARK SMILES IDX 53 56 55 57 61 58 54 59 56 60 57 61 58 62 59 63 83 64 84 65
REMARK SMILES IDX 92 66 85 67 87 68 93 69 86 70 88 71 89 72 90 73 91 74 68 75
REMARK SMILES IDX 69 76 77 77 70 78 72 79 78 80 71 81 73 82 74 83 75 84 76 85
REMARK SMILES IDX 9 86 10 87 11 88 12 89 13 91 14 92 15 93 16 94 17 96 18 97
REMARK SMILES IDX 19 98 20 99 21 101 22 102 23 103 24 104 25 105 29 106 26 107
REMARK SMILES IDX 28 108 27 109 30 110 31 111 32 112
REMARK H PARENT 6 4 35 13 39 19 98 38 66 49 11 90 15 95 19 100
REMARK Flexibility Score: inf
ROOT
ATOM      1  N   UNL A   1      39.358  21.583  25.763  1.00  0.00    -0.343 N 
ATOM      2  C   UNL A   1      38.040  21.923  25.597  1.00  0.00     0.242 C 
ATOM      3  O   UNL A   1      37.194  21.029  25.546  1.00  0.00    -0.273 OA
ATOM      4  H   UNL A   1      39.575  20.635  25.615  1.00  0.00     0.164 HD
ENDROOT
BRANCH   1   5
ATOM      5  C   UNL A   1      40.489  22.442  26.132  1.00  0.00     0.171 C 
BRANCH   5   6
ATOM      6  C   UNL A   1      40.371  22.947  27.575  1.00  0.00     0.038 C 
BRANCH   6   7
ATOM      7  C   UNL A   1      41.005  24.339  27.789  1.00  0.00    -0.015 C 
ATOM      8  C   UNL A   1      40.015  25.369  28.343  1.00  0.00     0.007 C 
ATOM      9  C   UNL A   1      42.191  24.220  28.746  1.00  0.00     0.007 C 
ENDBRANCH   6   7
ENDBRANCH   5   6
BRANCH   5  10
ATOM     10  C   UNL A   1      41.872  21.818  25.867  1.00  0.00     0.242 C 
ATOM     11  O   UNL A   1      42.015  20.593  25.919  1.00  0.00    -0.273 OA
ATOM     12  N   UNL A   1      42.961  22.535  25.511  1.00  0.00    -0.354 N 
ATOM     13  H   UNL A   1      43.771  21.990  25.387  1.00  0.00     0.163 HD
BRANCH  12  14
ATOM     14  C   UNL A   1      43.165  23.950  25.277  1.00  0.00     0.117 C 
BRANCH  14  15
ATOM     15  C   UNL A   1      44.591  24.249  24.828  1.00  0.00     0.042 C 
BRANCH  15  16
ATOM     16  C   UNL A   1      45.116  25.627  25.231  1.00  0.00     0.118 C 
BRANCH  16  17
ATOM     17  N   UNL A   1      46.484  25.594  25.736  1.00  0.00    -0.352 N 
ATOM     18  C   UNL A   1      47.025  26.183  26.853  1.00  0.00     0.251 C 
ATOM     19  H   UNL A   1      47.115  25.068  25.194  1.00  0.00     0.163 HD
ATOM     20  O   UNL A   1      48.241  26.167  27.019  1.00  0.00    -0.269 OA
BRANCH  18  21
ATOM     21  C   UNL A   1      46.148  26.850  27.837  1.00  0.00     0.039 A 
ATOM     22  C   UNL A   1      45.485  26.072  28.790  1.00  0.00     0.014 A 
ATOM     23  C   UNL A   1      45.979  28.237  27.817  1.00  0.00     0.014 A 
ATOM     24  C   UNL A   1      44.703  26.694  29.766  1.00  0.00     0.010 A 
ATOM     25  C   UNL A   1      45.262  28.859  28.834  1.00  0.00     0.010 A 
ATOM     26  C   UNL A   1      44.611  28.095  29.815  1.00  0.00    -0.014 A 
BRANCH  26  27
ATOM     27  C   UNL A   1      43.841  28.784  30.879  1.00  0.00     0.031 A 
ATOM     28  C   UNL A   1      44.450  28.986  32.240  1.00  0.00     0.074 A 
ATOM     29  C   UNL A   1      42.560  29.138  30.654  1.00  0.00     0.049 A 
ATOM     30  N   UNL A   1      43.910  29.489  33.319  1.00  0.00    -0.248 NA
ATOM     31  C   UNL A   1      45.838  28.529  32.422  1.00  0.00     0.031 C 
ATOM     32  C   UNL A   1      41.828  28.915  29.405  1.00  0.00     0.029 A 
ATOM     33  N   UNL A   1      41.637  29.733  31.477  1.00  0.00    -0.354 N 
ATOM     34  C   UNL A   1      44.871  29.369  34.316  1.00  0.00     0.074 A 
ATOM     35  C   UNL A   1      46.017  28.716  33.722  1.00  0.00     0.031 C 
ATOM     36  C   UNL A   1      40.571  29.368  29.544  1.00  0.00     0.029 A 
ATOM     37  C   UNL A   1      40.401  29.894  30.894  1.00  0.00     0.049 A 
ATOM     38  H   UNL A   1      41.841  30.017  32.396  1.00  0.00     0.167 HD
ATOM     39  C   UNL A   1      44.819  29.794  35.600  1.00  0.00     0.034 A 
ATOM     40  C   UNL A   1      39.260  30.407  31.394  1.00  0.00     0.034 A 
ATOM     41  C   UNL A   1      43.706  30.505  36.167  1.00  0.00     0.049 A 
ATOM     42  C   UNL A   1      39.255  30.945  32.800  1.00  0.00     0.074 A 
ATOM     43  C   UNL A   1      43.596  31.070  37.425  1.00  0.00     0.029 A 
ATOM     44  N   UNL A   1      42.512  30.756  35.509  1.00  0.00    -0.354 N 
ATOM     45  N   UNL A   1      40.230  30.972  33.675  1.00  0.00    -0.248 NA
ATOM     46  C   UNL A   1      38.005  31.558  33.274  1.00  0.00     0.031 C 
ATOM     47  C   UNL A   1      42.331  31.659  37.529  1.00  0.00     0.029 A 
ATOM     48  C   UNL A   1      41.658  31.469  36.332  1.00  0.00     0.049 A 
ATOM     49  H   UNL A   1      42.303  30.470  34.590  1.00  0.00     0.167 HD
ATOM     50  C   UNL A   1      39.726  31.633  34.788  1.00  0.00     0.074 A 
ATOM     51  C   UNL A   1      38.363  32.009  34.469  1.00  0.00     0.031 C 
ATOM     52  C   UNL A   1      40.329  31.890  35.975  1.00  0.00     0.034 A 
BRANCH  39  53
ATOM     53  C   UNL A   1      46.035  29.567  36.459  1.00  0.00     0.023 A 
ATOM     54  C   UNL A   1      46.157  28.357  37.175  1.00  0.00     0.012 A 
ATOM     55  C   UNL A   1      47.074  30.516  36.523  1.00  0.00     0.148 A 
ATOM     56  C   UNL A   1      47.276  28.112  37.969  1.00  0.00     0.002 A 
ATOM     57  C   UNL A   1      48.204  30.246  37.285  1.00  0.00     0.091 A 
ATOM     58  F   UNL A   1      46.929  31.670  35.854  1.00  0.00    -0.205 F 
ATOM     59  C   UNL A   1      48.303  29.050  38.016  1.00  0.00     0.022 A 
BRANCH  57  60
ATOM     60  S   UNL A   1      49.613  31.360  37.350  1.00  0.00     0.127 S 
ATOM     61  O   UNL A   1      49.163  32.347  38.329  1.00  0.00    -0.237 OA
ATOM     62  O   UNL A   1      50.684  30.480  37.820  1.00  0.00    -0.237 OA
ATOM     63  O   UNL A   1      49.791  31.855  35.992  1.00  0.00    -0.744 OA
ENDBRANCH  57  60
ENDBRANCH  39  53
BRANCH  40  64
ATOM     64  C   UNL A   1      38.055  30.520  30.526  1.00  0.00     0.023 A 
ATOM     65  C   UNL A   1      37.354  29.351  30.171  1.00  0.00     0.012 A 
ATOM     66  C   UNL A   1      37.575  31.768  30.086  1.00  0.00     0.148 A 
ATOM     67  C   UNL A   1      36.215  29.418  29.369  1.00  0.00     0.002 A 
ATOM     68  C   UNL A   1      36.409  31.833  29.330  1.00  0.00     0.091 A 
ATOM     69  F   UNL A   1      38.263  32.869  30.420  1.00  0.00    -0.205 F 
ATOM     70  C   UNL A   1      35.736  30.660  28.958  1.00  0.00     0.022 A 
BRANCH  68  71
ATOM     71  S   UNL A   1      35.654  33.398  28.872  1.00  0.00     0.127 S 
ATOM     72  O   UNL A   1      35.737  33.355  27.415  1.00  0.00    -0.237 OA
ATOM     73  O   UNL A   1      34.303  33.258  29.418  1.00  0.00    -0.237 OA
ATOM     74  O   UNL A   1      36.458  34.422  29.528  1.00  0.00    -0.744 OA
ENDBRANCH  68  71
ENDBRANCH  40  64
BRANCH  52  75
ATOM     75  C   UNL A   1      39.537  32.637  37.015  1.00  0.00     0.023 A 
ATOM     76  C   UNL A   1      38.436  32.010  37.631  1.00  0.00     0.012 A 
ATOM     77  C   UNL A   1      39.933  33.920  37.440  1.00  0.00     0.148 A 
ATOM     78  C   UNL A   1      37.726  32.660  38.640  1.00  0.00     0.002 A 
ATOM     79  C   UNL A   1      39.248  34.543  38.476  1.00  0.00     0.091 A 
ATOM     80  F   UNL A   1      40.970  34.507  36.825  1.00  0.00    -0.205 F 
ATOM     81  C   UNL A   1      38.139  33.919  39.071  1.00  0.00     0.022 A 
BRANCH  79  82
ATOM     82  S   UNL A   1      39.770  36.123  39.152  1.00  0.00     0.127 S 
ATOM     83  O   UNL A   1      38.983  36.197  40.382  1.00  0.00    -0.237 OA
ATOM     84  O   UNL A   1      41.204  35.918  39.359  1.00  0.00    -0.237 OA
ATOM     85  O   UNL A   1      39.446  37.116  38.137  1.00  0.00    -0.744 OA
ENDBRANCH  79  82
ENDBRANCH  52  75
ENDBRANCH  26  27
ENDBRANCH  18  21
ENDBRANCH  16  17
ENDBRANCH  15  16
ENDBRANCH  14  15
ENDBRANCH  12  14
ENDBRANCH   5  10
ENDBRANCH   1   5
BRANCH   2  86
ATOM     86  C   UNL A   1      37.634  23.407  25.542  1.00  0.00     0.168 C 
ATOM     87  C   UNL A   1      36.760  23.726  26.753  1.00  0.00     0.041 C 
BRANCH  86  88
ATOM     88  N   UNL A   1      36.859  23.674  24.334  1.00  0.00    -0.343 N 
ATOM     89  C   UNL A   1      35.784  23.026  23.820  1.00  0.00     0.243 C 
ATOM     90  H   UNL A   1      37.166  24.448  23.809  1.00  0.00     0.164 HD
ATOM     91  O   UNL A   1      35.732  22.941  22.587  1.00  0.00    -0.273 OA
BRANCH  89  92
ATOM     92  C   UNL A   1      34.528  22.652  24.666  1.00  0.00     0.174 C 
BRANCH  92  93
ATOM     93  N   UNL A   1      33.630  23.769  25.015  1.00  0.00    -0.343 N 
ATOM     94  C   UNL A   1      32.968  24.771  24.381  1.00  0.00     0.240 C 
ATOM     95  H   UNL A   1      33.464  23.796  25.985  1.00  0.00     0.164 HD
ATOM     96  O   UNL A   1      32.364  25.543  25.136  1.00  0.00    -0.273 OA
BRANCH  94  97
ATOM     97  C   UNL A   1      32.992  25.030  22.866  1.00  0.00     0.219 C 
BRANCH  97  98
ATOM     98  N   UNL A   1      31.823  25.783  22.476  1.00  0.00    -0.312 N 
ATOM     99  C   UNL A   1      31.689  27.108  22.231  1.00  0.00     0.407 C 
ATOM    100  H   UNL A   1      31.000  25.252  22.372  1.00  0.00     0.167 HD
ATOM    101  O   UNL A   1      30.558  27.568  22.103  1.00  0.00    -0.225 OA
BRANCH  99 102
ATOM    102  O   UNL A   1      32.847  27.801  22.233  1.00  0.00    -0.445 OA
BRANCH 102 103
ATOM    103  C   UNL A   1      32.842  29.036  22.975  1.00  0.00     0.270 C 
BRANCH 103 104
ATOM    104  C   UNL A   1      32.906  28.935  24.479  1.00  0.00    -0.011 A 
ATOM    105  C   UNL A   1      34.046  28.446  25.129  1.00  0.00     0.007 A 
ATOM    106  C   UNL A   1      31.784  29.274  25.254  1.00  0.00     0.007 A 
ATOM    107  C   UNL A   1      34.058  28.301  26.520  1.00  0.00     0.000 A 
ATOM    108  C   UNL A   1      31.806  29.151  26.642  1.00  0.00     0.000 A 
ATOM    109  C   UNL A   1      32.943  28.659  27.275  1.00  0.00     0.000 A 
ENDBRANCH 103 104
ENDBRANCH 102 103
ENDBRANCH  99 102
ENDBRANCH  97  98
ENDBRANCH  94  97
ENDBRANCH  92  93
BRANCH  92 110
ATOM    110  C   UNL A   1      33.847  21.372  24.137  1.00  0.00     0.015 C 
ATOM    111  C   UNL A   1      34.277  20.076  24.835  1.00  0.00     0.010 C 
ATOM    112  C   UNL A   1      32.319  21.474  24.219  1.00  0.00     0.010 C 
ENDBRANCH  92 110
ENDBRANCH  89  92
ENDBRANCH  86  88
ENDBRANCH   2  86
TORSDOF 26
ENDMDL
MODEL 3
REMARK VINA RESULT:      -8.5      5.579     11.840
REMARK SMILES CC(C)C[C@H](NC(=O)[C@H](C)NC(=O)[C@@H](NC(=O)CNC(=O)OCc1ccccc1)C(C)C)C(=O)NCCCNC(=O)c1ccc(-c2c3nc(c(-c4cccc(S(=O)(=O)[O-])c4F)c4ccc([nH]4)c(-c4cccc(S(=O)(=O)[O-])c4F)c4nc(c(-c5cccc(S(=O)(=O)[O-])c5F)c5ccc2[nH]5)C=C4)C=C3)cc1
REMARK SMILES IDX 6 1 7 2 8 3 5 5 4 6 2 7 1 8 3 9 33 10 34 11 35 12 36 14
REMARK SMILES IDX 37 15 38 16 39 17 40 18 41 20 42 21 43 22 104 23 44 24
REMARK SMILES IDX 103 25 45 26 46 27 47 28 97 29 48 30 102 31 96 32 98 33
REMARK SMILES IDX 49 34 101 35 95 36 94 37 50 39 82 40 62 41 81 42 63 43 66 44
REMARK SMILES IDX 80 45 99 46 64 47 65 48 79 50 100 51 67 52 51 53 52 54 60 55
REMARK SMILES IDX 53 56 55 57 61 58 54 59 56 60 57 61 58 62 59 63 83 64 84 65
REMARK SMILES IDX 92 66 85 67 87 68 93 69 86 70 88 71 89 72 90 73 91 74 68 75
REMARK SMILES IDX 69 76 77 77 70 78 72 79 78 80 71 81 73 82 74 83 75 84 76 85
REMARK SMILES IDX 9 86 10 87 11 88 12 89 13 91 14 92 15 93 16 94 17 96 18 97
REMARK SMILES IDX 19 98 20 99 21 101 22 102 23 103 24 104 25 105 29 106 26 107
REMARK SMILES IDX 28 108 27 109 30 110 31 111 32 112
REMARK H PARENT 6 4 35 13 39 19 98 38 66 49 11 90 15 95 19 100
REMARK Flexibility Score: inf
ROOT
ATOM      1  N   UNL A   1      41.042  28.199  31.796  1.00  0.00    -0.343 N 
ATOM      2  C   UNL A   1      40.590  28.608  33.025  1.00  0.00     0.242 C 
ATOM      3  O   UNL A   1      40.662  27.829  33.977  1.00  0.00    -0.273 OA
ATOM      4  H   UNL A   1      41.197  27.232  31.700  1.00  0.00     0.164 HD
ENDROOT
BRANCH   1   5
ATOM      5  C   UNL A   1      41.324  29.008  30.605  1.00  0.00     0.171 C 
BRANCH   5   6
ATOM      6  C   UNL A   1      42.750  28.779  30.088  1.00  0.00     0.038 C 
BRANCH   6   7
ATOM      7  C   UNL A   1      43.653  30.025  30.217  1.00  0.00    -0.015 C 
ATOM      8  C   UNL A   1      42.954  31.319  29.786  1.00  0.00     0.007 C 
ATOM      9  C   UNL A   1      44.123  30.169  31.665  1.00  0.00     0.007 C 
ENDBRANCH   6   7
ENDBRANCH   5   6
BRANCH   5  10
ATOM     10  C   UNL A   1      40.287  28.858  29.476  1.00  0.00     0.242 C 
ATOM     11  O   UNL A   1      39.352  29.659  29.387  1.00  0.00    -0.273 OA
ATOM     12  N   UNL A   1      40.365  27.916  28.509  1.00  0.00    -0.354 N 
ATOM     13  H   UNL A   1      39.620  27.946  27.866  1.00  0.00     0.163 HD
BRANCH  12  14
ATOM     14  C   UNL A   1      41.332  26.873  28.237  1.00  0.00     0.117 C 
BRANCH  14  15
ATOM     15  C   UNL A   1      40.659  25.529  27.985  1.00  0.00     0.042 C 
BRANCH  15  16
ATOM     16  C   UNL A   1      41.521  24.308  28.308  1.00  0.00     0.118 C 
BRANCH  16  17
ATOM     17  N   UNL A   1      41.836  23.502  27.133  1.00  0.00    -0.352 N 
ATOM     18  C   UNL A   1      42.825  23.664  26.194  1.00  0.00     0.251 C 
ATOM     19  H   UNL A   1      41.251  22.723  26.993  1.00  0.00     0.163 HD
ATOM     20  O   UNL A   1      42.826  22.965  25.185  1.00  0.00    -0.269 OA
BRANCH  18  21
ATOM     21  C   UNL A   1      43.871  24.689  26.388  1.00  0.00     0.039 A 
ATOM     22  C   UNL A   1      44.356  25.380  25.274  1.00  0.00     0.014 A 
ATOM     23  C   UNL A   1      44.374  24.965  27.662  1.00  0.00     0.014 A 
ATOM     24  C   UNL A   1      45.299  26.396  25.448  1.00  0.00     0.010 A 
ATOM     25  C   UNL A   1      45.255  26.026  27.841  1.00  0.00     0.010 A 
ATOM     26  C   UNL A   1      45.733  26.748  26.737  1.00  0.00    -0.014 A 
BRANCH  26  27
ATOM     27  C   UNL A   1      46.684  27.865  26.957  1.00  0.00     0.031 A 
ATOM     28  C   UNL A   1      46.196  29.288  26.925  1.00  0.00     0.074 A 
ATOM     29  C   UNL A   1      48.001  27.606  27.082  1.00  0.00     0.049 A 
ATOM     30  N   UNL A   1      46.882  30.397  27.013  1.00  0.00    -0.248 NA
ATOM     31  C   UNL A   1      44.749  29.491  26.736  1.00  0.00     0.031 C 
ATOM     32  C   UNL A   1      48.609  26.274  27.038  1.00  0.00     0.029 A 
ATOM     33  N   UNL A   1      49.069  28.453  27.242  1.00  0.00    -0.354 N 
ATOM     34  C   UNL A   1      45.962  31.426  26.845  1.00  0.00     0.074 A 
ATOM     35  C   UNL A   1      44.673  30.809  26.618  1.00  0.00     0.031 C 
ATOM     36  C   UNL A   1      49.941  26.393  27.170  1.00  0.00     0.029 A 
ATOM     37  C   UNL A   1      50.283  27.807  27.287  1.00  0.00     0.049 A 
ATOM     38  H   UNL A   1      48.975  29.429  27.318  1.00  0.00     0.167 HD
ATOM     39  C   UNL A   1      46.164  32.763  26.907  1.00  0.00     0.034 A 
ATOM     40  C   UNL A   1      51.531  28.300  27.407  1.00  0.00     0.034 A 
ATOM     41  C   UNL A   1      47.432  33.371  27.204  1.00  0.00     0.049 A 
ATOM     42  C   UNL A   1      51.718  29.786  27.554  1.00  0.00     0.074 A 
ATOM     43  C   UNL A   1      47.721  34.711  27.392  1.00  0.00     0.029 A 
ATOM     44  N   UNL A   1      48.622  32.678  27.361  1.00  0.00    -0.354 N 
ATOM     45  N   UNL A   1      50.812  30.735  27.559  1.00  0.00    -0.248 NA
ATOM     46  C   UNL A   1      53.093  30.268  27.753  1.00  0.00     0.031 C 
ATOM     47  C   UNL A   1      49.090  34.828  27.660  1.00  0.00     0.029 A 
ATOM     48  C   UNL A   1      49.650  33.560  27.646  1.00  0.00     0.049 A 
ATOM     49  H   UNL A   1      48.722  31.701  27.281  1.00  0.00     0.167 HD
ATOM     50  C   UNL A   1      51.501  31.918  27.795  1.00  0.00     0.074 A 
ATOM     51  C   UNL A   1      52.898  31.566  27.948  1.00  0.00     0.031 C 
ATOM     52  C   UNL A   1      51.023  33.185  27.859  1.00  0.00     0.034 A 
BRANCH  39  53
ATOM     53  C   UNL A   1      44.967  33.658  26.726  1.00  0.00     0.023 A 
ATOM     54  C   UNL A   1      44.461  33.879  25.428  1.00  0.00     0.012 A 
ATOM     55  C   UNL A   1      44.313  34.239  27.830  1.00  0.00     0.148 A 
ATOM     56  C   UNL A   1      43.347  34.692  25.228  1.00  0.00     0.002 A 
ATOM     57  C   UNL A   1      43.178  35.016  27.625  1.00  0.00     0.091 A 
ATOM     58  F   UNL A   1      44.822  34.038  29.055  1.00  0.00    -0.205 F 
ATOM     59  C   UNL A   1      42.700  35.251  26.326  1.00  0.00     0.022 A 
BRANCH  57  60
ATOM     60  S   UNL A   1      42.233  35.719  28.982  1.00  0.00     0.127 S 
ATOM     61  O   UNL A   1      41.880  34.523  29.746  1.00  0.00    -0.237 OA
ATOM     62  O   UNL A   1      43.217  36.587  29.631  1.00  0.00    -0.237 OA
ATOM     63  O   UNL A   1      41.117  36.424  28.367  1.00  0.00    -0.744 OA
ENDBRANCH  57  60
ENDBRANCH  39  53
BRANCH  40  64
ATOM     64  C   UNL A   1      52.691  27.370  27.485  1.00  0.00     0.023 A 
ATOM     65  C   UNL A   1      53.228  27.047  28.746  1.00  0.00     0.012 A 
ATOM     66  C   UNL A   1      53.239  26.773  26.333  1.00  0.00     0.148 A 
ATOM     67  C   UNL A   1      54.307  26.170  28.859  1.00  0.00     0.002 A 
ATOM     68  C   UNL A   1      54.281  25.860  26.456  1.00  0.00     0.091 A 
ATOM     69  F   UNL A   1      52.725  27.104  25.139  1.00  0.00    -0.205 F 
ATOM     70  C   UNL A   1      54.826  25.568  27.715  1.00  0.00     0.022 A 
BRANCH  68  71
ATOM     71  S   UNL A   1      54.918  24.943  25.048  1.00  0.00     0.127 S 
ATOM     72  O   UNL A   1      53.719  24.265  24.565  1.00  0.00    -0.237 OA
ATOM     73  O   UNL A   1      55.412  26.015  24.182  1.00  0.00    -0.237 OA
ATOM     74  O   UNL A   1      55.964  24.084  25.588  1.00  0.00    -0.744 OA
ENDBRANCH  68  71
ENDBRANCH  40  64
BRANCH  52  75
ATOM     75  C   UNL A   1      52.007  34.290  28.134  1.00  0.00     0.023 A 
ATOM     76  C   UNL A   1      52.623  34.956  27.057  1.00  0.00     0.012 A 
ATOM     77  C   UNL A   1      52.255  34.724  29.451  1.00  0.00     0.148 A 
ATOM     78  C   UNL A   1      53.491  36.022  27.287  1.00  0.00     0.002 A 
ATOM     79  C   UNL A   1      53.087  35.816  29.671  1.00  0.00     0.091 A 
ATOM     80  F   UNL A   1      51.676  34.062  30.464  1.00  0.00    -0.205 F 
ATOM     81  C   UNL A   1      53.712  36.461  28.591  1.00  0.00     0.022 A 
BRANCH  79  82
ATOM     82  S   UNL A   1      53.353  36.501  31.310  1.00  0.00     0.127 S 
ATOM     83  O   UNL A   1      51.983  36.646  31.799  1.00  0.00    -0.237 OA
ATOM     84  O   UNL A   1      54.126  35.447  31.969  1.00  0.00    -0.237 OA
ATOM     85  O   UNL A   1      54.085  37.743  31.107  1.00  0.00    -0.744 OA
ENDBRANCH  79  82
ENDBRANCH  52  75
ENDBRANCH  26  27
ENDBRANCH  18  21
ENDBRANCH  16  17
ENDBRANCH  15  16
ENDBRANCH  14  15
ENDBRANCH  12  14
ENDBRANCH   5  10
ENDBRANCH   1   5
BRANCH   2  86
ATOM     86  C   UNL A   1      40.065  30.043  33.208  1.00  0.00     0.168 C 
ATOM     87  C   UNL A   1      41.168  30.900  33.824  1.00  0.00     0.041 C 
BRANCH  86  88
ATOM     88  N   UNL A   1      38.919  30.049  34.113  1.00  0.00    -0.343 N 
ATOM     89  C   UNL A   1      38.236  31.088  34.657  1.00  0.00     0.243 C 
ATOM     90  H   UNL A   1      38.590  29.157  34.370  1.00  0.00     0.164 HD
ATOM     91  O   UNL A   1      37.836  30.935  35.817  1.00  0.00    -0.273 OA
BRANCH  89  92
ATOM     92  C   UNL A   1      37.711  32.295  33.820  1.00  0.00     0.174 C 
BRANCH  92  93
ATOM     93  N   UNL A   1      36.298  32.659  34.029  1.00  0.00    -0.343 N 
ATOM     94  C   UNL A   1      35.237  33.066  33.286  1.00  0.00     0.240 C 
ATOM     95  H   UNL A   1      36.054  32.588  34.981  1.00  0.00     0.164 HD
ATOM     96  O   UNL A   1      34.223  33.330  33.944  1.00  0.00    -0.273 OA
BRANCH  94  97
ATOM     97  C   UNL A   1      35.251  33.279  31.764  1.00  0.00     0.219 C 
BRANCH  97  98
ATOM     98  N   UNL A   1      34.045  33.956  31.349  1.00  0.00    -0.312 N 
ATOM     99  C   UNL A   1      33.678  34.400  30.124  1.00  0.00     0.407 C 
ATOM    100  H   UNL A   1      33.390  34.120  32.067  1.00  0.00     0.167 HD
ATOM    101  O   UNL A   1      32.691  35.125  30.035  1.00  0.00    -0.225 OA
BRANCH  99 102
ATOM    102  O   UNL A   1      34.511  34.044  29.124  1.00  0.00    -0.445 OA
BRANCH 102 103
ATOM    103  C   UNL A   1      33.920  33.288  28.050  1.00  0.00     0.270 C 
BRANCH 103 104
ATOM    104  C   UNL A   1      34.450  31.895  27.816  1.00  0.00    -0.011 A 
ATOM    105  C   UNL A   1      33.614  30.861  27.377  1.00  0.00     0.007 A 
ATOM    106  C   UNL A   1      35.793  31.598  28.102  1.00  0.00     0.007 A 
ATOM    107  C   UNL A   1      34.114  29.563  27.230  1.00  0.00     0.000 A 
ATOM    108  C   UNL A   1      36.296  30.309  27.932  1.00  0.00     0.000 A 
ATOM    109  C   UNL A   1      35.454  29.290  27.500  1.00  0.00     0.000 A 
ENDBRANCH 103 104
ENDBRANCH 102 103
ENDBRANCH  99 102
ENDBRANCH  97  98
ENDBRANCH  94  97
ENDBRANCH  92  93
BRANCH  92 110
ATOM    110  C   UNL A   1      38.721  33.463  33.813  1.00  0.00     0.015 C 
ATOM    111  C   UNL A   1      38.461  34.535  32.748  1.00  0.00     0.010 C 
ATOM    112  C   UNL A   1      38.789  34.154  35.181  1.00  0.00     0.010 C 
ENDBRANCH  92 110
ENDBRANCH  89  92
ENDBRANCH  86  88
ENDBRANCH   2  86
TORSDOF 26
ENDMDL
