MODEL 1
REMARK VINA RESULT:     -12.3      0.000      0.000
REMARK SMILES Cc1ccccc1OCC[NH+]1CCC(CC(=O)NCCCNC(=O)c2ccc(-c3c4nc(c(-c5cccc(S(=O)(=O)[O-])c5F)c5ccc([nH]5)c(-c5cccc(S(=O)(=O)[O-])c5F)c5nc(c(-c6cccc(S(=O)(=O)[O-])c6F)c6ccc3[nH]6)C=C5)C=C4)cc2)CC1
REMARK SMILES IDX 19 1 18 2 16 3 17 4 15 6 14 7 11 8 12 9 89 10 13 12 88 13
REMARK SMILES IDX 10 14 9 15 8 16 7 17 1 18 2 19 3 20 4 21 6 22 5 23 20 24
REMARK SMILES IDX 21 25 22 26 23 27 24 29 25 30 26 31 87 32 27 33 86 34 28 35
REMARK SMILES IDX 29 36 30 37 80 38 31 39 85 40 79 41 81 42 32 43 84 44 78 45
REMARK SMILES IDX 77 46 33 48 65 49 45 50 64 51 46 52 49 53 63 54 82 55 47 56
REMARK SMILES IDX 48 57 62 59 83 60 50 61 34 62 35 63 43 64 36 65 38 66 44 67
REMARK SMILES IDX 37 68 39 69 40 70 41 71 42 72 66 73 67 74 75 75 68 76 70 77
REMARK SMILES IDX 76 78 69 79 71 80 72 81 73 82 74 83 51 84 52 85 60 86 53 87
REMARK SMILES IDX 55 88 61 89 54 90 56 91 57 92 58 93 59 94
REMARK H PARENT 18 5 11 11 22 28 81 47 49 58
REMARK Flexibility Score: inf
ROOT
ATOM      1  C   UNL A   1      37.461  19.732  25.246  1.00  0.00     0.117 C 
ENDROOT
BRANCH   1   2
ATOM      2  N   UNL A   1      36.147  19.372  24.699  1.00  0.00    -0.356 N 
ATOM      3  C   UNL A   1      34.895  19.870  24.924  1.00  0.00     0.220 C 
ATOM      4  O   UNL A   1      33.928  19.289  24.427  1.00  0.00    -0.275 OA
ATOM      5  H   UNL A   1      36.173  18.633  24.048  1.00  0.00     0.163 HD
BRANCH   3   6
ATOM      6  C   UNL A   1      34.694  21.147  25.721  1.00  0.00     0.104 C 
BRANCH   6   7
ATOM      7  C   UNL A   1      34.374  22.404  24.846  1.00  0.00     0.009 C 
ATOM      8  N   UNL A   1      32.678  25.842  24.094  1.00  0.00    -0.332 N 
ATOM      9  C   UNL A   1      31.798  24.237  23.654  1.00  0.00     0.262 C 
ATOM     10  C   UNL A   1      34.327  25.779  24.946  1.00  0.00     0.262 C 
ATOM     11  H   UNL A   1      32.930  26.066  23.131  1.00  0.00     0.348 HD
ATOM     12  C   UNL A   1      32.498  22.513  24.275  1.00  0.00     0.066 C 
ATOM     13  C   UNL A   1      35.310  24.106  25.275  1.00  0.00     0.066 C 
BRANCH   8  14
ATOM     14  C   UNL A   1      31.862  26.938  24.562  1.00  0.00     0.304 C 
BRANCH  14  15
ATOM     15  C   UNL A   1      32.079  28.170  23.726  1.00  0.00     0.290 C 
BRANCH  15  16
ATOM     16  O   UNL A   1      31.261  28.212  22.560  1.00  0.00    -0.487 OA
BRANCH  16  17
ATOM     17  C   UNL A   1      29.971  28.718  22.661  1.00  0.00     0.122 A 
ATOM     18  C   UNL A   1      28.273  26.293  24.140  1.00  0.00     0.048 C 
ATOM     19  C   UNL A   1      28.677  28.086  23.167  1.00  0.00    -0.009 A 
ATOM     20  C   UNL A   1      27.667  29.084  22.719  1.00  0.00     0.007 A 
ATOM     21  C   UNL A   1      27.797  30.304  21.986  1.00  0.00     0.001 A 
ATOM     22  C   UNL A   1      30.087  29.961  21.922  1.00  0.00     0.047 A 
ATOM     23  C   UNL A   1      29.015  30.744  21.576  1.00  0.00     0.004 A 
ENDBRANCH  16  17
ENDBRANCH  15  16
ENDBRANCH  14  15
ENDBRANCH   8  14
ENDBRANCH   6   7
ENDBRANCH   3   6
ENDBRANCH   1   2
BRANCH   1  24
ATOM     24  C   UNL A   1      37.914  21.107  24.759  1.00  0.00     0.042 C 
BRANCH  24  25
ATOM     25  C   UNL A   1      38.277  22.165  25.790  1.00  0.00     0.118 C 
BRANCH  25  26
ATOM     26  N   UNL A   1      39.703  22.170  26.143  1.00  0.00    -0.352 N 
ATOM     27  C   UNL A   1      40.509  23.227  26.550  1.00  0.00     0.251 C 
ATOM     28  H   UNL A   1      40.154  21.296  26.083  1.00  0.00     0.163 HD
ATOM     29  O   UNL A   1      41.675  23.055  26.882  1.00  0.00    -0.269 OA
BRANCH  27  30
ATOM     30  C   UNL A   1      39.896  24.569  26.563  1.00  0.00     0.039 A 
ATOM     31  C   UNL A   1      40.680  25.613  26.061  1.00  0.00     0.014 A 
ATOM     32  C   UNL A   1      38.909  24.782  27.526  1.00  0.00     0.014 A 
ATOM     33  C   UNL A   1      40.728  26.804  26.770  1.00  0.00     0.010 A 
ATOM     34  C   UNL A   1      38.970  25.963  28.239  1.00  0.00     0.010 A 
ATOM     35  C   UNL A   1      39.969  26.904  27.933  1.00  0.00    -0.014 A 
BRANCH  35  36
ATOM     36  C   UNL A   1      40.200  27.923  28.941  1.00  0.00     0.031 A 
ATOM     37  C   UNL A   1      39.345  29.118  28.930  1.00  0.00     0.074 A 
ATOM     38  C   UNL A   1      41.125  27.763  29.914  1.00  0.00     0.049 A 
ATOM     39  N   UNL A   1      39.689  30.260  29.414  1.00  0.00    -0.248 NA
ATOM     40  C   UNL A   1      38.024  29.107  28.314  1.00  0.00     0.031 C 
ATOM     41  C   UNL A   1      41.195  28.489  31.180  1.00  0.00     0.029 A 
ATOM     42  N   UNL A   1      42.256  26.963  29.955  1.00  0.00    -0.354 N 
ATOM     43  C   UNL A   1      38.552  31.035  29.445  1.00  0.00     0.074 A 
ATOM     44  C   UNL A   1      37.574  30.314  28.663  1.00  0.00     0.031 C 
ATOM     45  C   UNL A   1      42.382  28.254  31.763  1.00  0.00     0.029 A 
ATOM     46  C   UNL A   1      43.200  27.520  30.816  1.00  0.00     0.049 A 
ATOM     47  H   UNL A   1      42.374  26.126  29.451  1.00  0.00     0.167 HD
ATOM     48  C   UNL A   1      38.493  32.102  30.291  1.00  0.00     0.034 A 
ATOM     49  C   UNL A   1      44.438  27.914  30.387  1.00  0.00     0.034 A 
ATOM     50  C   UNL A   1      39.744  32.243  31.051  1.00  0.00     0.049 A 
ATOM     51  C   UNL A   1      44.670  29.412  30.499  1.00  0.00     0.074 A 
ATOM     52  C   UNL A   1      40.118  31.808  32.314  1.00  0.00     0.029 A 
ATOM     53  N   UNL A   1      40.921  32.607  30.404  1.00  0.00    -0.354 N 
ATOM     54  N   UNL A   1      43.760  30.273  30.860  1.00  0.00    -0.248 NA
ATOM     55  C   UNL A   1      45.943  30.062  30.191  1.00  0.00     0.031 C 
ATOM     56  C   UNL A   1      41.533  31.861  32.402  1.00  0.00     0.029 A 
ATOM     57  C   UNL A   1      42.027  32.353  31.205  1.00  0.00     0.049 A 
ATOM     58  H   UNL A   1      40.964  32.994  29.499  1.00  0.00     0.167 HD
ATOM     59  C   UNL A   1      44.220  31.551  30.673  1.00  0.00     0.074 A 
ATOM     60  C   UNL A   1      45.627  31.359  30.358  1.00  0.00     0.031 C 
ATOM     61  C   UNL A   1      43.381  32.635  30.727  1.00  0.00     0.034 A 
BRANCH  48  62
ATOM     62  C   UNL A   1      37.171  32.719  30.709  1.00  0.00     0.023 A 
ATOM     63  C   UNL A   1      36.689  32.418  32.000  1.00  0.00     0.012 A 
ATOM     64  C   UNL A   1      36.323  33.501  29.893  1.00  0.00     0.148 A 
ATOM     65  C   UNL A   1      35.394  32.748  32.411  1.00  0.00     0.002 A 
ATOM     66  C   UNL A   1      35.000  33.755  30.267  1.00  0.00     0.091 A 
ATOM     67  F   UNL A   1      36.810  34.066  28.781  1.00  0.00    -0.205 F 
ATOM     68  C   UNL A   1      34.530  33.375  31.527  1.00  0.00     0.022 A 
BRANCH  66  69
ATOM     69  S   UNL A   1      33.795  34.442  29.116  1.00  0.00     0.127 S 
ATOM     70  O   UNL A   1      34.518  35.581  28.544  1.00  0.00    -0.237 OA
ATOM     71  O   UNL A   1      33.575  33.337  28.189  1.00  0.00    -0.237 OA
ATOM     72  O   UNL A   1      32.651  34.828  29.936  1.00  0.00    -0.744 OA
ENDBRANCH  66  69
ENDBRANCH  48  62
BRANCH  49  73
ATOM     73  C   UNL A   1      45.006  27.036  29.323  1.00  0.00     0.023 A 
ATOM     74  C   UNL A   1      45.359  25.717  29.698  1.00  0.00     0.012 A 
ATOM     75  C   UNL A   1      44.839  27.335  27.961  1.00  0.00     0.148 A 
ATOM     76  C   UNL A   1      45.400  24.691  28.753  1.00  0.00     0.002 A 
ATOM     77  C   UNL A   1      44.865  26.302  27.026  1.00  0.00     0.091 A 
ATOM     78  F   UNL A   1      44.606  28.605  27.605  1.00  0.00    -0.205 F 
ATOM     79  C   UNL A   1      45.105  24.976  27.425  1.00  0.00     0.022 A 
BRANCH  77  80
ATOM     80  S   UNL A   1      44.456  26.576  25.298  1.00  0.00     0.127 S 
ATOM     81  O   UNL A   1      45.781  26.737  24.707  1.00  0.00    -0.237 OA
ATOM     82  O   UNL A   1      43.776  25.332  24.941  1.00  0.00    -0.237 OA
ATOM     83  O   UNL A   1      43.599  27.752  25.290  1.00  0.00    -0.744 OA
ENDBRANCH  77  80
ENDBRANCH  49  73
BRANCH  61  84
ATOM     84  C   UNL A   1      43.742  34.065  30.338  1.00  0.00     0.023 A 
ATOM     85  C   UNL A   1      44.143  35.032  31.277  1.00  0.00     0.012 A 
ATOM     86  C   UNL A   1      43.801  34.458  28.972  1.00  0.00     0.148 A 
ATOM     87  C   UNL A   1      44.511  36.331  30.903  1.00  0.00     0.002 A 
ATOM     88  C   UNL A   1      44.288  35.709  28.598  1.00  0.00     0.091 A 
ATOM     89  F   UNL A   1      43.354  33.632  28.015  1.00  0.00    -0.205 F 
ATOM     90  C   UNL A   1      44.607  36.664  29.562  1.00  0.00     0.022 A 
BRANCH  88  91
ATOM     91  S   UNL A   1      44.667  36.087  26.880  1.00  0.00     0.127 S 
ATOM     92  O   UNL A   1      45.647  35.055  26.551  1.00  0.00    -0.237 OA
ATOM     93  O   UNL A   1      43.365  35.920  26.231  1.00  0.00    -0.237 OA
ATOM     94  O   UNL A   1      45.153  37.460  26.890  1.00  0.00    -0.744 OA
ENDBRANCH  88  91
ENDBRANCH  61  84
ENDBRANCH  35  36
ENDBRANCH  27  30
ENDBRANCH  25  26
ENDBRANCH  24  25
ENDBRANCH   1  24
TORSDOF 18
ENDMDL
MODEL 2
REMARK VINA RESULT:     -12.0      2.219      3.133
REMARK SMILES Cc1ccccc1OCC[NH+]1CCC(CC(=O)NCCCNC(=O)c2ccc(-c3c4nc(c(-c5cccc(S(=O)(=O)[O-])c5F)c5ccc([nH]5)c(-c5cccc(S(=O)(=O)[O-])c5F)c5nc(c(-c6cccc(S(=O)(=O)[O-])c6F)c6ccc3[nH]6)C=C5)C=C4)cc2)CC1
REMARK SMILES IDX 19 1 18 2 16 3 17 4 15 6 14 7 11 8 12 9 89 10 13 12 88 13
REMARK SMILES IDX 10 14 9 15 8 16 7 17 1 18 2 19 3 20 4 21 6 22 5 23 20 24
REMARK SMILES IDX 21 25 22 26 23 27 24 29 25 30 26 31 87 32 27 33 86 34 28 35
REMARK SMILES IDX 29 36 30 37 80 38 31 39 85 40 79 41 81 42 32 43 84 44 78 45
REMARK SMILES IDX 77 46 33 48 65 49 45 50 64 51 46 52 49 53 63 54 82 55 47 56
REMARK SMILES IDX 48 57 62 59 83 60 50 61 34 62 35 63 43 64 36 65 38 66 44 67
REMARK SMILES IDX 37 68 39 69 40 70 41 71 42 72 66 73 67 74 75 75 68 76 70 77
REMARK SMILES IDX 76 78 69 79 71 80 72 81 73 82 74 83 51 84 52 85 60 86 53 87
REMARK SMILES IDX 55 88 61 89 54 90 56 91 57 92 58 93 59 94
REMARK H PARENT 18 5 11 11 22 28 81 47 49 58
REMARK Flexibility Score: inf
ROOT
ATOM      1  C   UNL A   1      38.170  21.511  25.395  1.00  0.00     0.117 C 
ENDROOT
BRANCH   1   2
ATOM      2  N   UNL A   1      37.343  22.707  25.594  1.00  0.00    -0.356 N 
ATOM      3  C   UNL A   1      36.321  23.246  24.863  1.00  0.00     0.220 C 
ATOM      4  O   UNL A   1      35.879  24.350  25.186  1.00  0.00    -0.275 OA
ATOM      5  H   UNL A   1      37.566  23.217  26.406  1.00  0.00     0.163 HD
BRANCH   3   6
ATOM      6  C   UNL A   1      35.699  22.480  23.708  1.00  0.00     0.104 C 
BRANCH   6   7
ATOM      7  C   UNL A   1      34.145  22.623  23.609  1.00  0.00     0.009 C 
ATOM      8  N   UNL A   1      30.685  24.223  24.467  1.00  0.00    -0.332 N 
ATOM      9  C   UNL A   1      31.357  22.807  25.509  1.00  0.00     0.262 C 
ATOM     10  C   UNL A   1      31.707  24.897  23.070  1.00  0.00     0.262 C 
ATOM     11  H   UNL A   1      29.993  23.651  23.983  1.00  0.00     0.348 HD
ATOM     12  C   UNL A   1      33.202  22.182  25.274  1.00  0.00     0.066 C 
ATOM     13  C   UNL A   1      33.411  24.097  22.493  1.00  0.00     0.066 C 
BRANCH   8  14
ATOM     14  C   UNL A   1      29.946  25.258  25.153  1.00  0.00     0.304 C 
BRANCH  14  15
ATOM     15  C   UNL A   1      30.806  25.950  26.174  1.00  0.00     0.290 C 
BRANCH  15  16
ATOM     16  O   UNL A   1      30.793  27.371  26.053  1.00  0.00    -0.487 OA
BRANCH  16  17
ATOM     17  C   UNL A   1      31.668  27.976  25.160  1.00  0.00     0.122 A 
ATOM     18  C   UNL A   1      29.728  29.955  23.352  1.00  0.00     0.048 C 
ATOM     19  C   UNL A   1      31.421  28.935  23.999  1.00  0.00    -0.009 A 
ATOM     20  C   UNL A   1      32.750  28.936  23.328  1.00  0.00     0.007 A 
ATOM     21  C   UNL A   1      33.960  28.233  23.618  1.00  0.00     0.001 A 
ATOM     22  C   UNL A   1      32.906  27.275  25.444  1.00  0.00     0.047 A 
ATOM     23  C   UNL A   1      34.039  27.389  24.680  1.00  0.00     0.004 A 
ENDBRANCH  16  17
ENDBRANCH  15  16
ENDBRANCH  14  15
ENDBRANCH   8  14
ENDBRANCH   6   7
ENDBRANCH   3   6
ENDBRANCH   1   2
BRANCH   1  24
ATOM     24  C   UNL A   1      39.557  21.680  26.010  1.00  0.00     0.042 C 
BRANCH  24  25
ATOM     25  C   UNL A   1      39.711  22.559  27.242  1.00  0.00     0.118 C 
BRANCH  25  26
ATOM     26  N   UNL A   1      41.058  23.124  27.390  1.00  0.00    -0.352 N 
ATOM     27  C   UNL A   1      41.445  24.446  27.584  1.00  0.00     0.251 C 
ATOM     28  H   UNL A   1      41.795  22.473  27.345  1.00  0.00     0.163 HD
ATOM     29  O   UNL A   1      42.617  24.752  27.764  1.00  0.00    -0.269 OA
BRANCH  27  30
ATOM     30  C   UNL A   1      40.379  25.465  27.562  1.00  0.00     0.039 A 
ATOM     31  C   UNL A   1      40.558  26.532  26.676  1.00  0.00     0.014 A 
ATOM     32  C   UNL A   1      39.634  25.597  28.735  1.00  0.00     0.014 A 
ATOM     33  C   UNL A   1      40.299  27.817  27.126  1.00  0.00     0.010 A 
ATOM     34  C   UNL A   1      39.391  26.878  29.186  1.00  0.00     0.010 A 
ATOM     35  C   UNL A   1      39.846  27.974  28.432  1.00  0.00    -0.014 A 
BRANCH  35  36
ATOM     36  C   UNL A   1      39.886  29.244  29.134  1.00  0.00     0.031 A 
ATOM     37  C   UNL A   1      38.857  30.245  28.817  1.00  0.00     0.074 A 
ATOM     38  C   UNL A   1      40.794  29.493  30.105  1.00  0.00     0.049 A 
ATOM     39  N   UNL A   1      39.005  31.514  28.980  1.00  0.00    -0.248 NA
ATOM     40  C   UNL A   1      37.573  29.866  28.241  1.00  0.00     0.031 C 
ATOM     41  C   UNL A   1      40.711  30.527  31.133  1.00  0.00     0.029 A 
ATOM     42  N   UNL A   1      42.033  28.920  30.342  1.00  0.00    -0.354 N 
ATOM     43  C   UNL A   1      37.762  32.080  28.818  1.00  0.00     0.074 A 
ATOM     44  C   UNL A   1      36.932  31.035  28.265  1.00  0.00     0.031 C 
ATOM     45  C   UNL A   1      41.902  30.643  31.744  1.00  0.00     0.029 A 
ATOM     46  C   UNL A   1      42.852  29.824  31.016  1.00  0.00     0.049 A 
ATOM     47  H   UNL A   1      42.295  28.010  30.076  1.00  0.00     0.167 HD
ATOM     48  C   UNL A   1      37.512  33.308  29.353  1.00  0.00     0.034 A 
ATOM     49  C   UNL A   1      44.027  30.282  30.485  1.00  0.00     0.034 A 
ATOM     50  C   UNL A   1      38.702  33.839  30.036  1.00  0.00     0.049 A 
ATOM     51  C   UNL A   1      44.022  31.774  30.195  1.00  0.00     0.074 A 
ATOM     52  C   UNL A   1      39.099  33.815  31.365  1.00  0.00     0.029 A 
ATOM     53  N   UNL A   1      39.828  34.201  29.302  1.00  0.00    -0.354 N 
ATOM     54  N   UNL A   1      42.978  32.545  30.327  1.00  0.00    -0.248 NA
ATOM     55  C   UNL A   1      45.187  32.513  29.713  1.00  0.00     0.031 C 
ATOM     56  C   UNL A   1      40.485  34.111  31.420  1.00  0.00     0.029 A 
ATOM     57  C   UNL A   1      40.934  34.343  30.131  1.00  0.00     0.049 A 
ATOM     58  H   UNL A   1      39.839  34.340  28.328  1.00  0.00     0.167 HD
ATOM     59  C   UNL A   1      43.241  33.786  29.805  1.00  0.00     0.074 A 
ATOM     60  C   UNL A   1      44.669  33.742  29.536  1.00  0.00     0.031 C 
ATOM     61  C   UNL A   1      42.242  34.700  29.580  1.00  0.00     0.034 A 
BRANCH  48  62
ATOM     62  C   UNL A   1      36.098  33.797  29.609  1.00  0.00     0.023 A 
ATOM     63  C   UNL A   1      35.343  34.225  28.497  1.00  0.00     0.012 A 
ATOM     64  C   UNL A   1      35.488  33.953  30.874  1.00  0.00     0.148 A 
ATOM     65  C   UNL A   1      34.122  34.891  28.633  1.00  0.00     0.002 A 
ATOM     66  C   UNL A   1      34.312  34.695  31.019  1.00  0.00     0.091 A 
ATOM     67  F   UNL A   1      36.001  33.323  31.939  1.00  0.00    -0.205 F 
ATOM     68  C   UNL A   1      33.628  35.171  29.897  1.00  0.00     0.022 A 
BRANCH  66  69
ATOM     69  S   UNL A   1      33.694  35.206  32.633  1.00  0.00     0.127 S 
ATOM     70  O   UNL A   1      33.428  33.923  33.290  1.00  0.00    -0.237 OA
ATOM     71  O   UNL A   1      34.824  35.946  33.187  1.00  0.00    -0.237 OA
ATOM     72  O   UNL A   1      32.491  35.985  32.361  1.00  0.00    -0.744 OA
ENDBRANCH  66  69
ENDBRANCH  48  62
BRANCH  49  73
ATOM     73  C   UNL A   1      44.757  29.257  29.684  1.00  0.00     0.023 A 
ATOM     74  C   UNL A   1      45.210  28.106  30.372  1.00  0.00     0.012 A 
ATOM     75  C   UNL A   1      44.663  29.220  28.282  1.00  0.00     0.148 A 
ATOM     76  C   UNL A   1      45.423  26.904  29.695  1.00  0.00     0.002 A 
ATOM     77  C   UNL A   1      44.860  28.012  27.617  1.00  0.00     0.091 A 
ATOM     78  F   UNL A   1      44.332  30.341  27.630  1.00  0.00    -0.205 F 
ATOM     79  C   UNL A   1      45.201  26.847  28.324  1.00  0.00     0.022 A 
BRANCH  77  80
ATOM     80  S   UNL A   1      44.556  27.840  25.854  1.00  0.00     0.127 S 
ATOM     81  O   UNL A   1      44.501  26.390  25.707  1.00  0.00    -0.237 OA
ATOM     82  O   UNL A   1      43.270  28.519  25.696  1.00  0.00    -0.237 OA
ATOM     83  O   UNL A   1      45.673  28.513  25.207  1.00  0.00    -0.744 OA
ENDBRANCH  77  80
ENDBRANCH  49  73
BRANCH  61  84
ATOM     84  C   UNL A   1      42.390  36.016  28.824  1.00  0.00     0.023 A 
ATOM     85  C   UNL A   1      41.855  36.223  27.540  1.00  0.00     0.012 A 
ATOM     86  C   UNL A   1      42.985  37.151  29.443  1.00  0.00     0.148 A 
ATOM     87  C   UNL A   1      41.963  37.450  26.872  1.00  0.00     0.002 A 
ATOM     88  C   UNL A   1      42.977  38.401  28.826  1.00  0.00     0.091 A 
ATOM     89  F   UNL A   1      43.597  37.026  30.629  1.00  0.00    -0.205 F 
ATOM     90  C   UNL A   1      42.502  38.547  27.524  1.00  0.00     0.022 A 
BRANCH  88  91
ATOM     91  S   UNL A   1      43.430  39.890  29.729  1.00  0.00     0.127 S 
ATOM     92  O   UNL A   1      44.575  40.374  28.962  1.00  0.00    -0.237 OA
ATOM     93  O   UNL A   1      42.222  40.709  29.604  1.00  0.00    -0.237 OA
ATOM     94  O   UNL A   1      43.706  39.443  31.088  1.00  0.00    -0.744 OA
ENDBRANCH  88  91
ENDBRANCH  61  84
ENDBRANCH  35  36
ENDBRANCH  27  30
ENDBRANCH  25  26
ENDBRANCH  24  25
ENDBRANCH   1  24
TORSDOF 18
ENDMDL
MODEL 3
REMARK VINA RESULT:     -11.8      4.128     10.062
REMARK SMILES Cc1ccccc1OCC[NH+]1CCC(CC(=O)NCCCNC(=O)c2ccc(-c3c4nc(c(-c5cccc(S(=O)(=O)[O-])c5F)c5ccc([nH]5)c(-c5cccc(S(=O)(=O)[O-])c5F)c5nc(c(-c6cccc(S(=O)(=O)[O-])c6F)c6ccc3[nH]6)C=C5)C=C4)cc2)CC1
REMARK SMILES IDX 19 1 18 2 16 3 17 4 15 6 14 7 11 8 12 9 89 10 13 12 88 13
REMARK SMILES IDX 10 14 9 15 8 16 7 17 1 18 2 19 3 20 4 21 6 22 5 23 20 24
REMARK SMILES IDX 21 25 22 26 23 27 24 29 25 30 26 31 87 32 27 33 86 34 28 35
REMARK SMILES IDX 29 36 30 37 80 38 31 39 85 40 79 41 81 42 32 43 84 44 78 45
REMARK SMILES IDX 77 46 33 48 65 49 45 50 64 51 46 52 49 53 63 54 82 55 47 56
REMARK SMILES IDX 48 57 62 59 83 60 50 61 34 62 35 63 43 64 36 65 38 66 44 67
REMARK SMILES IDX 37 68 39 69 40 70 41 71 42 72 66 73 67 74 75 75 68 76 70 77
REMARK SMILES IDX 76 78 69 79 71 80 72 81 73 82 74 83 51 84 52 85 60 86 53 87
REMARK SMILES IDX 55 88 61 89 54 90 56 91 57 92 58 93 59 94
REMARK H PARENT 18 5 11 11 22 28 81 47 49 58
REMARK Flexibility Score: inf
ROOT
ATOM      1  C   UNL A   1      35.005  28.923  26.994  1.00  0.00     0.117 C 
ENDROOT
BRANCH   1   2
ATOM      2  N   UNL A   1      33.715  28.729  27.665  1.00  0.00    -0.356 N 
ATOM      3  C   UNL A   1      32.449  28.547  27.182  1.00  0.00     0.220 C 
ATOM      4  O   UNL A   1      31.506  28.543  27.975  1.00  0.00    -0.275 OA
ATOM      5  H   UNL A   1      33.771  28.730  28.649  1.00  0.00     0.163 HD
BRANCH   3   6
ATOM      6  C   UNL A   1      32.207  28.296  25.703  1.00  0.00     0.104 C 
BRANCH   6   7
ATOM      7  C   UNL A   1      32.322  26.795  25.282  1.00  0.00     0.009 C 
ATOM      8  N   UNL A   1      33.870  23.209  25.382  1.00  0.00    -0.332 N 
ATOM      9  C   UNL A   1      34.543  24.496  24.185  1.00  0.00     0.262 C 
ATOM     10  C   UNL A   1      32.511  23.674  26.558  1.00  0.00     0.262 C 
ATOM     11  H   UNL A   1      33.375  22.678  24.665  1.00  0.00     0.348 HD
ATOM     12  C   UNL A   1      33.977  26.370  24.313  1.00  0.00     0.066 C 
ATOM     13  C   UNL A   1      31.596  25.416  26.518  1.00  0.00     0.066 C 
BRANCH   8  14
ATOM     14  C   UNL A   1      34.819  22.296  25.976  1.00  0.00     0.304 C 
BRANCH  14  15
ATOM     15  C   UNL A   1      34.968  21.052  25.144  1.00  0.00     0.290 C 
BRANCH  15  16
ATOM     16  O   UNL A   1      34.202  19.953  25.632  1.00  0.00    -0.487 OA
BRANCH  16  17
ATOM     17  C   UNL A   1      33.639  19.069  24.720  1.00  0.00     0.122 A 
ATOM     18  C   UNL A   1      35.250  16.229  25.254  1.00  0.00     0.048 C 
ATOM     19  C   UNL A   1      33.975  17.620  24.380  1.00  0.00    -0.009 A 
ATOM     20  C   UNL A   1      33.174  17.413  23.143  1.00  0.00     0.007 A 
ATOM     21  C   UNL A   1      32.327  18.294  22.402  1.00  0.00     0.001 A 
ATOM     22  C   UNL A   1      32.771  19.948  23.960  1.00  0.00     0.047 A 
ATOM     23  C   UNL A   1      32.128  19.575  22.808  1.00  0.00     0.004 A 
ENDBRANCH  16  17
ENDBRANCH  15  16
ENDBRANCH  14  15
ENDBRANCH   8  14
ENDBRANCH   6   7
ENDBRANCH   3   6
ENDBRANCH   1   2
BRANCH   1  24
ATOM     24  C   UNL A   1      35.616  30.281  27.333  1.00  0.00     0.042 C 
BRANCH  24  25
ATOM     25  C   UNL A   1      35.371  30.870  28.714  1.00  0.00     0.118 C 
BRANCH  25  26
ATOM     26  N   UNL A   1      34.276  31.848  28.745  1.00  0.00    -0.352 N 
ATOM     27  C   UNL A   1      34.236  33.111  29.324  1.00  0.00     0.251 C 
ATOM     28  H   UNL A   1      33.449  31.568  28.288  1.00  0.00     0.163 HD
ATOM     29  O   UNL A   1      33.263  33.845  29.200  1.00  0.00    -0.269 OA
BRANCH  27  30
ATOM     30  C   UNL A   1      35.420  33.531  30.098  1.00  0.00     0.039 A 
ATOM     31  C   UNL A   1      36.459  34.119  29.370  1.00  0.00     0.014 A 
ATOM     32  C   UNL A   1      35.650  32.840  31.288  1.00  0.00     0.014 A 
ATOM     33  C   UNL A   1      37.761  33.719  29.633  1.00  0.00     0.010 A 
ATOM     34  C   UNL A   1      36.945  32.432  31.539  1.00  0.00     0.010 A 
ATOM     35  C   UNL A   1      37.964  32.770  30.631  1.00  0.00    -0.014 A 
BRANCH  35  36
ATOM     36  C   UNL A   1      39.195  32.010  30.759  1.00  0.00     0.031 A 
ATOM     37  C   UNL A   1      39.304  30.739  30.030  1.00  0.00     0.074 A 
ATOM     38  C   UNL A   1      40.247  32.476  31.468  1.00  0.00     0.049 A 
ATOM     39  N   UNL A   1      40.075  29.768  30.377  1.00  0.00    -0.248 NA
ATOM     40  C   UNL A   1      38.493  30.461  28.851  1.00  0.00     0.031 C 
ATOM     41  C   UNL A   1      41.635  32.030  31.365  1.00  0.00     0.029 A 
ATOM     42  N   UNL A   1      40.298  33.402  32.496  1.00  0.00    -0.354 N 
ATOM     43  C   UNL A   1      40.087  28.878  29.327  1.00  0.00     0.074 A 
ATOM     44  C   UNL A   1      39.018  29.301  28.452  1.00  0.00     0.031 C 
ATOM     45  C   UNL A   1      42.339  32.523  32.397  1.00  0.00     0.029 A 
ATOM     46  C   UNL A   1      41.402  33.151  33.309  1.00  0.00     0.049 A 
ATOM     47  H   UNL A   1      39.650  34.131  32.633  1.00  0.00     0.167 HD
ATOM     48  C   UNL A   1      41.124  28.002  29.206  1.00  0.00     0.034 A 
ATOM     49  C   UNL A   1      41.278  32.838  34.634  1.00  0.00     0.034 A 
ATOM     50  C   UNL A   1      42.091  28.174  30.300  1.00  0.00     0.049 A 
ATOM     51  C   UNL A   1      41.750  31.434  34.974  1.00  0.00     0.074 A 
ATOM     52  C   UNL A   1      43.273  28.894  30.392  1.00  0.00     0.029 A 
ATOM     53  N   UNL A   1      41.741  27.839  31.605  1.00  0.00    -0.354 N 
ATOM     54  N   UNL A   1      42.137  30.555  34.091  1.00  0.00    -0.248 NA
ATOM     55  C   UNL A   1      41.805  30.901  36.333  1.00  0.00     0.031 C 
ATOM     56  C   UNL A   1      43.601  29.038  31.764  1.00  0.00     0.029 A 
ATOM     57  C   UNL A   1      42.638  28.384  32.515  1.00  0.00     0.049 A 
ATOM     58  H   UNL A   1      40.962  27.288  31.850  1.00  0.00     0.167 HD
ATOM     59  C   UNL A   1      42.311  29.333  34.689  1.00  0.00     0.074 A 
ATOM     60  C   UNL A   1      42.197  29.634  36.108  1.00  0.00     0.031 C 
ATOM     61  C   UNL A   1      42.461  28.184  33.954  1.00  0.00     0.034 A 
BRANCH  48  62
ATOM     62  C   UNL A   1      41.445  27.320  27.889  1.00  0.00     0.023 A 
ATOM     63  C   UNL A   1      40.482  26.436  27.359  1.00  0.00     0.012 A 
ATOM     64  C   UNL A   1      42.663  27.415  27.177  1.00  0.00     0.148 A 
ATOM     65  C   UNL A   1      40.753  25.595  26.276  1.00  0.00     0.002 A 
ATOM     66  C   UNL A   1      42.968  26.514  26.152  1.00  0.00     0.091 A 
ATOM     67  F   UNL A   1      43.506  28.422  27.438  1.00  0.00    -0.205 F 
ATOM     68  C   UNL A   1      42.015  25.597  25.703  1.00  0.00     0.022 A 
BRANCH  66  69
ATOM     69  S   UNL A   1      44.628  26.378  25.461  1.00  0.00     0.127 S 
ATOM     70  O   UNL A   1      45.452  26.174  26.656  1.00  0.00    -0.237 OA
ATOM     71  O   UNL A   1      44.517  25.207  24.596  1.00  0.00    -0.237 OA
ATOM     72  O   UNL A   1      44.874  27.649  24.790  1.00  0.00    -0.744 OA
ENDBRANCH  66  69
ENDBRANCH  48  62
BRANCH  49  73
ATOM     73  C   UNL A   1      40.157  33.552  35.312  1.00  0.00     0.023 A 
ATOM     74  C   UNL A   1      38.869  32.975  35.206  1.00  0.00     0.012 A 
ATOM     75  C   UNL A   1      40.397  34.501  36.320  1.00  0.00     0.148 A 
ATOM     76  C   UNL A   1      37.889  33.227  36.167  1.00  0.00     0.002 A 
ATOM     77  C   UNL A   1      39.420  34.733  37.286  1.00  0.00     0.091 A 
ATOM     78  F   UNL A   1      41.585  35.118  36.353  1.00  0.00    -0.205 F 
ATOM     79  C   UNL A   1      38.183  34.069  37.233  1.00  0.00     0.022 A 
BRANCH  77  80
ATOM     80  S   UNL A   1      39.730  35.774  38.717  1.00  0.00     0.127 S 
ATOM     81  O   UNL A   1      38.909  35.126  39.734  1.00  0.00    -0.237 OA
ATOM     82  O   UNL A   1      41.172  35.616  38.906  1.00  0.00    -0.237 OA
ATOM     83  O   UNL A   1      39.321  37.111  38.313  1.00  0.00    -0.744 OA
ENDBRANCH  77  80
ENDBRANCH  49  73
BRANCH  61  84
ATOM     84  C   UNL A   1      42.458  26.764  34.506  1.00  0.00     0.023 A 
ATOM     85  C   UNL A   1      41.367  26.219  35.206  1.00  0.00     0.012 A 
ATOM     86  C   UNL A   1      43.533  25.871  34.232  1.00  0.00     0.148 A 
ATOM     87  C   UNL A   1      41.360  24.898  35.674  1.00  0.00     0.002 A 
ATOM     88  C   UNL A   1      43.466  24.525  34.588  1.00  0.00     0.091 A 
ATOM     89  F   UNL A   1      44.651  26.324  33.647  1.00  0.00    -0.205 F 
ATOM     90  C   UNL A   1      42.399  24.043  35.344  1.00  0.00     0.022 A 
BRANCH  88  91
ATOM     91  S   UNL A   1      44.663  23.335  33.965  1.00  0.00     0.127 S 
ATOM     92  O   UNL A   1      44.139  22.075  34.488  1.00  0.00    -0.237 OA
ATOM     93  O   UNL A   1      44.532  23.494  32.514  1.00  0.00    -0.237 OA
ATOM     94  O   UNL A   1      45.947  23.770  34.496  1.00  0.00    -0.744 OA
ENDBRANCH  88  91
ENDBRANCH  61  84
ENDBRANCH  35  36
ENDBRANCH  27  30
ENDBRANCH  25  26
ENDBRANCH  24  25
ENDBRANCH   1  24
TORSDOF 18
ENDMDL
