MODEL 1
REMARK VINA RESULT:     -13.1      0.000      0.000
REMARK SMILES CN(CC(=O)NCCCNC(=O)c1ccc(-c2c3nc(c(-c4cccc(S(=O)(=O)[O-])c4F)c4ccc([nH]4)c(-c4cccc(S(=O)(=O)[O-])c4F)c4nc(c(-c5cccc(S(=O)(=O)[O-])c5F)c5ccc2[nH]5)C=C4)C=C3)cc1)c1ncc(-c2nnnn2-c2ccccc2)c(-c2ccc(Cl)cc2)n1
REMARK SMILES IDX 7 1 6 2 4 3 5 4 3 6 2 7 1 8 76 9 77 10 99 11 78 12 91 13
REMARK SMILES IDX 79 14 92 15 93 16 98 17 94 18 97 19 95 20 96 21 80 22 81 23
REMARK SMILES IDX 84 24 82 25 83 26 85 27 86 28 90 29 87 30 89 31 88 32 8 33
REMARK SMILES IDX 9 34 10 35 11 36 12 38 13 39 14 40 75 41 15 42 74 43 16 44
REMARK SMILES IDX 17 45 18 46 68 47 19 48 73 49 67 50 69 51 20 52 72 53 66 54
REMARK SMILES IDX 65 55 21 57 53 58 33 59 52 60 34 61 37 62 51 63 70 64 35 65
REMARK SMILES IDX 36 66 50 68 71 69 38 70 22 71 23 72 31 73 24 74 26 75 32 76
REMARK SMILES IDX 25 77 27 78 28 79 29 80 30 81 54 82 55 83 63 84 56 85 58 86
REMARK SMILES IDX 64 87 57 88 59 89 60 90 61 91 62 92 39 93 40 94 48 95 41 96
REMARK SMILES IDX 43 97 49 98 42 99 44 100 45 101 46 102 47 103
REMARK H PARENT 6 5 10 37 69 56 37 67
REMARK Flexibility Score: inf
ROOT
ATOM      1  C   UNL A   1      31.912  30.616  26.359  1.00  0.00     0.117 C 
ENDROOT
BRANCH   1   2
ATOM      2  N   UNL A   1      31.107  30.225  25.220  1.00  0.00    -0.354 N 
ATOM      3  C   UNL A   1      31.449  29.416  24.170  1.00  0.00     0.239 C 
ATOM      4  O   UNL A   1      30.570  29.139  23.348  1.00  0.00    -0.273 OA
ATOM      5  H   UNL A   1      30.193  30.590  25.198  1.00  0.00     0.163 HD
BRANCH   3   6
ATOM      6  C   UNL A   1      32.837  28.764  24.117  1.00  0.00     0.219 C 
BRANCH   6   7
ATOM      7  N   UNL A   1      33.087  27.936  22.940  1.00  0.00    -0.335 N 
ATOM      8  C   UNL A   1      33.950  28.399  21.876  1.00  0.00     0.147 C 
BRANCH   7   9
ATOM      9  C   UNL A   1      32.923  26.574  23.069  1.00  0.00     0.226 A 
ATOM     10  N   UNL A   1      31.719  26.056  22.817  1.00  0.00    -0.221 NA
ATOM     11  N   UNL A   1      33.976  25.815  23.416  1.00  0.00    -0.212 NA
ATOM     12  C   UNL A   1      31.604  24.717  22.839  1.00  0.00     0.129 A 
ATOM     13  C   UNL A   1      33.827  24.466  23.474  1.00  0.00     0.087 A 
ATOM     14  C   UNL A   1      32.637  23.850  23.134  1.00  0.00     0.066 A 
BRANCH  13  15
ATOM     15  C   UNL A   1      35.015  23.744  23.963  1.00  0.00     0.001 A 
ATOM     16  C   UNL A   1      35.542  24.044  25.234  1.00  0.00     0.012 A 
ATOM     17  C   UNL A   1      35.649  22.743  23.208  1.00  0.00     0.012 A 
ATOM     18  C   UNL A   1      36.641  23.346  25.744  1.00  0.00     0.021 A 
ATOM     19  C   UNL A   1      36.749  22.042  23.715  1.00  0.00     0.021 A 
ATOM     20  C   UNL A   1      37.236  22.342  24.985  1.00  0.00     0.041 A 
ATOM     21  Cl  UNL A   1      38.575  21.471  25.623  1.00  0.00    -0.084 Cl
ENDBRANCH  13  15
BRANCH  14  22
ATOM     22  C   UNL A   1      32.408  22.416  23.115  1.00  0.00     0.190 A 
ATOM     23  N   UNL A   1      32.189  21.680  22.042  1.00  0.00    -0.108 NA
ATOM     24  N   UNL A   1      32.610  21.558  24.191  1.00  0.00    -0.193 N 
ATOM     25  N   UNL A   1      32.362  20.378  22.426  1.00  0.00    -0.023 NA
ATOM     26  N   UNL A   1      32.703  20.298  23.704  1.00  0.00    -0.040 NA
BRANCH  24  27
ATOM     27  C   UNL A   1      32.785  21.849  25.565  1.00  0.00     0.069 A 
ATOM     28  C   UNL A   1      31.938  22.777  26.183  1.00  0.00     0.028 A 
ATOM     29  C   UNL A   1      33.800  21.230  26.308  1.00  0.00     0.028 A 
ATOM     30  C   UNL A   1      32.081  23.047  27.546  1.00  0.00     0.002 A 
ATOM     31  C   UNL A   1      33.962  21.536  27.660  1.00  0.00     0.002 A 
ATOM     32  C   UNL A   1      33.096  22.432  28.280  1.00  0.00     0.000 A 
ENDBRANCH  24  27
ENDBRANCH  14  22
ENDBRANCH   7   9
ENDBRANCH   6   7
ENDBRANCH   3   6
ENDBRANCH   1   2
BRANCH   1  33
ATOM     33  C   UNL A   1      31.590  32.021  26.855  1.00  0.00     0.042 C 
BRANCH  33  34
ATOM     34  C   UNL A   1      32.780  32.750  27.477  1.00  0.00     0.118 C 
BRANCH  34  35
ATOM     35  N   UNL A   1      32.486  34.143  27.800  1.00  0.00    -0.352 N 
ATOM     36  C   UNL A   1      33.061  34.986  28.717  1.00  0.00     0.251 C 
ATOM     37  H   UNL A   1      31.756  34.542  27.274  1.00  0.00     0.163 HD
ATOM     38  O   UNL A   1      32.532  36.073  28.955  1.00  0.00    -0.269 OA
BRANCH  36  39
ATOM     39  C   UNL A   1      34.293  34.597  29.434  1.00  0.00     0.039 A 
ATOM     40  C   UNL A   1      34.195  34.176  30.764  1.00  0.00     0.014 A 
ATOM     41  C   UNL A   1      35.542  34.655  28.810  1.00  0.00     0.014 A 
ATOM     42  C   UNL A   1      35.335  33.725  31.436  1.00  0.00     0.010 A 
ATOM     43  C   UNL A   1      36.664  34.143  29.457  1.00  0.00     0.010 A 
ATOM     44  C   UNL A   1      36.568  33.654  30.768  1.00  0.00    -0.014 A 
BRANCH  44  45
ATOM     45  C   UNL A   1      37.748  33.000  31.391  1.00  0.00     0.031 A 
ATOM     46  C   UNL A   1      38.399  31.809  30.748  1.00  0.00     0.074 A 
ATOM     47  C   UNL A   1      38.161  33.419  32.605  1.00  0.00     0.049 A 
ATOM     48  N   UNL A   1      39.364  31.054  31.204  1.00  0.00    -0.248 NA
ATOM     49  C   UNL A   1      37.885  31.399  29.431  1.00  0.00     0.031 C 
ATOM     50  C   UNL A   1      37.569  34.523  33.363  1.00  0.00     0.029 A 
ATOM     51  N   UNL A   1      39.148  32.942  33.431  1.00  0.00    -0.354 N 
ATOM     52  C   UNL A   1      39.555  30.061  30.251  1.00  0.00     0.074 A 
ATOM     53  C   UNL A   1      38.587  30.297  29.200  1.00  0.00     0.031 C 
ATOM     54  C   UNL A   1      38.198  34.635  34.542  1.00  0.00     0.029 A 
ATOM     55  C   UNL A   1      39.205  33.585  34.647  1.00  0.00     0.049 A 
ATOM     56  H   UNL A   1      39.757  32.210  33.179  1.00  0.00     0.167 HD
ATOM     57  C   UNL A   1      40.464  29.057  30.242  1.00  0.00     0.034 A 
ATOM     58  C   UNL A   1      39.959  33.340  35.736  1.00  0.00     0.034 A 
ATOM     59  C   UNL A   1      41.440  28.841  31.278  1.00  0.00     0.049 A 
ATOM     60  C   UNL A   1      40.955  32.214  35.703  1.00  0.00     0.074 A 
ATOM     61  C   UNL A   1      42.461  27.905  31.313  1.00  0.00     0.029 A 
ATOM     62  N   UNL A   1      41.507  29.547  32.468  1.00  0.00    -0.354 N 
ATOM     63  N   UNL A   1      41.230  31.387  34.725  1.00  0.00    -0.248 NA
ATOM     64  C   UNL A   1      41.760  32.001  36.914  1.00  0.00     0.031 C 
ATOM     65  C   UNL A   1      43.117  28.019  32.543  1.00  0.00     0.029 A 
ATOM     66  C   UNL A   1      42.530  29.049  33.259  1.00  0.00     0.049 A 
ATOM     67  H   UNL A   1      40.914  30.293  32.715  1.00  0.00     0.167 HD
ATOM     68  C   UNL A   1      42.252  30.570  35.193  1.00  0.00     0.074 A 
ATOM     69  C   UNL A   1      42.569  31.024  36.532  1.00  0.00     0.031 C 
ATOM     70  C   UNL A   1      42.861  29.526  34.577  1.00  0.00     0.034 A 
BRANCH  57  71
ATOM     71  C   UNL A   1      40.472  28.127  29.057  1.00  0.00     0.023 A 
ATOM     72  C   UNL A   1      39.465  27.148  28.930  1.00  0.00     0.012 A 
ATOM     73  C   UNL A   1      41.430  28.269  28.033  1.00  0.00     0.148 A 
ATOM     74  C   UNL A   1      39.433  26.301  27.824  1.00  0.00     0.002 A 
ATOM     75  C   UNL A   1      41.364  27.452  26.912  1.00  0.00     0.091 A 
ATOM     76  F   UNL A   1      42.389  29.193  28.180  1.00  0.00    -0.205 F 
ATOM     77  C   UNL A   1      40.375  26.460  26.810  1.00  0.00     0.022 A 
BRANCH  75  78
ATOM     78  S   UNL A   1      42.481  27.627  25.516  1.00  0.00     0.127 S 
ATOM     79  O   UNL A   1      43.786  27.593  26.176  1.00  0.00    -0.237 OA
ATOM     80  O   UNL A   1      42.168  26.440  24.721  1.00  0.00    -0.237 OA
ATOM     81  O   UNL A   1      42.137  28.892  24.882  1.00  0.00    -0.744 OA
ENDBRANCH  75  78
ENDBRANCH  57  71
BRANCH  58  82
ATOM     82  C   UNL A   1      39.810  34.194  36.949  1.00  0.00     0.023 A 
ATOM     83  C   UNL A   1      40.250  35.531  36.916  1.00  0.00     0.012 A 
ATOM     84  C   UNL A   1      39.208  33.695  38.120  1.00  0.00     0.148 A 
ATOM     85  C   UNL A   1      40.122  36.347  38.041  1.00  0.00     0.002 A 
ATOM     86  C   UNL A   1      39.027  34.529  39.215  1.00  0.00     0.091 A 
ATOM     87  F   UNL A   1      38.804  32.416  38.132  1.00  0.00    -0.205 F 
ATOM     88  C   UNL A   1      39.501  35.850  39.186  1.00  0.00     0.022 A 
BRANCH  86  89
ATOM     89  S   UNL A   1      38.114  34.015  40.673  1.00  0.00     0.127 S 
ATOM     90  O   UNL A   1      39.066  33.118  41.322  1.00  0.00    -0.237 OA
ATOM     91  O   UNL A   1      37.900  35.290  41.358  1.00  0.00    -0.237 OA
ATOM     92  O   UNL A   1      36.895  33.389  40.178  1.00  0.00    -0.744 OA
ENDBRANCH  86  89
ENDBRANCH  58  82
BRANCH  70  93
ATOM     93  C   UNL A   1      43.941  28.799  35.337  1.00  0.00     0.023 A 
ATOM     94  C   UNL A   1      45.263  29.287  35.309  1.00  0.00     0.012 A 
ATOM     95  C   UNL A   1      43.633  27.682  36.137  1.00  0.00     0.148 A 
ATOM     96  C   UNL A   1      46.267  28.656  36.041  1.00  0.00     0.002 A 
ATOM     97  C   UNL A   1      44.630  27.088  36.904  1.00  0.00     0.091 A 
ATOM     98  F   UNL A   1      42.373  27.225  36.139  1.00  0.00    -0.205 F 
ATOM     99  C   UNL A   1      45.949  27.565  36.847  1.00  0.00     0.022 A 
BRANCH  97 100
ATOM    100  S   UNL A   1      44.302  25.738  38.041  1.00  0.00     0.127 S 
ATOM    101  O   UNL A   1      45.595  25.056  38.076  1.00  0.00    -0.237 OA
ATOM    102  O   UNL A   1      43.953  26.449  39.271  1.00  0.00    -0.237 OA
ATOM    103  O   UNL A   1      43.213  24.968  37.454  1.00  0.00    -0.744 OA
ENDBRANCH  97 100
ENDBRANCH  70  93
ENDBRANCH  44  45
ENDBRANCH  36  39
ENDBRANCH  34  35
ENDBRANCH  33  34
ENDBRANCH   1  33
TORSDOF 18
ENDMDL
MODEL 2
REMARK VINA RESULT:     -13.0      1.485      2.469
REMARK SMILES CN(CC(=O)NCCCNC(=O)c1ccc(-c2c3nc(c(-c4cccc(S(=O)(=O)[O-])c4F)c4ccc([nH]4)c(-c4cccc(S(=O)(=O)[O-])c4F)c4nc(c(-c5cccc(S(=O)(=O)[O-])c5F)c5ccc2[nH]5)C=C4)C=C3)cc1)c1ncc(-c2nnnn2-c2ccccc2)c(-c2ccc(Cl)cc2)n1
REMARK SMILES IDX 7 1 6 2 4 3 5 4 3 6 2 7 1 8 76 9 77 10 99 11 78 12 91 13
REMARK SMILES IDX 79 14 92 15 93 16 98 17 94 18 97 19 95 20 96 21 80 22 81 23
REMARK SMILES IDX 84 24 82 25 83 26 85 27 86 28 90 29 87 30 89 31 88 32 8 33
REMARK SMILES IDX 9 34 10 35 11 36 12 38 13 39 14 40 75 41 15 42 74 43 16 44
REMARK SMILES IDX 17 45 18 46 68 47 19 48 73 49 67 50 69 51 20 52 72 53 66 54
REMARK SMILES IDX 65 55 21 57 53 58 33 59 52 60 34 61 37 62 51 63 70 64 35 65
REMARK SMILES IDX 36 66 50 68 71 69 38 70 22 71 23 72 31 73 24 74 26 75 32 76
REMARK SMILES IDX 25 77 27 78 28 79 29 80 30 81 54 82 55 83 63 84 56 85 58 86
REMARK SMILES IDX 64 87 57 88 59 89 60 90 61 91 62 92 39 93 40 94 48 95 41 96
REMARK SMILES IDX 43 97 49 98 42 99 44 100 45 101 46 102 47 103
REMARK H PARENT 6 5 10 37 69 56 37 67
REMARK Flexibility Score: inf
ROOT
ATOM      1  C   UNL A   1      32.136  29.982  25.322  1.00  0.00     0.117 C 
ENDROOT
BRANCH   1   2
ATOM      2  N   UNL A   1      31.004  29.819  24.432  1.00  0.00    -0.354 N 
ATOM      3  C   UNL A   1      30.928  29.095  23.274  1.00  0.00     0.239 C 
ATOM      4  O   UNL A   1      29.827  29.018  22.716  1.00  0.00    -0.273 OA
ATOM      5  H   UNL A   1      30.183  30.292  24.696  1.00  0.00     0.163 HD
BRANCH   3   6
ATOM      6  C   UNL A   1      32.137  28.289  22.784  1.00  0.00     0.219 C 
BRANCH   6   7
ATOM      7  N   UNL A   1      31.884  26.869  22.556  1.00  0.00    -0.335 N 
ATOM      8  C   UNL A   1      31.774  26.339  21.215  1.00  0.00     0.147 C 
BRANCH   7   9
ATOM      9  C   UNL A   1      32.244  25.987  23.553  1.00  0.00     0.226 A 
ATOM     10  N   UNL A   1      32.695  26.488  24.705  1.00  0.00    -0.221 NA
ATOM     11  N   UNL A   1      32.107  24.667  23.345  1.00  0.00    -0.212 NA
ATOM     12  C   UNL A   1      32.935  25.621  25.705  1.00  0.00     0.129 A 
ATOM     13  C   UNL A   1      32.397  23.806  24.355  1.00  0.00     0.087 A 
ATOM     14  C   UNL A   1      32.777  24.253  25.606  1.00  0.00     0.066 A 
BRANCH  13  15
ATOM     15  C   UNL A   1      32.310  22.383  23.983  1.00  0.00     0.001 A 
ATOM     16  C   UNL A   1      32.309  22.013  22.625  1.00  0.00     0.012 A 
ATOM     17  C   UNL A   1      32.239  21.359  24.943  1.00  0.00     0.012 A 
ATOM     18  C   UNL A   1      32.273  20.669  22.241  1.00  0.00     0.021 A 
ATOM     19  C   UNL A   1      32.203  20.013  24.563  1.00  0.00     0.021 A 
ATOM     20  C   UNL A   1      32.227  19.673  23.213  1.00  0.00     0.041 A 
ATOM     21  Cl  UNL A   1      32.203  18.020  22.737  1.00  0.00    -0.084 Cl
ENDBRANCH  13  15
BRANCH  14  22
ATOM     22  C   UNL A   1      33.051  23.407  26.754  1.00  0.00     0.190 A 
ATOM     23  N   UNL A   1      32.205  23.121  27.726  1.00  0.00    -0.108 NA
ATOM     24  N   UNL A   1      34.163  22.583  26.895  1.00  0.00    -0.193 N 
ATOM     25  N   UNL A   1      32.738  22.055  28.398  1.00  0.00    -0.023 NA
ATOM     26  N   UNL A   1      33.879  21.665  27.849  1.00  0.00    -0.040 NA
BRANCH  24  27
ATOM     27  C   UNL A   1      35.378  22.565  26.171  1.00  0.00     0.069 A 
ATOM     28  C   UNL A   1      35.746  21.408  25.473  1.00  0.00     0.028 A 
ATOM     29  C   UNL A   1      36.220  23.687  26.153  1.00  0.00     0.028 A 
ATOM     30  C   UNL A   1      36.927  21.393  24.728  1.00  0.00     0.002 A 
ATOM     31  C   UNL A   1      37.419  23.648  25.440  1.00  0.00     0.002 A 
ATOM     32  C   UNL A   1      37.765  22.509  24.717  1.00  0.00     0.000 A 
ENDBRANCH  24  27
ENDBRANCH  14  22
ENDBRANCH   7   9
ENDBRANCH   6   7
ENDBRANCH   3   6
ENDBRANCH   1   2
BRANCH   1  33
ATOM     33  C   UNL A   1      31.788  30.766  26.583  1.00  0.00     0.042 C 
BRANCH  33  34
ATOM     34  C   UNL A   1      32.957  31.556  27.168  1.00  0.00     0.118 C 
BRANCH  34  35
ATOM     35  N   UNL A   1      32.647  32.971  27.355  1.00  0.00    -0.352 N 
ATOM     36  C   UNL A   1      33.175  33.891  28.225  1.00  0.00     0.251 C 
ATOM     37  H   UNL A   1      31.945  33.321  26.760  1.00  0.00     0.163 HD
ATOM     38  O   UNL A   1      32.635  34.992  28.343  1.00  0.00    -0.269 OA
BRANCH  36  39
ATOM     39  C   UNL A   1      34.369  33.569  29.034  1.00  0.00     0.039 A 
ATOM     40  C   UNL A   1      34.217  32.771  30.173  1.00  0.00     0.014 A 
ATOM     41  C   UNL A   1      35.630  34.058  28.687  1.00  0.00     0.014 A 
ATOM     42  C   UNL A   1      35.343  32.385  30.905  1.00  0.00     0.010 A 
ATOM     43  C   UNL A   1      36.757  33.619  29.378  1.00  0.00     0.010 A 
ATOM     44  C   UNL A   1      36.627  32.763  30.481  1.00  0.00    -0.014 A 
BRANCH  44  45
ATOM     45  C   UNL A   1      37.848  32.210  31.123  1.00  0.00     0.031 A 
ATOM     46  C   UNL A   1      38.580  31.047  30.517  1.00  0.00     0.074 A 
ATOM     47  C   UNL A   1      38.228  32.693  32.324  1.00  0.00     0.049 A 
ATOM     48  N   UNL A   1      39.593  30.374  30.996  1.00  0.00    -0.248 NA
ATOM     49  C   UNL A   1      38.098  30.563  29.213  1.00  0.00     0.031 C 
ATOM     50  C   UNL A   1      37.560  33.777  33.049  1.00  0.00     0.029 A 
ATOM     51  N   UNL A   1      39.244  32.309  33.165  1.00  0.00    -0.354 N 
ATOM     52  C   UNL A   1      39.853  29.369  30.075  1.00  0.00     0.074 A 
ATOM     53  C   UNL A   1      38.874  29.506  29.016  1.00  0.00     0.031 C 
ATOM     54  C   UNL A   1      38.177  33.967  34.224  1.00  0.00     0.029 A 
ATOM     55  C   UNL A   1      39.254  32.991  34.361  1.00  0.00     0.049 A 
ATOM     56  H   UNL A   1      39.901  31.614  32.935  1.00  0.00     0.167 HD
ATOM     57  C   UNL A   1      40.829  28.429  30.096  1.00  0.00     0.034 A 
ATOM     58  C   UNL A   1      40.020  32.832  35.457  1.00  0.00     0.034 A 
ATOM     59  C   UNL A   1      41.816  28.311  31.138  1.00  0.00     0.049 A 
ATOM     60  C   UNL A   1      41.090  31.776  35.458  1.00  0.00     0.074 A 
ATOM     61  C   UNL A   1      42.897  27.449  31.202  1.00  0.00     0.029 A 
ATOM     62  N   UNL A   1      41.831  29.056  32.306  1.00  0.00    -0.354 N 
ATOM     63  N   UNL A   1      41.424  30.940  34.506  1.00  0.00    -0.248 NA
ATOM     64  C   UNL A   1      41.905  31.656  36.676  1.00  0.00     0.031 C 
ATOM     65  C   UNL A   1      43.541  27.645  32.428  1.00  0.00     0.029 A 
ATOM     66  C   UNL A   1      42.884  28.653  33.113  1.00  0.00     0.049 A 
ATOM     67  H   UNL A   1      41.188  29.768  32.531  1.00  0.00     0.167 HD
ATOM     68  C   UNL A   1      42.498  30.210  34.999  1.00  0.00     0.074 A 
ATOM     69  C   UNL A   1      42.781  30.724  36.324  1.00  0.00     0.031 C 
ATOM     70  C   UNL A   1      43.178  29.192  34.415  1.00  0.00     0.034 A 
BRANCH  57  71
ATOM     71  C   UNL A   1      40.903  27.466  28.939  1.00  0.00     0.023 A 
ATOM     72  C   UNL A   1      39.991  26.394  28.863  1.00  0.00     0.012 A 
ATOM     73  C   UNL A   1      41.826  27.664  27.893  1.00  0.00     0.148 A 
ATOM     74  C   UNL A   1      40.019  25.513  27.784  1.00  0.00     0.002 A 
ATOM     75  C   UNL A   1      41.817  26.809  26.798  1.00  0.00     0.091 A 
ATOM     76  F   UNL A   1      42.697  28.678  27.991  1.00  0.00    -0.205 F 
ATOM     77  C   UNL A   1      40.924  25.726  26.747  1.00  0.00     0.022 A 
BRANCH  75  78
ATOM     78  S   UNL A   1      42.888  27.042  25.375  1.00  0.00     0.127 S 
ATOM     79  O   UNL A   1      42.273  28.202  24.730  1.00  0.00    -0.237 OA
ATOM     80  O   UNL A   1      44.181  27.308  26.003  1.00  0.00    -0.237 OA
ATOM     81  O   UNL A   1      42.823  25.801  24.616  1.00  0.00    -0.744 OA
ENDBRANCH  75  78
ENDBRANCH  57  71
BRANCH  58  82
ATOM     82  C   UNL A   1      39.810  33.710  36.643  1.00  0.00     0.023 A 
ATOM     83  C   UNL A   1      40.230  35.053  36.598  1.00  0.00     0.012 A 
ATOM     84  C   UNL A   1      39.171  33.228  37.801  1.00  0.00     0.148 A 
ATOM     85  C   UNL A   1      40.045  35.891  37.697  1.00  0.00     0.002 A 
ATOM     86  C   UNL A   1      38.934  34.083  38.869  1.00  0.00     0.091 A 
ATOM     87  F   UNL A   1      38.787  31.942  37.827  1.00  0.00    -0.205 F 
ATOM     88  C   UNL A   1      39.388  35.410  38.828  1.00  0.00     0.022 A 
BRANCH  86  89
ATOM     89  S   UNL A   1      37.973  33.585  40.302  1.00  0.00     0.127 S 
ATOM     90  O   UNL A   1      36.751  33.082  39.684  1.00  0.00    -0.237 OA
ATOM     91  O   UNL A   1      38.832  32.562  40.898  1.00  0.00    -0.237 OA
ATOM     92  O   UNL A   1      37.821  34.786  41.114  1.00  0.00    -0.744 OA
ENDBRANCH  86  89
ENDBRANCH  58  82
BRANCH  70  93
ATOM     93  C   UNL A   1      44.303  28.564  35.198  1.00  0.00     0.023 A 
ATOM     94  C   UNL A   1      45.618  29.045  35.037  1.00  0.00     0.012 A 
ATOM     95  C   UNL A   1      44.049  27.552  36.143  1.00  0.00     0.148 A 
ATOM     96  C   UNL A   1      46.666  28.508  35.784  1.00  0.00     0.002 A 
ATOM     97  C   UNL A   1      45.090  27.057  36.921  1.00  0.00     0.091 A 
ATOM     98  F   UNL A   1      42.793  27.098  36.271  1.00  0.00    -0.205 F 
ATOM     99  C   UNL A   1      46.401  27.525  36.733  1.00  0.00     0.022 A 
BRANCH  97 100
ATOM    100  S   UNL A   1      44.834  25.856  38.231  1.00  0.00     0.127 S 
ATOM    101  O   UNL A   1      43.889  26.558  39.099  1.00  0.00    -0.237 OA
ATOM    102  O   UNL A   1      44.267  24.721  37.502  1.00  0.00    -0.237 OA
ATOM    103  O   UNL A   1      46.145  25.610  38.816  1.00  0.00    -0.744 OA
ENDBRANCH  97 100
ENDBRANCH  70  93
ENDBRANCH  44  45
ENDBRANCH  36  39
ENDBRANCH  34  35
ENDBRANCH  33  34
ENDBRANCH   1  33
TORSDOF 18
ENDMDL
MODEL 3
REMARK VINA RESULT:     -12.2      1.354      7.248
REMARK SMILES CN(CC(=O)NCCCNC(=O)c1ccc(-c2c3nc(c(-c4cccc(S(=O)(=O)[O-])c4F)c4ccc([nH]4)c(-c4cccc(S(=O)(=O)[O-])c4F)c4nc(c(-c5cccc(S(=O)(=O)[O-])c5F)c5ccc2[nH]5)C=C4)C=C3)cc1)c1ncc(-c2nnnn2-c2ccccc2)c(-c2ccc(Cl)cc2)n1
REMARK SMILES IDX 7 1 6 2 4 3 5 4 3 6 2 7 1 8 76 9 77 10 99 11 78 12 91 13
REMARK SMILES IDX 79 14 92 15 93 16 98 17 94 18 97 19 95 20 96 21 80 22 81 23
REMARK SMILES IDX 84 24 82 25 83 26 85 27 86 28 90 29 87 30 89 31 88 32 8 33
REMARK SMILES IDX 9 34 10 35 11 36 12 38 13 39 14 40 75 41 15 42 74 43 16 44
REMARK SMILES IDX 17 45 18 46 68 47 19 48 73 49 67 50 69 51 20 52 72 53 66 54
REMARK SMILES IDX 65 55 21 57 53 58 33 59 52 60 34 61 37 62 51 63 70 64 35 65
REMARK SMILES IDX 36 66 50 68 71 69 38 70 22 71 23 72 31 73 24 74 26 75 32 76
REMARK SMILES IDX 25 77 27 78 28 79 29 80 30 81 54 82 55 83 63 84 56 85 58 86
REMARK SMILES IDX 64 87 57 88 59 89 60 90 61 91 62 92 39 93 40 94 48 95 41 96
REMARK SMILES IDX 43 97 49 98 42 99 44 100 45 101 46 102 47 103
REMARK H PARENT 6 5 10 37 69 56 37 67
REMARK Flexibility Score: inf
ROOT
ATOM      1  C   UNL A   1      31.884  30.515  26.492  1.00  0.00     0.117 C 
ENDROOT
BRANCH   1   2
ATOM      2  N   UNL A   1      31.048  30.039  25.408  1.00  0.00    -0.354 N 
ATOM      3  C   UNL A   1      31.406  29.288  24.321  1.00  0.00     0.239 C 
ATOM      4  O   UNL A   1      30.506  28.913  23.561  1.00  0.00    -0.273 OA
ATOM      5  H   UNL A   1      30.097  30.288  25.462  1.00  0.00     0.163 HD
BRANCH   3   6
ATOM      6  C   UNL A   1      32.854  28.813  24.153  1.00  0.00     0.219 C 
BRANCH   6   7
ATOM      7  N   UNL A   1      33.103  27.993  22.969  1.00  0.00    -0.335 N 
ATOM      8  C   UNL A   1      33.976  28.458  21.914  1.00  0.00     0.147 C 
BRANCH   7   9
ATOM      9  C   UNL A   1      32.926  26.631  23.086  1.00  0.00     0.226 A 
ATOM     10  N   UNL A   1      31.731  26.122  22.778  1.00  0.00    -0.221 NA
ATOM     11  N   UNL A   1      33.958  25.865  23.476  1.00  0.00    -0.212 NA
ATOM     12  C   UNL A   1      31.608  24.783  22.789  1.00  0.00     0.129 A 
ATOM     13  C   UNL A   1      33.799  24.516  23.522  1.00  0.00     0.087 A 
ATOM     14  C   UNL A   1      32.622  23.909  23.127  1.00  0.00     0.066 A 
BRANCH  13  15
ATOM     15  C   UNL A   1      34.959  23.786  24.061  1.00  0.00     0.001 A 
ATOM     16  C   UNL A   1      35.608  22.818  23.271  1.00  0.00     0.012 A 
ATOM     17  C   UNL A   1      35.464  24.028  25.350  1.00  0.00     0.012 A 
ATOM     18  C   UNL A   1      36.738  22.142  23.738  1.00  0.00     0.021 A 
ATOM     19  C   UNL A   1      36.596  23.352  25.821  1.00  0.00     0.021 A 
ATOM     20  C   UNL A   1      37.233  22.417  25.010  1.00  0.00     0.041 A 
ATOM     21  Cl  UNL A   1      38.636  21.596  25.574  1.00  0.00    -0.084 Cl
ENDBRANCH  13  15
BRANCH  14  22
ATOM     22  C   UNL A   1      32.386  22.476  23.092  1.00  0.00     0.190 A 
ATOM     23  N   UNL A   1      32.193  21.749  22.007  1.00  0.00    -0.108 NA
ATOM     24  N   UNL A   1      32.553  21.610  24.167  1.00  0.00    -0.193 N 
ATOM     25  N   UNL A   1      32.349  20.443  22.387  1.00  0.00    -0.023 NA
ATOM     26  N   UNL A   1      32.654  20.353  23.673  1.00  0.00    -0.040 NA
BRANCH  24  27
ATOM     27  C   UNL A   1      32.691  21.891  25.546  1.00  0.00     0.069 A 
ATOM     28  C   UNL A   1      33.672  21.223  26.290  1.00  0.00     0.028 A 
ATOM     29  C   UNL A   1      31.850  22.820  26.178  1.00  0.00     0.028 A 
ATOM     30  C   UNL A   1      33.837  21.518  27.644  1.00  0.00     0.002 A 
ATOM     31  C   UNL A   1      31.996  23.078  27.542  1.00  0.00     0.002 A 
ATOM     32  C   UNL A   1      32.996  22.439  28.270  1.00  0.00     0.000 A 
ENDBRANCH  24  27
ENDBRANCH  14  22
ENDBRANCH   7   9
ENDBRANCH   6   7
ENDBRANCH   3   6
ENDBRANCH   1   2
BRANCH   1  33
ATOM     33  C   UNL A   1      31.861  32.033  26.632  1.00  0.00     0.042 C 
BRANCH  33  34
ATOM     34  C   UNL A   1      33.021  32.600  27.447  1.00  0.00     0.118 C 
BRANCH  34  35
ATOM     35  N   UNL A   1      32.819  33.997  27.825  1.00  0.00    -0.352 N 
ATOM     36  C   UNL A   1      33.364  34.731  28.847  1.00  0.00     0.251 C 
ATOM     37  H   UNL A   1      32.189  34.491  27.251  1.00  0.00     0.163 HD
ATOM     38  O   UNL A   1      32.911  35.849  29.097  1.00  0.00    -0.269 OA
BRANCH  36  39
ATOM     39  C   UNL A   1      34.471  34.189  29.662  1.00  0.00     0.039 A 
ATOM     40  C   UNL A   1      34.165  33.454  30.812  1.00  0.00     0.014 A 
ATOM     41  C   UNL A   1      35.804  34.410  29.308  1.00  0.00     0.014 A 
ATOM     42  C   UNL A   1      35.192  32.862  31.552  1.00  0.00     0.010 A 
ATOM     43  C   UNL A   1      36.822  33.764  30.007  1.00  0.00     0.010 A 
ATOM     44  C   UNL A   1      36.525  32.968  31.123  1.00  0.00    -0.014 A 
BRANCH  44  45
ATOM     45  C   UNL A   1      37.611  32.191  31.775  1.00  0.00     0.031 A 
ATOM     46  C   UNL A   1      38.186  32.626  33.093  1.00  0.00     0.074 A 
ATOM     47  C   UNL A   1      38.157  31.150  31.113  1.00  0.00     0.049 A 
ATOM     48  N   UNL A   1      39.204  32.131  33.748  1.00  0.00    -0.248 NA
ATOM     49  C   UNL A   1      37.551  33.780  33.749  1.00  0.00     0.031 C 
ATOM     50  C   UNL A   1      37.730  30.670  29.796  1.00  0.00     0.029 A 
ATOM     51  N   UNL A   1      39.211  30.333  31.437  1.00  0.00    -0.354 N 
ATOM     52  C   UNL A   1      39.355  32.927  34.876  1.00  0.00     0.074 A 
ATOM     53  C   UNL A   1      38.336  33.954  34.804  1.00  0.00     0.031 C 
ATOM     54  C   UNL A   1      38.517  29.650  29.423  1.00  0.00     0.029 A 
ATOM     55  C   UNL A   1      39.532  29.431  30.448  1.00  0.00     0.049 A 
ATOM     56  H   UNL A   1      39.692  30.387  32.295  1.00  0.00     0.167 HD
ATOM     57  C   UNL A   1      40.245  32.804  35.889  1.00  0.00     0.034 A 
ATOM     58  C   UNL A   1      40.546  28.549  30.358  1.00  0.00     0.034 A 
ATOM     59  C   UNL A   1      41.241  31.767  35.969  1.00  0.00     0.049 A 
ATOM     60  C   UNL A   1      41.526  28.438  31.493  1.00  0.00     0.074 A 
ATOM     61  C   UNL A   1      42.128  31.507  37.000  1.00  0.00     0.029 A 
ATOM     62  N   UNL A   1      41.499  30.835  34.977  1.00  0.00    -0.354 N 
ATOM     63  N   UNL A   1      41.552  29.095  32.626  1.00  0.00    -0.248 NA
ATOM     64  C   UNL A   1      42.604  27.449  31.347  1.00  0.00     0.031 C 
ATOM     65  C   UNL A   1      42.951  30.444  36.612  1.00  0.00     0.029 A 
ATOM     66  C   UNL A   1      42.553  30.018  35.355  1.00  0.00     0.049 A 
ATOM     67  H   UNL A   1      41.007  30.763  34.127  1.00  0.00     0.167 HD
ATOM     68  C   UNL A   1      42.632  28.586  33.337  1.00  0.00     0.074 A 
ATOM     69  C   UNL A   1      43.217  27.543  32.518  1.00  0.00     0.031 C 
ATOM     70  C   UNL A   1      43.109  28.962  34.550  1.00  0.00     0.034 A 
BRANCH  57  71
ATOM     71  C   UNL A   1      40.168  33.799  37.018  1.00  0.00     0.023 A 
ATOM     72  C   UNL A   1      39.063  33.779  37.892  1.00  0.00     0.012 A 
ATOM     73  C   UNL A   1      41.221  34.704  37.256  1.00  0.00     0.148 A 
ATOM     74  C   UNL A   1      38.989  34.667  38.964  1.00  0.00     0.002 A 
ATOM     75  C   UNL A   1      41.162  35.555  38.353  1.00  0.00     0.091 A 
ATOM     76  F   UNL A   1      42.255  34.721  36.403  1.00  0.00    -0.205 F 
ATOM     77  C   UNL A   1      40.042  35.547  39.200  1.00  0.00     0.022 A 
BRANCH  75  78
ATOM     78  S   UNL A   1      42.500  36.670  38.790  1.00  0.00     0.127 S 
ATOM     79  O   UNL A   1      43.621  35.742  38.937  1.00  0.00    -0.237 OA
ATOM     80  O   UNL A   1      42.575  37.536  37.614  1.00  0.00    -0.237 OA
ATOM     81  O   UNL A   1      42.082  37.339  40.013  1.00  0.00    -0.744 OA
ENDBRANCH  75  78
ENDBRANCH  57  71
BRANCH  58  82
ATOM     82  C   UNL A   1      40.674  27.687  29.150  1.00  0.00     0.023 A 
ATOM     83  C   UNL A   1      39.840  26.561  29.007  1.00  0.00     0.012 A 
ATOM     84  C   UNL A   1      41.595  27.994  28.130  1.00  0.00     0.148 A 
ATOM     85  C   UNL A   1      39.945  25.739  27.884  1.00  0.00     0.002 A 
ATOM     86  C   UNL A   1      41.653  27.208  26.987  1.00  0.00     0.091 A 
ATOM     87  F   UNL A   1      42.386  29.066  28.291  1.00  0.00    -0.205 F 
ATOM     88  C   UNL A   1      40.843  26.068  26.870  1.00  0.00     0.022 A 
BRANCH  86  89
ATOM     89  S   UNL A   1      42.676  27.639  25.576  1.00  0.00     0.127 S 
ATOM     90  O   UNL A   1      42.189  28.977  25.250  1.00  0.00    -0.237 OA
ATOM     91  O   UNL A   1      44.019  27.593  26.155  1.00  0.00    -0.237 OA
ATOM     92  O   UNL A   1      42.421  26.613  24.573  1.00  0.00    -0.744 OA
ENDBRANCH  86  89
ENDBRANCH  58  82
BRANCH  70  93
ATOM     93  C   UNL A   1      44.322  28.238  35.078  1.00  0.00     0.023 A 
ATOM     94  C   UNL A   1      45.610  28.721  34.773  1.00  0.00     0.012 A 
ATOM     95  C   UNL A   1      44.184  27.129  35.935  1.00  0.00     0.148 A 
ATOM     96  C   UNL A   1      46.743  28.093  35.288  1.00  0.00     0.002 A 
ATOM     97  C   UNL A   1      45.317  26.539  36.486  1.00  0.00     0.091 A 
ATOM     98  F   UNL A   1      42.951  26.677  36.201  1.00  0.00    -0.205 F 
ATOM     99  C   UNL A   1      46.597  27.012  36.153  1.00  0.00     0.022 A 
BRANCH  97 100
ATOM    100  S   UNL A   1      45.228  25.201  37.680  1.00  0.00     0.127 S 
ATOM    101  O   UNL A   1      46.643  24.892  37.887  1.00  0.00    -0.237 OA
ATOM    102  O   UNL A   1      44.572  25.846  38.817  1.00  0.00    -0.237 OA
ATOM    103  O   UNL A   1      44.451  24.144  37.047  1.00  0.00    -0.744 OA
ENDBRANCH  97 100
ENDBRANCH  70  93
ENDBRANCH  44  45
ENDBRANCH  36  39
ENDBRANCH  34  35
ENDBRANCH  33  34
ENDBRANCH   1  33
TORSDOF 18
ENDMDL
