MODEL 1
REMARK VINA RESULT:     -11.8      0.000      0.000
REMARK SMILES O=C(NCCCNC(=O)[C@@H]1C=C[C@@H]([NH+]2CC3(CC3)C2)C1)c1ccc(-c2c3nc(c(-c4cccc(S(=O)(=O)[O-])c4F)c4ccc([nH]4)c(-c4cccc(S(=O)(=O)[O-])c4F)c4nc(c(-c5cccc(S(=O)(=O)[O-])c5F)c5ccc2[nH]5)C=C4)C=C3)cc1
REMARK SMILES IDX 4 1 3 2 1 3 2 4 21 6 22 7 83 8 23 9 82 10 24 11 25 12 26 13
REMARK SMILES IDX 76 14 27 15 81 16 75 17 77 18 28 19 80 20 74 21 73 22 29 24
REMARK SMILES IDX 61 25 41 26 60 27 42 28 45 29 59 30 78 31 43 32 44 33 58 35
REMARK SMILES IDX 79 36 46 37 30 38 31 39 39 40 32 41 34 42 40 43 33 44 35 45
REMARK SMILES IDX 36 46 37 47 38 48 62 49 63 50 71 51 64 52 66 53 72 54 65 55
REMARK SMILES IDX 67 56 68 57 69 58 70 59 47 60 48 61 56 62 49 63 51 64 57 65
REMARK SMILES IDX 50 66 52 67 53 68 54 69 55 70 5 71 6 72 7 73 8 74 9 76 10 77
REMARK SMILES IDX 11 78 20 79 12 80 13 81 14 82 15 83 19 84 16 86 17 87 18 88
REMARK H PARENT 3 5 77 23 45 34 7 75 14 85
REMARK Flexibility Score: inf
ROOT
ATOM      1  C   UNL A   1      33.121  29.254  25.250  1.00  0.00     0.118 C 
ENDROOT
BRANCH   1   2
ATOM      2  N   UNL A   1      32.563  30.498  25.761  1.00  0.00    -0.352 N 
ATOM      3  O   UNL A   1      32.213  32.141  27.256  1.00  0.00    -0.269 OA
ATOM      4  C   UNL A   1      32.936  31.228  26.862  1.00  0.00     0.251 C 
ATOM      5  H   UNL A   1      31.813  30.869  25.244  1.00  0.00     0.163 HD
BRANCH   4   6
ATOM      6  C   UNL A   1      34.189  30.900  27.574  1.00  0.00     0.039 A 
ATOM      7  C   UNL A   1      34.435  29.596  28.011  1.00  0.00     0.014 A 
ATOM      8  C   UNL A   1      35.135  31.905  27.790  1.00  0.00     0.014 A 
ATOM      9  C   UNL A   1      35.562  29.327  28.779  1.00  0.00     0.010 A 
ATOM     10  C   UNL A   1      36.307  31.613  28.491  1.00  0.00     0.010 A 
ATOM     11  C   UNL A   1      36.517  30.328  29.015  1.00  0.00    -0.014 A 
BRANCH  11  12
ATOM     12  C   UNL A   1      37.762  29.985  29.747  1.00  0.00     0.031 A 
ATOM     13  C   UNL A   1      38.021  30.495  31.136  1.00  0.00     0.074 A 
ATOM     14  C   UNL A   1      38.668  29.197  29.134  1.00  0.00     0.049 A 
ATOM     15  N   UNL A   1      39.042  30.258  31.920  1.00  0.00    -0.248 NA
ATOM     16  C   UNL A   1      37.013  31.393  31.722  1.00  0.00     0.031 C 
ATOM     17  C   UNL A   1      38.548  28.687  27.766  1.00  0.00     0.029 A 
ATOM     18  N   UNL A   1      39.864  28.690  29.573  1.00  0.00    -0.354 N 
ATOM     19  C   UNL A   1      38.822  31.003  33.072  1.00  0.00     0.074 A 
ATOM     20  C   UNL A   1      37.573  31.708  32.884  1.00  0.00     0.031 C 
ATOM     21  C   UNL A   1      39.612  27.922  27.486  1.00  0.00     0.029 A 
ATOM     22  C   UNL A   1      40.511  27.923  28.633  1.00  0.00     0.049 A 
ATOM     23  H   UNL A   1      40.224  28.859  30.474  1.00  0.00     0.167 HD
ATOM     24  C   UNL A   1      39.585  31.078  34.189  1.00  0.00     0.034 A 
ATOM     25  C   UNL A   1      41.702  27.297  28.684  1.00  0.00     0.034 A 
ATOM     26  C   UNL A   1      40.807  30.342  34.383  1.00  0.00     0.049 A 
ATOM     27  C   UNL A   1      42.505  27.366  29.950  1.00  0.00     0.074 A 
ATOM     28  C   UNL A   1      41.614  30.297  35.507  1.00  0.00     0.029 A 
ATOM     29  N   UNL A   1      41.404  29.529  33.431  1.00  0.00    -0.354 N 
ATOM     30  N   UNL A   1      42.212  27.963  31.079  1.00  0.00    -0.248 NA
ATOM     31  C   UNL A   1      43.787  26.649  29.963  1.00  0.00     0.031 C 
ATOM     32  C   UNL A   1      42.707  29.469  35.228  1.00  0.00     0.029 A 
ATOM     33  C   UNL A   1      42.573  28.984  33.938  1.00  0.00     0.049 A 
ATOM     34  H   UNL A   1      41.049  29.363  32.528  1.00  0.00     0.167 HD
ATOM     35  C   UNL A   1      43.261  27.680  31.943  1.00  0.00     0.074 A 
ATOM     36  C   UNL A   1      44.182  26.831  31.216  1.00  0.00     0.031 C 
ATOM     37  C   UNL A   1      43.455  28.103  33.216  1.00  0.00     0.034 A 
BRANCH  24  38
ATOM     38  C   UNL A   1      39.102  31.953  35.316  1.00  0.00     0.023 A 
ATOM     39  C   UNL A   1      39.233  33.353  35.214  1.00  0.00     0.012 A 
ATOM     40  C   UNL A   1      38.448  31.401  36.436  1.00  0.00     0.148 A 
ATOM     41  C   UNL A   1      38.745  34.188  36.218  1.00  0.00     0.002 A 
ATOM     42  C   UNL A   1      37.931  32.242  37.415  1.00  0.00     0.091 A 
ATOM     43  F   UNL A   1      38.351  30.067  36.526  1.00  0.00    -0.205 F 
ATOM     44  C   UNL A   1      38.085  33.634  37.312  1.00  0.00     0.022 A 
BRANCH  42  45
ATOM     45  S   UNL A   1      37.001  31.628  38.825  1.00  0.00     0.127 S 
ATOM     46  O   UNL A   1      37.967  31.794  39.910  1.00  0.00    -0.237 OA
ATOM     47  O   UNL A   1      35.867  32.551  38.874  1.00  0.00    -0.237 OA
ATOM     48  O   UNL A   1      36.648  30.253  38.504  1.00  0.00    -0.744 OA
ENDBRANCH  42  45
ENDBRANCH  24  38
BRANCH  25  49
ATOM     49  C   UNL A   1      42.169  26.510  27.508  1.00  0.00     0.023 A 
ATOM     50  C   UNL A   1      42.959  27.136  26.525  1.00  0.00     0.012 A 
ATOM     51  C   UNL A   1      41.887  25.136  27.392  1.00  0.00     0.148 A 
ATOM     52  C   UNL A   1      43.444  26.410  25.437  1.00  0.00     0.002 A 
ATOM     53  C   UNL A   1      42.422  24.406  26.337  1.00  0.00     0.091 A 
ATOM     54  F   UNL A   1      41.118  24.562  28.328  1.00  0.00    -0.205 F 
ATOM     55  C   UNL A   1      43.187  25.044  25.350  1.00  0.00     0.022 A 
BRANCH  53  56
ATOM     56  S   UNL A   1      42.263  22.619  26.236  1.00  0.00     0.127 S 
ATOM     57  O   UNL A   1      42.907  22.192  27.475  1.00  0.00    -0.237 OA
ATOM     58  O   UNL A   1      40.811  22.444  26.204  1.00  0.00    -0.237 OA
ATOM     59  O   UNL A   1      42.936  22.239  25.003  1.00  0.00    -0.744 OA
ENDBRANCH  53  56
ENDBRANCH  25  49
BRANCH  37  60
ATOM     60  C   UNL A   1      44.706  27.639  33.914  1.00  0.00     0.023 A 
ATOM     61  C   UNL A   1      45.868  28.434  33.856  1.00  0.00     0.012 A 
ATOM     62  C   UNL A   1      44.713  26.455  34.675  1.00  0.00     0.148 A 
ATOM     63  C   UNL A   1      47.029  28.039  34.520  1.00  0.00     0.002 A 
ATOM     64  C   UNL A   1      45.860  26.091  35.370  1.00  0.00     0.091 A 
ATOM     65  F   UNL A   1      43.604  25.701  34.699  1.00  0.00    -0.205 F 
ATOM     66  C   UNL A   1      47.021  26.875  35.285  1.00  0.00     0.022 A 
BRANCH  64  67
ATOM     67  S   UNL A   1      45.909  24.657  36.452  1.00  0.00     0.127 S 
ATOM     68  O   UNL A   1      44.964  25.040  37.499  1.00  0.00    -0.237 OA
ATOM     69  O   UNL A   1      45.440  23.585  35.572  1.00  0.00    -0.237 OA
ATOM     70  O   UNL A   1      47.297  24.525  36.874  1.00  0.00    -0.744 OA
ENDBRANCH  64  67
ENDBRANCH  37  60
ENDBRANCH  11  12
ENDBRANCH   4   6
ENDBRANCH   1   2
BRANCH   1  71
ATOM     71  C   UNL A   1      32.836  29.060  23.763  1.00  0.00     0.042 C 
BRANCH  71  72
ATOM     72  C   UNL A   1      33.907  28.242  23.043  1.00  0.00     0.117 C 
BRANCH  72  73
ATOM     73  N   UNL A   1      33.307  27.424  22.010  1.00  0.00    -0.356 N 
ATOM     74  C   UNL A   1      33.325  26.068  21.871  1.00  0.00     0.227 C 
ATOM     75  H   UNL A   1      32.818  27.915  21.311  1.00  0.00     0.163 HD
ATOM     76  O   UNL A   1      33.024  25.611  20.767  1.00  0.00    -0.274 OA
BRANCH  74  77
ATOM     77  C   UNL A   1      33.578  25.190  23.099  1.00  0.00     0.107 C 
ATOM     78  C   UNL A   1      33.869  23.736  22.874  1.00  0.00    -0.012 C 
ATOM     79  C   UNL A   1      32.341  25.141  24.016  1.00  0.00     0.087 C 
ATOM     80  C   UNL A   1      32.914  22.938  23.362  1.00  0.00     0.033 C 
ATOM     81  C   UNL A   1      31.761  23.713  23.917  1.00  0.00     0.208 C 
BRANCH  81  82
ATOM     82  N   UNL A   1      31.175  23.060  25.096  1.00  0.00    -0.328 N 
ATOM     83  C   UNL A   1      31.934  21.909  25.618  1.00  0.00     0.275 C 
ATOM     84  C   UNL A   1      31.468  23.825  26.322  1.00  0.00     0.275 C 
ATOM     85  H   UNL A   1      30.222  22.903  24.768  1.00  0.00     0.348 HD
ATOM     86  C   UNL A   1      32.527  22.835  26.609  1.00  0.00     0.068 C 
ATOM     87  C   UNL A   1      33.976  23.140  26.847  1.00  0.00     0.020 C 
ATOM     88  C   UNL A   1      33.144  22.503  27.926  1.00  0.00     0.020 C 
ENDBRANCH  81  82
ENDBRANCH  74  77
ENDBRANCH  72  73
ENDBRANCH  71  72
ENDBRANCH   1  71
TORSDOF 14
ENDMDL
MODEL 2
REMARK VINA RESULT:     -11.8      3.917      6.582
REMARK SMILES O=C(NCCCNC(=O)[C@@H]1C=C[C@@H]([NH+]2CC3(CC3)C2)C1)c1ccc(-c2c3nc(c(-c4cccc(S(=O)(=O)[O-])c4F)c4ccc([nH]4)c(-c4cccc(S(=O)(=O)[O-])c4F)c4nc(c(-c5cccc(S(=O)(=O)[O-])c5F)c5ccc2[nH]5)C=C4)C=C3)cc1
REMARK SMILES IDX 4 1 3 2 1 3 2 4 21 6 22 7 83 8 23 9 82 10 24 11 25 12 26 13
REMARK SMILES IDX 76 14 27 15 81 16 75 17 77 18 28 19 80 20 74 21 73 22 29 24
REMARK SMILES IDX 61 25 41 26 60 27 42 28 45 29 59 30 78 31 43 32 44 33 58 35
REMARK SMILES IDX 79 36 46 37 30 38 31 39 39 40 32 41 34 42 40 43 33 44 35 45
REMARK SMILES IDX 36 46 37 47 38 48 62 49 63 50 71 51 64 52 66 53 72 54 65 55
REMARK SMILES IDX 67 56 68 57 69 58 70 59 47 60 48 61 56 62 49 63 51 64 57 65
REMARK SMILES IDX 50 66 52 67 53 68 54 69 55 70 5 71 6 72 7 73 8 74 9 76 10 77
REMARK SMILES IDX 11 78 20 79 12 80 13 81 14 82 15 83 19 84 16 86 17 87 18 88
REMARK H PARENT 3 5 77 23 45 34 7 75 14 85
REMARK Flexibility Score: inf
ROOT
ATOM      1  C   UNL A   1      34.518  32.540  28.791  1.00  0.00     0.118 C 
ENDROOT
BRANCH   1   2
ATOM      2  N   UNL A   1      33.901  31.415  28.102  1.00  0.00    -0.352 N 
ATOM      3  O   UNL A   1      33.837  29.492  26.939  1.00  0.00    -0.269 OA
ATOM      4  C   UNL A   1      34.465  30.234  27.691  1.00  0.00     0.251 C 
ATOM      5  H   UNL A   1      32.943  31.516  27.903  1.00  0.00     0.163 HD
BRANCH   4   6
ATOM      6  C   UNL A   1      35.826  29.872  28.140  1.00  0.00     0.039 A 
ATOM      7  C   UNL A   1      36.926  30.068  27.300  1.00  0.00     0.014 A 
ATOM      8  C   UNL A   1      36.005  29.346  29.422  1.00  0.00     0.014 A 
ATOM      9  C   UNL A   1      38.181  29.617  27.690  1.00  0.00     0.010 A 
ATOM     10  C   UNL A   1      37.283  28.970  29.844  1.00  0.00     0.010 A 
ATOM     11  C   UNL A   1      38.376  29.077  28.971  1.00  0.00    -0.014 A 
BRANCH  11  12
ATOM     12  C   UNL A   1      39.747  28.703  29.399  1.00  0.00     0.031 A 
ATOM     13  C   UNL A   1      40.450  29.435  30.507  1.00  0.00     0.074 A 
ATOM     14  C   UNL A   1      40.359  27.681  28.767  1.00  0.00     0.049 A 
ATOM     15  N   UNL A   1      41.633  29.208  31.018  1.00  0.00    -0.248 NA
ATOM     16  C   UNL A   1      39.744  30.573  31.116  1.00  0.00     0.031 C 
ATOM     17  C   UNL A   1      39.794  26.932  27.641  1.00  0.00     0.029 A 
ATOM     18  N   UNL A   1      41.582  27.098  28.972  1.00  0.00    -0.354 N 
ATOM     19  C   UNL A   1      41.831  30.193  31.979  1.00  0.00     0.074 A 
ATOM     20  C   UNL A   1      40.649  31.026  31.975  1.00  0.00     0.031 C 
ATOM     21  C   UNL A   1      40.656  25.975  27.272  1.00  0.00     0.029 A 
ATOM     22  C   UNL A   1      41.852  26.069  28.101  1.00  0.00     0.049 A 
ATOM     23  H   UNL A   1      42.207  27.386  29.677  1.00  0.00     0.167 HD
ATOM     24  C   UNL A   1      42.895  30.373  32.798  1.00  0.00     0.034 A 
ATOM     25  C   UNL A   1      42.945  25.293  27.973  1.00  0.00     0.034 A 
ATOM     26  C   UNL A   1      44.051  29.515  32.822  1.00  0.00     0.049 A 
ATOM     27  C   UNL A   1      44.091  25.492  28.922  1.00  0.00     0.074 A 
ATOM     28  C   UNL A   1      45.147  29.574  33.664  1.00  0.00     0.029 A 
ATOM     29  N   UNL A   1      44.266  28.448  31.963  1.00  0.00    -0.354 N 
ATOM     30  N   UNL A   1      44.199  26.340  29.915  1.00  0.00    -0.248 NA
ATOM     31  C   UNL A   1      45.252  24.608  28.756  1.00  0.00     0.031 C 
ATOM     32  C   UNL A   1      46.033  28.551  33.303  1.00  0.00     0.029 A 
ATOM     33  C   UNL A   1      45.479  27.845  32.248  1.00  0.00     0.049 A 
ATOM     34  H   UNL A   1      43.645  28.161  31.254  1.00  0.00     0.167 HD
ATOM     35  C   UNL A   1      45.428  26.080  30.506  1.00  0.00     0.074 A 
ATOM     36  C   UNL A   1      46.015  24.974  29.776  1.00  0.00     0.031 C 
ATOM     37  C   UNL A   1      46.028  26.714  31.543  1.00  0.00     0.034 A 
BRANCH  24  38
ATOM     38  C   UNL A   1      42.846  31.518  33.776  1.00  0.00     0.023 A 
ATOM     39  C   UNL A   1      43.377  32.770  33.406  1.00  0.00     0.012 A 
ATOM     40  C   UNL A   1      42.208  31.381  35.024  1.00  0.00     0.148 A 
ATOM     41  C   UNL A   1      43.296  33.861  34.271  1.00  0.00     0.002 A 
ATOM     42  C   UNL A   1      42.097  32.483  35.866  1.00  0.00     0.091 A 
ATOM     43  F   UNL A   1      41.728  30.178  35.368  1.00  0.00    -0.205 F 
ATOM     44  C   UNL A   1      42.647  33.720  35.495  1.00  0.00     0.022 A 
BRANCH  42  45
ATOM     45  S   UNL A   1      41.216  32.420  37.431  1.00  0.00     0.127 S 
ATOM     46  O   UNL A   1      42.091  31.560  38.227  1.00  0.00    -0.237 OA
ATOM     47  O   UNL A   1      41.208  33.825  37.839  1.00  0.00    -0.237 OA
ATOM     48  O   UNL A   1      39.902  31.870  37.129  1.00  0.00    -0.744 OA
ENDBRANCH  42  45
ENDBRANCH  24  38
BRANCH  25  49
ATOM     49  C   UNL A   1      42.971  24.227  26.933  1.00  0.00     0.023 A 
ATOM     50  C   UNL A   1      43.726  24.420  25.761  1.00  0.00     0.012 A 
ATOM     51  C   UNL A   1      42.306  23.003  27.129  1.00  0.00     0.148 A 
ATOM     52  C   UNL A   1      43.801  23.419  24.792  1.00  0.00     0.002 A 
ATOM     53  C   UNL A   1      42.433  21.987  26.188  1.00  0.00     0.091 A 
ATOM     54  F   UNL A   1      41.577  22.844  28.243  1.00  0.00    -0.205 F 
ATOM     55  C   UNL A   1      43.167  22.198  25.011  1.00  0.00     0.022 A 
BRANCH  53  56
ATOM     56  S   UNL A   1      41.772  20.340  26.467  1.00  0.00     0.127 S 
ATOM     57  O   UNL A   1      40.333  20.585  26.427  1.00  0.00    -0.237 OA
ATOM     58  O   UNL A   1      42.304  19.599  25.323  1.00  0.00    -0.237 OA
ATOM     59  O   UNL A   1      42.311  19.919  27.753  1.00  0.00    -0.744 OA
ENDBRANCH  53  56
ENDBRANCH  25  49
BRANCH  37  60
ATOM     60  C   UNL A   1      47.384  26.217  31.966  1.00  0.00     0.023 A 
ATOM     61  C   UNL A   1      48.538  26.721  31.332  1.00  0.00     0.012 A 
ATOM     62  C   UNL A   1      47.520  25.301  33.026  1.00  0.00     0.148 A 
ATOM     63  C   UNL A   1      49.805  26.296  31.727  1.00  0.00     0.002 A 
ATOM     64  C   UNL A   1      48.788  24.917  33.444  1.00  0.00     0.091 A 
ATOM     65  F   UNL A   1      46.410  24.816  33.601  1.00  0.00    -0.205 F 
ATOM     66  C   UNL A   1      49.931  25.404  32.790  1.00  0.00     0.022 A 
BRANCH  64  67
ATOM     67  S   UNL A   1      49.044  23.843  34.862  1.00  0.00     0.127 S 
ATOM     68  O   UNL A   1      50.500  23.859  34.990  1.00  0.00    -0.237 OA
ATOM     69  O   UNL A   1      48.331  24.552  35.925  1.00  0.00    -0.237 OA
ATOM     70  O   UNL A   1      48.458  22.559  34.499  1.00  0.00    -0.744 OA
ENDBRANCH  64  67
ENDBRANCH  37  60
ENDBRANCH  11  12
ENDBRANCH   4   6
ENDBRANCH   1   2
BRANCH   1  71
ATOM     71  C   UNL A   1      34.357  33.849  28.023  1.00  0.00     0.042 C 
BRANCH  71  72
ATOM     72  C   UNL A   1      33.125  34.649  28.443  1.00  0.00     0.117 C 
BRANCH  72  73
ATOM     73  N   UNL A   1      33.487  36.023  28.723  1.00  0.00    -0.356 N 
ATOM     74  C   UNL A   1      33.194  36.782  29.816  1.00  0.00     0.227 C 
ATOM     75  H   UNL A   1      34.019  36.471  28.026  1.00  0.00     0.163 HD
ATOM     76  O   UNL A   1      33.330  38.002  29.709  1.00  0.00    -0.274 OA
BRANCH  74  77
ATOM     77  C   UNL A   1      32.849  36.093  31.139  1.00  0.00     0.107 C 
ATOM     78  C   UNL A   1      32.736  36.947  32.366  1.00  0.00    -0.012 C 
ATOM     79  C   UNL A   1      33.938  35.079  31.541  1.00  0.00     0.087 C 
ATOM     80  C   UNL A   1      33.681  36.676  33.272  1.00  0.00     0.033 C 
ATOM     81  C   UNL A   1      34.661  35.659  32.777  1.00  0.00     0.208 C 
BRANCH  81  82
ATOM     82  N   UNL A   1      35.128  34.775  33.855  1.00  0.00    -0.328 N 
ATOM     83  C   UNL A   1      34.762  33.354  33.703  1.00  0.00     0.275 C 
ATOM     84  C   UNL A   1      36.553  34.439  33.680  1.00  0.00     0.275 C 
ATOM     85  H   UNL A   1      34.784  35.279  34.672  1.00  0.00     0.348 HD
ATOM     86  C   UNL A   1      36.114  33.136  33.139  1.00  0.00     0.068 C 
ATOM     87  C   UNL A   1      36.483  32.569  31.801  1.00  0.00     0.020 C 
ATOM     88  C   UNL A   1      36.887  31.863  33.066  1.00  0.00     0.020 C 
ENDBRANCH  81  82
ENDBRANCH  74  77
ENDBRANCH  72  73
ENDBRANCH  71  72
ENDBRANCH   1  71
TORSDOF 14
ENDMDL
MODEL 3
REMARK VINA RESULT:     -11.8      1.552      2.050
REMARK SMILES O=C(NCCCNC(=O)[C@@H]1C=C[C@@H]([NH+]2CC3(CC3)C2)C1)c1ccc(-c2c3nc(c(-c4cccc(S(=O)(=O)[O-])c4F)c4ccc([nH]4)c(-c4cccc(S(=O)(=O)[O-])c4F)c4nc(c(-c5cccc(S(=O)(=O)[O-])c5F)c5ccc2[nH]5)C=C4)C=C3)cc1
REMARK SMILES IDX 4 1 3 2 1 3 2 4 21 6 22 7 83 8 23 9 82 10 24 11 25 12 26 13
REMARK SMILES IDX 76 14 27 15 81 16 75 17 77 18 28 19 80 20 74 21 73 22 29 24
REMARK SMILES IDX 61 25 41 26 60 27 42 28 45 29 59 30 78 31 43 32 44 33 58 35
REMARK SMILES IDX 79 36 46 37 30 38 31 39 39 40 32 41 34 42 40 43 33 44 35 45
REMARK SMILES IDX 36 46 37 47 38 48 62 49 63 50 71 51 64 52 66 53 72 54 65 55
REMARK SMILES IDX 67 56 68 57 69 58 70 59 47 60 48 61 56 62 49 63 51 64 57 65
REMARK SMILES IDX 50 66 52 67 53 68 54 69 55 70 5 71 6 72 7 73 8 74 9 76 10 77
REMARK SMILES IDX 11 78 20 79 12 80 13 81 14 82 15 83 19 84 16 86 17 87 18 88
REMARK H PARENT 3 5 77 23 45 34 7 75 14 85
REMARK Flexibility Score: inf
ROOT
ATOM      1  C   UNL A   1      33.265  29.242  25.176  1.00  0.00     0.118 C 
ENDROOT
BRANCH   1   2
ATOM      2  N   UNL A   1      32.708  30.489  25.680  1.00  0.00    -0.352 N 
ATOM      3  O   UNL A   1      32.354  32.137  27.168  1.00  0.00    -0.269 OA
ATOM      4  C   UNL A   1      33.076  31.221  26.781  1.00  0.00     0.251 C 
ATOM      5  H   UNL A   1      31.963  30.861  25.157  1.00  0.00     0.163 HD
BRANCH   4   6
ATOM      6  C   UNL A   1      34.323  30.890  27.502  1.00  0.00     0.039 A 
ATOM      7  C   UNL A   1      34.532  29.603  28.003  1.00  0.00     0.014 A 
ATOM      8  C   UNL A   1      35.300  31.876  27.664  1.00  0.00     0.014 A 
ATOM      9  C   UNL A   1      35.655  29.338  28.779  1.00  0.00     0.010 A 
ATOM     10  C   UNL A   1      36.467  31.583  28.373  1.00  0.00     0.010 A 
ATOM     11  C   UNL A   1      36.642  30.320  28.959  1.00  0.00    -0.014 A 
BRANCH  11  12
ATOM     12  C   UNL A   1      37.880  29.975  29.701  1.00  0.00     0.031 A 
ATOM     13  C   UNL A   1      38.133  30.495  31.088  1.00  0.00     0.074 A 
ATOM     14  C   UNL A   1      38.786  29.178  29.101  1.00  0.00     0.049 A 
ATOM     15  N   UNL A   1      39.148  30.259  31.880  1.00  0.00    -0.248 NA
ATOM     16  C   UNL A   1      37.127  31.403  31.661  1.00  0.00     0.031 C 
ATOM     17  C   UNL A   1      38.671  28.658  27.735  1.00  0.00     0.029 A 
ATOM     18  N   UNL A   1      39.976  28.668  29.550  1.00  0.00    -0.354 N 
ATOM     19  C   UNL A   1      38.926  31.014  33.025  1.00  0.00     0.074 A 
ATOM     20  C   UNL A   1      37.681  31.725  32.824  1.00  0.00     0.031 C 
ATOM     21  C   UNL A   1      39.732  27.885  27.468  1.00  0.00     0.029 A 
ATOM     22  C   UNL A   1      40.625  27.890  28.621  1.00  0.00     0.049 A 
ATOM     23  H   UNL A   1      40.331  28.842  30.452  1.00  0.00     0.167 HD
ATOM     24  C   UNL A   1      39.682  31.094  34.146  1.00  0.00     0.034 A 
ATOM     25  C   UNL A   1      41.812  27.257  28.684  1.00  0.00     0.034 A 
ATOM     26  C   UNL A   1      40.899  30.352  34.353  1.00  0.00     0.049 A 
ATOM     27  C   UNL A   1      42.607  27.332  29.954  1.00  0.00     0.074 A 
ATOM     28  C   UNL A   1      41.698  30.312  35.482  1.00  0.00     0.029 A 
ATOM     29  N   UNL A   1      41.498  29.529  33.411  1.00  0.00    -0.354 N 
ATOM     30  N   UNL A   1      42.311  27.940  31.076  1.00  0.00    -0.248 NA
ATOM     31  C   UNL A   1      43.886  26.609  29.980  1.00  0.00     0.031 C 
ATOM     32  C   UNL A   1      42.789  29.475  35.217  1.00  0.00     0.029 A 
ATOM     33  C   UNL A   1      42.660  28.981  33.929  1.00  0.00     0.049 A 
ATOM     34  H   UNL A   1      41.147  29.358  32.508  1.00  0.00     0.167 HD
ATOM     35  C   UNL A   1      43.353  27.657  31.950  1.00  0.00     0.074 A 
ATOM     36  C   UNL A   1      44.274  26.798  31.234  1.00  0.00     0.031 C 
ATOM     37  C   UNL A   1      43.541  28.089  33.220  1.00  0.00     0.034 A 
BRANCH  24  38
ATOM     38  C   UNL A   1      39.197  31.980  35.263  1.00  0.00     0.023 A 
ATOM     39  C   UNL A   1      38.271  31.474  36.198  1.00  0.00     0.012 A 
ATOM     40  C   UNL A   1      39.712  33.280  35.437  1.00  0.00     0.148 A 
ATOM     41  C   UNL A   1      37.846  32.255  37.272  1.00  0.00     0.002 A 
ATOM     42  C   UNL A   1      39.313  34.038  36.532  1.00  0.00     0.091 A 
ATOM     43  F   UNL A   1      40.576  33.752  34.526  1.00  0.00    -0.205 F 
ATOM     44  C   UNL A   1      38.375  33.532  37.445  1.00  0.00     0.022 A 
BRANCH  42  45
ATOM     45  S   UNL A   1      39.992  35.665  36.881  1.00  0.00     0.127 S 
ATOM     46  O   UNL A   1      39.315  36.004  38.132  1.00  0.00    -0.237 OA
ATOM     47  O   UNL A   1      41.421  35.382  37.019  1.00  0.00    -0.237 OA
ATOM     48  O   UNL A   1      39.648  36.496  35.737  1.00  0.00    -0.744 OA
ENDBRANCH  42  45
ENDBRANCH  24  38
BRANCH  25  49
ATOM     49  C   UNL A   1      42.281  26.460  27.517  1.00  0.00     0.023 A 
ATOM     50  C   UNL A   1      43.162  27.043  26.587  1.00  0.00     0.012 A 
ATOM     51  C   UNL A   1      41.910  25.111  27.360  1.00  0.00     0.148 A 
ATOM     52  C   UNL A   1      43.649  26.303  25.509  1.00  0.00     0.002 A 
ATOM     53  C   UNL A   1      42.446  24.362  26.318  1.00  0.00     0.091 A 
ATOM     54  F   UNL A   1      41.056  24.578  28.245  1.00  0.00    -0.205 F 
ATOM     55  C   UNL A   1      43.303  24.959  25.383  1.00  0.00     0.022 A 
BRANCH  53  56
ATOM     56  S   UNL A   1      42.167  22.593  26.174  1.00  0.00     0.127 S 
ATOM     57  O   UNL A   1      42.879  22.277  24.940  1.00  0.00    -0.237 OA
ATOM     58  O   UNL A   1      42.793  22.085  27.395  1.00  0.00    -0.237 OA
ATOM     59  O   UNL A   1      40.720  22.430  26.134  1.00  0.00    -0.744 OA
ENDBRANCH  53  56
ENDBRANCH  25  49
BRANCH  37  60
ATOM     60  C   UNL A   1      44.785  27.625  33.930  1.00  0.00     0.023 A 
ATOM     61  C   UNL A   1      45.952  28.414  33.875  1.00  0.00     0.012 A 
ATOM     62  C   UNL A   1      44.782  26.444  34.697  1.00  0.00     0.148 A 
ATOM     63  C   UNL A   1      47.106  28.018  34.549  1.00  0.00     0.002 A 
ATOM     64  C   UNL A   1      45.922  26.080  35.402  1.00  0.00     0.091 A 
ATOM     65  F   UNL A   1      43.670  25.696  34.717  1.00  0.00    -0.205 F 
ATOM     66  C   UNL A   1      47.088  26.859  35.321  1.00  0.00     0.022 A 
BRANCH  64  67
ATOM     67  S   UNL A   1      45.958  24.651  36.491  1.00  0.00     0.127 S 
ATOM     68  O   UNL A   1      47.306  24.735  37.049  1.00  0.00    -0.237 OA
ATOM     69  O   UNL A   1      44.886  24.955  37.441  1.00  0.00    -0.237 OA
ATOM     70  O   UNL A   1      45.699  23.497  35.642  1.00  0.00    -0.744 OA
ENDBRANCH  64  67
ENDBRANCH  37  60
ENDBRANCH  11  12
ENDBRANCH   4   6
ENDBRANCH   1   2
BRANCH   1  71
ATOM     71  C   UNL A   1      33.302  29.199  23.650  1.00  0.00     0.042 C 
BRANCH  71  72
ATOM     72  C   UNL A   1      32.096  28.493  23.034  1.00  0.00     0.117 C 
BRANCH  72  73
ATOM     73  N   UNL A   1      32.529  27.409  22.177  1.00  0.00    -0.356 N 
ATOM     74  C   UNL A   1      33.112  26.225  22.519  1.00  0.00     0.227 C 
ATOM     75  H   UNL A   1      32.381  27.546  21.214  1.00  0.00     0.163 HD
ATOM     76  O   UNL A   1      33.674  25.595  21.623  1.00  0.00    -0.274 OA
BRANCH  74  77
ATOM     77  C   UNL A   1      32.926  25.678  23.937  1.00  0.00     0.107 C 
ATOM     78  C   UNL A   1      34.115  25.681  24.851  1.00  0.00    -0.012 C 
ATOM     79  C   UNL A   1      32.530  24.189  23.914  1.00  0.00     0.087 C 
ATOM     80  C   UNL A   1      34.518  24.448  25.175  1.00  0.00     0.033 C 
ATOM     81  C   UNL A   1      33.735  23.392  24.460  1.00  0.00     0.208 C 
BRANCH  81  82
ATOM     82  N   UNL A   1      33.529  22.200  25.295  1.00  0.00    -0.328 N 
ATOM     83  C   UNL A   1      32.191  21.588  25.195  1.00  0.00     0.275 C 
ATOM     84  C   UNL A   1      34.134  21.009  24.670  1.00  0.00     0.275 C 
ATOM     85  H   UNL A   1      33.834  22.552  26.202  1.00  0.00     0.348 HD
ATOM     86  C   UNL A   1      32.775  20.630  24.229  1.00  0.00     0.068 C 
ATOM     87  C   UNL A   1      32.352  20.359  22.816  1.00  0.00     0.020 C 
ATOM     88  C   UNL A   1      32.273  19.275  23.858  1.00  0.00     0.020 C 
ENDBRANCH  81  82
ENDBRANCH  74  77
ENDBRANCH  72  73
ENDBRANCH  71  72
ENDBRANCH   1  71
TORSDOF 14
ENDMDL
