MODEL 1
REMARK VINA RESULT:     -11.4      0.000      0.000
REMARK SMILES O=C(CSc1nc2ccc(NC(=O)COc3ccc(Cl)cc3)cc2s1)NCCCNC(=O)c1ccc(-c2c3nc(c(-c4cccc(S(=O)(=O)[O-])c4F)c4ccc([nH]4)c(-c4cccc(S(=O)(=O)[O-])c4F)c4nc(c(-c5cccc(S(=O)(=O)[O-])c5F)c5ccc2[nH]5)C=C4)C=C3)cc1
REMARK SMILES IDX 1 1 2 2 26 3 3 5 4 6 5 7 6 8 25 9 7 10 24 11 8 12 23 13 9 14
REMARK SMILES IDX 10 15 11 16 12 17 13 19 14 20 15 21 16 22 17 23 22 24 18 25
REMARK SMILES IDX 21 26 19 27 20 28 27 29 28 30 29 31 30 32 31 33 32 35 33 36
REMARK SMILES IDX 34 37 95 38 35 39 94 40 36 41 37 42 38 43 88 44 39 45 93 46
REMARK SMILES IDX 87 47 89 48 40 49 92 50 86 51 85 52 41 54 73 55 53 56 72 57
REMARK SMILES IDX 54 58 57 59 71 60 90 61 55 62 56 63 70 65 91 66 58 67 42 68
REMARK SMILES IDX 43 69 51 70 44 71 46 72 52 73 45 74 47 75 48 76 49 77 50 78
REMARK SMILES IDX 74 79 75 80 83 81 76 82 78 83 84 84 77 85 79 86 80 87 81 88
REMARK SMILES IDX 82 89 59 90 60 91 68 92 61 93 63 94 69 95 62 96 64 97 65 98
REMARK SMILES IDX 66 99 67 100
REMARK H PARENT 26 4 11 18 30 34 89 53 57 64
REMARK Flexibility Score: inf
ROOT
ATOM      1  O   UNL A   1      34.971  21.945  23.779  1.00  0.00    -0.274 OA
ATOM      2  C   UNL A   1      34.867  20.908  24.432  1.00  0.00     0.230 C 
ATOM      3  N   UNL A   1      35.857  20.449  25.273  1.00  0.00    -0.355 N 
ATOM      4  H   UNL A   1      35.663  19.683  25.860  1.00  0.00     0.163 HD
ENDROOT
BRANCH   2   5
ATOM      5  C   UNL A   1      33.606  20.061  24.365  1.00  0.00     0.177 C 
BRANCH   5   6
ATOM      6  S   UNL A   1      32.362  20.476  25.624  1.00  0.00    -0.086 SA
BRANCH   6   7
ATOM      7  C   UNL A   1      31.772  22.056  25.131  1.00  0.00     0.151 A 
ATOM      8  N   UNL A   1      31.344  22.911  26.035  1.00  0.00    -0.230 NA
ATOM      9  S   UNL A   1      31.579  22.552  23.507  1.00  0.00    -0.108 S 
ATOM     10  C   UNL A   1      30.815  24.033  25.412  1.00  0.00     0.083 A 
ATOM     11  C   UNL A   1      30.856  24.007  24.024  1.00  0.00     0.057 A 
ATOM     12  C   UNL A   1      30.235  25.156  26.032  1.00  0.00     0.032 A 
ATOM     13  C   UNL A   1      30.350  25.042  23.223  1.00  0.00     0.047 A 
ATOM     14  C   UNL A   1      29.739  26.205  25.238  1.00  0.00     0.028 A 
ATOM     15  C   UNL A   1      29.815  26.168  23.841  1.00  0.00     0.042 A 
BRANCH  15  16
ATOM     16  N   UNL A   1      29.299  27.271  23.142  1.00  0.00    -0.323 N 
ATOM     17  C   UNL A   1      29.818  28.478  22.773  1.00  0.00     0.262 C 
ATOM     18  H   UNL A   1      28.364  27.148  22.860  1.00  0.00     0.170 HD
ATOM     19  O   UNL A   1      29.110  29.191  22.048  1.00  0.00    -0.271 OA
BRANCH  17  20
ATOM     20  C   UNL A   1      31.188  28.994  23.230  1.00  0.00     0.329 C 
BRANCH  20  21
ATOM     21  O   UNL A   1      32.368  28.360  22.764  1.00  0.00    -0.484 OA
BRANCH  21  22
ATOM     22  C   UNL A   1      32.989  27.473  23.593  1.00  0.00     0.120 A 
ATOM     23  C   UNL A   1      33.010  27.547  24.985  1.00  0.00     0.048 A 
ATOM     24  C   UNL A   1      33.590  26.385  22.953  1.00  0.00     0.048 A 
ATOM     25  C   UNL A   1      33.642  26.547  25.731  1.00  0.00     0.024 A 
ATOM     26  C   UNL A   1      34.235  25.392  23.695  1.00  0.00     0.024 A 
ATOM     27  C   UNL A   1      34.257  25.477  25.083  1.00  0.00     0.041 A 
ATOM     28  Cl  UNL A   1      35.038  24.257  26.009  1.00  0.00    -0.084 Cl
ENDBRANCH  21  22
ENDBRANCH  20  21
ENDBRANCH  17  20
ENDBRANCH  15  16
ENDBRANCH   6   7
ENDBRANCH   5   6
ENDBRANCH   2   5
BRANCH   3  29
ATOM     29  C   UNL A   1      37.175  21.053  25.326  1.00  0.00     0.117 C 
BRANCH  29  30
ATOM     30  C   UNL A   1      38.301  20.039  25.188  1.00  0.00     0.042 C 
BRANCH  30  31
ATOM     31  C   UNL A   1      39.481  20.277  26.125  1.00  0.00     0.118 C 
BRANCH  31  32
ATOM     32  N   UNL A   1      40.512  19.250  26.032  1.00  0.00    -0.352 N 
ATOM     33  C   UNL A   1      41.879  19.361  26.092  1.00  0.00     0.251 C 
ATOM     34  H   UNL A   1      40.174  18.333  25.906  1.00  0.00     0.163 HD
ATOM     35  O   UNL A   1      42.573  18.370  25.862  1.00  0.00    -0.269 OA
BRANCH  33  36
ATOM     36  C   UNL A   1      42.524  20.658  26.399  1.00  0.00     0.039 A 
ATOM     37  C   UNL A   1      42.969  21.454  25.338  1.00  0.00     0.014 A 
ATOM     38  C   UNL A   1      42.703  21.092  27.715  1.00  0.00     0.014 A 
ATOM     39  C   UNL A   1      43.520  22.712  25.594  1.00  0.00     0.010 A 
ATOM     40  C   UNL A   1      43.178  22.379  27.963  1.00  0.00     0.010 A 
ATOM     41  C   UNL A   1      43.590  23.205  26.908  1.00  0.00    -0.014 A 
BRANCH  41  42
ATOM     42  C   UNL A   1      44.057  24.590  27.185  1.00  0.00     0.031 A 
ATOM     43  C   UNL A   1      43.103  25.637  27.696  1.00  0.00     0.074 A 
ATOM     44  C   UNL A   1      45.330  24.931  26.894  1.00  0.00     0.049 A 
ATOM     45  N   UNL A   1      43.327  26.901  27.951  1.00  0.00    -0.248 NA
ATOM     46  C   UNL A   1      41.712  25.217  27.931  1.00  0.00     0.031 C 
ATOM     47  C   UNL A   1      46.334  24.033  26.318  1.00  0.00     0.029 A 
ATOM     48  N   UNL A   1      45.990  26.129  27.019  1.00  0.00    -0.354 N 
ATOM     49  C   UNL A   1      42.104  27.434  28.342  1.00  0.00     0.074 A 
ATOM     50  C   UNL A   1      41.134  26.364  28.260  1.00  0.00     0.031 C 
ATOM     51  C   UNL A   1      47.482  24.708  26.147  1.00  0.00     0.029 A 
ATOM     52  C   UNL A   1      47.288  26.092  26.564  1.00  0.00     0.049 A 
ATOM     53  H   UNL A   1      45.575  26.937  27.397  1.00  0.00     0.167 HD
ATOM     54  C   UNL A   1      41.818  28.692  28.756  1.00  0.00     0.034 A 
ATOM     55  C   UNL A   1      48.217  27.065  26.480  1.00  0.00     0.034 A 
ATOM     56  C   UNL A   1      42.790  29.748  28.866  1.00  0.00     0.049 A 
ATOM     57  C   UNL A   1      47.880  28.446  26.970  1.00  0.00     0.074 A 
ATOM     58  C   UNL A   1      42.613  31.029  29.359  1.00  0.00     0.029 A 
ATOM     59  N   UNL A   1      44.114  29.653  28.467  1.00  0.00    -0.354 N 
ATOM     60  N   UNL A   1      46.760  28.888  27.487  1.00  0.00    -0.248 NA
ATOM     61  C   UNL A   1      48.947  29.455  26.901  1.00  0.00     0.031 C 
ATOM     62  C   UNL A   1      43.822  31.721  29.222  1.00  0.00     0.029 A 
ATOM     63  C   UNL A   1      44.762  30.857  28.685  1.00  0.00     0.049 A 
ATOM     64  H   UNL A   1      44.531  28.848  28.083  1.00  0.00     0.167 HD
ATOM     65  C   UNL A   1      46.997  30.212  27.838  1.00  0.00     0.074 A 
ATOM     66  C   UNL A   1      48.376  30.494  27.495  1.00  0.00     0.031 C 
ATOM     67  C   UNL A   1      46.147  31.116  28.384  1.00  0.00     0.034 A 
BRANCH  54  68
ATOM     68  C   UNL A   1      40.397  28.991  29.164  1.00  0.00     0.023 A 
ATOM     69  C   UNL A   1      39.445  29.335  28.181  1.00  0.00     0.012 A 
ATOM     70  C   UNL A   1      39.988  28.867  30.506  1.00  0.00     0.148 A 
ATOM     71  C   UNL A   1      38.119  29.588  28.532  1.00  0.00     0.002 A 
ATOM     72  C   UNL A   1      38.654  29.073  30.841  1.00  0.00     0.091 A 
ATOM     73  F   UNL A   1      40.908  28.556  31.430  1.00  0.00    -0.205 F 
ATOM     74  C   UNL A   1      37.722  29.446  29.859  1.00  0.00     0.022 A 
BRANCH  72  75
ATOM     75  S   UNL A   1      38.024  28.835  32.507  1.00  0.00     0.127 S 
ATOM     76  O   UNL A   1      38.220  27.397  32.693  1.00  0.00    -0.237 OA
ATOM     77  O   UNL A   1      38.921  29.679  33.297  1.00  0.00    -0.237 OA
ATOM     78  O   UNL A   1      36.637  29.277  32.481  1.00  0.00    -0.744 OA
ENDBRANCH  72  75
ENDBRANCH  54  68
BRANCH  55  79
ATOM     79  C   UNL A   1      49.577  26.753  25.954  1.00  0.00     0.023 A 
ATOM     80  C   UNL A   1      50.494  26.057  26.766  1.00  0.00     0.012 A 
ATOM     81  C   UNL A   1      49.960  27.126  24.651  1.00  0.00     0.148 A 
ATOM     82  C   UNL A   1      51.779  25.770  26.304  1.00  0.00     0.002 A 
ATOM     83  C   UNL A   1      51.221  26.785  24.175  1.00  0.00     0.091 A 
ATOM     84  F   UNL A   1      49.077  27.796  23.898  1.00  0.00    -0.205 F 
ATOM     85  C   UNL A   1      52.138  26.125  25.006  1.00  0.00     0.022 A 
BRANCH  83  86
ATOM     86  S   UNL A   1      51.722  27.083  22.477  1.00  0.00     0.127 S 
ATOM     87  O   UNL A   1      52.110  28.491  22.523  1.00  0.00    -0.237 OA
ATOM     88  O   UNL A   1      52.833  26.142  22.323  1.00  0.00    -0.237 OA
ATOM     89  O   UNL A   1      50.556  26.775  21.661  1.00  0.00    -0.744 OA
ENDBRANCH  83  86
ENDBRANCH  55  79
BRANCH  67  90
ATOM     90  C   UNL A   1      46.687  32.489  28.691  1.00  0.00     0.023 A 
ATOM     91  C   UNL A   1      47.298  32.747  29.934  1.00  0.00     0.012 A 
ATOM     92  C   UNL A   1      46.647  33.507  27.717  1.00  0.00     0.148 A 
ATOM     93  C   UNL A   1      47.826  34.007  30.217  1.00  0.00     0.002 A 
ATOM     94  C   UNL A   1      47.223  34.743  27.986  1.00  0.00     0.091 A 
ATOM     95  F   UNL A   1      46.045  33.249  26.547  1.00  0.00    -0.205 F 
ATOM     96  C   UNL A   1      47.799  35.000  29.240  1.00  0.00     0.022 A 
BRANCH  94  97
ATOM     97  S   UNL A   1      47.323  36.048  26.755  1.00  0.00     0.127 S 
ATOM     98  O   UNL A   1      48.051  37.087  27.482  1.00  0.00    -0.237 OA
ATOM     99  O   UNL A   1      48.085  35.404  25.685  1.00  0.00    -0.237 OA
ATOM    100  O   UNL A   1      45.948  36.379  26.405  1.00  0.00    -0.744 OA
ENDBRANCH  94  97
ENDBRANCH  67  90
ENDBRANCH  41  42
ENDBRANCH  33  36
ENDBRANCH  31  32
ENDBRANCH  30  31
ENDBRANCH  29  30
ENDBRANCH   3  29
TORSDOF 19
ENDMDL
MODEL 2
REMARK VINA RESULT:     -11.1      2.107      7.712
REMARK SMILES O=C(CSc1nc2ccc(NC(=O)COc3ccc(Cl)cc3)cc2s1)NCCCNC(=O)c1ccc(-c2c3nc(c(-c4cccc(S(=O)(=O)[O-])c4F)c4ccc([nH]4)c(-c4cccc(S(=O)(=O)[O-])c4F)c4nc(c(-c5cccc(S(=O)(=O)[O-])c5F)c5ccc2[nH]5)C=C4)C=C3)cc1
REMARK SMILES IDX 1 1 2 2 26 3 3 5 4 6 5 7 6 8 25 9 7 10 24 11 8 12 23 13 9 14
REMARK SMILES IDX 10 15 11 16 12 17 13 19 14 20 15 21 16 22 17 23 22 24 18 25
REMARK SMILES IDX 21 26 19 27 20 28 27 29 28 30 29 31 30 32 31 33 32 35 33 36
REMARK SMILES IDX 34 37 95 38 35 39 94 40 36 41 37 42 38 43 88 44 39 45 93 46
REMARK SMILES IDX 87 47 89 48 40 49 92 50 86 51 85 52 41 54 73 55 53 56 72 57
REMARK SMILES IDX 54 58 57 59 71 60 90 61 55 62 56 63 70 65 91 66 58 67 42 68
REMARK SMILES IDX 43 69 51 70 44 71 46 72 52 73 45 74 47 75 48 76 49 77 50 78
REMARK SMILES IDX 74 79 75 80 83 81 76 82 78 83 84 84 77 85 79 86 80 87 81 88
REMARK SMILES IDX 82 89 59 90 60 91 68 92 61 93 63 94 69 95 62 96 64 97 65 98
REMARK SMILES IDX 66 99 67 100
REMARK H PARENT 26 4 11 18 30 34 89 53 57 64
REMARK Flexibility Score: inf
ROOT
ATOM      1  O   UNL A   1      35.366  22.316  23.863  1.00  0.00    -0.274 OA
ATOM      2  C   UNL A   1      35.119  21.337  24.565  1.00  0.00     0.230 C 
ATOM      3  N   UNL A   1      36.092  20.464  25.001  1.00  0.00    -0.355 N 
ATOM      4  H   UNL A   1      35.848  19.774  25.660  1.00  0.00     0.163 HD
ENDROOT
BRANCH   2   5
ATOM      5  C   UNL A   1      33.701  21.034  25.020  1.00  0.00     0.177 C 
BRANCH   5   6
ATOM      6  S   UNL A   1      33.287  21.701  26.660  1.00  0.00    -0.086 SA
BRANCH   6   7
ATOM      7  C   UNL A   1      33.010  23.411  26.365  1.00  0.00     0.151 A 
ATOM      8  N   UNL A   1      34.021  24.201  26.074  1.00  0.00    -0.230 NA
ATOM      9  S   UNL A   1      31.502  24.193  26.555  1.00  0.00    -0.108 S 
ATOM     10  C   UNL A   1      33.587  25.518  26.004  1.00  0.00     0.083 A 
ATOM     11  C   UNL A   1      32.232  25.703  26.247  1.00  0.00     0.057 A 
ATOM     12  C   UNL A   1      34.370  26.659  25.744  1.00  0.00     0.032 A 
ATOM     13  C   UNL A   1      31.618  26.964  26.241  1.00  0.00     0.047 A 
ATOM     14  C   UNL A   1      33.761  27.925  25.720  1.00  0.00     0.028 A 
ATOM     15  C   UNL A   1      32.387  28.084  25.941  1.00  0.00     0.042 A 
BRANCH  15  16
ATOM     16  N   UNL A   1      31.877  29.390  25.886  1.00  0.00    -0.323 N 
ATOM     17  C   UNL A   1      31.021  30.032  25.039  1.00  0.00     0.262 C 
ATOM     18  H   UNL A   1      32.207  29.966  26.613  1.00  0.00     0.170 HD
ATOM     19  O   UNL A   1      30.685  31.183  25.351  1.00  0.00    -0.271 OA
BRANCH  17  20
ATOM     20  C   UNL A   1      30.498  29.423  23.732  1.00  0.00     0.329 C 
BRANCH  20  21
ATOM     21  O   UNL A   1      31.414  29.018  22.730  1.00  0.00    -0.484 OA
BRANCH  21  22
ATOM     22  C   UNL A   1      31.721  27.692  22.639  1.00  0.00     0.120 A 
ATOM     23  C   UNL A   1      30.820  26.641  22.808  1.00  0.00     0.048 A 
ATOM     24  C   UNL A   1      33.045  27.412  22.289  1.00  0.00     0.048 A 
ATOM     25  C   UNL A   1      31.245  25.319  22.643  1.00  0.00     0.024 A 
ATOM     26  C   UNL A   1      33.476  26.091  22.138  1.00  0.00     0.024 A 
ATOM     27  C   UNL A   1      32.571  25.049  22.314  1.00  0.00     0.041 A 
ATOM     28  Cl  UNL A   1      33.086  23.419  22.122  1.00  0.00    -0.084 Cl
ENDBRANCH  21  22
ENDBRANCH  20  21
ENDBRANCH  17  20
ENDBRANCH  15  16
ENDBRANCH   6   7
ENDBRANCH   5   6
ENDBRANCH   2   5
BRANCH   3  29
ATOM     29  C   UNL A   1      37.461  20.522  24.526  1.00  0.00     0.117 C 
BRANCH  29  30
ATOM     30  C   UNL A   1      38.361  19.480  25.174  1.00  0.00     0.042 C 
BRANCH  30  31
ATOM     31  C   UNL A   1      39.313  20.038  26.227  1.00  0.00     0.118 C 
BRANCH  31  32
ATOM     32  N   UNL A   1      40.638  19.431  26.191  1.00  0.00    -0.352 N 
ATOM     33  C   UNL A   1      41.877  20.004  26.342  1.00  0.00     0.251 C 
ATOM     34  H   UNL A   1      40.646  18.459  26.033  1.00  0.00     0.163 HD
ATOM     35  O   UNL A   1      42.882  19.320  26.147  1.00  0.00    -0.269 OA
BRANCH  33  36
ATOM     36  C   UNL A   1      42.016  21.432  26.704  1.00  0.00     0.039 A 
ATOM     37  C   UNL A   1      42.250  21.765  28.042  1.00  0.00     0.014 A 
ATOM     38  C   UNL A   1      41.910  22.443  25.746  1.00  0.00     0.014 A 
ATOM     39  C   UNL A   1      42.452  23.100  28.403  1.00  0.00     0.010 A 
ATOM     40  C   UNL A   1      42.192  23.763  26.094  1.00  0.00     0.010 A 
ATOM     41  C   UNL A   1      42.469  24.108  27.425  1.00  0.00    -0.014 A 
BRANCH  41  42
ATOM     42  C   UNL A   1      42.808  25.513  27.775  1.00  0.00     0.031 A 
ATOM     43  C   UNL A   1      44.228  26.005  27.700  1.00  0.00     0.074 A 
ATOM     44  C   UNL A   1      41.841  26.331  28.243  1.00  0.00     0.049 A 
ATOM     45  N   UNL A   1      44.710  27.183  28.009  1.00  0.00    -0.248 NA
ATOM     46  C   UNL A   1      45.246  25.045  27.244  1.00  0.00     0.031 C 
ATOM     47  C   UNL A   1      40.439  25.955  28.440  1.00  0.00     0.029 A 
ATOM     48  N   UNL A   1      41.895  27.637  28.663  1.00  0.00    -0.354 N 
ATOM     49  C   UNL A   1      46.084  27.096  27.816  1.00  0.00     0.074 A 
ATOM     50  C   UNL A   1      46.364  25.741  27.396  1.00  0.00     0.031 C 
ATOM     51  C   UNL A   1      39.766  27.006  28.934  1.00  0.00     0.029 A 
ATOM     52  C   UNL A   1      40.691  28.118  29.124  1.00  0.00     0.049 A 
ATOM     53  H   UNL A   1      42.716  28.179  28.637  1.00  0.00     0.167 HD
ATOM     54  C   UNL A   1      47.025  28.062  27.952  1.00  0.00     0.034 A 
ATOM     55  C   UNL A   1      40.367  29.315  29.653  1.00  0.00     0.034 A 
ATOM     56  C   UNL A   1      46.740  29.418  28.340  1.00  0.00     0.049 A 
ATOM     57  C   UNL A   1      41.426  30.377  29.768  1.00  0.00     0.074 A 
ATOM     58  C   UNL A   1      47.614  30.489  28.420  1.00  0.00     0.029 A 
ATOM     59  N   UNL A   1      45.496  29.889  28.728  1.00  0.00    -0.354 N 
ATOM     60  N   UNL A   1      42.691  30.322  29.428  1.00  0.00    -0.248 NA
ATOM     61  C   UNL A   1      41.006  31.679  30.305  1.00  0.00     0.031 C 
ATOM     62  C   UNL A   1      46.904  31.599  28.892  1.00  0.00     0.029 A 
ATOM     63  C   UNL A   1      45.580  31.230  29.065  1.00  0.00     0.049 A 
ATOM     64  H   UNL A   1      44.674  29.349  28.761  1.00  0.00     0.167 HD
ATOM     65  C   UNL A   1      43.207  31.589  29.675  1.00  0.00     0.074 A 
ATOM     66  C   UNL A   1      42.112  32.397  30.172  1.00  0.00     0.031 C 
ATOM     67  C   UNL A   1      44.476  32.039  29.514  1.00  0.00     0.034 A 
BRANCH  54  68
ATOM     68  C   UNL A   1      48.454  27.699  27.636  1.00  0.00     0.023 A 
ATOM     69  C   UNL A   1      49.276  27.154  28.645  1.00  0.00     0.012 A 
ATOM     70  C   UNL A   1      48.964  27.834  26.330  1.00  0.00     0.148 A 
ATOM     71  C   UNL A   1      50.592  26.785  28.369  1.00  0.00     0.002 A 
ATOM     72  C   UNL A   1      50.262  27.419  26.052  1.00  0.00     0.091 A 
ATOM     73  F   UNL A   1      48.176  28.370  25.388  1.00  0.00    -0.205 F 
ATOM     74  C   UNL A   1      51.080  26.907  27.071  1.00  0.00     0.022 A 
BRANCH  72  75
ATOM     75  S   UNL A   1      50.958  27.457  24.395  1.00  0.00     0.127 S 
ATOM     76  O   UNL A   1      51.030  28.896  24.140  1.00  0.00    -0.237 OA
ATOM     77  O   UNL A   1      52.255  26.808  24.594  1.00  0.00    -0.237 OA
ATOM     78  O   UNL A   1      50.030  26.720  23.550  1.00  0.00    -0.744 OA
ENDBRANCH  72  75
ENDBRANCH  54  68
BRANCH  55  79
ATOM     79  C   UNL A   1      38.962  29.591  30.067  1.00  0.00     0.023 A 
ATOM     80  C   UNL A   1      38.534  29.229  31.359  1.00  0.00     0.012 A 
ATOM     81  C   UNL A   1      38.054  30.226  29.196  1.00  0.00     0.148 A 
ATOM     82  C   UNL A   1      37.219  29.461  31.764  1.00  0.00     0.002 A 
ATOM     83  C   UNL A   1      36.763  30.506  29.626  1.00  0.00     0.091 A 
ATOM     84  F   UNL A   1      38.478  30.553  27.967  1.00  0.00    -0.205 F 
ATOM     85  C   UNL A   1      36.338  30.107  30.902  1.00  0.00     0.022 A 
BRANCH  83  86
ATOM     86  S   UNL A   1      35.602  31.452  28.635  1.00  0.00     0.127 S 
ATOM     87  O   UNL A   1      36.451  32.526  28.125  1.00  0.00    -0.237 OA
ATOM     88  O   UNL A   1      35.189  30.466  27.636  1.00  0.00    -0.237 OA
ATOM     89  O   UNL A   1      34.545  31.861  29.549  1.00  0.00    -0.744 OA
ENDBRANCH  83  86
ENDBRANCH  55  79
BRANCH  67  90
ATOM     90  C   UNL A   1      44.752  33.485  29.835  1.00  0.00     0.023 A 
ATOM     91  C   UNL A   1      45.220  33.850  31.113  1.00  0.00     0.012 A 
ATOM     92  C   UNL A   1      44.609  34.478  28.844  1.00  0.00     0.148 A 
ATOM     93  C   UNL A   1      45.504  35.183  31.412  1.00  0.00     0.002 A 
ATOM     94  C   UNL A   1      44.945  35.795  29.132  1.00  0.00     0.091 A 
ATOM     95  F   UNL A   1      44.145  34.115  27.639  1.00  0.00    -0.205 F 
ATOM     96  C   UNL A   1      45.379  36.152  30.419  1.00  0.00     0.022 A 
BRANCH  94  97
ATOM     97  S   UNL A   1      44.910  37.093  27.890  1.00  0.00     0.127 S 
ATOM     98  O   UNL A   1      43.488  37.144  27.554  1.00  0.00    -0.237 OA
ATOM     99  O   UNL A   1      45.403  38.249  28.639  1.00  0.00    -0.237 OA
ATOM    100  O   UNL A   1      45.789  36.647  26.817  1.00  0.00    -0.744 OA
ENDBRANCH  94  97
ENDBRANCH  67  90
ENDBRANCH  41  42
ENDBRANCH  33  36
ENDBRANCH  31  32
ENDBRANCH  30  31
ENDBRANCH  29  30
ENDBRANCH   3  29
TORSDOF 19
ENDMDL
MODEL 3
REMARK VINA RESULT:     -11.0      1.886      2.496
REMARK SMILES O=C(CSc1nc2ccc(NC(=O)COc3ccc(Cl)cc3)cc2s1)NCCCNC(=O)c1ccc(-c2c3nc(c(-c4cccc(S(=O)(=O)[O-])c4F)c4ccc([nH]4)c(-c4cccc(S(=O)(=O)[O-])c4F)c4nc(c(-c5cccc(S(=O)(=O)[O-])c5F)c5ccc2[nH]5)C=C4)C=C3)cc1
REMARK SMILES IDX 1 1 2 2 26 3 3 5 4 6 5 7 6 8 25 9 7 10 24 11 8 12 23 13 9 14
REMARK SMILES IDX 10 15 11 16 12 17 13 19 14 20 15 21 16 22 17 23 22 24 18 25
REMARK SMILES IDX 21 26 19 27 20 28 27 29 28 30 29 31 30 32 31 33 32 35 33 36
REMARK SMILES IDX 34 37 95 38 35 39 94 40 36 41 37 42 38 43 88 44 39 45 93 46
REMARK SMILES IDX 87 47 89 48 40 49 92 50 86 51 85 52 41 54 73 55 53 56 72 57
REMARK SMILES IDX 54 58 57 59 71 60 90 61 55 62 56 63 70 65 91 66 58 67 42 68
REMARK SMILES IDX 43 69 51 70 44 71 46 72 52 73 45 74 47 75 48 76 49 77 50 78
REMARK SMILES IDX 74 79 75 80 83 81 76 82 78 83 84 84 77 85 79 86 80 87 81 88
REMARK SMILES IDX 82 89 59 90 60 91 68 92 61 93 63 94 69 95 62 96 64 97 65 98
REMARK SMILES IDX 66 99 67 100
REMARK H PARENT 26 4 11 18 30 34 89 53 57 64
REMARK Flexibility Score: inf
ROOT
ATOM      1  O   UNL A   1      35.976  22.140  24.186  1.00  0.00    -0.274 OA
ATOM      2  C   UNL A   1      35.526  21.187  24.819  1.00  0.00     0.230 C 
ATOM      3  N   UNL A   1      36.270  20.066  25.116  1.00  0.00    -0.355 N 
ATOM      4  H   UNL A   1      35.893  19.395  25.730  1.00  0.00     0.163 HD
ENDROOT
BRANCH   2   5
ATOM      5  C   UNL A   1      34.098  21.195  25.341  1.00  0.00     0.177 C 
BRANCH   5   6
ATOM      6  S   UNL A   1      33.875  22.124  26.888  1.00  0.00    -0.086 SA
BRANCH   6   7
ATOM      7  C   UNL A   1      33.349  23.713  26.355  1.00  0.00     0.151 A 
ATOM      8  N   UNL A   1      34.142  24.456  25.613  1.00  0.00    -0.230 NA
ATOM      9  S   UNL A   1      31.891  24.461  26.841  1.00  0.00    -0.108 S 
ATOM     10  C   UNL A   1      33.573  25.707  25.418  1.00  0.00     0.083 A 
ATOM     11  C   UNL A   1      32.337  25.891  26.025  1.00  0.00     0.057 A 
ATOM     12  C   UNL A   1      34.123  26.789  24.705  1.00  0.00     0.032 A 
ATOM     13  C   UNL A   1      31.621  27.095  25.956  1.00  0.00     0.047 A 
ATOM     14  C   UNL A   1      33.405  27.995  24.616  1.00  0.00     0.028 A 
ATOM     15  C   UNL A   1      32.149  28.147  25.214  1.00  0.00     0.042 A 
BRANCH  15  16
ATOM     16  N   UNL A   1      31.512  29.389  25.058  1.00  0.00    -0.323 N 
ATOM     17  C   UNL A   1      30.442  29.813  24.325  1.00  0.00     0.262 C 
ATOM     18  H   UNL A   1      31.925  30.107  25.591  1.00  0.00     0.170 HD
ATOM     19  O   UNL A   1      30.066  30.979  24.510  1.00  0.00    -0.271 OA
BRANCH  17  20
ATOM     20  C   UNL A   1      29.724  28.946  23.283  1.00  0.00     0.329 C 
BRANCH  20  21
ATOM     21  O   UNL A   1      30.464  28.370  22.220  1.00  0.00    -0.484 OA
BRANCH  21  22
ATOM     22  C   UNL A   1      30.828  27.060  22.329  1.00  0.00     0.120 A 
ATOM     23  C   UNL A   1      31.968  26.488  21.766  1.00  0.00     0.048 A 
ATOM     24  C   UNL A   1      29.991  26.276  23.130  1.00  0.00     0.048 A 
ATOM     25  C   UNL A   1      32.260  25.139  21.989  1.00  0.00     0.024 A 
ATOM     26  C   UNL A   1      30.272  24.924  23.342  1.00  0.00     0.024 A 
ATOM     27  C   UNL A   1      31.409  24.361  22.770  1.00  0.00     0.041 A 
ATOM     28  Cl  UNL A   1      31.773  22.701  23.032  1.00  0.00    -0.084 Cl
ENDBRANCH  21  22
ENDBRANCH  20  21
ENDBRANCH  17  20
ENDBRANCH  15  16
ENDBRANCH   6   7
ENDBRANCH   5   6
ENDBRANCH   2   5
BRANCH   3  29
ATOM     29  C   UNL A   1      37.588  19.837  24.557  1.00  0.00     0.117 C 
BRANCH  29  30
ATOM     30  C   UNL A   1      38.421  18.860  25.376  1.00  0.00     0.042 C 
BRANCH  30  31
ATOM     31  C   UNL A   1      39.515  19.514  26.214  1.00  0.00     0.118 C 
BRANCH  31  32
ATOM     32  N   UNL A   1      40.827  18.905  26.030  1.00  0.00    -0.352 N 
ATOM     33  C   UNL A   1      42.076  19.478  26.038  1.00  0.00     0.251 C 
ATOM     34  H   UNL A   1      40.816  17.933  25.876  1.00  0.00     0.163 HD
ATOM     35  O   UNL A   1      43.052  18.792  25.734  1.00  0.00    -0.269 OA
BRANCH  33  36
ATOM     36  C   UNL A   1      42.256  20.907  26.378  1.00  0.00     0.039 A 
ATOM     37  C   UNL A   1      42.687  21.242  27.665  1.00  0.00     0.014 A 
ATOM     38  C   UNL A   1      41.998  21.917  25.448  1.00  0.00     0.014 A 
ATOM     39  C   UNL A   1      42.930  22.578  27.993  1.00  0.00     0.010 A 
ATOM     40  C   UNL A   1      42.318  23.240  25.751  1.00  0.00     0.010 A 
ATOM     41  C   UNL A   1      42.790  23.587  27.026  1.00  0.00    -0.014 A 
BRANCH  41  42
ATOM     42  C   UNL A   1      43.166  24.995  27.323  1.00  0.00     0.031 A 
ATOM     43  C   UNL A   1      42.178  25.940  27.952  1.00  0.00     0.074 A 
ATOM     44  C   UNL A   1      44.379  25.449  26.946  1.00  0.00     0.049 A 
ATOM     45  N   UNL A   1      42.321  27.209  28.241  1.00  0.00    -0.248 NA
ATOM     46  C   UNL A   1      40.848  25.399  28.279  1.00  0.00     0.031 C 
ATOM     47  C   UNL A   1      45.401  24.658  26.255  1.00  0.00     0.029 A 
ATOM     48  N   UNL A   1      44.950  26.693  27.068  1.00  0.00    -0.354 N 
ATOM     49  C   UNL A   1      41.096  27.625  28.750  1.00  0.00     0.074 A 
ATOM     50  C   UNL A   1      40.211  26.482  28.701  1.00  0.00     0.031 C 
ATOM     51  C   UNL A   1      46.473  25.431  26.021  1.00  0.00     0.029 A 
ATOM     52  C   UNL A   1      46.206  26.780  26.510  1.00  0.00     0.049 A 
ATOM     53  H   UNL A   1      44.505  27.449  27.512  1.00  0.00     0.167 HD
ATOM     54  C   UNL A   1      40.746  28.840  29.238  1.00  0.00     0.034 A 
ATOM     55  C   UNL A   1      47.044  27.828  26.393  1.00  0.00     0.034 A 
ATOM     56  C   UNL A   1      41.637  29.967  29.315  1.00  0.00     0.049 A 
ATOM     57  C   UNL A   1      46.640  29.158  26.966  1.00  0.00     0.074 A 
ATOM     58  C   UNL A   1      41.401  31.212  29.873  1.00  0.00     0.029 A 
ATOM     59  N   UNL A   1      42.927  29.996  28.808  1.00  0.00    -0.354 N 
ATOM     60  N   UNL A   1      45.535  29.487  27.589  1.00  0.00    -0.248 NA
ATOM     61  C   UNL A   1      47.614  30.254  26.855  1.00  0.00     0.031 C 
ATOM     62  C   UNL A   1      42.535  32.005  29.670  1.00  0.00     0.029 A 
ATOM     63  C   UNL A   1      43.493  31.242  29.024  1.00  0.00     0.049 A 
ATOM     64  H   UNL A   1      43.373  29.243  28.359  1.00  0.00     0.167 HD
ATOM     65  C   UNL A   1      45.695  30.814  27.975  1.00  0.00     0.074 A 
ATOM     66  C   UNL A   1      47.014  31.220  27.535  1.00  0.00     0.031 C 
ATOM     67  C   UNL A   1      44.823  31.624  28.625  1.00  0.00     0.034 A 
BRANCH  54  68
ATOM     68  C   UNL A   1      39.345  29.006  29.770  1.00  0.00     0.023 A 
ATOM     69  C   UNL A   1      39.063  28.673  31.111  1.00  0.00     0.012 A 
ATOM     70  C   UNL A   1      38.325  29.553  28.967  1.00  0.00     0.148 A 
ATOM     71  C   UNL A   1      37.781  28.844  31.633  1.00  0.00     0.002 A 
ATOM     72  C   UNL A   1      37.062  29.766  29.508  1.00  0.00     0.091 A 
ATOM     73  F   UNL A   1      38.606  29.847  27.690  1.00  0.00    -0.205 F 
ATOM     74  C   UNL A   1      36.785  29.401  30.835  1.00  0.00     0.022 A 
BRANCH  72  75
ATOM     75  S   UNL A   1      35.734  30.553  28.589  1.00  0.00     0.127 S 
ATOM     76  O   UNL A   1      36.481  31.371  27.634  1.00  0.00    -0.237 OA
ATOM     77  O   UNL A   1      35.047  29.403  28.000  1.00  0.00    -0.237 OA
ATOM     78  O   UNL A   1      34.951  31.295  29.567  1.00  0.00    -0.744 OA
ENDBRANCH  72  75
ENDBRANCH  54  68
BRANCH  55  79
ATOM     79  C   UNL A   1      48.377  27.648  25.748  1.00  0.00     0.023 A 
ATOM     80  C   UNL A   1      49.511  27.414  26.549  1.00  0.00     0.012 A 
ATOM     81  C   UNL A   1      48.522  27.691  24.348  1.00  0.00     0.148 A 
ATOM     82  C   UNL A   1      50.771  27.261  25.971  1.00  0.00     0.002 A 
ATOM     83  C   UNL A   1      49.770  27.479  23.775  1.00  0.00     0.091 A 
ATOM     84  F   UNL A   1      47.432  27.924  23.604  1.00  0.00    -0.205 F 
ATOM     85  C   UNL A   1      50.899  27.284  24.585  1.00  0.00     0.022 A 
BRANCH  83  86
ATOM     86  S   UNL A   1      50.007  27.359  21.999  1.00  0.00     0.127 S 
ATOM     87  O   UNL A   1      51.410  26.961  21.911  1.00  0.00    -0.237 OA
ATOM     88  O   UNL A   1      49.046  26.315  21.638  1.00  0.00    -0.237 OA
ATOM     89  O   UNL A   1      49.690  28.678  21.469  1.00  0.00    -0.744 OA
ENDBRANCH  83  86
ENDBRANCH  55  79
BRANCH  67  90
ATOM     90  C   UNL A   1      45.276  33.025  28.945  1.00  0.00     0.023 A 
ATOM     91  C   UNL A   1      45.977  33.287  30.139  1.00  0.00     0.012 A 
ATOM     92  C   UNL A   1      45.064  34.073  28.027  1.00  0.00     0.148 A 
ATOM     93  C   UNL A   1      46.425  34.575  30.432  1.00  0.00     0.002 A 
ATOM     94  C   UNL A   1      45.559  35.343  28.299  1.00  0.00     0.091 A 
ATOM     95  F   UNL A   1      44.379  33.810  26.904  1.00  0.00    -0.205 F 
ATOM     96  C   UNL A   1      46.227  35.599  29.508  1.00  0.00     0.022 A 
BRANCH  94  97
ATOM     97  S   UNL A   1      45.439  36.697  27.126  1.00  0.00     0.127 S 
ATOM     98  O   UNL A   1      46.081  37.786  27.862  1.00  0.00    -0.237 OA
ATOM     99  O   UNL A   1      46.210  36.191  25.990  1.00  0.00    -0.237 OA
ATOM    100  O   UNL A   1      44.017  36.876  26.861  1.00  0.00    -0.744 OA
ENDBRANCH  94  97
ENDBRANCH  67  90
ENDBRANCH  41  42
ENDBRANCH  33  36
ENDBRANCH  31  32
ENDBRANCH  30  31
ENDBRANCH  29  30
ENDBRANCH   3  29
TORSDOF 19
ENDMDL
