MODEL 1
REMARK VINA RESULT:     -11.2      0.000      0.000
REMARK SMILES COC(=O)[C@@H]([NH2+]CC(C)(C)C(=O)NCCCNC(=O)c1ccc(-c2c3nc(c(-c4cccc(S(=O)(=O)[O-])c4F)c4ccc([nH]4)c(-c4cccc(S(=O)(=O)[O-])c4F)c4nc(c(-c5cccc(S(=O)(=O)[O-])c5F)c5ccc2[nH]5)C=C4)C=C3)cc1)c1ccccc1
REMARK SMILES IDX 14 1 13 2 11 3 12 4 8 6 9 7 10 8 7 9 6 10 5 13 3 14 4 15
REMARK SMILES IDX 2 16 1 17 83 18 84 19 88 20 85 21 87 22 86 23 15 24 16 25
REMARK SMILES IDX 17 26 18 27 19 29 20 30 21 31 82 32 22 33 81 34 23 35 24 36
REMARK SMILES IDX 25 37 75 38 26 39 80 40 74 41 76 42 27 43 79 44 73 45 72 46
REMARK SMILES IDX 28 48 60 49 40 50 59 51 41 52 44 53 58 54 77 55 42 56 43 57
REMARK SMILES IDX 57 59 78 60 45 61 29 62 30 63 38 64 31 65 33 66 39 67 32 68
REMARK SMILES IDX 34 69 35 70 36 71 37 72 61 73 62 74 70 75 63 76 65 77 71 78
REMARK SMILES IDX 64 79 66 80 67 81 68 82 69 83 46 84 47 85 55 86 48 87 50 88
REMARK SMILES IDX 56 89 49 90 51 91 52 92 53 93 54 94
REMARK H PARENT 13 5 6 11 6 12 17 28 76 47 44 58
REMARK Flexibility Score: inf
ROOT
ATOM      1  C   UNL A   1      34.495  21.923  24.661  1.00  0.00     0.117 C 
ENDROOT
BRANCH   1   2
ATOM      2  N   UNL A   1      34.242  22.509  23.358  1.00  0.00    -0.355 N 
ATOM      3  C   UNL A   1      33.241  23.309  22.917  1.00  0.00     0.231 C 
ATOM      4  O   UNL A   1      32.867  23.039  21.777  1.00  0.00    -0.274 OA
ATOM      5  H   UNL A   1      34.915  22.287  22.676  1.00  0.00     0.163 HD
BRANCH   3   6
ATOM      6  C   UNL A   1      32.623  24.446  23.745  1.00  0.00     0.092 C 
ATOM      7  C   UNL A   1      33.687  25.492  24.113  1.00  0.00     0.027 C 
ATOM      8  C   UNL A   1      32.000  23.846  25.022  1.00  0.00     0.027 C 
BRANCH   6   9
ATOM      9  C   UNL A   1      31.431  25.147  22.978  1.00  0.00     0.277 C 
BRANCH   9  10
ATOM     10  N   UNL A   1      31.354  26.618  22.850  1.00  0.00    -0.330 N 
ATOM     11  H   UNL A   1      32.273  27.005  23.065  1.00  0.00     0.347 HD
ATOM     12  H   UNL A   1      31.054  26.809  21.894  1.00  0.00     0.347 HD
BRANCH  10  13
ATOM     13  C   UNL A   1      30.355  27.269  23.744  1.00  0.00     0.324 C 
BRANCH  13  14
ATOM     14  C   UNL A   1      29.378  28.126  22.905  1.00  0.00     0.369 C 
ATOM     15  O   UNL A   1      28.176  28.205  23.155  1.00  0.00    -0.245 OA
BRANCH  14  16
ATOM     16  O   UNL A   1      29.954  28.717  21.821  1.00  0.00    -0.464 OA
ATOM     17  C   UNL A   1      29.813  30.136  21.794  1.00  0.00     0.282 C 
ENDBRANCH  14  16
ENDBRANCH  13  14
BRANCH  13  18
ATOM     18  C   UNL A   1      30.955  27.994  24.949  1.00  0.00     0.021 A 
ATOM     19  C   UNL A   1      31.117  27.297  26.162  1.00  0.00     0.010 A 
ATOM     20  C   UNL A   1      31.404  29.322  24.902  1.00  0.00     0.010 A 
ATOM     21  C   UNL A   1      31.714  27.888  27.276  1.00  0.00     0.001 A 
ATOM     22  C   UNL A   1      31.963  29.932  26.033  1.00  0.00     0.001 A 
ATOM     23  C   UNL A   1      32.127  29.212  27.215  1.00  0.00     0.000 A 
ENDBRANCH  13  18
ENDBRANCH  10  13
ENDBRANCH   9  10
ENDBRANCH   6   9
ENDBRANCH   3   6
ENDBRANCH   1   2
BRANCH   1  24
ATOM     24  C   UNL A   1      35.791  21.107  24.656  1.00  0.00     0.042 C 
BRANCH  24  25
ATOM     25  C   UNL A   1      36.904  21.669  25.544  1.00  0.00     0.118 C 
BRANCH  25  26
ATOM     26  N   UNL A   1      37.990  20.720  25.765  1.00  0.00    -0.352 N 
ATOM     27  C   UNL A   1      39.286  20.934  26.162  1.00  0.00     0.251 C 
ATOM     28  H   UNL A   1      37.756  19.778  25.605  1.00  0.00     0.163 HD
ATOM     29  O   UNL A   1      40.100  20.015  26.102  1.00  0.00    -0.269 OA
BRANCH  27  30
ATOM     30  C   UNL A   1      39.708  22.267  26.631  1.00  0.00     0.039 A 
ATOM     31  C   UNL A   1      40.746  22.359  27.561  1.00  0.00     0.014 A 
ATOM     32  C   UNL A   1      39.089  23.422  26.149  1.00  0.00     0.014 A 
ATOM     33  C   UNL A   1      41.221  23.616  27.941  1.00  0.00     0.010 A 
ATOM     34  C   UNL A   1      39.614  24.670  26.468  1.00  0.00     0.010 A 
ATOM     35  C   UNL A   1      40.691  24.780  27.360  1.00  0.00    -0.014 A 
BRANCH  35  36
ATOM     36  C   UNL A   1      41.287  26.113  27.630  1.00  0.00     0.031 A 
ATOM     37  C   UNL A   1      42.697  26.423  27.211  1.00  0.00     0.074 A 
ATOM     38  C   UNL A   1      40.584  27.014  28.347  1.00  0.00     0.049 A 
ATOM     39  N   UNL A   1      43.394  27.511  27.409  1.00  0.00    -0.248 NA
ATOM     40  C   UNL A   1      43.428  25.363  26.498  1.00  0.00     0.031 C 
ATOM     41  C   UNL A   1      39.238  26.799  28.886  1.00  0.00     0.029 A 
ATOM     42  N   UNL A   1      40.912  28.277  28.772  1.00  0.00    -0.354 N 
ATOM     43  C   UNL A   1      44.653  27.257  26.881  1.00  0.00     0.074 A 
ATOM     44  C   UNL A   1      44.635  25.899  26.382  1.00  0.00     0.031 C 
ATOM     45  C   UNL A   1      38.853  27.894  29.558  1.00  0.00     0.029 A 
ATOM     46  C   UNL A   1      39.934  28.873  29.532  1.00  0.00     0.049 A 
ATOM     47  H   UNL A   1      41.766  28.714  28.552  1.00  0.00     0.167 HD
ATOM     48  C   UNL A   1      45.720  28.088  26.791  1.00  0.00     0.034 A 
ATOM     49  C   UNL A   1      39.912  30.070  30.152  1.00  0.00     0.034 A 
ATOM     50  C   UNL A   1      45.723  29.448  27.261  1.00  0.00     0.049 A 
ATOM     51  C   UNL A   1      41.100  30.981  30.020  1.00  0.00     0.074 A 
ATOM     52  C   UNL A   1      46.716  30.402  27.129  1.00  0.00     0.029 A 
ATOM     53  N   UNL A   1      44.690  30.043  27.970  1.00  0.00    -0.354 N 
ATOM     54  N   UNL A   1      42.218  30.790  29.364  1.00  0.00    -0.248 NA
ATOM     55  C   UNL A   1      41.014  32.286  30.691  1.00  0.00     0.031 C 
ATOM     56  C   UNL A   1      46.298  31.563  27.789  1.00  0.00     0.029 A 
ATOM     57  C   UNL A   1      45.031  31.343  28.305  1.00  0.00     0.049 A 
ATOM     58  H   UNL A   1      43.840  29.605  28.203  1.00  0.00     0.167 HD
ATOM     59  C   UNL A   1      42.959  31.956  29.520  1.00  0.00     0.074 A 
ATOM     60  C   UNL A   1      42.148  32.860  30.310  1.00  0.00     0.031 C 
ATOM     61  C   UNL A   1      44.202  32.245  29.064  1.00  0.00     0.034 A 
BRANCH  48  62
ATOM     62  C   UNL A   1      46.962  27.558  26.119  1.00  0.00     0.023 A 
ATOM     63  C   UNL A   1      47.171  27.806  24.747  1.00  0.00     0.012 A 
ATOM     64  C   UNL A   1      47.940  26.855  26.851  1.00  0.00     0.148 A 
ATOM     65  C   UNL A   1      48.311  27.326  24.103  1.00  0.00     0.002 A 
ATOM     66  C   UNL A   1      49.097  26.421  26.211  1.00  0.00     0.091 A 
ATOM     67  F   UNL A   1      47.717  26.611  28.149  1.00  0.00    -0.205 F 
ATOM     68  C   UNL A   1      49.276  26.642  24.836  1.00  0.00     0.022 A 
BRANCH  66  69
ATOM     69  S   UNL A   1      50.436  25.603  27.084  1.00  0.00     0.127 S 
ATOM     70  O   UNL A   1      51.400  25.384  26.006  1.00  0.00    -0.237 OA
ATOM     71  O   UNL A   1      50.833  26.618  28.059  1.00  0.00    -0.237 OA
ATOM     72  O   UNL A   1      49.859  24.398  27.664  1.00  0.00    -0.744 OA
ENDBRANCH  66  69
ENDBRANCH  48  62
BRANCH  49  73
ATOM     73  C   UNL A   1      38.694  30.494  30.899  1.00  0.00     0.023 A 
ATOM     74  C   UNL A   1      38.626  30.272  32.289  1.00  0.00     0.012 A 
ATOM     75  C   UNL A   1      37.629  31.153  30.255  1.00  0.00     0.148 A 
ATOM     76  C   UNL A   1      37.508  30.676  33.018  1.00  0.00     0.002 A 
ATOM     77  C   UNL A   1      36.544  31.603  30.997  1.00  0.00     0.091 A 
ATOM     78  F   UNL A   1      37.710  31.345  28.931  1.00  0.00    -0.205 F 
ATOM     79  C   UNL A   1      36.473  31.351  32.376  1.00  0.00     0.022 A 
BRANCH  77  80
ATOM     80  S   UNL A   1      35.232  32.599  30.282  1.00  0.00     0.127 S 
ATOM     81  O   UNL A   1      34.312  32.736  31.409  1.00  0.00    -0.237 OA
ATOM     82  O   UNL A   1      35.947  33.822  29.917  1.00  0.00    -0.237 OA
ATOM     83  O   UNL A   1      34.730  31.836  29.148  1.00  0.00    -0.744 OA
ENDBRANCH  77  80
ENDBRANCH  49  73
BRANCH  61  84
ATOM     84  C   UNL A   1      44.767  33.603  29.396  1.00  0.00     0.023 A 
ATOM     85  C   UNL A   1      45.560  33.766  30.550  1.00  0.00     0.012 A 
ATOM     86  C   UNL A   1      44.573  34.697  28.531  1.00  0.00     0.148 A 
ATOM     87  C   UNL A   1      46.124  35.004  30.854  1.00  0.00     0.002 A 
ATOM     88  C   UNL A   1      45.180  35.915  28.814  1.00  0.00     0.091 A 
ATOM     89  F   UNL A   1      43.802  34.527  27.447  1.00  0.00    -0.205 F 
ATOM     90  C   UNL A   1      45.944  36.074  29.981  1.00  0.00     0.022 A 
BRANCH  88  91
ATOM     91  S   UNL A   1      45.084  37.324  27.703  1.00  0.00     0.127 S 
ATOM     92  O   UNL A   1      45.397  38.434  28.602  1.00  0.00    -0.237 OA
ATOM     93  O   UNL A   1      46.128  37.018  26.726  1.00  0.00    -0.237 OA
ATOM     94  O   UNL A   1      43.730  37.322  27.165  1.00  0.00    -0.744 OA
ENDBRANCH  88  91
ENDBRANCH  61  84
ENDBRANCH  35  36
ENDBRANCH  27  30
ENDBRANCH  25  26
ENDBRANCH  24  25
ENDBRANCH   1  24
TORSDOF 19
ENDMDL
MODEL 2
REMARK VINA RESULT:     -11.2      5.319      7.790
REMARK SMILES COC(=O)[C@@H]([NH2+]CC(C)(C)C(=O)NCCCNC(=O)c1ccc(-c2c3nc(c(-c4cccc(S(=O)(=O)[O-])c4F)c4ccc([nH]4)c(-c4cccc(S(=O)(=O)[O-])c4F)c4nc(c(-c5cccc(S(=O)(=O)[O-])c5F)c5ccc2[nH]5)C=C4)C=C3)cc1)c1ccccc1
REMARK SMILES IDX 14 1 13 2 11 3 12 4 8 6 9 7 10 8 7 9 6 10 5 13 3 14 4 15
REMARK SMILES IDX 2 16 1 17 83 18 84 19 88 20 85 21 87 22 86 23 15 24 16 25
REMARK SMILES IDX 17 26 18 27 19 29 20 30 21 31 82 32 22 33 81 34 23 35 24 36
REMARK SMILES IDX 25 37 75 38 26 39 80 40 74 41 76 42 27 43 79 44 73 45 72 46
REMARK SMILES IDX 28 48 60 49 40 50 59 51 41 52 44 53 58 54 77 55 42 56 43 57
REMARK SMILES IDX 57 59 78 60 45 61 29 62 30 63 38 64 31 65 33 66 39 67 32 68
REMARK SMILES IDX 34 69 35 70 36 71 37 72 61 73 62 74 70 75 63 76 65 77 71 78
REMARK SMILES IDX 64 79 66 80 67 81 68 82 69 83 46 84 47 85 55 86 48 87 50 88
REMARK SMILES IDX 56 89 49 90 51 91 52 92 53 93 54 94
REMARK H PARENT 13 5 6 11 6 12 17 28 76 47 44 58
REMARK Flexibility Score: inf
ROOT
ATOM      1  C   UNL A   1      32.375  26.810  26.043  1.00  0.00     0.117 C 
ENDROOT
BRANCH   1   2
ATOM      2  N   UNL A   1      32.988  25.496  26.091  1.00  0.00    -0.355 N 
ATOM      3  C   UNL A   1      32.451  24.264  26.259  1.00  0.00     0.231 C 
ATOM      4  O   UNL A   1      33.134  23.526  26.968  1.00  0.00    -0.274 OA
ATOM      5  H   UNL A   1      33.966  25.501  25.982  1.00  0.00     0.163 HD
BRANCH   3   6
ATOM      6  C   UNL A   1      31.122  23.814  25.633  1.00  0.00     0.092 C 
ATOM      7  C   UNL A   1      31.043  24.243  24.159  1.00  0.00     0.027 C 
ATOM      8  C   UNL A   1      29.961  24.440  26.434  1.00  0.00     0.027 C 
BRANCH   6   9
ATOM      9  C   UNL A   1      30.922  22.250  25.742  1.00  0.00     0.277 C 
BRANCH   9  10
ATOM     10  N   UNL A   1      32.068  21.336  25.940  1.00  0.00    -0.330 N 
ATOM     11  H   UNL A   1      32.781  21.831  26.476  1.00  0.00     0.347 HD
ATOM     12  H   UNL A   1      31.703  20.516  26.424  1.00  0.00     0.347 HD
BRANCH  10  13
ATOM     13  C   UNL A   1      32.693  20.841  24.681  1.00  0.00     0.324 C 
BRANCH  13  14
ATOM     14  C   UNL A   1      32.526  19.306  24.580  1.00  0.00     0.369 C 
ATOM     15  O   UNL A   1      32.183  18.609  25.535  1.00  0.00    -0.245 OA
BRANCH  14  16
ATOM     16  O   UNL A   1      32.871  18.791  23.367  1.00  0.00    -0.464 OA
ATOM     17  C   UNL A   1      33.046  17.375  23.370  1.00  0.00     0.282 C 
ENDBRANCH  14  16
ENDBRANCH  13  14
BRANCH  13  18
ATOM     18  C   UNL A   1      34.120  21.337  24.439  1.00  0.00     0.021 A 
ATOM     19  C   UNL A   1      34.324  22.489  23.656  1.00  0.00     0.010 A 
ATOM     20  C   UNL A   1      35.251  20.727  25.000  1.00  0.00     0.010 A 
ATOM     21  C   UNL A   1      35.596  23.023  23.452  1.00  0.00     0.001 A 
ATOM     22  C   UNL A   1      36.534  21.236  24.759  1.00  0.00     0.001 A 
ATOM     23  C   UNL A   1      36.705  22.389  23.994  1.00  0.00     0.000 A 
ENDBRANCH  13  18
ENDBRANCH  10  13
ENDBRANCH   9  10
ENDBRANCH   6   9
ENDBRANCH   3   6
ENDBRANCH   1   2
BRANCH   1  24
ATOM     24  C   UNL A   1      32.857  27.599  24.823  1.00  0.00     0.042 C 
BRANCH  24  25
ATOM     25  C   UNL A   1      33.745  28.802  25.151  1.00  0.00     0.118 C 
BRANCH  25  26
ATOM     26  N   UNL A   1      32.983  29.984  25.541  1.00  0.00    -0.352 N 
ATOM     27  C   UNL A   1      33.120  30.808  26.629  1.00  0.00     0.251 C 
ATOM     28  H   UNL A   1      32.255  30.228  24.926  1.00  0.00     0.163 HD
ATOM     29  O   UNL A   1      32.250  31.640  26.877  1.00  0.00    -0.269 OA
BRANCH  27  30
ATOM     30  C   UNL A   1      34.292  30.676  27.515  1.00  0.00     0.039 A 
ATOM     31  C   UNL A   1      34.464  29.492  28.237  1.00  0.00     0.014 A 
ATOM     32  C   UNL A   1      35.223  31.711  27.627  1.00  0.00     0.014 A 
ATOM     33  C   UNL A   1      35.617  29.315  29.005  1.00  0.00     0.010 A 
ATOM     34  C   UNL A   1      36.406  31.502  28.328  1.00  0.00     0.010 A 
ATOM     35  C   UNL A   1      36.619  30.298  29.017  1.00  0.00    -0.014 A 
BRANCH  35  36
ATOM     36  C   UNL A   1      37.919  30.063  29.697  1.00  0.00     0.031 A 
ATOM     37  C   UNL A   1      38.935  29.127  29.105  1.00  0.00     0.074 A 
ATOM     38  C   UNL A   1      38.138  30.620  30.905  1.00  0.00     0.049 A 
ATOM     39  N   UNL A   1      40.096  28.764  29.585  1.00  0.00    -0.248 NA
ATOM     40  C   UNL A   1      38.594  28.497  27.820  1.00  0.00     0.031 C 
ATOM     41  C   UNL A   1      37.192  31.478  31.624  1.00  0.00     0.029 A 
ATOM     42  N   UNL A   1      39.212  30.527  31.755  1.00  0.00    -0.354 N 
ATOM     43  C   UNL A   1      40.608  27.840  28.683  1.00  0.00     0.074 A 
ATOM     44  C   UNL A   1      39.615  27.672  27.643  1.00  0.00     0.031 C 
ATOM     45  C   UNL A   1      37.730  31.840  32.798  1.00  0.00     0.029 A 
ATOM     46  C   UNL A   1      39.040  31.212  32.935  1.00  0.00     0.049 A 
ATOM     47  H   UNL A   1      40.027  30.018  31.540  1.00  0.00     0.167 HD
ATOM     48  C   UNL A   1      41.807  27.209  28.702  1.00  0.00     0.034 A 
ATOM     49  C   UNL A   1      39.841  31.316  34.014  1.00  0.00     0.034 A 
ATOM     50  C   UNL A   1      42.802  27.402  29.722  1.00  0.00     0.049 A 
ATOM     51  C   UNL A   1      41.175  30.622  34.001  1.00  0.00     0.074 A 
ATOM     52  C   UNL A   1      44.085  26.888  29.780  1.00  0.00     0.029 A 
ATOM     53  N   UNL A   1      42.622  28.156  30.872  1.00  0.00    -0.354 N 
ATOM     54  N   UNL A   1      41.716  29.891  33.057  1.00  0.00    -0.248 NA
ATOM     55  C   UNL A   1      42.022  30.790  35.191  1.00  0.00     0.031 C 
ATOM     56  C   UNL A   1      44.668  27.302  30.983  1.00  0.00     0.029 A 
ATOM     57  C   UNL A   1      43.760  28.100  31.659  1.00  0.00     0.049 A 
ATOM     58  H   UNL A   1      41.804  28.655  31.096  1.00  0.00     0.167 HD
ATOM     59  C   UNL A   1      42.975  29.532  33.526  1.00  0.00     0.074 A 
ATOM     60  C   UNL A   1      43.126  30.151  34.826  1.00  0.00     0.031 C 
ATOM     61  C   UNL A   1      43.912  28.748  32.938  1.00  0.00     0.034 A 
BRANCH  48  62
ATOM     62  C   UNL A   1      42.123  26.279  27.556  1.00  0.00     0.023 A 
ATOM     63  C   UNL A   1      42.789  26.778  26.418  1.00  0.00     0.012 A 
ATOM     64  C   UNL A   1      41.803  24.909  27.623  1.00  0.00     0.148 A 
ATOM     65  C   UNL A   1      43.092  25.939  25.346  1.00  0.00     0.002 A 
ATOM     66  C   UNL A   1      42.151  24.069  26.570  1.00  0.00     0.091 A 
ATOM     67  F   UNL A   1      41.153  24.454  28.703  1.00  0.00    -0.205 F 
ATOM     68  C   UNL A   1      42.781  24.586  25.426  1.00  0.00     0.022 A 
BRANCH  66  69
ATOM     69  S   UNL A   1      41.868  22.297  26.611  1.00  0.00     0.127 S 
ATOM     70  O   UNL A   1      40.407  22.231  26.600  1.00  0.00    -0.237 OA
ATOM     71  O   UNL A   1      42.507  21.853  25.373  1.00  0.00    -0.237 OA
ATOM     72  O   UNL A   1      42.507  21.817  27.829  1.00  0.00    -0.744 OA
ENDBRANCH  66  69
ENDBRANCH  48  62
BRANCH  49  73
ATOM     73  C   UNL A   1      39.423  32.161  35.168  1.00  0.00     0.023 A 
ATOM     74  C   UNL A   1      39.672  33.546  35.135  1.00  0.00     0.012 A 
ATOM     75  C   UNL A   1      38.743  31.611  36.272  1.00  0.00     0.148 A 
ATOM     76  C   UNL A   1      39.274  34.366  36.191  1.00  0.00     0.002 A 
ATOM     77  C   UNL A   1      38.299  32.441  37.295  1.00  0.00     0.091 A 
ATOM     78  F   UNL A   1      38.523  30.289  36.289  1.00  0.00    -0.205 F 
ATOM     79  C   UNL A   1      38.579  33.816  37.265  1.00  0.00     0.022 A 
BRANCH  77  80
ATOM     80  S   UNL A   1      37.278  31.846  38.647  1.00  0.00     0.127 S 
ATOM     81  O   UNL A   1      38.127  32.117  39.805  1.00  0.00    -0.237 OA
ATOM     82  O   UNL A   1      36.098  32.704  38.533  1.00  0.00    -0.237 OA
ATOM     83  O   UNL A   1      37.026  30.440  38.364  1.00  0.00    -0.744 OA
ENDBRANCH  77  80
ENDBRANCH  49  73
BRANCH  61  84
ATOM     84  C   UNL A   1      45.198  28.519  33.689  1.00  0.00     0.023 A 
ATOM     85  C   UNL A   1      46.279  29.406  33.509  1.00  0.00     0.012 A 
ATOM     86  C   UNL A   1      45.313  27.472  34.625  1.00  0.00     0.148 A 
ATOM     87  C   UNL A   1      47.465  29.235  34.224  1.00  0.00     0.002 A 
ATOM     88  C   UNL A   1      46.478  27.338  35.370  1.00  0.00     0.091 A 
ATOM     89  F   UNL A   1      44.280  26.629  34.770  1.00  0.00    -0.205 F 
ATOM     90  C   UNL A   1      47.559  28.210  35.162  1.00  0.00     0.022 A 
BRANCH  88  91
ATOM     91  S   UNL A   1      46.660  26.108  36.667  1.00  0.00     0.127 S 
ATOM     92  O   UNL A   1      48.108  26.101  36.870  1.00  0.00    -0.237 OA
ATOM     93  O   UNL A   1      45.893  26.700  37.763  1.00  0.00    -0.237 OA
ATOM     94  O   UNL A   1      46.100  24.873  36.133  1.00  0.00    -0.744 OA
ENDBRANCH  88  91
ENDBRANCH  61  84
ENDBRANCH  35  36
ENDBRANCH  27  30
ENDBRANCH  25  26
ENDBRANCH  24  25
ENDBRANCH   1  24
TORSDOF 19
ENDMDL
MODEL 3
REMARK VINA RESULT:     -11.0      0.914      7.862
REMARK SMILES COC(=O)[C@@H]([NH2+]CC(C)(C)C(=O)NCCCNC(=O)c1ccc(-c2c3nc(c(-c4cccc(S(=O)(=O)[O-])c4F)c4ccc([nH]4)c(-c4cccc(S(=O)(=O)[O-])c4F)c4nc(c(-c5cccc(S(=O)(=O)[O-])c5F)c5ccc2[nH]5)C=C4)C=C3)cc1)c1ccccc1
REMARK SMILES IDX 14 1 13 2 11 3 12 4 8 6 9 7 10 8 7 9 6 10 5 13 3 14 4 15
REMARK SMILES IDX 2 16 1 17 83 18 84 19 88 20 85 21 87 22 86 23 15 24 16 25
REMARK SMILES IDX 17 26 18 27 19 29 20 30 21 31 82 32 22 33 81 34 23 35 24 36
REMARK SMILES IDX 25 37 75 38 26 39 80 40 74 41 76 42 27 43 79 44 73 45 72 46
REMARK SMILES IDX 28 48 60 49 40 50 59 51 41 52 44 53 58 54 77 55 42 56 43 57
REMARK SMILES IDX 57 59 78 60 45 61 29 62 30 63 38 64 31 65 33 66 39 67 32 68
REMARK SMILES IDX 34 69 35 70 36 71 37 72 61 73 62 74 70 75 63 76 65 77 71 78
REMARK SMILES IDX 64 79 66 80 67 81 68 82 69 83 46 84 47 85 55 86 48 87 50 88
REMARK SMILES IDX 56 89 49 90 51 91 52 92 53 93 54 94
REMARK H PARENT 13 5 6 11 6 12 17 28 76 47 44 58
REMARK Flexibility Score: inf
ROOT
ATOM      1  C   UNL A   1      34.564  21.818  24.179  1.00  0.00     0.117 C 
ENDROOT
BRANCH   1   2
ATOM      2  N   UNL A   1      33.165  21.442  24.267  1.00  0.00    -0.355 N 
ATOM      3  C   UNL A   1      32.150  21.943  25.011  1.00  0.00     0.231 C 
ATOM      4  O   UNL A   1      31.393  21.078  25.449  1.00  0.00    -0.274 OA
ATOM      5  H   UNL A   1      32.910  20.692  23.684  1.00  0.00     0.163 HD
BRANCH   3   6
ATOM      6  C   UNL A   1      31.948  23.440  25.290  1.00  0.00     0.092 C 
ATOM      7  C   UNL A   1      33.170  24.028  26.013  1.00  0.00     0.027 C 
ATOM      8  C   UNL A   1      30.682  23.616  26.154  1.00  0.00     0.027 C 
BRANCH   6   9
ATOM      9  C   UNL A   1      31.675  24.252  23.962  1.00  0.00     0.277 C 
BRANCH   9  10
ATOM     10  N   UNL A   1      32.112  25.656  23.810  1.00  0.00    -0.330 N 
ATOM     11  H   UNL A   1      32.901  25.813  24.438  1.00  0.00     0.347 HD
ATOM     12  H   UNL A   1      32.355  25.778  22.827  1.00  0.00     0.347 HD
BRANCH  10  13
ATOM     13  C   UNL A   1      31.064  26.671  24.115  1.00  0.00     0.324 C 
BRANCH  13  14
ATOM     14  C   UNL A   1      30.548  27.304  22.802  1.00  0.00     0.369 C 
ATOM     15  O   UNL A   1      31.010  27.019  21.698  1.00  0.00    -0.245 OA
BRANCH  14  16
ATOM     16  O   UNL A   1      29.597  28.263  22.987  1.00  0.00    -0.464 OA
ATOM     17  C   UNL A   1      28.314  27.744  23.330  1.00  0.00     0.282 C 
ENDBRANCH  14  16
ENDBRANCH  13  14
BRANCH  13  18
ATOM     18  C   UNL A   1      31.453  27.683  25.194  1.00  0.00     0.021 A 
ATOM     19  C   UNL A   1      31.320  27.329  26.551  1.00  0.00     0.010 A 
ATOM     20  C   UNL A   1      31.985  28.948  24.906  1.00  0.00     0.010 A 
ATOM     21  C   UNL A   1      31.715  28.186  27.577  1.00  0.00     0.001 A 
ATOM     22  C   UNL A   1      32.341  29.829  25.936  1.00  0.00     0.001 A 
ATOM     23  C   UNL A   1      32.215  29.444  27.269  1.00  0.00     0.000 A 
ENDBRANCH  13  18
ENDBRANCH  10  13
ENDBRANCH   9  10
ENDBRANCH   6   9
ENDBRANCH   3   6
ENDBRANCH   1   2
BRANCH   1  24
ATOM     24  C   UNL A   1      35.366  21.231  25.344  1.00  0.00     0.042 C 
BRANCH  24  25
ATOM     25  C   UNL A   1      36.766  21.827  25.519  1.00  0.00     0.118 C 
BRANCH  25  26
ATOM     26  N   UNL A   1      37.799  20.811  25.696  1.00  0.00    -0.352 N 
ATOM     27  C   UNL A   1      39.107  20.937  26.089  1.00  0.00     0.251 C 
ATOM     28  H   UNL A   1      37.511  19.890  25.503  1.00  0.00     0.163 HD
ATOM     29  O   UNL A   1      39.868  19.977  25.989  1.00  0.00    -0.269 OA
BRANCH  27  30
ATOM     30  C   UNL A   1      39.606  22.227  26.603  1.00  0.00     0.039 A 
ATOM     31  C   UNL A   1      40.621  22.225  27.563  1.00  0.00     0.014 A 
ATOM     32  C   UNL A   1      39.081  23.433  26.135  1.00  0.00     0.014 A 
ATOM     33  C   UNL A   1      41.170  23.436  27.988  1.00  0.00     0.010 A 
ATOM     34  C   UNL A   1      39.682  24.634  26.500  1.00  0.00     0.010 A 
ATOM     35  C   UNL A   1      40.738  24.648  27.424  1.00  0.00    -0.014 A 
BRANCH  35  36
ATOM     36  C   UNL A   1      41.416  25.930  27.744  1.00  0.00     0.031 A 
ATOM     37  C   UNL A   1      40.699  27.005  28.512  1.00  0.00     0.074 A 
ATOM     38  C   UNL A   1      42.649  26.161  27.250  1.00  0.00     0.049 A 
ATOM     39  N   UNL A   1      41.116  28.202  28.835  1.00  0.00    -0.248 NA
ATOM     40  C   UNL A   1      39.327  26.708  28.953  1.00  0.00     0.031 C 
ATOM     41  C   UNL A   1      43.414  25.230  26.418  1.00  0.00     0.029 A 
ATOM     42  N   UNL A   1      43.465  27.261  27.352  1.00  0.00    -0.354 N 
ATOM     43  C   UNL A   1      40.050  28.813  29.483  1.00  0.00     0.074 A 
ATOM     44  C   UNL A   1      38.955  27.866  29.479  1.00  0.00     0.031 C 
ATOM     45  C   UNL A   1      44.589  25.791  26.094  1.00  0.00     0.029 A 
ATOM     46  C   UNL A   1      44.647  27.134  26.661  1.00  0.00     0.049 A 
ATOM     47  H   UNL A   1      43.226  28.063  27.870  1.00  0.00     0.167 HD
ATOM     48  C   UNL A   1      39.996  30.040  30.057  1.00  0.00     0.034 A 
ATOM     49  C   UNL A   1      45.662  28.005  26.492  1.00  0.00     0.034 A 
ATOM     50  C   UNL A   1      41.097  30.965  30.085  1.00  0.00     0.049 A 
ATOM     51  C   UNL A   1      45.585  29.352  27.155  1.00  0.00     0.074 A 
ATOM     52  C   UNL A   1      41.176  32.189  30.724  1.00  0.00     0.029 A 
ATOM     53  N   UNL A   1      42.305  30.778  29.430  1.00  0.00    -0.354 N 
ATOM     54  N   UNL A   1      44.638  29.845  27.915  1.00  0.00    -0.248 NA
ATOM     55  C   UNL A   1      46.731  30.253  26.963  1.00  0.00     0.031 C 
ATOM     56  C   UNL A   1      42.420  32.757  30.428  1.00  0.00     0.029 A 
ATOM     57  C   UNL A   1      43.128  31.874  29.630  1.00  0.00     0.049 A 
ATOM     58  H   UNL A   1      42.543  29.983  28.901  1.00  0.00     0.167 HD
ATOM     59  C   UNL A   1      45.081  31.102  28.311  1.00  0.00     0.074 A 
ATOM     60  C   UNL A   1      46.395  31.281  27.730  1.00  0.00     0.031 C 
ATOM     61  C   UNL A   1      44.449  32.028  29.073  1.00  0.00     0.034 A 
BRANCH  48  62
ATOM     62  C   UNL A   1      38.710  30.433  30.740  1.00  0.00     0.023 A 
ATOM     63  C   UNL A   1      38.523  30.127  32.103  1.00  0.00     0.012 A 
ATOM     64  C   UNL A   1      37.707  31.141  30.049  1.00  0.00     0.148 A 
ATOM     65  C   UNL A   1      37.343  30.479  32.758  1.00  0.00     0.002 A 
ATOM     66  C   UNL A   1      36.553  31.531  30.721  1.00  0.00     0.091 A 
ATOM     67  F   UNL A   1      37.890  31.407  28.748  1.00  0.00    -0.205 F 
ATOM     68  C   UNL A   1      36.364  31.187  32.070  1.00  0.00     0.022 A 
BRANCH  66  69
ATOM     69  S   UNL A   1      35.268  32.517  29.946  1.00  0.00     0.127 S 
ATOM     70  O   UNL A   1      34.806  31.619  28.888  1.00  0.00    -0.237 OA
ATOM     71  O   UNL A   1      34.319  32.704  31.043  1.00  0.00    -0.237 OA
ATOM     72  O   UNL A   1      35.919  33.738  29.492  1.00  0.00    -0.744 OA
ENDBRANCH  66  69
ENDBRANCH  48  62
BRANCH  49  73
ATOM     73  C   UNL A   1      46.863  27.599  25.708  1.00  0.00     0.023 A 
ATOM     74  C   UNL A   1      46.897  27.846  24.322  1.00  0.00     0.012 A 
ATOM     75  C   UNL A   1      47.982  27.013  26.330  1.00  0.00     0.148 A 
ATOM     76  C   UNL A   1      48.016  27.495  23.565  1.00  0.00     0.002 A 
ATOM     77  C   UNL A   1      49.115  26.719  25.580  1.00  0.00     0.091 A 
ATOM     78  F   UNL A   1      47.925  26.778  27.649  1.00  0.00    -0.205 F 
ATOM     79  C   UNL A   1      49.128  26.942  24.195  1.00  0.00     0.022 A 
BRANCH  77  80
ATOM     80  S   UNL A   1      50.641  26.133  26.325  1.00  0.00     0.127 S 
ATOM     81  O   UNL A   1      50.215  24.874  26.931  1.00  0.00    -0.237 OA
ATOM     82  O   UNL A   1      51.511  25.993  25.157  1.00  0.00    -0.237 OA
ATOM     83  O   UNL A   1      51.051  27.175  27.257  1.00  0.00    -0.744 OA
ENDBRANCH  77  80
ENDBRANCH  49  73
BRANCH  61  84
ATOM     84  C   UNL A   1      45.173  33.323  29.338  1.00  0.00     0.023 A 
ATOM     85  C   UNL A   1      45.996  33.442  30.476  1.00  0.00     0.012 A 
ATOM     86  C   UNL A   1      45.095  34.394  28.426  1.00  0.00     0.148 A 
ATOM     87  C   UNL A   1      46.706  34.618  30.719  1.00  0.00     0.002 A 
ATOM     88  C   UNL A   1      45.844  35.543  28.648  1.00  0.00     0.091 A 
ATOM     89  F   UNL A   1      44.294  34.267  27.359  1.00  0.00    -0.205 F 
ATOM     90  C   UNL A   1      46.639  35.662  29.800  1.00  0.00     0.022 A 
BRANCH  88  91
ATOM     91  S   UNL A   1      45.898  36.904  27.476  1.00  0.00     0.127 S 
ATOM     92  O   UNL A   1      44.534  37.422  27.558  1.00  0.00    -0.237 OA
ATOM     93  O   UNL A   1      46.918  37.774  28.061  1.00  0.00    -0.237 OA
ATOM     94  O   UNL A   1      46.265  36.317  26.194  1.00  0.00    -0.744 OA
ENDBRANCH  88  91
ENDBRANCH  61  84
ENDBRANCH  35  36
ENDBRANCH  27  30
ENDBRANCH  25  26
ENDBRANCH  24  25
ENDBRANCH   1  24
TORSDOF 19
ENDMDL
