MODEL 1
REMARK VINA RESULT:     -11.2      0.000      0.000
REMARK SMILES C[C@H](C(=O)NCCCNC(=O)c1ccc(-c2c3nc(c(-c4cccc(S(=O)(=O)[O-])c4F)c4ccc([nH]4)c(-c4cccc(S(=O)(=O)[O-])c4F)c4nc(c(-c5cccc(S(=O)(=O)[O-])c5F)c5ccc2[nH]5)C=C4)C=C3)cc1)[C@H](C)[S@@](=O)C(C)(C)C
REMARK SMILES IDX 7 1 6 2 5 3 3 4 4 5 2 7 1 8 75 9 76 10 77 11 78 12 79 13
REMARK SMILES IDX 80 14 81 15 82 16 8 17 9 18 10 19 11 21 12 22 13 23 74 24
REMARK SMILES IDX 14 25 73 26 15 27 16 28 17 29 67 30 18 31 72 32 66 33 68 34
REMARK SMILES IDX 19 35 71 36 65 37 64 38 20 40 52 41 32 42 51 43 33 44 36 45
REMARK SMILES IDX 50 46 69 47 34 48 35 49 49 51 70 52 37 53 21 54 22 55 30 56
REMARK SMILES IDX 23 57 25 58 31 59 24 60 26 61 27 62 28 63 29 64 53 65 54 66
REMARK SMILES IDX 62 67 55 68 57 69 63 70 56 71 58 72 59 73 60 74 61 75 38 76
REMARK SMILES IDX 39 77 47 78 40 79 42 80 48 81 41 82 43 83 44 84 45 85 46 86
REMARK H PARENT 5 6 9 20 68 39 36 50
REMARK Flexibility Score: inf
ROOT
ATOM      1  C   UNL A   1      31.650  31.889  26.658  1.00  0.00     0.042 C 
ENDROOT
BRANCH   1   2
ATOM      2  C   UNL A   1      32.008  30.505  26.139  1.00  0.00     0.117 C 
BRANCH   2   3
ATOM      3  N   UNL A   1      31.782  29.480  27.136  1.00  0.00    -0.356 N 
ATOM      4  C   UNL A   1      31.723  28.131  27.047  1.00  0.00     0.224 C 
ATOM      5  O   UNL A   1      31.219  27.569  28.019  1.00  0.00    -0.275 OA
ATOM      6  H   UNL A   1      31.645  29.828  28.047  1.00  0.00     0.163 HD
BRANCH   4   7
ATOM      7  C   UNL A   1      32.217  27.374  25.817  1.00  0.00     0.090 C 
ATOM      8  C   UNL A   1      33.739  27.176  25.795  1.00  0.00     0.019 C 
BRANCH   7   9
ATOM      9  C   UNL A   1      31.471  26.036  25.554  1.00  0.00     0.089 C 
ATOM     10  C   UNL A   1      29.977  26.138  25.223  1.00  0.00     0.023 C 
BRANCH   9  11
ATOM     11  S   UNL A   1      31.884  24.535  26.502  1.00  0.00     0.030 S 
ATOM     12  O   UNL A   1      30.665  24.028  27.212  1.00  0.00    -0.259 OA
BRANCH  11  13
ATOM     13  C   UNL A   1      32.542  23.215  25.423  1.00  0.00     0.038 C 
ATOM     14  C   UNL A   1      31.689  21.946  25.417  1.00  0.00     0.025 C 
ATOM     15  C   UNL A   1      32.870  23.734  24.022  1.00  0.00     0.025 C 
ATOM     16  C   UNL A   1      33.894  22.798  26.063  1.00  0.00     0.025 C 
ENDBRANCH  11  13
ENDBRANCH   9  11
ENDBRANCH   7   9
ENDBRANCH   4   7
ENDBRANCH   2   3
ENDBRANCH   1   2
BRANCH   1  17
ATOM     17  C   UNL A   1      32.772  32.613  27.387  1.00  0.00     0.118 C 
BRANCH  17  18
ATOM     18  N   UNL A   1      32.474  34.014  27.660  1.00  0.00    -0.352 N 
ATOM     19  C   UNL A   1      33.039  34.856  28.588  1.00  0.00     0.251 C 
ATOM     20  H   UNL A   1      31.770  34.413  27.100  1.00  0.00     0.163 HD
ATOM     21  O   UNL A   1      32.563  35.973  28.776  1.00  0.00    -0.269 OA
BRANCH  19  22
ATOM     22  C   UNL A   1      34.202  34.399  29.377  1.00  0.00     0.039 A 
ATOM     23  C   UNL A   1      33.986  33.791  30.617  1.00  0.00     0.014 A 
ATOM     24  C   UNL A   1      35.499  34.542  28.879  1.00  0.00     0.014 A 
ATOM     25  C   UNL A   1      35.068  33.256  31.320  1.00  0.00     0.010 A 
ATOM     26  C   UNL A   1      36.559  33.928  29.535  1.00  0.00     0.010 A 
ATOM     27  C   UNL A   1      36.358  33.287  30.766  1.00  0.00    -0.014 A 
BRANCH  27  28
ATOM     28  C   UNL A   1      37.519  32.663  31.453  1.00  0.00     0.031 A 
ATOM     29  C   UNL A   1      38.243  31.512  30.805  1.00  0.00     0.074 A 
ATOM     30  C   UNL A   1      37.850  33.053  32.700  1.00  0.00     0.049 A 
ATOM     31  N   UNL A   1      39.207  30.771  31.282  1.00  0.00    -0.248 NA
ATOM     32  C   UNL A   1      37.797  31.121  29.457  1.00  0.00     0.031 C 
ATOM     33  C   UNL A   1      37.170  34.096  33.470  1.00  0.00     0.029 A 
ATOM     34  N   UNL A   1      38.824  32.593  33.551  1.00  0.00    -0.354 N 
ATOM     35  C   UNL A   1      39.451  29.800  30.318  1.00  0.00     0.074 A 
ATOM     36  C   UNL A   1      38.508  30.023  29.245  1.00  0.00     0.031 C 
ATOM     37  C   UNL A   1      37.748  34.198  34.678  1.00  0.00     0.029 A 
ATOM     38  C   UNL A   1      38.819  33.211  34.780  1.00  0.00     0.049 A 
ATOM     39  H   UNL A   1      39.466  31.888  33.305  1.00  0.00     0.167 HD
ATOM     40  C   UNL A   1      40.396  28.831  30.308  1.00  0.00     0.034 A 
ATOM     41  C   UNL A   1      39.586  33.001  35.868  1.00  0.00     0.034 A 
ATOM     42  C   UNL A   1      41.372  28.652  31.347  1.00  0.00     0.049 A 
ATOM     43  C   UNL A   1      40.672  31.962  35.808  1.00  0.00     0.074 A 
ATOM     44  C   UNL A   1      42.436  27.768  31.386  1.00  0.00     0.029 A 
ATOM     45  N   UNL A   1      41.406  29.371  32.531  1.00  0.00    -0.354 N 
ATOM     46  N   UNL A   1      40.993  31.161  34.821  1.00  0.00    -0.248 NA
ATOM     47  C   UNL A   1      41.528  31.823  36.996  1.00  0.00     0.031 C 
ATOM     48  C   UNL A   1      43.104  27.943  32.602  1.00  0.00     0.029 A 
ATOM     49  C   UNL A   1      42.469  28.950  33.311  1.00  0.00     0.049 A 
ATOM     50  H   UNL A   1      40.768  30.079  32.781  1.00  0.00     0.167 HD
ATOM     51  C   UNL A   1      42.106  30.449  35.253  1.00  0.00     0.074 A 
ATOM     52  C   UNL A   1      42.416  30.928  36.584  1.00  0.00     0.031 C 
ATOM     53  C   UNL A   1      42.799  29.477  34.611  1.00  0.00     0.034 A 
BRANCH  40  54
ATOM     54  C   UNL A   1      40.457  27.930  29.102  1.00  0.00     0.023 A 
ATOM     55  C   UNL A   1      39.534  26.870  28.981  1.00  0.00     0.012 A 
ATOM     56  C   UNL A   1      41.392  28.151  28.074  1.00  0.00     0.148 A 
ATOM     57  C   UNL A   1      39.568  26.019  27.878  1.00  0.00     0.002 A 
ATOM     58  C   UNL A   1      41.390  27.326  26.954  1.00  0.00     0.091 A 
ATOM     59  F   UNL A   1      42.278  29.147  28.215  1.00  0.00    -0.205 F 
ATOM     60  C   UNL A   1      40.489  26.253  26.860  1.00  0.00     0.022 A 
BRANCH  58  61
ATOM     61  S   UNL A   1      42.485  27.596  25.555  1.00  0.00     0.127 S 
ATOM     62  O   UNL A   1      41.978  28.861  25.024  1.00  0.00    -0.237 OA
ATOM     63  O   UNL A   1      43.795  27.688  26.201  1.00  0.00    -0.237 OA
ATOM     64  O   UNL A   1      42.318  26.438  24.689  1.00  0.00    -0.744 OA
ENDBRANCH  58  61
ENDBRANCH  40  54
BRANCH  41  65
ATOM     65  C   UNL A   1      39.401  33.852  37.079  1.00  0.00     0.023 A 
ATOM     66  C   UNL A   1      39.825  35.195  37.046  1.00  0.00     0.012 A 
ATOM     67  C   UNL A   1      38.774  33.358  38.239  1.00  0.00     0.148 A 
ATOM     68  C   UNL A   1      39.652  36.024  38.156  1.00  0.00     0.002 A 
ATOM     69  C   UNL A   1      38.557  34.202  39.321  1.00  0.00     0.091 A 
ATOM     70  F   UNL A   1      38.388  32.074  38.253  1.00  0.00    -0.205 F 
ATOM     71  C   UNL A   1      39.009  35.530  39.288  1.00  0.00     0.022 A 
BRANCH  69  72
ATOM     72  S   UNL A   1      37.620  33.694  40.768  1.00  0.00     0.127 S 
ATOM     73  O   UNL A   1      36.429  33.105  40.162  1.00  0.00    -0.237 OA
ATOM     74  O   UNL A   1      38.531  32.737  41.398  1.00  0.00    -0.237 OA
ATOM     75  O   UNL A   1      37.402  34.910  41.540  1.00  0.00    -0.744 OA
ENDBRANCH  69  72
ENDBRANCH  41  65
BRANCH  53  76
ATOM     76  C   UNL A   1      43.987  28.880  35.319  1.00  0.00     0.023 A 
ATOM     77  C   UNL A   1      45.263  29.454  35.149  1.00  0.00     0.012 A 
ATOM     78  C   UNL A   1      43.824  27.809  36.219  1.00  0.00     0.148 A 
ATOM     79  C   UNL A   1      46.363  28.952  35.843  1.00  0.00     0.002 A 
ATOM     80  C   UNL A   1      44.915  27.344  36.943  1.00  0.00     0.091 A 
ATOM     81  F   UNL A   1      42.605  27.265  36.351  1.00  0.00    -0.205 F 
ATOM     82  C   UNL A   1      46.187  27.907  36.749  1.00  0.00     0.022 A 
BRANCH  80  83
ATOM     83  S   UNL A   1      44.762  26.069  38.198  1.00  0.00     0.127 S 
ATOM     84  O   UNL A   1      46.160  25.833  38.555  1.00  0.00    -0.237 OA
ATOM     85  O   UNL A   1      43.975  26.742  39.232  1.00  0.00    -0.237 OA
ATOM     86  O   UNL A   1      44.082  24.954  37.554  1.00  0.00    -0.744 OA
ENDBRANCH  80  83
ENDBRANCH  53  76
ENDBRANCH  27  28
ENDBRANCH  19  22
ENDBRANCH  17  18
ENDBRANCH   1  17
TORSDOF 16
ENDMDL
MODEL 2
REMARK VINA RESULT:     -10.9      2.080      2.541
REMARK SMILES C[C@H](C(=O)NCCCNC(=O)c1ccc(-c2c3nc(c(-c4cccc(S(=O)(=O)[O-])c4F)c4ccc([nH]4)c(-c4cccc(S(=O)(=O)[O-])c4F)c4nc(c(-c5cccc(S(=O)(=O)[O-])c5F)c5ccc2[nH]5)C=C4)C=C3)cc1)[C@H](C)[S@@](=O)C(C)(C)C
REMARK SMILES IDX 7 1 6 2 5 3 3 4 4 5 2 7 1 8 75 9 76 10 77 11 78 12 79 13
REMARK SMILES IDX 80 14 81 15 82 16 8 17 9 18 10 19 11 21 12 22 13 23 74 24
REMARK SMILES IDX 14 25 73 26 15 27 16 28 17 29 67 30 18 31 72 32 66 33 68 34
REMARK SMILES IDX 19 35 71 36 65 37 64 38 20 40 52 41 32 42 51 43 33 44 36 45
REMARK SMILES IDX 50 46 69 47 34 48 35 49 49 51 70 52 37 53 21 54 22 55 30 56
REMARK SMILES IDX 23 57 25 58 31 59 24 60 26 61 27 62 28 63 29 64 53 65 54 66
REMARK SMILES IDX 62 67 55 68 57 69 63 70 56 71 58 72 59 73 60 74 61 75 38 76
REMARK SMILES IDX 39 77 47 78 40 79 42 80 48 81 41 82 43 83 44 84 45 85 46 86
REMARK H PARENT 5 6 9 20 68 39 36 50
REMARK Flexibility Score: inf
ROOT
ATOM      1  C   UNL A   1      31.251  31.709  26.238  1.00  0.00     0.042 C 
ENDROOT
BRANCH   1   2
ATOM      2  C   UNL A   1      31.331  30.308  25.650  1.00  0.00     0.117 C 
BRANCH   2   3
ATOM      3  N   UNL A   1      30.696  30.231  24.352  1.00  0.00    -0.356 N 
ATOM      4  C   UNL A   1      30.609  29.228  23.447  1.00  0.00     0.224 C 
ATOM      5  O   UNL A   1      30.260  29.576  22.319  1.00  0.00    -0.275 OA
ATOM      6  H   UNL A   1      30.244  31.061  24.074  1.00  0.00     0.163 HD
BRANCH   4   7
ATOM      7  C   UNL A   1      30.949  27.782  23.799  1.00  0.00     0.090 C 
ATOM      8  C   UNL A   1      29.876  26.779  23.357  1.00  0.00     0.019 C 
BRANCH   7   9
ATOM      9  C   UNL A   1      32.364  27.335  23.339  1.00  0.00     0.089 C 
ATOM     10  C   UNL A   1      33.326  28.444  22.898  1.00  0.00     0.023 C 
BRANCH   9  11
ATOM     11  S   UNL A   1      32.595  25.787  22.404  1.00  0.00     0.030 S 
ATOM     12  O   UNL A   1      33.652  25.975  21.358  1.00  0.00    -0.259 OA
BRANCH  11  13
ATOM     13  C   UNL A   1      33.072  24.402  23.497  1.00  0.00     0.038 C 
ATOM     14  C   UNL A   1      31.913  23.850  24.329  1.00  0.00     0.025 C 
ATOM     15  C   UNL A   1      33.848  23.321  22.743  1.00  0.00     0.025 C 
ATOM     16  C   UNL A   1      34.061  25.014  24.527  1.00  0.00     0.025 C 
ENDBRANCH  11  13
ENDBRANCH   9  11
ENDBRANCH   7   9
ENDBRANCH   4   7
ENDBRANCH   2   3
ENDBRANCH   1   2
BRANCH   1  17
ATOM     17  C   UNL A   1      32.570  32.270  26.750  1.00  0.00     0.118 C 
BRANCH  17  18
ATOM     18  N   UNL A   1      32.448  33.606  27.317  1.00  0.00    -0.352 N 
ATOM     19  C   UNL A   1      33.208  34.208  28.293  1.00  0.00     0.251 C 
ATOM     20  H   UNL A   1      31.719  34.157  26.950  1.00  0.00     0.163 HD
ATOM     21  O   UNL A   1      32.871  35.296  28.751  1.00  0.00    -0.269 OA
BRANCH  19  22
ATOM     22  C   UNL A   1      34.413  33.523  28.805  1.00  0.00     0.039 A 
ATOM     23  C   UNL A   1      35.652  34.162  28.707  1.00  0.00     0.014 A 
ATOM     24  C   UNL A   1      34.314  32.268  29.410  1.00  0.00     0.014 A 
ATOM     25  C   UNL A   1      36.779  33.574  29.286  1.00  0.00     0.010 A 
ATOM     26  C   UNL A   1      35.416  31.731  30.065  1.00  0.00     0.010 A 
ATOM     27  C   UNL A   1      36.662  32.372  30.003  1.00  0.00    -0.014 A 
BRANCH  27  28
ATOM     28  C   UNL A   1      37.825  31.757  30.693  1.00  0.00     0.031 A 
ATOM     29  C   UNL A   1      38.641  30.703  29.993  1.00  0.00     0.074 A 
ATOM     30  C   UNL A   1      38.080  32.063  31.981  1.00  0.00     0.049 A 
ATOM     31  N   UNL A   1      39.625  29.979  30.455  1.00  0.00    -0.248 NA
ATOM     32  C   UNL A   1      38.276  30.398  28.599  1.00  0.00     0.031 C 
ATOM     33  C   UNL A   1      37.310  33.003  32.797  1.00  0.00     0.029 A 
ATOM     34  N   UNL A   1      39.042  31.589  32.839  1.00  0.00    -0.354 N 
ATOM     35  C   UNL A   1      39.965  29.103  29.431  1.00  0.00     0.074 A 
ATOM     36  C   UNL A   1      39.057  29.360  28.336  1.00  0.00     0.031 C 
ATOM     37  C   UNL A   1      37.829  33.039  34.036  1.00  0.00     0.029 A 
ATOM     38  C   UNL A   1      38.948  32.105  34.111  1.00  0.00     0.049 A 
ATOM     39  H   UNL A   1      39.733  30.942  32.569  1.00  0.00     0.167 HD
ATOM     40  C   UNL A   1      40.963  28.190  29.391  1.00  0.00     0.034 A 
ATOM     41  C   UNL A   1      39.679  31.850  35.214  1.00  0.00     0.034 A 
ATOM     42  C   UNL A   1      41.903  27.980  30.458  1.00  0.00     0.049 A 
ATOM     43  C   UNL A   1      40.824  30.879  35.124  1.00  0.00     0.074 A 
ATOM     44  C   UNL A   1      43.012  27.154  30.477  1.00  0.00     0.029 A 
ATOM     45  N   UNL A   1      41.845  28.603  31.694  1.00  0.00    -0.354 N 
ATOM     46  N   UNL A   1      41.232  30.178  34.094  1.00  0.00    -0.248 NA
ATOM     47  C   UNL A   1      41.635  30.691  36.337  1.00  0.00     0.031 C 
ATOM     48  C   UNL A   1      43.617  27.267  31.733  1.00  0.00     0.029 A 
ATOM     49  C   UNL A   1      42.895  28.178  32.489  1.00  0.00     0.049 A 
ATOM     50  H   UNL A   1      41.157  29.252  31.968  1.00  0.00     0.167 HD
ATOM     51  C   UNL A   1      42.364  29.494  34.521  1.00  0.00     0.074 A 
ATOM     52  C   UNL A   1      42.589  29.880  35.899  1.00  0.00     0.031 C 
ATOM     53  C   UNL A   1      43.139  28.615  33.839  1.00  0.00     0.034 A 
BRANCH  40  54
ATOM     54  C   UNL A   1      41.127  27.393  28.122  1.00  0.00     0.023 A 
ATOM     55  C   UNL A   1      41.728  27.995  26.997  1.00  0.00     0.012 A 
ATOM     56  C   UNL A   1      40.725  26.045  28.052  1.00  0.00     0.148 A 
ATOM     57  C   UNL A   1      41.889  27.282  25.810  1.00  0.00     0.002 A 
ATOM     58  C   UNL A   1      40.931  25.327  26.879  1.00  0.00     0.091 A 
ATOM     59  F   UNL A   1      40.133  25.496  29.122  1.00  0.00    -0.205 F 
ATOM     60  C   UNL A   1      41.500  25.947  25.754  1.00  0.00     0.022 A 
BRANCH  58  61
ATOM     61  S   UNL A   1      40.536  23.581  26.735  1.00  0.00     0.127 S 
ATOM     62  O   UNL A   1      39.138  23.629  26.310  1.00  0.00    -0.237 OA
ATOM     63  O   UNL A   1      41.472  23.136  25.701  1.00  0.00    -0.237 OA
ATOM     64  O   UNL A   1      40.774  23.008  28.052  1.00  0.00    -0.744 OA
ENDBRANCH  58  61
ENDBRANCH  40  54
BRANCH  41  65
ATOM     65  C   UNL A   1      39.394  32.590  36.477  1.00  0.00     0.023 A 
ATOM     66  C   UNL A   1      40.032  33.824  36.710  1.00  0.00     0.012 A 
ATOM     67  C   UNL A   1      38.470  32.105  37.423  1.00  0.00     0.148 A 
ATOM     68  C   UNL A   1      39.776  34.550  37.874  1.00  0.00     0.002 A 
ATOM     69  C   UNL A   1      38.180  32.858  38.554  1.00  0.00     0.091 A 
ATOM     70  F   UNL A   1      37.882  30.924  37.187  1.00  0.00    -0.205 F 
ATOM     71  C   UNL A   1      38.843  34.072  38.790  1.00  0.00     0.022 A 
BRANCH  69  72
ATOM     72  S   UNL A   1      36.895  32.390  39.721  1.00  0.00     0.127 S 
ATOM     73  O   UNL A   1      36.994  33.453  40.717  1.00  0.00    -0.237 OA
ATOM     74  O   UNL A   1      35.695  32.436  38.885  1.00  0.00    -0.237 OA
ATOM     75  O   UNL A   1      37.253  31.055  40.182  1.00  0.00    -0.744 OA
ENDBRANCH  69  72
ENDBRANCH  41  65
BRANCH  53  76
ATOM     76  C   UNL A   1      44.328  28.028  34.554  1.00  0.00     0.023 A 
ATOM     77  C   UNL A   1      45.573  28.684  34.494  1.00  0.00     0.012 A 
ATOM     78  C   UNL A   1      44.188  26.877  35.355  1.00  0.00     0.148 A 
ATOM     79  C   UNL A   1      46.669  28.188  35.199  1.00  0.00     0.002 A 
ATOM     80  C   UNL A   1      45.272  26.415  36.091  1.00  0.00     0.091 A 
ATOM     81  F   UNL A   1      43.000  26.258  35.383  1.00  0.00    -0.205 F 
ATOM     82  C   UNL A   1      46.515  27.062  36.006  1.00  0.00     0.022 A 
BRANCH  80  83
ATOM     83  S   UNL A   1      45.140  25.032  37.230  1.00  0.00     0.127 S 
ATOM     84  O   UNL A   1      44.120  25.509  38.162  1.00  0.00    -0.237 OA
ATOM     85  O   UNL A   1      44.704  23.946  36.352  1.00  0.00    -0.237 OA
ATOM     86  O   UNL A   1      46.470  24.852  37.795  1.00  0.00    -0.744 OA
ENDBRANCH  80  83
ENDBRANCH  53  76
ENDBRANCH  27  28
ENDBRANCH  19  22
ENDBRANCH  17  18
ENDBRANCH   1  17
TORSDOF 16
ENDMDL
MODEL 3
REMARK VINA RESULT:     -10.8      2.282      8.340
REMARK SMILES C[C@H](C(=O)NCCCNC(=O)c1ccc(-c2c3nc(c(-c4cccc(S(=O)(=O)[O-])c4F)c4ccc([nH]4)c(-c4cccc(S(=O)(=O)[O-])c4F)c4nc(c(-c5cccc(S(=O)(=O)[O-])c5F)c5ccc2[nH]5)C=C4)C=C3)cc1)[C@H](C)[S@@](=O)C(C)(C)C
REMARK SMILES IDX 7 1 6 2 5 3 3 4 4 5 2 7 1 8 75 9 76 10 77 11 78 12 79 13
REMARK SMILES IDX 80 14 81 15 82 16 8 17 9 18 10 19 11 21 12 22 13 23 74 24
REMARK SMILES IDX 14 25 73 26 15 27 16 28 17 29 67 30 18 31 72 32 66 33 68 34
REMARK SMILES IDX 19 35 71 36 65 37 64 38 20 40 52 41 32 42 51 43 33 44 36 45
REMARK SMILES IDX 50 46 69 47 34 48 35 49 49 51 70 52 37 53 21 54 22 55 30 56
REMARK SMILES IDX 23 57 25 58 31 59 24 60 26 61 27 62 28 63 29 64 53 65 54 66
REMARK SMILES IDX 62 67 55 68 57 69 63 70 56 71 58 72 59 73 60 74 61 75 38 76
REMARK SMILES IDX 39 77 47 78 40 79 42 80 48 81 41 82 43 83 44 84 45 85 46 86
REMARK H PARENT 5 6 9 20 68 39 36 50
REMARK Flexibility Score: inf
ROOT
ATOM      1  C   UNL A   1      31.432  31.552  26.149  1.00  0.00     0.042 C 
ENDROOT
BRANCH   1   2
ATOM      2  C   UNL A   1      31.438  30.102  25.686  1.00  0.00     0.117 C 
BRANCH   2   3
ATOM      3  N   UNL A   1      31.061  29.980  24.294  1.00  0.00    -0.356 N 
ATOM      4  C   UNL A   1      30.981  28.908  23.471  1.00  0.00     0.224 C 
ATOM      5  O   UNL A   1      30.920  29.178  22.272  1.00  0.00    -0.275 OA
ATOM      6  H   UNL A   1      30.818  30.833  23.866  1.00  0.00     0.163 HD
BRANCH   4   7
ATOM      7  C   UNL A   1      30.998  27.475  23.997  1.00  0.00     0.090 C 
ATOM      8  C   UNL A   1      29.856  26.610  23.445  1.00  0.00     0.019 C 
BRANCH   7   9
ATOM      9  C   UNL A   1      32.370  26.761  23.847  1.00  0.00     0.089 C 
ATOM     10  C   UNL A   1      33.616  27.597  24.158  1.00  0.00     0.023 C 
BRANCH   9  11
ATOM     11  S   UNL A   1      32.648  25.545  22.517  1.00  0.00     0.030 S 
ATOM     12  O   UNL A   1      33.646  26.081  21.536  1.00  0.00    -0.259 OA
BRANCH  11  13
ATOM     13  C   UNL A   1      33.250  23.950  23.176  1.00  0.00     0.038 C 
ATOM     14  C   UNL A   1      32.809  22.740  22.351  1.00  0.00     0.025 C 
ATOM     15  C   UNL A   1      34.753  23.980  23.455  1.00  0.00     0.025 C 
ATOM     16  C   UNL A   1      32.552  23.784  24.553  1.00  0.00     0.025 C 
ENDBRANCH  11  13
ENDBRANCH   9  11
ENDBRANCH   7   9
ENDBRANCH   4   7
ENDBRANCH   2   3
ENDBRANCH   1   2
BRANCH   1  17
ATOM     17  C   UNL A   1      32.392  31.868  27.287  1.00  0.00     0.118 C 
BRANCH  17  18
ATOM     18  N   UNL A   1      32.679  33.291  27.421  1.00  0.00    -0.352 N 
ATOM     19  C   UNL A   1      33.757  33.906  28.015  1.00  0.00     0.251 C 
ATOM     20  H   UNL A   1      32.009  33.897  27.030  1.00  0.00     0.163 HD
ATOM     21  O   UNL A   1      33.764  35.125  28.161  1.00  0.00    -0.269 OA
BRANCH  19  22
ATOM     22  C   UNL A   1      34.887  33.089  28.501  1.00  0.00     0.039 A 
ATOM     23  C   UNL A   1      36.192  33.473  28.180  1.00  0.00     0.014 A 
ATOM     24  C   UNL A   1      34.660  31.966  29.300  1.00  0.00     0.014 A 
ATOM     25  C   UNL A   1      37.271  32.774  28.726  1.00  0.00     0.010 A 
ATOM     26  C   UNL A   1      35.732  31.331  29.915  1.00  0.00     0.010 A 
ATOM     27  C   UNL A   1      37.048  31.720  29.628  1.00  0.00    -0.014 A 
BRANCH  27  28
ATOM     28  C   UNL A   1      38.173  31.003  30.284  1.00  0.00     0.031 A 
ATOM     29  C   UNL A   1      38.602  31.394  31.674  1.00  0.00     0.074 A 
ATOM     30  C   UNL A   1      38.876  30.083  29.593  1.00  0.00     0.049 A 
ATOM     31  N   UNL A   1      39.616  30.963  32.376  1.00  0.00    -0.248 NA
ATOM     32  C   UNL A   1      37.806  32.433  32.347  1.00  0.00     0.031 C 
ATOM     33  C   UNL A   1      38.615  29.680  28.210  1.00  0.00     0.029 A 
ATOM     34  N   UNL A   1      39.975  29.344  29.953  1.00  0.00    -0.354 N 
ATOM     35  C   UNL A   1      39.610  31.708  33.548  1.00  0.00     0.074 A 
ATOM     36  C   UNL A   1      38.513  32.645  33.448  1.00  0.00     0.031 C 
ATOM     37  C   UNL A   1      39.526  28.766  27.839  1.00  0.00     0.029 A 
ATOM     38  C   UNL A   1      40.452  28.539  28.944  1.00  0.00     0.049 A 
ATOM     39  H   UNL A   1      40.384  29.386  30.848  1.00  0.00     0.167 HD
ATOM     40  C   UNL A   1      40.420  31.601  34.627  1.00  0.00     0.034 A 
ATOM     41  C   UNL A   1      41.519  27.716  28.912  1.00  0.00     0.034 A 
ATOM     42  C   UNL A   1      41.469  30.627  34.749  1.00  0.00     0.049 A 
ATOM     43  C   UNL A   1      42.366  27.567  30.147  1.00  0.00     0.074 A 
ATOM     44  C   UNL A   1      42.280  30.367  35.840  1.00  0.00     0.029 A 
ATOM     45  N   UNL A   1      41.853  29.750  33.747  1.00  0.00    -0.354 N 
ATOM     46  N   UNL A   1      42.243  28.165  31.308  1.00  0.00    -0.248 NA
ATOM     47  C   UNL A   1      43.474  26.603  30.083  1.00  0.00     0.031 C 
ATOM     48  C   UNL A   1      43.164  29.342  35.492  1.00  0.00     0.029 A 
ATOM     49  C   UNL A   1      42.892  28.950  34.190  1.00  0.00     0.049 A 
ATOM     50  H   UNL A   1      41.447  29.703  32.851  1.00  0.00     0.167 HD
ATOM     51  C   UNL A   1      43.233  27.626  32.122  1.00  0.00     0.074 A 
ATOM     52  C   UNL A   1      43.934  26.639  31.327  1.00  0.00     0.031 C 
ATOM     53  C   UNL A   1      43.542  27.932  33.406  1.00  0.00     0.034 A 
BRANCH  40  54
ATOM     54  C   UNL A   1      40.158  32.525  35.788  1.00  0.00     0.023 A 
ATOM     55  C   UNL A   1      40.859  33.746  35.875  1.00  0.00     0.012 A 
ATOM     56  C   UNL A   1      39.198  32.210  36.768  1.00  0.00     0.148 A 
ATOM     57  C   UNL A   1      40.639  34.619  36.940  1.00  0.00     0.002 A 
ATOM     58  C   UNL A   1      38.951  33.107  37.802  1.00  0.00     0.091 A 
ATOM     59  F   UNL A   1      38.559  31.034  36.685  1.00  0.00    -0.205 F 
ATOM     60  C   UNL A   1      39.678  34.304  37.896  1.00  0.00     0.022 A 
BRANCH  58  61
ATOM     61  S   UNL A   1      37.677  32.827  39.038  1.00  0.00     0.127 S 
ATOM     62  O   UNL A   1      38.148  31.596  39.672  1.00  0.00    -0.237 OA
ATOM     63  O   UNL A   1      37.788  34.023  39.873  1.00  0.00    -0.237 OA
ATOM     64  O   UNL A   1      36.425  32.716  38.303  1.00  0.00    -0.744 OA
ENDBRANCH  58  61
ENDBRANCH  40  54
BRANCH  41  65
ATOM     65  C   UNL A   1      41.795  26.911  27.688  1.00  0.00     0.023 A 
ATOM     66  C   UNL A   1      42.374  27.539  26.568  1.00  0.00     0.012 A 
ATOM     67  C   UNL A   1      41.532  25.528  27.641  1.00  0.00     0.148 A 
ATOM     68  C   UNL A   1      42.659  26.811  25.412  1.00  0.00     0.002 A 
ATOM     69  C   UNL A   1      41.868  24.799  26.506  1.00  0.00     0.091 A 
ATOM     70  F   UNL A   1      40.971  24.952  28.713  1.00  0.00    -0.205 F 
ATOM     71  C   UNL A   1      42.416  25.441  25.385  1.00  0.00     0.022 A 
BRANCH  69  72
ATOM     72  S   UNL A   1      41.716  23.010  26.430  1.00  0.00     0.127 S 
ATOM     73  O   UNL A   1      40.266  22.832  26.443  1.00  0.00    -0.237 OA
ATOM     74  O   UNL A   1      42.364  22.705  25.153  1.00  0.00    -0.237 OA
ATOM     75  O   UNL A   1      42.427  22.506  27.597  1.00  0.00    -0.744 OA
ENDBRANCH  69  72
ENDBRANCH  41  65
BRANCH  53  76
ATOM     76  C   UNL A   1      44.668  27.170  34.055  1.00  0.00     0.023 A 
ATOM     77  C   UNL A   1      45.984  27.664  33.973  1.00  0.00     0.012 A 
ATOM     78  C   UNL A   1      44.407  26.014  34.818  1.00  0.00     0.148 A 
ATOM     79  C   UNL A   1      47.030  27.004  34.618  1.00  0.00     0.002 A 
ATOM     80  C   UNL A   1      45.446  25.388  35.496  1.00  0.00     0.091 A 
ATOM     81  F   UNL A   1      43.151  25.550  34.866  1.00  0.00    -0.205 F 
ATOM     82  C   UNL A   1      46.758  25.875  35.389  1.00  0.00     0.022 A 
BRANCH  80  83
ATOM     83  S   UNL A   1      45.174  23.987  36.587  1.00  0.00     0.127 S 
ATOM     84  O   UNL A   1      46.530  23.700  37.047  1.00  0.00    -0.237 OA
ATOM     85  O   UNL A   1      44.290  24.554  37.607  1.00  0.00    -0.237 OA
ATOM     86  O   UNL A   1      44.558  22.954  35.764  1.00  0.00    -0.744 OA
ENDBRANCH  80  83
ENDBRANCH  53  76
ENDBRANCH  27  28
ENDBRANCH  19  22
ENDBRANCH  17  18
ENDBRANCH   1  17
TORSDOF 16
ENDMDL
