MODEL 1
REMARK VINA RESULT:     -11.2      0.000      0.000
REMARK SMILES CC[N@@H+](C[C@@H](C)C(=O)NCCCNC(=O)c1ccc(-c2c3nc(c(-c4cccc(S(=O)(=O)[O-])c4F)c4ccc([nH]4)c(-c4cccc(S(=O)(=O)[O-])c4F)c4nc(c(-c5cccc(S(=O)(=O)[O-])c5F)c5ccc2[nH]5)C=C4)C=C3)cc1)[C@@H]1CCC[C@H](S(C)(=O)=O)C1
REMARK SMILES IDX 10 1 9 2 7 3 8 4 5 6 6 7 4 8 3 9 2 11 1 12 79 13 80 14 88 15
REMARK SMILES IDX 81 16 83 17 82 18 84 19 85 20 86 21 87 22 11 23 12 24 13 25
REMARK SMILES IDX 14 26 15 28 16 29 17 30 78 31 18 32 77 33 19 34 20 35 21 36
REMARK SMILES IDX 71 37 22 38 76 39 70 40 72 41 23 42 75 43 69 44 68 45 24 47
REMARK SMILES IDX 56 48 36 49 55 50 37 51 40 52 54 53 73 54 38 55 39 56 53 58
REMARK SMILES IDX 74 59 41 60 25 61 26 62 34 63 27 64 29 65 35 66 28 67 30 68
REMARK SMILES IDX 31 69 32 70 33 71 57 72 58 73 66 74 59 75 61 76 67 77 60 78
REMARK SMILES IDX 62 79 63 80 64 81 65 82 42 83 43 84 51 85 44 86 46 87 52 88
REMARK SMILES IDX 45 89 47 90 48 91 49 92 50 93
REMARK H PARENT 9 5 3 10 13 27 72 46 40 57
REMARK Flexibility Score: inf
ROOT
ATOM      1  C   UNL A   1      31.781  30.424  26.608  1.00  0.00     0.117 C 
ENDROOT
BRANCH   1   2
ATOM      2  N   UNL A   1      33.167  30.083  26.866  1.00  0.00    -0.356 N 
ATOM      3  C   UNL A   1      33.901  28.993  26.523  1.00  0.00     0.228 C 
ATOM      4  O   UNL A   1      35.018  28.878  27.037  1.00  0.00    -0.275 OA
ATOM      5  H   UNL A   1      33.662  30.761  27.381  1.00  0.00     0.163 HD
BRANCH   3   6
ATOM      6  C   UNL A   1      33.455  28.028  25.429  1.00  0.00     0.130 C 
ATOM      7  C   UNL A   1      33.792  28.734  24.114  1.00  0.00     0.024 C 
BRANCH   6   8
ATOM      8  C   UNL A   1      32.046  27.400  25.689  1.00  0.00     0.275 C 
BRANCH   8   9
ATOM      9  N   UNL A   1      31.277  26.703  24.623  1.00  0.00    -0.332 N 
ATOM     10  H   UNL A   1      31.842  26.745  23.775  1.00  0.00     0.348 HD
BRANCH   9  11
ATOM     11  C   UNL A   1      30.092  27.444  24.198  1.00  0.00     0.259 C 
ATOM     12  C   UNL A   1      30.136  27.939  22.752  1.00  0.00     0.071 C 
ENDBRANCH   9  11
BRANCH   9  13
ATOM     13  C   UNL A   1      31.263  25.214  24.669  1.00  0.00     0.185 C 
ATOM     14  C   UNL A   1      30.858  24.572  26.011  1.00  0.00     0.065 C 
ATOM     15  C   UNL A   1      32.600  24.643  24.218  1.00  0.00     0.084 C 
ATOM     16  C   UNL A   1      31.040  23.052  26.037  1.00  0.00     0.007 C 
ATOM     17  C   UNL A   1      32.880  23.152  24.358  1.00  0.00     0.114 C 
ATOM     18  C   UNL A   1      32.487  22.664  25.741  1.00  0.00     0.020 C 
BRANCH  17  19
ATOM     19  S   UNL A   1      34.654  22.945  23.998  1.00  0.00     0.150 S 
ATOM     20  C   UNL A   1      35.491  24.228  24.881  1.00  0.00     0.158 C 
ATOM     21  O   UNL A   1      35.073  21.687  24.585  1.00  0.00    -0.229 OA
ATOM     22  O   UNL A   1      34.871  23.201  22.583  1.00  0.00    -0.229 OA
ENDBRANCH  17  19
ENDBRANCH   9  13
ENDBRANCH   8   9
ENDBRANCH   6   8
ENDBRANCH   3   6
ENDBRANCH   1   2
BRANCH   1  23
ATOM     23  C   UNL A   1      31.576  31.929  26.740  1.00  0.00     0.042 C 
BRANCH  23  24
ATOM     24  C   UNL A   1      32.774  32.617  27.382  1.00  0.00     0.118 C 
BRANCH  24  25
ATOM     25  N   UNL A   1      32.504  34.020  27.673  1.00  0.00    -0.352 N 
ATOM     26  C   UNL A   1      33.062  34.824  28.636  1.00  0.00     0.251 C 
ATOM     27  H   UNL A   1      31.829  34.451  27.100  1.00  0.00     0.163 HD
ATOM     28  O   UNL A   1      32.580  35.927  28.870  1.00  0.00    -0.269 OA
BRANCH  26  29
ATOM     29  C   UNL A   1      34.229  34.338  29.398  1.00  0.00     0.039 A 
ATOM     30  C   UNL A   1      34.031  33.829  30.683  1.00  0.00     0.014 A 
ATOM     31  C   UNL A   1      35.508  34.366  28.836  1.00  0.00     0.014 A 
ATOM     32  C   UNL A   1      35.113  33.295  31.382  1.00  0.00     0.010 A 
ATOM     33  C   UNL A   1      36.564  33.753  29.497  1.00  0.00     0.010 A 
ATOM     34  C   UNL A   1      36.381  33.222  30.782  1.00  0.00    -0.014 A 
BRANCH  34  35
ATOM     35  C   UNL A   1      37.529  32.592  31.480  1.00  0.00     0.031 A 
ATOM     36  C   UNL A   1      38.261  31.444  30.841  1.00  0.00     0.074 A 
ATOM     37  C   UNL A   1      37.855  32.999  32.724  1.00  0.00     0.049 A 
ATOM     38  N   UNL A   1      39.247  30.730  31.318  1.00  0.00    -0.248 NA
ATOM     39  C   UNL A   1      37.810  31.024  29.503  1.00  0.00     0.031 C 
ATOM     40  C   UNL A   1      37.167  34.049  33.478  1.00  0.00     0.029 A 
ATOM     41  N   UNL A   1      38.831  32.560  33.581  1.00  0.00    -0.354 N 
ATOM     42  C   UNL A   1      39.507  29.757  30.360  1.00  0.00     0.074 A 
ATOM     43  C   UNL A   1      38.552  29.947  29.292  1.00  0.00     0.031 C 
ATOM     44  C   UNL A   1      37.748  34.179  34.681  1.00  0.00     0.029 A 
ATOM     45  C   UNL A   1      38.821  33.198  34.800  1.00  0.00     0.049 A 
ATOM     46  H   UNL A   1      39.476  31.854  33.348  1.00  0.00     0.167 HD
ATOM     47  C   UNL A   1      40.473  28.807  30.356  1.00  0.00     0.034 A 
ATOM     48  C   UNL A   1      39.584  33.005  35.894  1.00  0.00     0.034 A 
ATOM     49  C   UNL A   1      41.442  28.647  31.406  1.00  0.00     0.049 A 
ATOM     50  C   UNL A   1      40.667  31.962  35.852  1.00  0.00     0.074 A 
ATOM     51  C   UNL A   1      42.515  27.775  31.458  1.00  0.00     0.029 A 
ATOM     52  N   UNL A   1      41.449  29.362  32.592  1.00  0.00    -0.354 N 
ATOM     53  N   UNL A   1      40.998  31.155  34.874  1.00  0.00    -0.248 NA
ATOM     54  C   UNL A   1      41.503  31.825  37.053  1.00  0.00     0.031 C 
ATOM     55  C   UNL A   1      43.149  27.938  32.693  1.00  0.00     0.029 A 
ATOM     56  C   UNL A   1      42.499  28.942  33.391  1.00  0.00     0.049 A 
ATOM     57  H   UNL A   1      40.804  30.066  32.831  1.00  0.00     0.167 HD
ATOM     58  C   UNL A   1      42.105  30.443  35.324  1.00  0.00     0.074 A 
ATOM     59  C   UNL A   1      42.398  30.930  36.657  1.00  0.00     0.031 C 
ATOM     60  C   UNL A   1      42.808  29.469  34.695  1.00  0.00     0.034 A 
BRANCH  47  61
ATOM     61  C   UNL A   1      40.554  27.894  29.160  1.00  0.00     0.023 A 
ATOM     62  C   UNL A   1      39.690  26.784  29.067  1.00  0.00     0.012 A 
ATOM     63  C   UNL A   1      41.444  28.166  28.102  1.00  0.00     0.148 A 
ATOM     64  C   UNL A   1      39.736  25.936  27.961  1.00  0.00     0.002 A 
ATOM     65  C   UNL A   1      41.449  27.346  26.980  1.00  0.00     0.091 A 
ATOM     66  F   UNL A   1      42.272  29.214  28.216  1.00  0.00    -0.205 F 
ATOM     67  C   UNL A   1      40.607  26.223  26.914  1.00  0.00     0.022 A 
BRANCH  65  68
ATOM     68  S   UNL A   1      42.471  27.677  25.541  1.00  0.00     0.127 S 
ATOM     69  O   UNL A   1      42.213  26.496  24.718  1.00  0.00    -0.237 OA
ATOM     70  O   UNL A   1      41.886  28.916  25.029  1.00  0.00    -0.237 OA
ATOM     71  O   UNL A   1      43.834  27.806  26.036  1.00  0.00    -0.744 OA
ENDBRANCH  65  68
ENDBRANCH  47  61
BRANCH  48  72
ATOM     72  C   UNL A   1      39.384  33.855  37.102  1.00  0.00     0.023 A 
ATOM     73  C   UNL A   1      39.822  35.194  37.088  1.00  0.00     0.012 A 
ATOM     74  C   UNL A   1      38.749  33.354  38.255  1.00  0.00     0.148 A 
ATOM     75  C   UNL A   1      39.664  36.007  38.211  1.00  0.00     0.002 A 
ATOM     76  C   UNL A   1      38.543  34.185  39.348  1.00  0.00     0.091 A 
ATOM     77  F   UNL A   1      38.345  32.075  38.251  1.00  0.00    -0.205 F 
ATOM     78  C   UNL A   1      39.017  35.505  39.337  1.00  0.00     0.022 A 
BRANCH  76  79
ATOM     79  S   UNL A   1      37.603  33.669  40.790  1.00  0.00     0.127 S 
ATOM     80  O   UNL A   1      37.445  34.929  41.510  1.00  0.00    -0.237 OA
ATOM     81  O   UNL A   1      36.380  33.147  40.180  1.00  0.00    -0.237 OA
ATOM     82  O   UNL A   1      38.420  32.662  41.453  1.00  0.00    -0.744 OA
ENDBRANCH  76  79
ENDBRANCH  48  72
BRANCH  60  83
ATOM     83  C   UNL A   1      43.997  28.889  35.416  1.00  0.00     0.023 A 
ATOM     84  C   UNL A   1      45.271  29.468  35.255  1.00  0.00     0.012 A 
ATOM     85  C   UNL A   1      43.832  27.816  36.314  1.00  0.00     0.148 A 
ATOM     86  C   UNL A   1      46.371  28.965  35.950  1.00  0.00     0.002 A 
ATOM     87  C   UNL A   1      44.921  27.355  37.044  1.00  0.00     0.091 A 
ATOM     88  F   UNL A   1      42.615  27.269  36.440  1.00  0.00    -0.205 F 
ATOM     89  C   UNL A   1      46.193  27.919  36.853  1.00  0.00     0.022 A 
BRANCH  87  90
ATOM     90  S   UNL A   1      44.769  26.081  38.301  1.00  0.00     0.127 S 
ATOM     91  O   UNL A   1      46.161  25.894  38.705  1.00  0.00    -0.237 OA
ATOM     92  O   UNL A   1      43.925  26.735  39.301  1.00  0.00    -0.237 OA
ATOM     93  O   UNL A   1      44.152  24.937  37.643  1.00  0.00    -0.744 OA
ENDBRANCH  87  90
ENDBRANCH  60  83
ENDBRANCH  34  35
ENDBRANCH  26  29
ENDBRANCH  24  25
ENDBRANCH  23  24
ENDBRANCH   1  23
TORSDOF 18
ENDMDL
MODEL 2
REMARK VINA RESULT:     -11.2      1.323      7.985
REMARK SMILES CC[N@@H+](C[C@@H](C)C(=O)NCCCNC(=O)c1ccc(-c2c3nc(c(-c4cccc(S(=O)(=O)[O-])c4F)c4ccc([nH]4)c(-c4cccc(S(=O)(=O)[O-])c4F)c4nc(c(-c5cccc(S(=O)(=O)[O-])c5F)c5ccc2[nH]5)C=C4)C=C3)cc1)[C@@H]1CCC[C@H](S(C)(=O)=O)C1
REMARK SMILES IDX 10 1 9 2 7 3 8 4 5 6 6 7 4 8 3 9 2 11 1 12 79 13 80 14 88 15
REMARK SMILES IDX 81 16 83 17 82 18 84 19 85 20 86 21 87 22 11 23 12 24 13 25
REMARK SMILES IDX 14 26 15 28 16 29 17 30 78 31 18 32 77 33 19 34 20 35 21 36
REMARK SMILES IDX 71 37 22 38 76 39 70 40 72 41 23 42 75 43 69 44 68 45 24 47
REMARK SMILES IDX 56 48 36 49 55 50 37 51 40 52 54 53 73 54 38 55 39 56 53 58
REMARK SMILES IDX 74 59 41 60 25 61 26 62 34 63 27 64 29 65 35 66 28 67 30 68
REMARK SMILES IDX 31 69 32 70 33 71 57 72 58 73 66 74 59 75 61 76 67 77 60 78
REMARK SMILES IDX 62 79 63 80 64 81 65 82 42 83 43 84 51 85 44 86 46 87 52 88
REMARK SMILES IDX 45 89 47 90 48 91 49 92 50 93
REMARK H PARENT 9 5 3 10 13 27 72 46 40 57
REMARK Flexibility Score: inf
ROOT
ATOM      1  C   UNL A   1      31.871  30.549  26.022  1.00  0.00     0.117 C 
ENDROOT
BRANCH   1   2
ATOM      2  N   UNL A   1      31.828  29.478  27.000  1.00  0.00    -0.356 N 
ATOM      3  C   UNL A   1      31.613  28.144  26.860  1.00  0.00     0.228 C 
ATOM      4  O   UNL A   1      31.446  27.487  27.892  1.00  0.00    -0.275 OA
ATOM      5  H   UNL A   1      31.982  29.771  27.928  1.00  0.00     0.163 HD
BRANCH   3   6
ATOM      6  C   UNL A   1      31.733  27.442  25.511  1.00  0.00     0.130 C 
ATOM      7  C   UNL A   1      30.456  26.610  25.381  1.00  0.00     0.024 C 
BRANCH   6   8
ATOM      8  C   UNL A   1      33.147  26.825  25.255  1.00  0.00     0.275 C 
BRANCH   8   9
ATOM      9  N   UNL A   1      33.668  26.573  23.884  1.00  0.00    -0.332 N 
ATOM     10  H   UNL A   1      34.675  26.735  23.915  1.00  0.00     0.348 HD
BRANCH   9  11
ATOM     11  C   UNL A   1      33.257  27.593  22.922  1.00  0.00     0.259 C 
ATOM     12  C   UNL A   1      33.884  28.969  23.148  1.00  0.00     0.071 C 
ENDBRANCH   9  11
BRANCH   9  13
ATOM     13  C   UNL A   1      33.802  25.149  23.467  1.00  0.00     0.185 C 
ATOM     14  C   UNL A   1      33.173  24.768  22.112  1.00  0.00     0.065 C 
ATOM     15  C   UNL A   1      33.279  24.214  24.548  1.00  0.00     0.084 C 
ATOM     16  C   UNL A   1      33.192  23.263  21.835  1.00  0.00     0.007 C 
ATOM     17  C   UNL A   1      33.146  22.722  24.268  1.00  0.00     0.114 C 
ATOM     18  C   UNL A   1      32.462  22.490  22.932  1.00  0.00     0.020 C 
BRANCH  17  19
ATOM     19  S   UNL A   1      32.221  22.034  25.679  1.00  0.00     0.150 S 
ATOM     20  C   UNL A   1      30.722  22.966  25.790  1.00  0.00     0.158 C 
ATOM     21  O   UNL A   1      31.847  20.677  25.334  1.00  0.00    -0.229 OA
ATOM     22  O   UNL A   1      32.970  22.301  26.897  1.00  0.00    -0.229 OA
ENDBRANCH  17  19
ENDBRANCH   9  13
ENDBRANCH   8   9
ENDBRANCH   6   8
ENDBRANCH   3   6
ENDBRANCH   1   2
BRANCH   1  23
ATOM     23  C   UNL A   1      31.558  31.883  26.689  1.00  0.00     0.042 C 
BRANCH  23  24
ATOM     24  C   UNL A   1      32.790  32.506  27.333  1.00  0.00     0.118 C 
BRANCH  24  25
ATOM     25  N   UNL A   1      32.570  33.902  27.694  1.00  0.00    -0.352 N 
ATOM     26  C   UNL A   1      33.183  34.648  28.669  1.00  0.00     0.251 C 
ATOM     27  H   UNL A   1      31.887  34.375  27.165  1.00  0.00     0.163 HD
ATOM     28  O   UNL A   1      32.740  35.751  28.969  1.00  0.00    -0.269 OA
BRANCH  26  29
ATOM     29  C   UNL A   1      34.362  34.099  29.367  1.00  0.00     0.039 A 
ATOM     30  C   UNL A   1      34.183  33.466  30.599  1.00  0.00     0.014 A 
ATOM     31  C   UNL A   1      35.633  34.190  28.796  1.00  0.00     0.014 A 
ATOM     32  C   UNL A   1      35.276  32.874  31.231  1.00  0.00     0.010 A 
ATOM     33  C   UNL A   1      36.701  33.523  29.382  1.00  0.00     0.010 A 
ATOM     34  C   UNL A   1      36.538  32.869  30.611  1.00  0.00    -0.014 A 
BRANCH  34  35
ATOM     35  C   UNL A   1      37.698  32.182  31.231  1.00  0.00     0.031 A 
ATOM     36  C   UNL A   1      38.290  32.708  32.510  1.00  0.00     0.074 A 
ATOM     37  C   UNL A   1      38.268  31.138  30.596  1.00  0.00     0.049 A 
ATOM     38  N   UNL A   1      39.334  32.280  33.170  1.00  0.00    -0.248 NA
ATOM     39  C   UNL A   1      37.641  33.885  33.114  1.00  0.00     0.031 C 
ATOM     40  C   UNL A   1      37.832  30.588  29.311  1.00  0.00     0.029 A 
ATOM     41  N   UNL A   1      39.353  30.371  30.934  1.00  0.00    -0.354 N 
ATOM     42  C   UNL A   1      39.491  33.155  34.238  1.00  0.00     0.074 A 
ATOM     43  C   UNL A   1      38.458  34.159  34.120  1.00  0.00     0.031 C 
ATOM     44  C   UNL A   1      38.635  29.567  28.973  1.00  0.00     0.029 A 
ATOM     45  C   UNL A   1      39.665  29.414  29.996  1.00  0.00     0.049 A 
ATOM     46  H   UNL A   1      39.862  30.492  31.768  1.00  0.00     0.167 HD
ATOM     47  C   UNL A   1      40.395  33.110  35.246  1.00  0.00     0.034 A 
ATOM     48  C   UNL A   1      40.674  28.522  29.958  1.00  0.00     0.034 A 
ATOM     49  C   UNL A   1      41.398  32.087  35.377  1.00  0.00     0.049 A 
ATOM     50  C   UNL A   1      41.649  28.477  31.103  1.00  0.00     0.074 A 
ATOM     51  C   UNL A   1      42.305  31.901  36.405  1.00  0.00     0.029 A 
ATOM     52  N   UNL A   1      41.636  31.089  34.446  1.00  0.00    -0.354 N 
ATOM     53  N   UNL A   1      41.686  29.215  32.186  1.00  0.00    -0.248 NA
ATOM     54  C   UNL A   1      42.703  27.453  31.038  1.00  0.00     0.031 C 
ATOM     55  C   UNL A   1      43.115  30.810  36.077  1.00  0.00     0.029 A 
ATOM     56  C   UNL A   1      42.685  30.290  34.868  1.00  0.00     0.049 A 
ATOM     57  H   UNL A   1      41.132  30.965  33.610  1.00  0.00     0.167 HD
ATOM     58  C   UNL A   1      42.737  28.721  32.949  1.00  0.00     0.074 A 
ATOM     59  C   UNL A   1      43.300  27.607  32.212  1.00  0.00     0.031 C 
ATOM     60  C   UNL A   1      43.202  29.156  34.146  1.00  0.00     0.034 A 
BRANCH  47  61
ATOM     61  C   UNL A   1      40.316  34.176  36.308  1.00  0.00     0.023 A 
ATOM     62  C   UNL A   1      40.689  35.500  36.000  1.00  0.00     0.012 A 
ATOM     63  C   UNL A   1      39.819  33.880  37.592  1.00  0.00     0.148 A 
ATOM     64  C   UNL A   1      40.607  36.506  36.962  1.00  0.00     0.002 A 
ATOM     65  C   UNL A   1      39.692  34.897  38.531  1.00  0.00     0.091 A 
ATOM     66  F   UNL A   1      39.487  32.612  37.874  1.00  0.00    -0.205 F 
ATOM     67  C   UNL A   1      40.099  36.206  38.223  1.00  0.00     0.022 A 
BRANCH  65  68
ATOM     68  S   UNL A   1      38.970  34.635  40.154  1.00  0.00     0.127 S 
ATOM     69  O   UNL A   1      40.064  33.968  40.860  1.00  0.00    -0.237 OA
ATOM     70  O   UNL A   1      38.705  36.004  40.597  1.00  0.00    -0.237 OA
ATOM     71  O   UNL A   1      37.780  33.824  39.939  1.00  0.00    -0.744 OA
ENDBRANCH  65  68
ENDBRANCH  47  61
BRANCH  48  72
ATOM     72  C   UNL A   1      40.782  27.564  28.821  1.00  0.00     0.023 A 
ATOM     73  C   UNL A   1      39.876  26.490  28.731  1.00  0.00     0.012 A 
ATOM     74  C   UNL A   1      41.760  27.722  27.820  1.00  0.00     0.148 A 
ATOM     75  C   UNL A   1      39.966  25.568  27.687  1.00  0.00     0.002 A 
ATOM     76  C   UNL A   1      41.808  26.834  26.753  1.00  0.00     0.091 A 
ATOM     77  F   UNL A   1      42.618  28.748  27.927  1.00  0.00    -0.205 F 
ATOM     78  C   UNL A   1      40.925  25.745  26.694  1.00  0.00     0.022 A 
BRANCH  76  79
ATOM     79  S   UNL A   1      42.920  27.058  25.359  1.00  0.00     0.127 S 
ATOM     80  O   UNL A   1      42.771  25.789  24.652  1.00  0.00    -0.237 OA
ATOM     81  O   UNL A   1      42.329  28.214  24.686  1.00  0.00    -0.237 OA
ATOM     82  O   UNL A   1      44.232  27.307  25.939  1.00  0.00    -0.744 OA
ENDBRANCH  76  79
ENDBRANCH  48  72
BRANCH  60  83
ATOM     83  C   UNL A   1      44.349  28.401  34.767  1.00  0.00     0.023 A 
ATOM     84  C   UNL A   1      45.675  28.818  34.539  1.00  0.00     0.012 A 
ATOM     85  C   UNL A   1      44.103  27.324  35.641  1.00  0.00     0.148 A 
ATOM     86  C   UNL A   1      46.741  28.152  35.143  1.00  0.00     0.002 A 
ATOM     87  C   UNL A   1      45.166  26.700  36.282  1.00  0.00     0.091 A 
ATOM     88  F   UNL A   1      42.835  26.933  35.832  1.00  0.00    -0.205 F 
ATOM     89  C   UNL A   1      46.486  27.103  36.024  1.00  0.00     0.022 A 
BRANCH  87  90
ATOM     90  S   UNL A   1      44.929  25.408  37.507  1.00  0.00     0.127 S 
ATOM     91  O   UNL A   1      44.198  24.401  36.740  1.00  0.00    -0.237 OA
ATOM     92  O   UNL A   1      46.306  25.042  37.840  1.00  0.00    -0.237 OA
ATOM     93  O   UNL A   1      44.184  26.020  38.600  1.00  0.00    -0.744 OA
ENDBRANCH  87  90
ENDBRANCH  60  83
ENDBRANCH  34  35
ENDBRANCH  26  29
ENDBRANCH  24  25
ENDBRANCH  23  24
ENDBRANCH   1  23
TORSDOF 18
ENDMDL
MODEL 3
REMARK VINA RESULT:     -11.1      1.692      2.187
REMARK SMILES CC[N@@H+](C[C@@H](C)C(=O)NCCCNC(=O)c1ccc(-c2c3nc(c(-c4cccc(S(=O)(=O)[O-])c4F)c4ccc([nH]4)c(-c4cccc(S(=O)(=O)[O-])c4F)c4nc(c(-c5cccc(S(=O)(=O)[O-])c5F)c5ccc2[nH]5)C=C4)C=C3)cc1)[C@@H]1CCC[C@H](S(C)(=O)=O)C1
REMARK SMILES IDX 10 1 9 2 7 3 8 4 5 6 6 7 4 8 3 9 2 11 1 12 79 13 80 14 88 15
REMARK SMILES IDX 81 16 83 17 82 18 84 19 85 20 86 21 87 22 11 23 12 24 13 25
REMARK SMILES IDX 14 26 15 28 16 29 17 30 78 31 18 32 77 33 19 34 20 35 21 36
REMARK SMILES IDX 71 37 22 38 76 39 70 40 72 41 23 42 75 43 69 44 68 45 24 47
REMARK SMILES IDX 56 48 36 49 55 50 37 51 40 52 54 53 73 54 38 55 39 56 53 58
REMARK SMILES IDX 74 59 41 60 25 61 26 62 34 63 27 64 29 65 35 66 28 67 30 68
REMARK SMILES IDX 31 69 32 70 33 71 57 72 58 73 66 74 59 75 61 76 67 77 60 78
REMARK SMILES IDX 62 79 63 80 64 81 65 82 42 83 43 84 51 85 44 86 46 87 52 88
REMARK SMILES IDX 45 89 47 90 48 91 49 92 50 93
REMARK H PARENT 9 5 3 10 13 27 72 46 40 57
REMARK Flexibility Score: inf
ROOT
ATOM      1  C   UNL A   1      31.803  30.343  25.828  1.00  0.00     0.117 C 
ENDROOT
BRANCH   1   2
ATOM      2  N   UNL A   1      31.758  29.272  26.805  1.00  0.00    -0.356 N 
ATOM      3  C   UNL A   1      31.526  27.940  26.667  1.00  0.00     0.228 C 
ATOM      4  O   UNL A   1      31.362  27.285  27.700  1.00  0.00    -0.275 OA
ATOM      5  H   UNL A   1      31.925  29.562  27.732  1.00  0.00     0.163 HD
BRANCH   3   6
ATOM      6  C   UNL A   1      31.624  27.238  25.316  1.00  0.00     0.130 C 
ATOM      7  C   UNL A   1      30.262  26.573  25.113  1.00  0.00     0.024 C 
BRANCH   6   8
ATOM      8  C   UNL A   1      32.962  26.451  25.119  1.00  0.00     0.275 C 
BRANCH   8   9
ATOM      9  N   UNL A   1      33.640  26.352  23.799  1.00  0.00    -0.332 N 
ATOM     10  H   UNL A   1      34.628  26.546  23.958  1.00  0.00     0.348 HD
BRANCH   9  11
ATOM     11  C   UNL A   1      33.289  27.445  22.895  1.00  0.00     0.259 C 
ATOM     12  C   UNL A   1      34.227  28.651  22.962  1.00  0.00     0.071 C 
ENDBRANCH   9  11
BRANCH   9  13
ATOM     13  C   UNL A   1      33.884  24.981  23.269  1.00  0.00     0.185 C 
ATOM     14  C   UNL A   1      32.834  24.427  22.287  1.00  0.00     0.065 C 
ATOM     15  C   UNL A   1      34.088  23.988  24.405  1.00  0.00     0.084 C 
ATOM     16  C   UNL A   1      33.054  22.955  21.927  1.00  0.00     0.007 C 
ATOM     17  C   UNL A   1      34.170  22.496  24.109  1.00  0.00     0.114 C 
ATOM     18  C   UNL A   1      33.048  22.075  23.175  1.00  0.00     0.020 C 
BRANCH  17  19
ATOM     19  S   UNL A   1      34.108  21.665  25.729  1.00  0.00     0.150 S 
ATOM     20  C   UNL A   1      33.406  20.068  25.440  1.00  0.00     0.158 C 
ATOM     21  O   UNL A   1      35.475  21.450  26.161  1.00  0.00    -0.229 OA
ATOM     22  O   UNL A   1      33.175  22.384  26.582  1.00  0.00    -0.229 OA
ENDBRANCH  17  19
ENDBRANCH   9  13
ENDBRANCH   8   9
ENDBRANCH   6   8
ENDBRANCH   3   6
ENDBRANCH   1   2
BRANCH   1  23
ATOM     23  C   UNL A   1      31.477  31.675  26.492  1.00  0.00     0.042 C 
BRANCH  23  24
ATOM     24  C   UNL A   1      32.700  32.305  27.147  1.00  0.00     0.118 C 
BRANCH  24  25
ATOM     25  N   UNL A   1      32.505  33.725  27.413  1.00  0.00    -0.352 N 
ATOM     26  C   UNL A   1      33.116  34.519  28.352  1.00  0.00     0.251 C 
ATOM     27  H   UNL A   1      31.845  34.178  26.840  1.00  0.00     0.163 HD
ATOM     28  O   UNL A   1      32.692  35.649  28.571  1.00  0.00    -0.269 OA
BRANCH  26  29
ATOM     29  C   UNL A   1      34.267  33.990  29.109  1.00  0.00     0.039 A 
ATOM     30  C   UNL A   1      34.046  33.003  30.071  1.00  0.00     0.014 A 
ATOM     31  C   UNL A   1      35.560  34.453  28.852  1.00  0.00     0.014 A 
ATOM     32  C   UNL A   1      35.135  32.440  30.737  1.00  0.00     0.010 A 
ATOM     33  C   UNL A   1      36.647  33.828  29.450  1.00  0.00     0.010 A 
ATOM     34  C   UNL A   1      36.446  32.824  30.408  1.00  0.00    -0.014 A 
BRANCH  34  35
ATOM     35  C   UNL A   1      37.620  32.185  31.052  1.00  0.00     0.031 A 
ATOM     36  C   UNL A   1      38.433  31.169  30.298  1.00  0.00     0.074 A 
ATOM     37  C   UNL A   1      37.901  32.459  32.342  1.00  0.00     0.049 A 
ATOM     38  N   UNL A   1      39.455  30.464  30.708  1.00  0.00    -0.248 NA
ATOM     39  C   UNL A   1      38.029  30.885  28.910  1.00  0.00     0.031 C 
ATOM     40  C   UNL A   1      37.138  33.368  33.200  1.00  0.00     0.029 A 
ATOM     41  N   UNL A   1      38.890  31.980  33.163  1.00  0.00    -0.354 N 
ATOM     42  C   UNL A   1      39.790  29.630  29.648  1.00  0.00     0.074 A 
ATOM     43  C   UNL A   1      38.841  29.888  28.589  1.00  0.00     0.031 C 
ATOM     44  C   UNL A   1      37.691  33.388  34.423  1.00  0.00     0.029 A 
ATOM     45  C   UNL A   1      38.822  32.467  34.448  1.00  0.00     0.049 A 
ATOM     46  H   UNL A   1      39.582  31.349  32.862  1.00  0.00     0.167 HD
ATOM     47  C   UNL A   1      40.813  28.748  29.553  1.00  0.00     0.034 A 
ATOM     48  C   UNL A   1      39.578  32.191  35.529  1.00  0.00     0.034 A 
ATOM     49  C   UNL A   1      41.775  28.522  30.598  1.00  0.00     0.049 A 
ATOM     50  C   UNL A   1      40.725  31.227  35.387  1.00  0.00     0.074 A 
ATOM     51  C   UNL A   1      42.899  27.717  30.570  1.00  0.00     0.029 A 
ATOM     52  N   UNL A   1      41.719  29.089  31.861  1.00  0.00    -0.354 N 
ATOM     53  N   UNL A   1      41.122  30.565  34.328  1.00  0.00    -0.248 NA
ATOM     54  C   UNL A   1      41.551  30.998  36.582  1.00  0.00     0.031 C 
ATOM     55  C   UNL A   1      43.503  27.769  31.829  1.00  0.00     0.029 A 
ATOM     56  C   UNL A   1      42.781  28.641  32.627  1.00  0.00     0.049 A 
ATOM     57  H   UNL A   1      41.027  29.719  32.167  1.00  0.00     0.167 HD
ATOM     58  C   UNL A   1      42.264  29.873  34.715  1.00  0.00     0.074 A 
ATOM     59  C   UNL A   1      42.506  30.213  36.103  1.00  0.00     0.031 C 
ATOM     60  C   UNL A   1      43.036  29.026  33.991  1.00  0.00     0.034 A 
BRANCH  47  61
ATOM     61  C   UNL A   1      40.969  27.992  28.259  1.00  0.00     0.023 A 
ATOM     62  C   UNL A   1      41.563  28.623  27.147  1.00  0.00     0.012 A 
ATOM     63  C   UNL A   1      40.581  26.641  28.160  1.00  0.00     0.148 A 
ATOM     64  C   UNL A   1      41.733  27.936  25.945  1.00  0.00     0.002 A 
ATOM     65  C   UNL A   1      40.800  25.948  26.976  1.00  0.00     0.091 A 
ATOM     66  F   UNL A   1      40.001  26.063  29.222  1.00  0.00    -0.205 F 
ATOM     67  C   UNL A   1      41.362  26.597  25.863  1.00  0.00     0.022 A 
BRANCH  65  68
ATOM     68  S   UNL A   1      40.438  24.199  26.794  1.00  0.00     0.127 S 
ATOM     69  O   UNL A   1      41.419  23.796  25.787  1.00  0.00    -0.237 OA
ATOM     70  O   UNL A   1      40.703  23.690  28.141  1.00  0.00    -0.237 OA
ATOM     71  O   UNL A   1      39.046  24.116  26.376  1.00  0.00    -0.744 OA
ENDBRANCH  65  68
ENDBRANCH  47  61
BRANCH  48  72
ATOM     72  C   UNL A   1      39.308  32.876  36.824  1.00  0.00     0.023 A 
ATOM     73  C   UNL A   1      39.967  34.086  37.120  1.00  0.00     0.012 A 
ATOM     74  C   UNL A   1      38.390  32.351  37.754  1.00  0.00     0.148 A 
ATOM     75  C   UNL A   1      39.746  34.739  38.333  1.00  0.00     0.002 A 
ATOM     76  C   UNL A   1      38.132  33.036  38.934  1.00  0.00     0.091 A 
ATOM     77  F   UNL A   1      37.777  31.195  37.457  1.00  0.00    -0.205 F 
ATOM     78  C   UNL A   1      38.822  34.219  39.235  1.00  0.00     0.022 A 
BRANCH  76  79
ATOM     79  S   UNL A   1      36.863  32.515  40.095  1.00  0.00     0.127 S 
ATOM     80  O   UNL A   1      37.393  31.237  40.563  1.00  0.00    -0.237 OA
ATOM     81  O   UNL A   1      36.895  33.596  41.081  1.00  0.00    -0.237 OA
ATOM     82  O   UNL A   1      35.630  32.442  39.325  1.00  0.00    -0.744 OA
ENDBRANCH  76  79
ENDBRANCH  48  72
BRANCH  60  83
ATOM     83  C   UNL A   1      44.249  28.437  34.664  1.00  0.00     0.023 A 
ATOM     84  C   UNL A   1      45.477  29.127  34.637  1.00  0.00     0.012 A 
ATOM     85  C   UNL A   1      44.147  27.235  35.391  1.00  0.00     0.148 A 
ATOM     86  C   UNL A   1      46.594  28.611  35.292  1.00  0.00     0.002 A 
ATOM     87  C   UNL A   1      45.250  26.754  36.087  1.00  0.00     0.091 A 
ATOM     88  F   UNL A   1      42.974  26.586  35.392  1.00  0.00    -0.205 F 
ATOM     89  C   UNL A   1      46.477  27.433  36.027  1.00  0.00     0.022 A 
BRANCH  87  90
ATOM     90  S   UNL A   1      45.167  25.302  37.140  1.00  0.00     0.127 S 
ATOM     91  O   UNL A   1      46.532  25.229  37.655  1.00  0.00    -0.237 OA
ATOM     92  O   UNL A   1      44.161  25.695  38.128  1.00  0.00    -0.237 OA
ATOM     93  O   UNL A   1      44.767  24.199  36.276  1.00  0.00    -0.744 OA
ENDBRANCH  87  90
ENDBRANCH  60  83
ENDBRANCH  34  35
ENDBRANCH  26  29
ENDBRANCH  24  25
ENDBRANCH  23  24
ENDBRANCH   1  23
TORSDOF 18
ENDMDL
