MODEL 1
REMARK VINA RESULT:     -11.0      0.000      0.000
REMARK SMILES [NH3+][C@H](Cc1ccc2nsnc2c1)C(=O)NCCCNC(=O)c1ccc(-c2c3nc(c(-c4cccc(S(=O)(=O)[O-])c4F)c4ccc([nH]4)c(-c4cccc(S(=O)(=O)[O-])c4F)c4nc(c(-c5cccc(S(=O)(=O)[O-])c5F)c5ccc2[nH]5)C=C4)C=C3)cc1
REMARK SMILES IDX 17 1 16 2 15 3 13 4 14 5 2 7 1 8 3 12 4 13 5 14 12 15 6 16
REMARK SMILES IDX 11 17 7 18 10 19 8 20 9 21 18 22 19 23 20 24 21 26 22 27
REMARK SMILES IDX 23 28 84 29 24 30 83 31 25 32 26 33 27 34 77 35 28 36 82 37
REMARK SMILES IDX 76 38 78 39 29 40 81 41 75 42 74 43 30 45 62 46 42 47 61 48
REMARK SMILES IDX 43 49 46 50 60 51 79 52 44 53 45 54 59 56 80 57 47 58 31 59
REMARK SMILES IDX 32 60 40 61 33 62 35 63 41 64 34 65 36 66 37 67 38 68 39 69
REMARK SMILES IDX 63 70 64 71 72 72 65 73 67 74 73 75 66 76 68 77 69 78 70 79
REMARK SMILES IDX 71 80 48 81 49 82 57 83 50 84 52 85 58 86 51 87 53 88 54 89
REMARK SMILES IDX 55 90 56 91
REMARK H PARENT 15 6 1 9 1 10 1 11 19 25 78 44 46 55
REMARK Flexibility Score: inf
ROOT
ATOM      1  C   UNL A   1      32.220  27.913  27.120  1.00  0.00     0.042 C 
ENDROOT
BRANCH   1   2
ATOM      2  C   UNL A   1      31.557  26.939  26.147  1.00  0.00     0.118 C 
BRANCH   2   3
ATOM      3  N   UNL A   1      31.021  25.735  26.764  1.00  0.00    -0.351 N 
ATOM      4  C   UNL A   1      30.963  24.426  26.404  1.00  0.00     0.278 C 
ATOM      5  O   UNL A   1      30.464  23.662  27.244  1.00  0.00    -0.268 OA
ATOM      6  H   UNL A   1      30.607  25.909  27.641  1.00  0.00     0.163 HD
BRANCH   4   7
ATOM      7  C   UNL A   1      31.403  23.856  25.040  1.00  0.00     0.275 C 
BRANCH   7   8
ATOM      8  N   UNL A   1      30.422  24.139  23.963  1.00  0.00    -0.347 N 
ATOM      9  H   UNL A   1      29.767  23.360  23.887  1.00  0.00     0.345 HD
ATOM     10  H   UNL A   1      30.913  24.256  23.077  1.00  0.00     0.345 HD
ATOM     11  H   UNL A   1      29.911  24.993  24.183  1.00  0.00     0.345 HD
ENDBRANCH   7   8
BRANCH   7  12
ATOM     12  C   UNL A   1      31.992  22.424  25.008  1.00  0.00     0.111 C 
BRANCH  12  13
ATOM     13  C   UNL A   1      33.487  22.208  25.114  1.00  0.00    -0.039 A 
ATOM     14  C   UNL A   1      34.038  20.915  24.873  1.00  0.00     0.006 A 
ATOM     15  C   UNL A   1      34.298  23.292  25.526  1.00  0.00     0.035 A 
ATOM     16  C   UNL A   1      35.414  20.621  24.937  1.00  0.00     0.032 A 
ATOM     17  C   UNL A   1      35.691  23.046  25.620  1.00  0.00     0.105 A 
ATOM     18  C   UNL A   1      36.258  21.689  25.311  1.00  0.00     0.104 A 
ATOM     19  N   UNL A   1      36.625  23.950  25.940  1.00  0.00    -0.173 NA
ATOM     20  N   UNL A   1      37.593  21.636  25.412  1.00  0.00    -0.173 NA
ATOM     21  S   UNL A   1      38.069  23.125  25.990  1.00  0.00     0.069 S 
ENDBRANCH  12  13
ENDBRANCH   7  12
ENDBRANCH   4   7
ENDBRANCH   2   3
ENDBRANCH   1   2
BRANCH   1  22
ATOM     22  C   UNL A   1      33.529  28.548  26.656  1.00  0.00     0.118 C 
BRANCH  22  23
ATOM     23  N   UNL A   1      33.559  29.980  26.901  1.00  0.00    -0.352 N 
ATOM     24  C   UNL A   1      34.446  30.733  27.635  1.00  0.00     0.251 C 
ATOM     25  H   UNL A   1      32.831  30.491  26.476  1.00  0.00     0.163 HD
ATOM     26  O   UNL A   1      34.147  31.894  27.909  1.00  0.00    -0.269 OA
BRANCH  24  27
ATOM     27  C   UNL A   1      35.745  30.184  28.110  1.00  0.00     0.039 A 
ATOM     28  C   UNL A   1      35.817  29.666  29.409  1.00  0.00     0.014 A 
ATOM     29  C   UNL A   1      36.910  30.257  27.343  1.00  0.00     0.014 A 
ATOM     30  C   UNL A   1      37.034  29.195  29.922  1.00  0.00     0.010 A 
ATOM     31  C   UNL A   1      38.111  29.728  27.832  1.00  0.00     0.010 A 
ATOM     32  C   UNL A   1      38.194  29.203  29.132  1.00  0.00    -0.014 A 
BRANCH  32  33
ATOM     33  C   UNL A   1      39.497  28.678  29.642  1.00  0.00     0.031 A 
ATOM     34  C   UNL A   1      40.265  29.431  30.701  1.00  0.00     0.074 A 
ATOM     35  C   UNL A   1      40.043  27.571  29.100  1.00  0.00     0.049 A 
ATOM     36  N   UNL A   1      41.451  29.182  31.197  1.00  0.00    -0.248 NA
ATOM     37  C   UNL A   1      39.616  30.620  31.277  1.00  0.00     0.031 C 
ATOM     38  C   UNL A   1      39.428  26.741  28.064  1.00  0.00     0.029 A 
ATOM     39  N   UNL A   1      41.266  26.977  29.312  1.00  0.00    -0.354 N 
ATOM     40  C   UNL A   1      41.701  30.188  32.122  1.00  0.00     0.074 A 
ATOM     41  C   UNL A   1      40.555  31.073  32.096  1.00  0.00     0.031 C 
ATOM     42  C   UNL A   1      40.295  25.787  27.687  1.00  0.00     0.029 A 
ATOM     43  C   UNL A   1      41.531  25.938  28.449  1.00  0.00     0.049 A 
ATOM     44  H   UNL A   1      41.891  27.268  30.014  1.00  0.00     0.167 HD
ATOM     45  C   UNL A   1      42.767  30.347  32.944  1.00  0.00     0.034 A 
ATOM     46  C   UNL A   1      42.645  25.199  28.271  1.00  0.00     0.034 A 
ATOM     47  C   UNL A   1      43.892  29.452  33.001  1.00  0.00     0.049 A 
ATOM     48  C   UNL A   1      43.829  25.410  29.174  1.00  0.00     0.074 A 
ATOM     49  C   UNL A   1      44.974  29.487  33.865  1.00  0.00     0.029 A 
ATOM     50  N   UNL A   1      44.091  28.372  32.158  1.00  0.00    -0.354 N 
ATOM     51  N   UNL A   1      43.977  26.273  30.149  1.00  0.00    -0.248 NA
ATOM     52  C   UNL A   1      44.981  24.513  28.990  1.00  0.00     0.031 C 
ATOM     53  C   UNL A   1      45.843  28.446  33.522  1.00  0.00     0.029 A 
ATOM     54  C   UNL A   1      45.284  27.741  32.468  1.00  0.00     0.049 A 
ATOM     55  H   UNL A   1      43.474  28.094  31.442  1.00  0.00     0.167 HD
ATOM     56  C   UNL A   1      45.205  25.981  30.734  1.00  0.00     0.074 A 
ATOM     57  C   UNL A   1      45.764  24.865  30.001  1.00  0.00     0.031 C 
ATOM     58  C   UNL A   1      45.809  26.587  31.785  1.00  0.00     0.034 A 
BRANCH  45  59
ATOM     59  C   UNL A   1      42.751  31.513  33.901  1.00  0.00     0.023 A 
ATOM     60  C   UNL A   1      43.248  32.764  33.481  1.00  0.00     0.012 A 
ATOM     61  C   UNL A   1      42.172  31.396  35.181  1.00  0.00     0.148 A 
ATOM     62  C   UNL A   1      43.203  33.869  34.329  1.00  0.00     0.002 A 
ATOM     63  C   UNL A   1      42.091  32.513  36.006  1.00  0.00     0.091 A 
ATOM     64  F   UNL A   1      41.717  30.196  35.569  1.00  0.00    -0.205 F 
ATOM     65  C   UNL A   1      42.616  33.746  35.586  1.00  0.00     0.022 A 
BRANCH  63  66
ATOM     66  S   UNL A   1      41.280  32.478  37.608  1.00  0.00     0.127 S 
ATOM     67  O   UNL A   1      39.962  31.947  37.259  1.00  0.00    -0.237 OA
ATOM     68  O   UNL A   1      42.128  31.554  38.363  1.00  0.00    -0.237 OA
ATOM     69  O   UNL A   1      41.293  33.849  38.096  1.00  0.00    -0.744 OA
ENDBRANCH  63  66
ENDBRANCH  45  59
BRANCH  46  70
ATOM     70  C   UNL A   1      42.667  24.134  27.228  1.00  0.00     0.023 A 
ATOM     71  C   UNL A   1      43.264  24.398  25.981  1.00  0.00     0.012 A 
ATOM     72  C   UNL A   1      42.118  22.860  27.472  1.00  0.00     0.148 A 
ATOM     73  C   UNL A   1      43.282  23.427  24.981  1.00  0.00     0.002 A 
ATOM     74  C   UNL A   1      42.180  21.880  26.488  1.00  0.00     0.091 A 
ATOM     75  F   UNL A   1      41.553  22.630  28.667  1.00  0.00    -0.205 F 
ATOM     76  C   UNL A   1      42.747  22.166  25.236  1.00  0.00     0.022 A 
BRANCH  74  77
ATOM     77  S   UNL A   1      41.615  20.197  26.758  1.00  0.00     0.127 S 
ATOM     78  O   UNL A   1      41.817  19.598  25.442  1.00  0.00    -0.237 OA
ATOM     79  O   UNL A   1      42.535  19.733  27.795  1.00  0.00    -0.237 OA
ATOM     80  O   UNL A   1      40.227  20.312  27.189  1.00  0.00    -0.744 OA
ENDBRANCH  74  77
ENDBRANCH  46  70
BRANCH  58  81
ATOM     81  C   UNL A   1      47.121  26.027  32.273  1.00  0.00     0.023 A 
ATOM     82  C   UNL A   1      48.335  26.534  31.773  1.00  0.00     0.012 A 
ATOM     83  C   UNL A   1      47.143  25.068  33.306  1.00  0.00     0.148 A 
ATOM     84  C   UNL A   1      49.554  26.078  32.279  1.00  0.00     0.002 A 
ATOM     85  C   UNL A   1      48.359  24.656  33.838  1.00  0.00     0.091 A 
ATOM     86  F   UNL A   1      45.975  24.585  33.755  1.00  0.00    -0.205 F 
ATOM     87  C   UNL A   1      49.565  25.151  33.319  1.00  0.00     0.022 A 
BRANCH  85  88
ATOM     88  S   UNL A   1      48.471  23.541  35.244  1.00  0.00     0.127 S 
ATOM     89  O   UNL A   1      47.720  24.271  36.264  1.00  0.00    -0.237 OA
ATOM     90  O   UNL A   1      47.805  22.341  34.738  1.00  0.00    -0.237 OA
ATOM     91  O   UNL A   1      49.893  23.377  35.517  1.00  0.00    -0.744 OA
ENDBRANCH  85  88
ENDBRANCH  58  81
ENDBRANCH  32  33
ENDBRANCH  24  27
ENDBRANCH  22  23
ENDBRANCH   1  22
TORSDOF 16
ENDMDL
MODEL 2
REMARK VINA RESULT:     -11.0      3.451      6.391
REMARK SMILES [NH3+][C@H](Cc1ccc2nsnc2c1)C(=O)NCCCNC(=O)c1ccc(-c2c3nc(c(-c4cccc(S(=O)(=O)[O-])c4F)c4ccc([nH]4)c(-c4cccc(S(=O)(=O)[O-])c4F)c4nc(c(-c5cccc(S(=O)(=O)[O-])c5F)c5ccc2[nH]5)C=C4)C=C3)cc1
REMARK SMILES IDX 17 1 16 2 15 3 13 4 14 5 2 7 1 8 3 12 4 13 5 14 12 15 6 16
REMARK SMILES IDX 11 17 7 18 10 19 8 20 9 21 18 22 19 23 20 24 21 26 22 27
REMARK SMILES IDX 23 28 84 29 24 30 83 31 25 32 26 33 27 34 77 35 28 36 82 37
REMARK SMILES IDX 76 38 78 39 29 40 81 41 75 42 74 43 30 45 62 46 42 47 61 48
REMARK SMILES IDX 43 49 46 50 60 51 79 52 44 53 45 54 59 56 80 57 47 58 31 59
REMARK SMILES IDX 32 60 40 61 33 62 35 63 41 64 34 65 36 66 37 67 38 68 39 69
REMARK SMILES IDX 63 70 64 71 72 72 65 73 67 74 73 75 66 76 68 77 69 78 70 79
REMARK SMILES IDX 71 80 48 81 49 82 57 83 50 84 52 85 58 86 51 87 53 88 54 89
REMARK SMILES IDX 55 90 56 91
REMARK H PARENT 15 6 1 9 1 10 1 11 19 25 78 44 46 55
REMARK Flexibility Score: inf
ROOT
ATOM      1  C   UNL A   1      35.479  33.634  29.316  1.00  0.00     0.042 C 
ENDROOT
BRANCH   1   2
ATOM      2  C   UNL A   1      34.200  33.606  30.151  1.00  0.00     0.118 C 
BRANCH   2   3
ATOM      3  N   UNL A   1      33.378  34.801  30.045  1.00  0.00    -0.351 N 
ATOM      4  C   UNL A   1      32.905  35.714  30.933  1.00  0.00     0.278 C 
ATOM      5  O   UNL A   1      32.266  36.657  30.443  1.00  0.00    -0.268 OA
ATOM      6  H   UNL A   1      33.102  34.991  29.118  1.00  0.00     0.163 HD
BRANCH   4   7
ATOM      7  C   UNL A   1      33.051  35.624  32.466  1.00  0.00     0.275 C 
BRANCH   7   8
ATOM      8  N   UNL A   1      31.808  36.007  33.180  1.00  0.00    -0.347 N 
ATOM      9  H   UNL A   1      30.998  35.718  32.630  1.00  0.00     0.345 HD
ATOM     10  H   UNL A   1      31.787  37.018  33.309  1.00  0.00     0.345 HD
ATOM     11  H   UNL A   1      31.782  35.548  34.090  1.00  0.00     0.345 HD
ENDBRANCH   7   8
BRANCH   7  12
ATOM     12  C   UNL A   1      34.350  36.177  33.105  1.00  0.00     0.111 C 
BRANCH  12  13
ATOM     13  C   UNL A   1      35.475  35.238  33.487  1.00  0.00    -0.039 A 
ATOM     14  C   UNL A   1      36.513  34.953  32.552  1.00  0.00     0.006 A 
ATOM     15  C   UNL A   1      35.425  34.605  34.751  1.00  0.00     0.035 A 
ATOM     16  C   UNL A   1      37.603  34.104  32.820  1.00  0.00     0.032 A 
ATOM     17  C   UNL A   1      36.494  33.728  35.068  1.00  0.00     0.105 A 
ATOM     18  C   UNL A   1      37.606  33.482  34.088  1.00  0.00     0.104 A 
ATOM     19  N   UNL A   1      36.655  33.078  36.227  1.00  0.00    -0.173 NA
ATOM     20  N   UNL A   1      38.553  32.658  34.556  1.00  0.00    -0.173 NA
ATOM     21  S   UNL A   1      38.008  32.128  36.039  1.00  0.00     0.069 S 
ENDBRANCH  12  13
ENDBRANCH   7  12
ENDBRANCH   4   7
ENDBRANCH   2   3
ENDBRANCH   1   2
BRANCH   1  22
ATOM     22  C   UNL A   1      35.323  33.337  27.826  1.00  0.00     0.118 C 
BRANCH  22  23
ATOM     23  N   UNL A   1      34.408  32.236  27.582  1.00  0.00    -0.352 N 
ATOM     24  C   UNL A   1      34.627  30.878  27.627  1.00  0.00     0.251 C 
ATOM     25  H   UNL A   1      33.489  32.502  27.348  1.00  0.00     0.163 HD
ATOM     26  O   UNL A   1      33.775  30.129  27.150  1.00  0.00    -0.269 OA
BRANCH  24  27
ATOM     27  C   UNL A   1      35.857  30.295  28.226  1.00  0.00     0.039 A 
ATOM     28  C   UNL A   1      37.018  30.237  27.445  1.00  0.00     0.014 A 
ATOM     29  C   UNL A   1      35.866  29.719  29.499  1.00  0.00     0.014 A 
ATOM     30  C   UNL A   1      38.184  29.640  27.945  1.00  0.00     0.010 A 
ATOM     31  C   UNL A   1      37.049  29.181  30.021  1.00  0.00     0.010 A 
ATOM     32  C   UNL A   1      38.219  29.120  29.249  1.00  0.00    -0.014 A 
BRANCH  32  33
ATOM     33  C   UNL A   1      39.457  28.507  29.818  1.00  0.00     0.031 A 
ATOM     34  C   UNL A   1      40.152  29.139  31.000  1.00  0.00     0.074 A 
ATOM     35  C   UNL A   1      40.016  27.431  29.229  1.00  0.00     0.049 A 
ATOM     36  N   UNL A   1      41.282  28.806  31.570  1.00  0.00    -0.248 NA
ATOM     37  C   UNL A   1      39.490  30.297  31.621  1.00  0.00     0.031 C 
ATOM     38  C   UNL A   1      39.469  26.714  28.076  1.00  0.00     0.029 A 
ATOM     39  N   UNL A   1      41.198  26.777  29.491  1.00  0.00    -0.354 N 
ATOM     40  C   UNL A   1      41.480  29.720  32.598  1.00  0.00     0.074 A 
ATOM     41  C   UNL A   1      40.367  30.645  32.553  1.00  0.00     0.031 C 
ATOM     42  C   UNL A   1      40.338  25.766  27.691  1.00  0.00     0.029 A 
ATOM     43  C   UNL A   1      41.507  25.806  28.565  1.00  0.00     0.049 A 
ATOM     44  H   UNL A   1      41.768  26.984  30.265  1.00  0.00     0.167 HD
ATOM     45  C   UNL A   1      42.475  29.770  33.517  1.00  0.00     0.034 A 
ATOM     46  C   UNL A   1      42.610  25.045  28.417  1.00  0.00     0.034 A 
ATOM     47  C   UNL A   1      43.564  28.833  33.590  1.00  0.00     0.049 A 
ATOM     48  C   UNL A   1      43.718  25.136  29.432  1.00  0.00     0.074 A 
ATOM     49  C   UNL A   1      44.568  28.755  34.541  1.00  0.00     0.029 A 
ATOM     50  N   UNL A   1      43.804  27.822  32.675  1.00  0.00    -0.354 N 
ATOM     51  N   UNL A   1      43.805  25.906  30.487  1.00  0.00    -0.248 NA
ATOM     52  C   UNL A   1      44.854  24.216  29.267  1.00  0.00     0.031 C 
ATOM     53  C   UNL A   1      45.433  27.716  34.182  1.00  0.00     0.029 A 
ATOM     54  C   UNL A   1      44.947  27.124  33.028  1.00  0.00     0.049 A 
ATOM     55  H   UNL A   1      43.244  27.628  31.888  1.00  0.00     0.167 HD
ATOM     56  C   UNL A   1      44.969  25.522  31.145  1.00  0.00     0.074 A 
ATOM     57  C   UNL A   1      45.557  24.452  30.367  1.00  0.00     0.031 C 
ATOM     58  C   UNL A   1      45.496  26.014  32.292  1.00  0.00     0.034 A 
BRANCH  45  59
ATOM     59  C   UNL A   1      42.410  30.850  34.568  1.00  0.00     0.023 A 
ATOM     60  C   UNL A   1      41.793  30.578  35.806  1.00  0.00     0.012 A 
ATOM     61  C   UNL A   1      43.026  32.102  34.365  1.00  0.00     0.148 A 
ATOM     62  C   UNL A   1      41.760  31.543  36.812  1.00  0.00     0.002 A 
ATOM     63  C   UNL A   1      43.027  33.043  35.388  1.00  0.00     0.091 A 
ATOM     64  F   UNL A   1      43.595  32.348  33.176  1.00  0.00    -0.205 F 
ATOM     65  C   UNL A   1      42.384  32.770  36.606  1.00  0.00     0.022 A 
BRANCH  63  66
ATOM     66  S   UNL A   1      43.875  34.621  35.252  1.00  0.00     0.127 S 
ATOM     67  O   UNL A   1      45.248  34.195  34.980  1.00  0.00    -0.237 OA
ATOM     68  O   UNL A   1      43.193  35.241  34.115  1.00  0.00    -0.237 OA
ATOM     69  O   UNL A   1      43.671  35.299  36.524  1.00  0.00    -0.744 OA
ENDBRANCH  63  66
ENDBRANCH  45  59
BRANCH  46  70
ATOM     70  C   UNL A   1      42.693  24.072  27.290  1.00  0.00     0.023 A 
ATOM     71  C   UNL A   1      43.348  24.444  26.101  1.00  0.00     0.012 A 
ATOM     72  C   UNL A   1      42.142  22.780  27.398  1.00  0.00     0.148 A 
ATOM     73  C   UNL A   1      43.423  23.560  25.024  1.00  0.00     0.002 A 
ATOM     74  C   UNL A   1      42.261  21.887  26.339  1.00  0.00     0.091 A 
ATOM     75  F   UNL A   1      41.522  22.447  28.540  1.00  0.00    -0.205 F 
ATOM     76  C   UNL A   1      42.886  22.280  25.146  1.00  0.00     0.022 A 
BRANCH  74  77
ATOM     77  S   UNL A   1      41.697  20.185  26.437  1.00  0.00     0.127 S 
ATOM     78  O   UNL A   1      42.304  19.599  25.246  1.00  0.00    -0.237 OA
ATOM     79  O   UNL A   1      42.279  19.748  27.705  1.00  0.00    -0.237 OA
ATOM     80  O   UNL A   1      40.240  20.252  26.433  1.00  0.00    -0.744 OA
ENDBRANCH  74  77
ENDBRANCH  46  70
BRANCH  58  81
ATOM     81  C   UNL A   1      46.744  25.368  32.838  1.00  0.00     0.023 A 
ATOM     82  C   UNL A   1      48.011  25.875  32.494  1.00  0.00     0.012 A 
ATOM     83  C   UNL A   1      46.649  24.320  33.776  1.00  0.00     0.148 A 
ATOM     84  C   UNL A   1      49.168  25.334  33.058  1.00  0.00     0.002 A 
ATOM     85  C   UNL A   1      47.801  23.819  34.371  1.00  0.00     0.091 A 
ATOM     86  F   UNL A   1      45.433  23.839  34.075  1.00  0.00    -0.205 F 
ATOM     87  C   UNL A   1      49.061  24.317  34.005  1.00  0.00     0.022 A 
BRANCH  85  88
ATOM     88  S   UNL A   1      47.758  22.579  35.671  1.00  0.00     0.127 S 
ATOM     89  O   UNL A   1      46.871  23.206  36.651  1.00  0.00    -0.237 OA
ATOM     90  O   UNL A   1      47.182  21.426  34.978  1.00  0.00    -0.237 OA
ATOM     91  O   UNL A   1      49.137  22.400  36.105  1.00  0.00    -0.744 OA
ENDBRANCH  85  88
ENDBRANCH  58  81
ENDBRANCH  32  33
ENDBRANCH  24  27
ENDBRANCH  22  23
ENDBRANCH   1  22
TORSDOF 16
ENDMDL
MODEL 3
REMARK VINA RESULT:     -11.0      3.807      8.995
REMARK SMILES [NH3+][C@H](Cc1ccc2nsnc2c1)C(=O)NCCCNC(=O)c1ccc(-c2c3nc(c(-c4cccc(S(=O)(=O)[O-])c4F)c4ccc([nH]4)c(-c4cccc(S(=O)(=O)[O-])c4F)c4nc(c(-c5cccc(S(=O)(=O)[O-])c5F)c5ccc2[nH]5)C=C4)C=C3)cc1
REMARK SMILES IDX 17 1 16 2 15 3 13 4 14 5 2 7 1 8 3 12 4 13 5 14 12 15 6 16
REMARK SMILES IDX 11 17 7 18 10 19 8 20 9 21 18 22 19 23 20 24 21 26 22 27
REMARK SMILES IDX 23 28 84 29 24 30 83 31 25 32 26 33 27 34 77 35 28 36 82 37
REMARK SMILES IDX 76 38 78 39 29 40 81 41 75 42 74 43 30 45 62 46 42 47 61 48
REMARK SMILES IDX 43 49 46 50 60 51 79 52 44 53 45 54 59 56 80 57 47 58 31 59
REMARK SMILES IDX 32 60 40 61 33 62 35 63 41 64 34 65 36 66 37 67 38 68 39 69
REMARK SMILES IDX 63 70 64 71 72 72 65 73 67 74 73 75 66 76 68 77 69 78 70 79
REMARK SMILES IDX 71 80 48 81 49 82 57 83 50 84 52 85 58 86 51 87 53 88 54 89
REMARK SMILES IDX 55 90 56 91
REMARK H PARENT 15 6 1 9 1 10 1 11 19 25 78 44 46 55
REMARK Flexibility Score: inf
ROOT
ATOM      1  C   UNL A   1      31.421  31.680  26.363  1.00  0.00     0.042 C 
ENDROOT
BRANCH   1   2
ATOM      2  C   UNL A   1      31.443  30.220  25.910  1.00  0.00     0.118 C 
BRANCH   2   3
ATOM      3  N   UNL A   1      32.554  29.871  25.040  1.00  0.00    -0.351 N 
ATOM      4  C   UNL A   1      32.657  29.349  23.789  1.00  0.00     0.278 C 
ATOM      5  O   UNL A   1      33.810  29.245  23.345  1.00  0.00    -0.268 OA
ATOM      6  H   UNL A   1      33.431  30.055  25.449  1.00  0.00     0.163 HD
BRANCH   4   7
ATOM      7  C   UNL A   1      31.477  28.834  22.939  1.00  0.00     0.275 C 
BRANCH   7   8
ATOM      8  N   UNL A   1      30.991  29.845  21.968  1.00  0.00    -0.347 N 
ATOM      9  H   UNL A   1      31.298  29.590  21.029  1.00  0.00     0.345 HD
ATOM     10  H   UNL A   1      31.368  30.760  22.212  1.00  0.00     0.345 HD
ATOM     11  H   UNL A   1      29.972  29.880  21.995  1.00  0.00     0.345 HD
ENDBRANCH   7   8
BRANCH   7  12
ATOM     12  C   UNL A   1      30.353  28.049  23.660  1.00  0.00     0.111 C 
BRANCH  12  13
ATOM     13  C   UNL A   1      30.575  26.614  24.091  1.00  0.00    -0.039 A 
ATOM     14  C   UNL A   1      30.516  25.565  23.128  1.00  0.00     0.006 A 
ATOM     15  C   UNL A   1      30.766  26.345  25.467  1.00  0.00     0.035 A 
ATOM     16  C   UNL A   1      30.721  24.205  23.431  1.00  0.00     0.032 A 
ATOM     17  C   UNL A   1      30.963  24.988  25.829  1.00  0.00     0.105 A 
ATOM     18  C   UNL A   1      30.949  23.902  24.791  1.00  0.00     0.104 A 
ATOM     19  N   UNL A   1      31.210  24.536  27.065  1.00  0.00    -0.173 NA
ATOM     20  N   UNL A   1      31.188  22.683  25.294  1.00  0.00    -0.173 NA
ATOM     21  S   UNL A   1      31.271  22.878  26.947  1.00  0.00     0.069 S 
ENDBRANCH  12  13
ENDBRANCH   7  12
ENDBRANCH   4   7
ENDBRANCH   2   3
ENDBRANCH   1   2
BRANCH   1  22
ATOM     22  C   UNL A   1      32.662  32.180  27.099  1.00  0.00     0.118 C 
BRANCH  22  23
ATOM     23  N   UNL A   1      32.562  33.588  27.445  1.00  0.00    -0.352 N 
ATOM     24  C   UNL A   1      33.205  34.304  28.427  1.00  0.00     0.251 C 
ATOM     25  H   UNL A   1      31.937  34.110  26.890  1.00  0.00     0.163 HD
ATOM     26  O   UNL A   1      32.792  35.431  28.699  1.00  0.00    -0.269 OA
BRANCH  24  27
ATOM     27  C   UNL A   1      34.373  33.758  29.169  1.00  0.00     0.039 A 
ATOM     28  C   UNL A   1      35.645  34.270  28.884  1.00  0.00     0.014 A 
ATOM     29  C   UNL A   1      34.255  32.691  30.063  1.00  0.00     0.014 A 
ATOM     30  C   UNL A   1      36.782  33.743  29.514  1.00  0.00     0.010 A 
ATOM     31  C   UNL A   1      35.383  32.209  30.739  1.00  0.00     0.010 A 
ATOM     32  C   UNL A   1      36.663  32.717  30.464  1.00  0.00    -0.014 A 
BRANCH  32  33
ATOM     33  C   UNL A   1      37.854  32.159  31.172  1.00  0.00     0.031 A 
ATOM     34  C   UNL A   1      38.629  31.006  30.580  1.00  0.00     0.074 A 
ATOM     35  C   UNL A   1      38.199  32.621  32.391  1.00  0.00     0.049 A 
ATOM     36  N   UNL A   1      39.628  30.332  31.090  1.00  0.00    -0.248 NA
ATOM     37  C   UNL A   1      38.228  30.554  29.238  1.00  0.00     0.031 C 
ATOM     38  C   UNL A   1      37.544  33.721  33.098  1.00  0.00     0.029 A 
ATOM     39  N   UNL A   1      39.162  32.190  33.276  1.00  0.00    -0.354 N 
ATOM     40  C   UNL A   1      39.961  29.364  30.150  1.00  0.00     0.074 A 
ATOM     41  C   UNL A   1      39.034  29.518  29.047  1.00  0.00     0.031 C 
ATOM     42  C   UNL A   1      38.076  33.839  34.326  1.00  0.00     0.029 A 
ATOM     43  C   UNL A   1      39.108  32.821  34.498  1.00  0.00     0.049 A 
ATOM     44  H   UNL A   1      39.824  31.497  33.055  1.00  0.00     0.167 HD
ATOM     45  C   UNL A   1      40.963  28.453  30.179  1.00  0.00     0.034 A 
ATOM     46  C   UNL A   1      39.794  32.600  35.637  1.00  0.00     0.034 A 
ATOM     47  C   UNL A   1      41.910  28.318  31.254  1.00  0.00     0.049 A 
ATOM     48  C   UNL A   1      40.884  31.562  35.659  1.00  0.00     0.074 A 
ATOM     49  C   UNL A   1      43.011  27.482  31.329  1.00  0.00     0.029 A 
ATOM     50  N   UNL A   1      41.864  29.023  32.445  1.00  0.00    -0.354 N 
ATOM     51  N   UNL A   1      41.281  30.766  34.699  1.00  0.00    -0.248 NA
ATOM     52  C   UNL A   1      41.657  31.430  36.904  1.00  0.00     0.031 C 
ATOM     53  C   UNL A   1      43.613  27.659  32.579  1.00  0.00     0.029 A 
ATOM     54  C   UNL A   1      42.907  28.632  33.268  1.00  0.00     0.049 A 
ATOM     55  H   UNL A   1      41.189  29.703  32.673  1.00  0.00     0.167 HD
ATOM     56  C   UNL A   1      42.386  30.085  35.199  1.00  0.00     0.074 A 
ATOM     57  C   UNL A   1      42.594  30.560  36.551  1.00  0.00     0.031 C 
ATOM     58  C   UNL A   1      43.156  29.154  34.588  1.00  0.00     0.034 A 
BRANCH  45  59
ATOM     59  C   UNL A   1      41.132  27.552  28.981  1.00  0.00     0.023 A 
ATOM     60  C   UNL A   1      40.310  26.414  28.847  1.00  0.00     0.012 A 
ATOM     61  C   UNL A   1      42.040  27.872  27.952  1.00  0.00     0.148 A 
ATOM     62  C   UNL A   1      40.413  25.590  27.727  1.00  0.00     0.002 A 
ATOM     63  C   UNL A   1      42.107  27.070  26.818  1.00  0.00     0.091 A 
ATOM     64  F   UNL A   1      42.823  28.949  28.103  1.00  0.00    -0.205 F 
ATOM     65  C   UNL A   1      41.304  25.923  26.710  1.00  0.00     0.022 A 
BRANCH  63  66
ATOM     66  S   UNL A   1      43.160  27.459  25.416  1.00  0.00     0.127 S 
ATOM     67  O   UNL A   1      43.422  26.130  24.865  1.00  0.00    -0.237 OA
ATOM     68  O   UNL A   1      42.284  28.297  24.595  1.00  0.00    -0.237 OA
ATOM     69  O   UNL A   1      44.320  28.149  25.963  1.00  0.00    -0.744 OA
ENDBRANCH  63  66
ENDBRANCH  45  59
BRANCH  46  70
ATOM     70  C   UNL A   1      39.513  33.430  36.844  1.00  0.00     0.023 A 
ATOM     71  C   UNL A   1      39.991  34.753  36.901  1.00  0.00     0.012 A 
ATOM     72  C   UNL A   1      38.764  32.921  37.922  1.00  0.00     0.148 A 
ATOM     73  C   UNL A   1      39.759  35.545  38.025  1.00  0.00     0.002 A 
ATOM     74  C   UNL A   1      38.495  33.731  39.020  1.00  0.00     0.091 A 
ATOM     75  F   UNL A   1      38.319  31.658  37.847  1.00  0.00    -0.205 F 
ATOM     76  C   UNL A   1      39.005  35.037  39.081  1.00  0.00     0.022 A 
BRANCH  74  77
ATOM     77  S   UNL A   1      37.448  33.204  40.381  1.00  0.00     0.127 S 
ATOM     78  O   UNL A   1      37.417  34.402  41.215  1.00  0.00    -0.237 OA
ATOM     79  O   UNL A   1      36.194  32.899  39.693  1.00  0.00    -0.237 OA
ATOM     80  O   UNL A   1      38.113  32.047  40.966  1.00  0.00    -0.744 OA
ENDBRANCH  74  77
ENDBRANCH  46  70
BRANCH  58  81
ATOM     81  C   UNL A   1      44.351  28.616  35.333  1.00  0.00     0.023 A 
ATOM     82  C   UNL A   1      45.619  29.202  35.153  1.00  0.00     0.012 A 
ATOM     83  C   UNL A   1      44.190  27.592  36.289  1.00  0.00     0.148 A 
ATOM     84  C   UNL A   1      46.714  28.762  35.900  1.00  0.00     0.002 A 
ATOM     85  C   UNL A   1      45.274  27.194  37.063  1.00  0.00     0.091 A 
ATOM     86  F   UNL A   1      42.979  27.035  36.431  1.00  0.00    -0.205 F 
ATOM     87  C   UNL A   1      46.538  27.770  36.862  1.00  0.00     0.022 A 
BRANCH  85  88
ATOM     88  S   UNL A   1      45.124  25.995  38.394  1.00  0.00     0.127 S 
ATOM     89  O   UNL A   1      44.701  24.797  37.669  1.00  0.00    -0.237 OA
ATOM     90  O   UNL A   1      46.489  25.941  38.915  1.00  0.00    -0.237 OA
ATOM     91  O   UNL A   1      44.141  26.540  39.320  1.00  0.00    -0.744 OA
ENDBRANCH  85  88
ENDBRANCH  58  81
ENDBRANCH  32  33
ENDBRANCH  24  27
ENDBRANCH  22  23
ENDBRANCH   1  22
TORSDOF 16
ENDMDL
