MODEL 1
REMARK VINA RESULT:     -12.1      0.000      0.000
REMARK SMILES O=C(NCCCNC(=O)c1ccc(S(=O)(=O)Cc2cccs2)c(F)c1)c1ccc(-c2c3nc(c(-c4cccc(S(=O)(=O)[O-])c4F)c4ccc([nH]4)c(-c4cccc(S(=O)(=O)[O-])c4F)c4nc(c(-c5cccc(S(=O)(=O)[O-])c5F)c5ccc2[nH]5)C=C4)C=C3)cc1
REMARK SMILES IDX 5 1 4 2 3 3 1 4 2 5 26 7 27 8 88 9 28 10 87 11 29 12 30 13
REMARK SMILES IDX 31 14 81 15 32 16 86 17 80 18 82 19 33 20 85 21 79 22 78 23
REMARK SMILES IDX 34 25 66 26 46 27 65 28 47 29 50 30 64 31 83 32 48 33 49 34
REMARK SMILES IDX 63 36 84 37 51 38 35 39 36 40 44 41 37 42 39 43 45 44 38 45
REMARK SMILES IDX 40 46 41 47 42 48 43 49 67 50 68 51 76 52 69 53 71 54 77 55
REMARK SMILES IDX 70 56 72 57 73 58 74 59 75 60 52 61 53 62 61 63 54 64 56 65
REMARK SMILES IDX 62 66 55 67 57 68 58 69 59 70 60 71 6 72 7 73 8 74 9 76
REMARK SMILES IDX 10 77 11 78 25 79 12 80 23 81 13 82 24 83 14 84 15 85 16 86
REMARK SMILES IDX 17 87 18 88 19 89 22 90 20 91 21 92
REMARK H PARENT 3 6 82 24 50 35 7 75
REMARK Flexibility Score: inf
ROOT
ATOM      1  C   UNL A   1      32.935  29.254  23.630  1.00  0.00     0.042 C 
ENDROOT
BRANCH   1   2
ATOM      2  C   UNL A   1      33.007  29.264  25.152  1.00  0.00     0.118 C 
BRANCH   2   3
ATOM      3  N   UNL A   1      32.508  30.505  25.733  1.00  0.00    -0.352 N 
ATOM      4  O   UNL A   1      32.254  32.144  27.246  1.00  0.00    -0.269 OA
ATOM      5  C   UNL A   1      32.954  31.233  26.811  1.00  0.00     0.251 C 
ATOM      6  H   UNL A   1      31.721  30.884  25.278  1.00  0.00     0.163 HD
BRANCH   5   7
ATOM      7  C   UNL A   1      34.245  30.909  27.455  1.00  0.00     0.039 A 
ATOM      8  C   UNL A   1      34.543  29.602  27.839  1.00  0.00     0.014 A 
ATOM      9  C   UNL A   1      35.186  31.923  27.659  1.00  0.00     0.014 A 
ATOM     10  C   UNL A   1      35.681  29.344  28.594  1.00  0.00     0.010 A 
ATOM     11  C   UNL A   1      36.386  31.640  28.322  1.00  0.00     0.010 A 
ATOM     12  C   UNL A   1      36.625  30.356  28.835  1.00  0.00    -0.014 A 
BRANCH  12  13
ATOM     13  C   UNL A   1      37.870  30.018  29.575  1.00  0.00     0.031 A 
ATOM     14  C   UNL A   1      38.108  30.512  30.977  1.00  0.00     0.074 A 
ATOM     15  C   UNL A   1      38.781  29.224  28.977  1.00  0.00     0.049 A 
ATOM     16  N   UNL A   1      39.114  30.255  31.774  1.00  0.00    -0.248 NA
ATOM     17  C   UNL A   1      37.102  31.413  31.564  1.00  0.00     0.031 C 
ATOM     18  C   UNL A   1      38.681  28.720  27.604  1.00  0.00     0.029 A 
ATOM     19  N   UNL A   1      39.957  28.689  29.439  1.00  0.00    -0.354 N 
ATOM     20  C   UNL A   1      38.886  30.988  32.932  1.00  0.00     0.074 A 
ATOM     21  C   UNL A   1      37.647  31.707  32.737  1.00  0.00     0.031 C 
ATOM     22  C   UNL A   1      39.725  27.919  27.351  1.00  0.00     0.029 A 
ATOM     23  C   UNL A   1      40.601  27.897  28.516  1.00  0.00     0.049 A 
ATOM     24  H   UNL A   1      40.307  28.856  30.344  1.00  0.00     0.167 HD
ATOM     25  C   UNL A   1      39.632  31.038  34.061  1.00  0.00     0.034 A 
ATOM     26  C   UNL A   1      41.771  27.234  28.588  1.00  0.00     0.034 A 
ATOM     27  C   UNL A   1      40.835  30.276  34.269  1.00  0.00     0.049 A 
ATOM     28  C   UNL A   1      42.559  27.285  29.865  1.00  0.00     0.074 A 
ATOM     29  C   UNL A   1      41.614  30.205  35.411  1.00  0.00     0.029 A 
ATOM     30  N   UNL A   1      41.436  29.461  33.324  1.00  0.00    -0.354 N 
ATOM     31  N   UNL A   1      42.255  27.880  30.993  1.00  0.00    -0.248 NA
ATOM     32  C   UNL A   1      43.837  26.560  29.892  1.00  0.00     0.031 C 
ATOM     33  C   UNL A   1      42.699  29.366  35.148  1.00  0.00     0.029 A 
ATOM     34  C   UNL A   1      42.584  28.895  33.851  1.00  0.00     0.049 A 
ATOM     35  H   UNL A   1      41.097  29.308  32.412  1.00  0.00     0.167 HD
ATOM     36  C   UNL A   1      43.294  27.590  31.868  1.00  0.00     0.074 A 
ATOM     37  C   UNL A   1      44.221  26.741  31.149  1.00  0.00     0.031 C 
ATOM     38  C   UNL A   1      43.473  28.011  33.143  1.00  0.00     0.034 A 
BRANCH  25  39
ATOM     39  C   UNL A   1      39.159  31.903  35.200  1.00  0.00     0.023 A 
ATOM     40  C   UNL A   1      38.342  31.342  36.202  1.00  0.00     0.012 A 
ATOM     41  C   UNL A   1      39.636  33.220  35.352  1.00  0.00     0.148 A 
ATOM     42  C   UNL A   1      38.000  32.082  37.334  1.00  0.00     0.002 A 
ATOM     43  C   UNL A   1      39.324  33.936  36.502  1.00  0.00     0.091 A 
ATOM     44  F   UNL A   1      40.401  33.738  34.380  1.00  0.00    -0.205 F 
ATOM     45  C   UNL A   1      38.502  33.370  37.490  1.00  0.00     0.022 A 
BRANCH  43  46
ATOM     46  S   UNL A   1      39.987  35.572  36.841  1.00  0.00     0.127 S 
ATOM     47  O   UNL A   1      39.366  35.880  38.130  1.00  0.00    -0.237 OA
ATOM     48  O   UNL A   1      41.426  35.312  36.905  1.00  0.00    -0.237 OA
ATOM     49  O   UNL A   1      39.566  36.417  35.733  1.00  0.00    -0.744 OA
ENDBRANCH  43  46
ENDBRANCH  25  39
BRANCH  26  50
ATOM     50  C   UNL A   1      42.232  26.434  27.419  1.00  0.00     0.023 A 
ATOM     51  C   UNL A   1      43.070  27.029  26.456  1.00  0.00     0.012 A 
ATOM     52  C   UNL A   1      41.906  25.069  27.296  1.00  0.00     0.148 A 
ATOM     53  C   UNL A   1      43.564  26.281  25.386  1.00  0.00     0.002 A 
ATOM     54  C   UNL A   1      42.453  24.316  26.265  1.00  0.00     0.091 A 
ATOM     55  F   UNL A   1      41.089  24.526  28.210  1.00  0.00    -0.205 F 
ATOM     56  C   UNL A   1      43.269  24.923  25.299  1.00  0.00     0.022 A 
BRANCH  54  57
ATOM     57  S   UNL A   1      42.255  22.531  26.178  1.00  0.00     0.127 S 
ATOM     58  O   UNL A   1      43.026  22.204  24.982  1.00  0.00    -0.237 OA
ATOM     59  O   UNL A   1      42.858  22.097  27.439  1.00  0.00    -0.237 OA
ATOM     60  O   UNL A   1      40.820  22.303  26.093  1.00  0.00    -0.744 OA
ENDBRANCH  54  57
ENDBRANCH  26  50
BRANCH  38  61
ATOM     61  C   UNL A   1      44.713  27.561  33.867  1.00  0.00     0.023 A 
ATOM     62  C   UNL A   1      45.857  28.383  33.857  1.00  0.00     0.012 A 
ATOM     63  C   UNL A   1      44.704  26.393  34.655  1.00  0.00     0.148 A 
ATOM     64  C   UNL A   1      46.979  28.043  34.611  1.00  0.00     0.002 A 
ATOM     65  C   UNL A   1      45.808  26.085  35.441  1.00  0.00     0.091 A 
ATOM     66  F   UNL A   1      43.609  25.619  34.636  1.00  0.00    -0.205 F 
ATOM     67  C   UNL A   1      46.948  26.904  35.413  1.00  0.00     0.022 A 
BRANCH  65  68
ATOM     68  S   UNL A   1      45.825  24.697  36.581  1.00  0.00     0.127 S 
ATOM     69  O   UNL A   1      45.826  23.559  35.664  1.00  0.00    -0.237 OA
ATOM     70  O   UNL A   1      47.083  24.903  37.300  1.00  0.00    -0.237 OA
ATOM     71  O   UNL A   1      44.628  24.833  37.400  1.00  0.00    -0.744 OA
ENDBRANCH  65  68
ENDBRANCH  38  61
ENDBRANCH  12  13
ENDBRANCH   5   7
ENDBRANCH   2   3
ENDBRANCH   1   2
BRANCH   1  72
ATOM     72  C   UNL A   1      31.861  28.328  23.075  1.00  0.00     0.118 C 
BRANCH  72  73
ATOM     73  N   UNL A   1      32.316  27.624  21.885  1.00  0.00    -0.352 N 
ATOM     74  C   UNL A   1      32.720  26.321  21.763  1.00  0.00     0.251 C 
ATOM     75  H   UNL A   1      32.337  28.157  21.058  1.00  0.00     0.163 HD
ATOM     76  O   UNL A   1      33.263  25.911  20.747  1.00  0.00    -0.269 OA
BRANCH  74  77
ATOM     77  C   UNL A   1      32.487  25.394  22.880  1.00  0.00     0.042 A 
ATOM     78  C   UNL A   1      31.280  24.691  22.966  1.00  0.00     0.015 A 
ATOM     79  C   UNL A   1      33.498  25.204  23.821  1.00  0.00     0.054 A 
ATOM     80  C   UNL A   1      31.081  23.793  24.013  1.00  0.00     0.024 A 
ATOM     81  C   UNL A   1      33.280  24.322  24.874  1.00  0.00     0.142 A 
ATOM     82  C   UNL A   1      32.094  23.603  24.961  1.00  0.00     0.103 A 
ATOM     83  F   UNL A   1      34.247  24.179  25.788  1.00  0.00    -0.206 F 
BRANCH  82  84
ATOM     84  S   UNL A   1      31.831  22.453  26.276  1.00  0.00     0.186 S 
ATOM     85  O   UNL A   1      32.040  23.211  27.497  1.00  0.00    -0.223 OA
ATOM     86  O   UNL A   1      30.534  21.839  26.033  1.00  0.00    -0.223 OA
BRANCH  84  87
ATOM     87  C   UNL A   1      33.077  21.178  26.200  1.00  0.00     0.188 C 
BRANCH  87  88
ATOM     88  C   UNL A   1      32.777  20.143  25.157  1.00  0.00     0.020 A 
ATOM     89  C   UNL A   1      32.579  20.309  23.800  1.00  0.00     0.016 A 
ATOM     90  S   UNL A   1      32.758  18.480  25.585  1.00  0.00    -0.148 S 
ATOM     91  C   UNL A   1      32.371  19.074  23.121  1.00  0.00     0.012 A 
ATOM     92  C   UNL A   1      32.455  17.999  23.974  1.00  0.00     0.065 A 
ENDBRANCH  87  88
ENDBRANCH  84  87
ENDBRANCH  82  84
ENDBRANCH  74  77
ENDBRANCH  72  73
ENDBRANCH   1  72
TORSDOF 16
ENDMDL
MODEL 2
REMARK VINA RESULT:     -11.9      5.216     10.159
REMARK SMILES O=C(NCCCNC(=O)c1ccc(S(=O)(=O)Cc2cccs2)c(F)c1)c1ccc(-c2c3nc(c(-c4cccc(S(=O)(=O)[O-])c4F)c4ccc([nH]4)c(-c4cccc(S(=O)(=O)[O-])c4F)c4nc(c(-c5cccc(S(=O)(=O)[O-])c5F)c5ccc2[nH]5)C=C4)C=C3)cc1
REMARK SMILES IDX 5 1 4 2 3 3 1 4 2 5 26 7 27 8 88 9 28 10 87 11 29 12 30 13
REMARK SMILES IDX 31 14 81 15 32 16 86 17 80 18 82 19 33 20 85 21 79 22 78 23
REMARK SMILES IDX 34 25 66 26 46 27 65 28 47 29 50 30 64 31 83 32 48 33 49 34
REMARK SMILES IDX 63 36 84 37 51 38 35 39 36 40 44 41 37 42 39 43 45 44 38 45
REMARK SMILES IDX 40 46 41 47 42 48 43 49 67 50 68 51 76 52 69 53 71 54 77 55
REMARK SMILES IDX 70 56 72 57 73 58 74 59 75 60 52 61 53 62 61 63 54 64 56 65
REMARK SMILES IDX 62 66 55 67 57 68 58 69 59 70 60 71 6 72 7 73 8 74 9 76
REMARK SMILES IDX 10 77 11 78 25 79 12 80 23 81 13 82 24 83 14 84 15 85 16 86
REMARK SMILES IDX 17 87 18 88 19 89 22 90 20 91 21 92
REMARK H PARENT 3 6 82 24 50 35 7 75
REMARK Flexibility Score: inf
ROOT
ATOM      1  C   UNL A   1      36.184  21.375  24.973  1.00  0.00     0.042 C 
ENDROOT
BRANCH   1   2
ATOM      2  C   UNL A   1      37.526  21.980  25.365  1.00  0.00     0.118 C 
BRANCH   2   3
ATOM      3  N   UNL A   1      38.495  20.977  25.789  1.00  0.00    -0.352 N 
ATOM      4  O   UNL A   1      40.469  20.132  26.448  1.00  0.00    -0.269 OA
ATOM      5  C   UNL A   1      39.739  21.116  26.359  1.00  0.00     0.251 C 
ATOM      6  H   UNL A   1      38.212  20.045  25.644  1.00  0.00     0.163 HD
BRANCH   5   7
ATOM      7  C   UNL A   1      40.204  22.438  26.833  1.00  0.00     0.039 A 
ATOM      8  C   UNL A   1      39.753  23.612  26.232  1.00  0.00     0.014 A 
ATOM      9  C   UNL A   1      41.091  22.508  27.912  1.00  0.00     0.014 A 
ATOM     10  C   UNL A   1      40.327  24.830  26.574  1.00  0.00     0.010 A 
ATOM     11  C   UNL A   1      41.585  23.749  28.331  1.00  0.00     0.010 A 
ATOM     12  C   UNL A   1      41.242  24.918  27.637  1.00  0.00    -0.014 A 
BRANCH  12  13
ATOM     13  C   UNL A   1      41.770  26.253  28.024  1.00  0.00     0.031 A 
ATOM     14  C   UNL A   1      43.173  26.673  27.677  1.00  0.00     0.074 A 
ATOM     15  C   UNL A   1      40.951  27.109  28.670  1.00  0.00     0.049 A 
ATOM     16  N   UNL A   1      43.758  27.824  27.893  1.00  0.00    -0.248 NA
ATOM     17  C   UNL A   1      44.038  25.684  27.012  1.00  0.00     0.031 C 
ATOM     18  C   UNL A   1      39.584  26.797  29.099  1.00  0.00     0.029 A 
ATOM     19  N   UNL A   1      41.132  28.408  29.068  1.00  0.00    -0.354 N 
ATOM     20  C   UNL A   1      45.062  27.687  27.433  1.00  0.00     0.074 A 
ATOM     21  C   UNL A   1      45.189  26.338  26.927  1.00  0.00     0.031 C 
ATOM     22  C   UNL A   1      39.039  27.885  29.660  1.00  0.00     0.029 A 
ATOM     23  C   UNL A   1      40.031  28.953  29.687  1.00  0.00     0.049 A 
ATOM     24  H   UNL A   1      41.971  28.904  28.924  1.00  0.00     0.167 HD
ATOM     25  C   UNL A   1      46.053  28.609  27.415  1.00  0.00     0.034 A 
ATOM     26  C   UNL A   1      39.838  30.170  30.231  1.00  0.00     0.034 A 
ATOM     27  C   UNL A   1      45.903  29.966  27.868  1.00  0.00     0.049 A 
ATOM     28  C   UNL A   1      40.947  31.180  30.167  1.00  0.00     0.074 A 
ATOM     29  C   UNL A   1      46.831  30.992  27.816  1.00  0.00     0.029 A 
ATOM     30  N   UNL A   1      44.763  30.488  28.459  1.00  0.00    -0.354 N 
ATOM     31  N   UNL A   1      42.127  31.067  29.606  1.00  0.00    -0.248 NA
ATOM     32  C   UNL A   1      40.697  32.489  30.786  1.00  0.00     0.031 C 
ATOM     33  C   UNL A   1      46.260  32.127  28.396  1.00  0.00     0.029 A 
ATOM     34  C   UNL A   1      44.968  31.816  28.788  1.00  0.00     0.049 A 
ATOM     35  H   UNL A   1      43.930  29.988  28.619  1.00  0.00     0.167 HD
ATOM     36  C   UNL A   1      42.754  32.293  29.792  1.00  0.00     0.074 A 
ATOM     37  C   UNL A   1      41.812  33.143  30.490  1.00  0.00     0.031 C 
ATOM     38  C   UNL A   1      44.007  32.669  29.437  1.00  0.00     0.034 A 
BRANCH  25  39
ATOM     39  C   UNL A   1      47.390  28.220  26.838  1.00  0.00     0.023 A 
ATOM     40  C   UNL A   1      48.448  27.891  27.708  1.00  0.00     0.012 A 
ATOM     41  C   UNL A   1      47.552  28.043  25.450  1.00  0.00     0.148 A 
ATOM     42  C   UNL A   1      49.653  27.401  27.203  1.00  0.00     0.002 A 
ATOM     43  C   UNL A   1      48.741  27.516  24.959  1.00  0.00     0.091 A 
ATOM     44  F   UNL A   1      46.536  28.375  24.640  1.00  0.00    -0.205 F 
ATOM     45  C   UNL A   1      49.793  27.200  25.833  1.00  0.00     0.022 A 
BRANCH  43  46
ATOM     46  S   UNL A   1      48.994  27.139  23.220  1.00  0.00     0.127 S 
ATOM     47  O   UNL A   1      48.189  25.927  23.061  1.00  0.00    -0.237 OA
ATOM     48  O   UNL A   1      48.444  28.327  22.565  1.00  0.00    -0.237 OA
ATOM     49  O   UNL A   1      50.428  26.955  23.050  1.00  0.00    -0.744 OA
ENDBRANCH  43  46
ENDBRANCH  25  39
BRANCH  26  50
ATOM     50  C   UNL A   1      38.519  30.498  30.842  1.00  0.00     0.023 A 
ATOM     51  C   UNL A   1      38.287  30.202  32.198  1.00  0.00     0.012 A 
ATOM     52  C   UNL A   1      37.522  31.169  30.105  1.00  0.00     0.148 A 
ATOM     53  C   UNL A   1      37.082  30.555  32.806  1.00  0.00     0.002 A 
ATOM     54  C   UNL A   1      36.353  31.577  30.734  1.00  0.00     0.091 A 
ATOM     55  F   UNL A   1      37.753  31.425  28.809  1.00  0.00    -0.205 F 
ATOM     56  C   UNL A   1      36.122  31.256  32.080  1.00  0.00     0.022 A 
BRANCH  54  57
ATOM     57  S   UNL A   1      35.144  32.624  29.914  1.00  0.00     0.127 S 
ATOM     58  O   UNL A   1      34.627  31.730  28.881  1.00  0.00    -0.237 OA
ATOM     59  O   UNL A   1      34.209  32.916  31.001  1.00  0.00    -0.237 OA
ATOM     60  O   UNL A   1      35.889  33.781  29.440  1.00  0.00    -0.744 OA
ENDBRANCH  54  57
ENDBRANCH  26  50
BRANCH  38  61
ATOM     61  C   UNL A   1      44.449  34.065  29.782  1.00  0.00     0.023 A 
ATOM     62  C   UNL A   1      45.158  34.290  30.977  1.00  0.00     0.012 A 
ATOM     63  C   UNL A   1      44.273  35.122  28.868  1.00  0.00     0.148 A 
ATOM     64  C   UNL A   1      45.675  35.552  31.265  1.00  0.00     0.002 A 
ATOM     65  C   UNL A   1      44.832  36.366  29.139  1.00  0.00     0.091 A 
ATOM     66  F   UNL A   1      43.581  34.886  27.744  1.00  0.00    -0.205 F 
ATOM     67  C   UNL A   1      45.525  36.584  30.341  1.00  0.00     0.022 A 
BRANCH  65  68
ATOM     68  S   UNL A   1      44.779  37.726  27.967  1.00  0.00     0.127 S 
ATOM     69  O   UNL A   1      43.342  37.973  27.865  1.00  0.00    -0.237 OA
ATOM     70  O   UNL A   1      45.529  38.768  28.668  1.00  0.00    -0.237 OA
ATOM     71  O   UNL A   1      45.413  37.235  26.751  1.00  0.00    -0.744 OA
ENDBRANCH  65  68
ENDBRANCH  38  61
ENDBRANCH  12  13
ENDBRANCH   5   7
ENDBRANCH   2   3
ENDBRANCH   1   2
BRANCH   1  72
ATOM     72  C   UNL A   1      35.146  21.416  26.088  1.00  0.00     0.118 C 
BRANCH  72  73
ATOM     73  N   UNL A   1      34.009  20.553  25.800  1.00  0.00    -0.352 N 
ATOM     74  C   UNL A   1      32.851  20.855  25.135  1.00  0.00     0.251 C 
ATOM     75  H   UNL A   1      34.084  19.627  26.128  1.00  0.00     0.163 HD
ATOM     76  O   UNL A   1      31.895  20.093  25.134  1.00  0.00    -0.269 OA
BRANCH  74  77
ATOM     77  C   UNL A   1      32.760  22.127  24.403  1.00  0.00     0.042 A 
ATOM     78  C   UNL A   1      32.384  23.295  25.076  1.00  0.00     0.015 A 
ATOM     79  C   UNL A   1      33.090  22.151  23.049  1.00  0.00     0.054 A 
ATOM     80  C   UNL A   1      32.330  24.501  24.379  1.00  0.00     0.024 A 
ATOM     81  C   UNL A   1      33.010  23.356  22.358  1.00  0.00     0.142 A 
ATOM     82  C   UNL A   1      32.656  24.527  23.018  1.00  0.00     0.103 A 
ATOM     83  F   UNL A   1      33.294  23.354  21.051  1.00  0.00    -0.206 F 
BRANCH  82  84
ATOM     84  S   UNL A   1      32.593  26.066  22.151  1.00  0.00     0.186 S 
ATOM     85  O   UNL A   1      33.955  26.320  21.719  1.00  0.00    -0.223 OA
ATOM     86  O   UNL A   1      31.543  25.933  21.153  1.00  0.00    -0.223 OA
BRANCH  84  87
ATOM     87  C   UNL A   1      32.125  27.360  23.287  1.00  0.00     0.188 C 
BRANCH  87  88
ATOM     88  C   UNL A   1      30.682  27.744  23.159  1.00  0.00     0.020 A 
ATOM     89  C   UNL A   1      29.563  27.093  23.645  1.00  0.00     0.016 A 
ATOM     90  S   UNL A   1      30.255  29.231  22.415  1.00  0.00    -0.148 S 
ATOM     91  C   UNL A   1      28.356  27.796  23.369  1.00  0.00     0.012 A 
ATOM     92  C   UNL A   1      28.591  28.983  22.715  1.00  0.00     0.065 A 
ENDBRANCH  87  88
ENDBRANCH  84  87
ENDBRANCH  82  84
ENDBRANCH  74  77
ENDBRANCH  72  73
ENDBRANCH   1  72
TORSDOF 16
ENDMDL
MODEL 3
REMARK VINA RESULT:     -11.6      1.936      2.513
REMARK SMILES O=C(NCCCNC(=O)c1ccc(S(=O)(=O)Cc2cccs2)c(F)c1)c1ccc(-c2c3nc(c(-c4cccc(S(=O)(=O)[O-])c4F)c4ccc([nH]4)c(-c4cccc(S(=O)(=O)[O-])c4F)c4nc(c(-c5cccc(S(=O)(=O)[O-])c5F)c5ccc2[nH]5)C=C4)C=C3)cc1
REMARK SMILES IDX 5 1 4 2 3 3 1 4 2 5 26 7 27 8 88 9 28 10 87 11 29 12 30 13
REMARK SMILES IDX 31 14 81 15 32 16 86 17 80 18 82 19 33 20 85 21 79 22 78 23
REMARK SMILES IDX 34 25 66 26 46 27 65 28 47 29 50 30 64 31 83 32 48 33 49 34
REMARK SMILES IDX 63 36 84 37 51 38 35 39 36 40 44 41 37 42 39 43 45 44 38 45
REMARK SMILES IDX 40 46 41 47 42 48 43 49 67 50 68 51 76 52 69 53 71 54 77 55
REMARK SMILES IDX 70 56 72 57 73 58 74 59 75 60 52 61 53 62 61 63 54 64 56 65
REMARK SMILES IDX 62 66 55 67 57 68 58 69 59 70 60 71 6 72 7 73 8 74 9 76
REMARK SMILES IDX 10 77 11 78 25 79 12 80 23 81 13 82 24 83 14 84 15 85 16 86
REMARK SMILES IDX 17 87 18 88 19 89 22 90 20 91 21 92
REMARK H PARENT 3 6 82 24 50 35 7 75
REMARK Flexibility Score: inf
ROOT
ATOM      1  C   UNL A   1      32.577  29.681  25.301  1.00  0.00     0.042 C 
ENDROOT
BRANCH   1   2
ATOM      2  C   UNL A   1      32.974  30.084  26.716  1.00  0.00     0.118 C 
BRANCH   2   3
ATOM      3  N   UNL A   1      32.964  31.528  26.915  1.00  0.00    -0.352 N 
ATOM      4  O   UNL A   1      33.493  33.510  27.828  1.00  0.00    -0.269 OA
ATOM      5  C   UNL A   1      33.811  32.340  27.632  1.00  0.00     0.251 C 
ATOM      6  H   UNL A   1      32.229  32.000  26.461  1.00  0.00     0.163 HD
BRANCH   5   7
ATOM      7  C   UNL A   1      35.075  31.806  28.184  1.00  0.00     0.039 A 
ATOM      8  C   UNL A   1      35.146  30.504  28.677  1.00  0.00     0.014 A 
ATOM      9  C   UNL A   1      36.218  32.613  28.191  1.00  0.00     0.014 A 
ATOM     10  C   UNL A   1      36.287  30.076  29.346  1.00  0.00     0.010 A 
ATOM     11  C   UNL A   1      37.404  32.139  28.765  1.00  0.00     0.010 A 
ATOM     12  C   UNL A   1      37.436  30.883  29.388  1.00  0.00    -0.014 A 
BRANCH  12  13
ATOM     13  C   UNL A   1      38.663  30.354  30.041  1.00  0.00     0.031 A 
ATOM     14  C   UNL A   1      39.068  30.793  31.423  1.00  0.00     0.074 A 
ATOM     15  C   UNL A   1      39.401  29.438  29.383  1.00  0.00     0.049 A 
ATOM     16  N   UNL A   1      40.075  30.380  32.149  1.00  0.00    -0.248 NA
ATOM     17  C   UNL A   1      38.251  31.829  32.078  1.00  0.00     0.031 C 
ATOM     18  C   UNL A   1      39.133  28.969  28.020  1.00  0.00     0.029 A 
ATOM     19  N   UNL A   1      40.511  28.727  29.762  1.00  0.00    -0.354 N 
ATOM     20  C   UNL A   1      40.040  31.127  33.320  1.00  0.00     0.074 A 
ATOM     21  C   UNL A   1      38.913  32.026  33.210  1.00  0.00     0.031 C 
ATOM     22  C   UNL A   1      40.024  28.022  27.696  1.00  0.00     0.029 A 
ATOM     23  C   UNL A   1      40.964  27.857  28.799  1.00  0.00     0.049 A 
ATOM     24  H   UNL A   1      40.943  28.831  30.641  1.00  0.00     0.167 HD
ATOM     25  C   UNL A   1      40.860  31.053  34.395  1.00  0.00     0.034 A 
ATOM     26  C   UNL A   1      42.024  27.025  28.790  1.00  0.00     0.034 A 
ATOM     27  C   UNL A   1      41.945  30.117  34.520  1.00  0.00     0.049 A 
ATOM     28  C   UNL A   1      42.895  26.944  30.010  1.00  0.00     0.074 A 
ATOM     29  C   UNL A   1      42.781  29.918  35.606  1.00  0.00     0.029 A 
ATOM     30  N   UNL A   1      42.351  29.230  33.536  1.00  0.00    -0.354 N 
ATOM     31  N   UNL A   1      42.761  27.567  31.156  1.00  0.00    -0.248 NA
ATOM     32  C   UNL A   1      44.047  26.035  29.950  1.00  0.00     0.031 C 
ATOM     33  C   UNL A   1      43.706  28.928  35.270  1.00  0.00     0.029 A 
ATOM     34  C   UNL A   1      43.433  28.492  33.983  1.00  0.00     0.049 A 
ATOM     35  H   UNL A   1      41.932  29.138  32.650  1.00  0.00     0.167 HD
ATOM     36  C   UNL A   1      43.802  27.115  31.957  1.00  0.00     0.074 A 
ATOM     37  C   UNL A   1      44.539  26.143  31.177  1.00  0.00     0.031 C 
ATOM     38  C   UNL A   1      44.129  27.491  33.217  1.00  0.00     0.034 A 
BRANCH  25  39
ATOM     39  C   UNL A   1      40.601  31.968  35.564  1.00  0.00     0.023 A 
ATOM     40  C   UNL A   1      41.411  33.106  35.744  1.00  0.00     0.012 A 
ATOM     41  C   UNL A   1      39.477  31.779  36.392  1.00  0.00     0.148 A 
ATOM     42  C   UNL A   1      41.112  34.038  36.737  1.00  0.00     0.002 A 
ATOM     43  C   UNL A   1      39.162  32.733  37.352  1.00  0.00     0.091 A 
ATOM     44  F   UNL A   1      38.727  30.681  36.211  1.00  0.00    -0.205 F 
ATOM     45  C   UNL A   1      39.981  33.860  37.530  1.00  0.00     0.022 A 
BRANCH  43  46
ATOM     46  S   UNL A   1      37.682  32.642  38.369  1.00  0.00     0.127 S 
ATOM     47  O   UNL A   1      36.648  33.054  37.419  1.00  0.00    -0.237 OA
ATOM     48  O   UNL A   1      37.647  31.224  38.731  1.00  0.00    -0.237 OA
ATOM     49  O   UNL A   1      37.899  33.553  39.483  1.00  0.00    -0.744 OA
ENDBRANCH  43  46
ENDBRANCH  25  39
BRANCH  26  50
ATOM     50  C   UNL A   1      42.278  26.176  27.592  1.00  0.00     0.023 A 
ATOM     51  C   UNL A   1      42.993  26.708  26.502  1.00  0.00     0.012 A 
ATOM     52  C   UNL A   1      41.881  24.824  27.559  1.00  0.00     0.148 A 
ATOM     53  C   UNL A   1      43.296  25.913  25.396  1.00  0.00     0.002 A 
ATOM     54  C   UNL A   1      42.243  24.022  26.485  1.00  0.00     0.091 A 
ATOM     55  F   UNL A   1      41.183  24.342  28.597  1.00  0.00    -0.205 F 
ATOM     56  C   UNL A   1      42.935  24.567  25.394  1.00  0.00     0.022 A 
BRANCH  54  57
ATOM     57  S   UNL A   1      41.961  22.247  26.482  1.00  0.00     0.127 S 
ATOM     58  O   UNL A   1      42.649  21.837  25.261  1.00  0.00    -0.237 OA
ATOM     59  O   UNL A   1      42.612  21.834  27.726  1.00  0.00    -0.237 OA
ATOM     60  O   UNL A   1      40.514  22.083  26.484  1.00  0.00    -0.744 OA
ENDBRANCH  54  57
ENDBRANCH  26  50
BRANCH  38  61
ATOM     61  C   UNL A   1      45.333  26.853  33.854  1.00  0.00     0.023 A 
ATOM     62  C   UNL A   1      46.575  27.516  33.805  1.00  0.00     0.012 A 
ATOM     63  C   UNL A   1      45.207  25.667  34.604  1.00  0.00     0.148 A 
ATOM     64  C   UNL A   1      47.679  27.000  34.482  1.00  0.00     0.002 A 
ATOM     65  C   UNL A   1      46.299  25.184  35.316  1.00  0.00     0.091 A 
ATOM     66  F   UNL A   1      44.018  25.046  34.623  1.00  0.00    -0.205 F 
ATOM     67  C   UNL A   1      47.537  25.845  35.248  1.00  0.00     0.022 A 
BRANCH  65  68
ATOM     68  S   UNL A   1      46.190  23.763  36.409  1.00  0.00     0.127 S 
ATOM     69  O   UNL A   1      47.532  23.728  36.986  1.00  0.00    -0.237 OA
ATOM     70  O   UNL A   1      45.135  24.167  37.338  1.00  0.00    -0.237 OA
ATOM     71  O   UNL A   1      45.849  22.628  35.561  1.00  0.00    -0.744 OA
ENDBRANCH  65  68
ENDBRANCH  38  61
ENDBRANCH  12  13
ENDBRANCH   5   7
ENDBRANCH   2   3
ENDBRANCH   1   2
BRANCH   1  72
ATOM     72  C   UNL A   1      31.275  28.893  25.233  1.00  0.00     0.118 C 
BRANCH  72  73
ATOM     73  N   UNL A   1      30.553  29.147  23.994  1.00  0.00    -0.352 N 
ATOM     74  C   UNL A   1      30.579  28.434  22.826  1.00  0.00     0.251 C 
ATOM     75  H   UNL A   1      29.969  29.940  23.998  1.00  0.00     0.163 HD
ATOM     76  O   UNL A   1      30.077  28.868  21.799  1.00  0.00    -0.269 OA
BRANCH  74  77
ATOM     77  C   UNL A   1      31.223  27.112  22.811  1.00  0.00     0.042 A 
ATOM     78  C   UNL A   1      32.478  26.953  22.211  1.00  0.00     0.015 A 
ATOM     79  C   UNL A   1      30.584  26.042  23.434  1.00  0.00     0.054 A 
ATOM     80  C   UNL A   1      33.094  25.703  22.228  1.00  0.00     0.024 A 
ATOM     81  C   UNL A   1      31.197  24.794  23.426  1.00  0.00     0.142 A 
ATOM     82  C   UNL A   1      32.451  24.626  22.850  1.00  0.00     0.103 A 
ATOM     83  F   UNL A   1      30.552  23.770  23.996  1.00  0.00    -0.206 F 
BRANCH  82  84
ATOM     84  S   UNL A   1      33.249  23.050  22.873  1.00  0.00     0.186 S 
ATOM     85  O   UNL A   1      32.290  22.124  22.297  1.00  0.00    -0.223 OA
ATOM     86  O   UNL A   1      34.539  23.232  22.225  1.00  0.00    -0.223 OA
BRANCH  84  87
ATOM     87  C   UNL A   1      33.537  22.562  24.565  1.00  0.00     0.188 C 
BRANCH  87  88
ATOM     88  C   UNL A   1      34.963  22.759  24.986  1.00  0.00     0.020 A 
ATOM     89  C   UNL A   1      35.595  23.917  25.397  1.00  0.00     0.016 A 
ATOM     90  S   UNL A   1      36.013  21.406  25.110  1.00  0.00    -0.148 S 
ATOM     91  C   UNL A   1      36.952  23.698  25.772  1.00  0.00     0.012 A 
ATOM     92  C   UNL A   1      37.304  22.372  25.674  1.00  0.00     0.065 A 
ENDBRANCH  87  88
ENDBRANCH  84  87
ENDBRANCH  82  84
ENDBRANCH  74  77
ENDBRANCH  72  73
ENDBRANCH   1  72
TORSDOF 16
ENDMDL
