MODEL 1
REMARK VINA RESULT:     -13.5      0.000      0.000
REMARK SMILES Cc1cccc(CNC(=O)N[C@@H](CC2=c3ccccc3=NC2)C(=O)NCCCNC(=O)c2ccc(-c3c4nc(c(-c5cccc(S(=O)(=O)[O-])c5F)c5ccc([nH]5)c(-c5cccc(S(=O)(=O)[O-])c5F)c5nc(c(-c6cccc(S(=O)(=O)[O-])c6F)c6ccc3[nH]6)C=C5)C=C4)cc2)c1
REMARK SMILES IDX 27 1 26 2 25 3 23 4 24 5 12 7 11 8 8 9 9 10 10 12 7 14 6 15
REMARK SMILES IDX 1 16 2 17 3 18 95 19 4 20 5 21 13 22 14 23 15 24 22 25 16 26
REMARK SMILES IDX 20 27 21 28 17 29 19 30 18 31 28 32 29 33 30 34 31 36 32 37
REMARK SMILES IDX 33 38 94 39 34 40 93 41 35 42 36 43 37 44 87 45 38 46 92 47
REMARK SMILES IDX 86 48 88 49 39 50 91 51 85 52 84 53 40 55 72 56 52 57 71 58
REMARK SMILES IDX 53 59 56 60 70 61 89 62 54 63 55 64 69 66 90 67 57 68 41 69
REMARK SMILES IDX 42 70 50 71 43 72 45 73 51 74 44 75 46 76 47 77 48 78 49 79
REMARK SMILES IDX 73 80 74 81 82 82 75 83 77 84 83 85 76 86 78 87 79 88 80 89
REMARK SMILES IDX 81 90 58 91 59 92 67 93 60 94 62 95 68 96 61 97 63 98 64 99
REMARK SMILES IDX 65 100 66 101
REMARK H PARENT 25 6 8 11 11 13 29 35 88 54 56 65
REMARK Flexibility Score: inf
ROOT
ATOM      1  C   UNL A   1      36.931  21.993  24.736  1.00  0.00     0.042 C 
ENDROOT
BRANCH   1   2
ATOM      2  C   UNL A   1      35.725  21.372  25.440  1.00  0.00     0.117 C 
BRANCH   2   3
ATOM      3  N   UNL A   1      35.422  21.899  26.763  1.00  0.00    -0.354 N 
ATOM      4  C   UNL A   1      34.441  22.776  27.144  1.00  0.00     0.242 C 
ATOM      5  O   UNL A   1      34.043  22.709  28.314  1.00  0.00    -0.273 OA
ATOM      6  H   UNL A   1      36.006  21.580  27.488  1.00  0.00     0.163 HD
BRANCH   4   7
ATOM      7  C   UNL A   1      33.766  23.783  26.176  1.00  0.00     0.177 C 
BRANCH   7   8
ATOM      8  N   UNL A   1      32.345  23.931  26.499  1.00  0.00    -0.326 N 
ATOM      9  N   UNL A   1      31.391  21.950  25.636  1.00  0.00    -0.334 N 
ATOM     10  C   UNL A   1      31.385  22.990  26.479  1.00  0.00     0.315 C 
ATOM     11  H   UNL A   1      30.937  21.150  25.987  1.00  0.00     0.165 HD
ATOM     12  O   UNL A   1      30.462  23.088  27.290  1.00  0.00    -0.249 OA
ATOM     13  H   UNL A   1      32.056  24.834  26.762  1.00  0.00     0.166 HD
BRANCH   9  14
ATOM     14  C   UNL A   1      31.941  21.779  24.306  1.00  0.00     0.153 C 
BRANCH  14  15
ATOM     15  C   UNL A   1      32.213  20.339  23.945  1.00  0.00    -0.028 A 
ATOM     16  C   UNL A   1      32.996  17.082  25.790  1.00  0.00     0.044 C 
ATOM     17  C   UNL A   1      32.714  18.060  24.688  1.00  0.00    -0.051 A 
ATOM     18  C   UNL A   1      32.726  17.635  23.356  1.00  0.00     0.003 A 
ATOM     19  C   UNL A   1      32.459  19.410  24.971  1.00  0.00     0.009 A 
ATOM     20  C   UNL A   1      32.459  18.538  22.329  1.00  0.00     0.001 A 
ATOM     21  C   UNL A   1      32.195  19.877  22.621  1.00  0.00     0.005 A 
ENDBRANCH  14  15
ENDBRANCH   9  14
ENDBRANCH   7   8
BRANCH   7  22
ATOM     22  C   UNL A   1      34.483  25.139  25.917  1.00  0.00     0.068 C 
BRANCH  22  23
ATOM     23  C   UNL A   1      33.761  26.225  25.184  1.00  0.00    -0.037 C 
ATOM     24  C   UNL A   1      33.437  27.432  25.640  1.00  0.00     0.001 A 
ATOM     25  C   UNL A   1      33.228  26.038  23.795  1.00  0.00     0.174 C 
ATOM     26  C   UNL A   1      33.650  28.121  26.871  1.00  0.00     0.010 A 
ATOM     27  C   UNL A   1      32.469  27.907  24.633  1.00  0.00     0.065 A 
ATOM     28  N   UNL A   1      32.332  27.193  23.557  1.00  0.00    -0.280 NA
ATOM     29  C   UNL A   1      32.840  29.144  27.176  1.00  0.00     0.001 A 
ATOM     30  C   UNL A   1      31.646  29.073  25.021  1.00  0.00     0.028 A 
ATOM     31  C   UNL A   1      31.808  29.585  26.253  1.00  0.00     0.002 A 
ENDBRANCH  22  23
ENDBRANCH   7  22
ENDBRANCH   4   7
ENDBRANCH   2   3
ENDBRANCH   1   2
BRANCH   1  32
ATOM     32  C   UNL A   1      37.701  22.983  25.607  1.00  0.00     0.118 C 
BRANCH  32  33
ATOM     33  N   UNL A   1      38.794  22.342  26.367  1.00  0.00    -0.352 N 
ATOM     34  C   UNL A   1      40.017  22.852  26.793  1.00  0.00     0.251 C 
ATOM     35  H   UNL A   1      38.631  21.402  26.610  1.00  0.00     0.163 HD
ATOM     36  O   UNL A   1      40.959  22.087  26.945  1.00  0.00    -0.269 OA
BRANCH  34  37
ATOM     37  C   UNL A   1      40.131  24.289  27.105  1.00  0.00     0.039 A 
ATOM     38  C   UNL A   1      40.630  25.263  26.229  1.00  0.00     0.014 A 
ATOM     39  C   UNL A   1      39.813  24.640  28.402  1.00  0.00     0.014 A 
ATOM     40  C   UNL A   1      40.843  26.559  26.711  1.00  0.00     0.010 A 
ATOM     41  C   UNL A   1      39.697  25.934  28.754  1.00  0.00     0.010 A 
ATOM     42  C   UNL A   1      40.407  26.853  27.998  1.00  0.00    -0.014 A 
BRANCH  42  43
ATOM     43  C   UNL A   1      40.635  28.062  28.759  1.00  0.00     0.031 A 
ATOM     44  C   UNL A   1      39.684  29.161  28.621  1.00  0.00     0.074 A 
ATOM     45  C   UNL A   1      41.453  27.884  29.825  1.00  0.00     0.049 A 
ATOM     46  N   UNL A   1      39.886  30.354  29.051  1.00  0.00    -0.248 NA
ATOM     47  C   UNL A   1      38.416  28.995  27.913  1.00  0.00     0.031 C 
ATOM     48  C   UNL A   1      41.399  28.520  31.128  1.00  0.00     0.029 A 
ATOM     49  N   UNL A   1      42.515  26.970  29.954  1.00  0.00    -0.354 N 
ATOM     50  C   UNL A   1      38.656  30.978  29.009  1.00  0.00     0.074 A 
ATOM     51  C   UNL A   1      37.880  30.205  28.075  1.00  0.00     0.031 C 
ATOM     52  C   UNL A   1      42.516  28.193  31.807  1.00  0.00     0.029 A 
ATOM     53  C   UNL A   1      43.409  27.524  30.868  1.00  0.00     0.049 A 
ATOM     54  H   UNL A   1      42.608  26.107  29.488  1.00  0.00     0.167 HD
ATOM     55  C   UNL A   1      38.359  31.901  29.969  1.00  0.00     0.034 A 
ATOM     56  C   UNL A   1      44.634  27.994  30.479  1.00  0.00     0.034 A 
ATOM     57  C   UNL A   1      39.525  32.078  30.864  1.00  0.00     0.049 A 
ATOM     58  C   UNL A   1      44.722  29.507  30.598  1.00  0.00     0.074 A 
ATOM     59  C   UNL A   1      39.816  31.601  32.134  1.00  0.00     0.029 A 
ATOM     60  N   UNL A   1      40.736  32.526  30.339  1.00  0.00    -0.354 N 
ATOM     61  N   UNL A   1      43.727  30.287  30.919  1.00  0.00    -0.248 NA
ATOM     62  C   UNL A   1      45.946  30.258  30.347  1.00  0.00     0.031 C 
ATOM     63  C   UNL A   1      41.228  31.689  32.327  1.00  0.00     0.029 A 
ATOM     64  C   UNL A   1      41.795  32.250  31.194  1.00  0.00     0.049 A 
ATOM     65  H   UNL A   1      40.828  32.981  29.471  1.00  0.00     0.167 HD
ATOM     66  C   UNL A   1      44.085  31.599  30.773  1.00  0.00     0.074 A 
ATOM     67  C   UNL A   1      45.518  31.521  30.521  1.00  0.00     0.031 C 
ATOM     68  C   UNL A   1      43.163  32.615  30.806  1.00  0.00     0.034 A 
BRANCH  55  69
ATOM     69  C   UNL A   1      36.961  32.412  30.321  1.00  0.00     0.023 A 
ATOM     70  C   UNL A   1      36.456  32.056  31.593  1.00  0.00     0.012 A 
ATOM     71  C   UNL A   1      36.080  33.184  29.520  1.00  0.00     0.148 A 
ATOM     72  C   UNL A   1      35.162  32.387  32.018  1.00  0.00     0.002 A 
ATOM     73  C   UNL A   1      34.780  33.502  29.932  1.00  0.00     0.091 A 
ATOM     74  F   UNL A   1      36.482  33.673  28.352  1.00  0.00    -0.205 F 
ATOM     75  C   UNL A   1      34.315  33.099  31.182  1.00  0.00     0.022 A 
BRANCH  73  76
ATOM     76  S   UNL A   1      33.626  34.428  28.893  1.00  0.00     0.127 S 
ATOM     77  O   UNL A   1      32.619  34.861  29.864  1.00  0.00    -0.237 OA
ATOM     78  O   UNL A   1      34.469  35.504  28.373  1.00  0.00    -0.237 OA
ATOM     79  O   UNL A   1      33.126  33.496  27.889  1.00  0.00    -0.744 OA
ENDBRANCH  73  76
ENDBRANCH  55  69
BRANCH  56  80
ATOM     80  C   UNL A   1      45.276  27.194  29.386  1.00  0.00     0.023 A 
ATOM     81  C   UNL A   1      45.623  25.854  29.670  1.00  0.00     0.012 A 
ATOM     82  C   UNL A   1      45.132  27.589  28.043  1.00  0.00     0.148 A 
ATOM     83  C   UNL A   1      45.705  24.904  28.648  1.00  0.00     0.002 A 
ATOM     84  C   UNL A   1      45.128  26.621  27.042  1.00  0.00     0.091 A 
ATOM     85  F   UNL A   1      44.887  28.878  27.781  1.00  0.00    -0.205 F 
ATOM     86  C   UNL A   1      45.395  25.277  27.344  1.00  0.00     0.022 A 
BRANCH  84  87
ATOM     87  S   UNL A   1      44.547  26.969  25.376  1.00  0.00     0.127 S 
ATOM     88  O   UNL A   1      45.793  27.269  24.683  1.00  0.00    -0.237 OA
ATOM     89  O   UNL A   1      43.926  25.700  25.013  1.00  0.00    -0.237 OA
ATOM     90  O   UNL A   1      43.611  28.082  25.520  1.00  0.00    -0.744 OA
ENDBRANCH  84  87
ENDBRANCH  56  80
BRANCH  68  91
ATOM     91  C   UNL A   1      43.449  34.070  30.452  1.00  0.00     0.023 A 
ATOM     92  C   UNL A   1      43.728  35.049  31.422  1.00  0.00     0.012 A 
ATOM     93  C   UNL A   1      43.560  34.483  29.096  1.00  0.00     0.148 A 
ATOM     94  C   UNL A   1      44.010  36.377  31.083  1.00  0.00     0.002 A 
ATOM     95  C   UNL A   1      43.981  35.766  28.763  1.00  0.00     0.091 A 
ATOM     96  F   UNL A   1      43.228  33.643  28.105  1.00  0.00    -0.205 F 
ATOM     97  C   UNL A   1      44.161  36.731  29.753  1.00  0.00     0.022 A 
BRANCH  95  98
ATOM     98  S   UNL A   1      44.456  36.192  27.082  1.00  0.00     0.127 S 
ATOM     99  O   UNL A   1      43.195  36.025  26.362  1.00  0.00    -0.237 OA
ATOM    100  O   UNL A   1      44.895  37.581  27.230  1.00  0.00    -0.237 OA
ATOM    101  O   UNL A   1      45.522  35.263  26.733  1.00  0.00    -0.744 OA
ENDBRANCH  95  98
ENDBRANCH  68  91
ENDBRANCH  42  43
ENDBRANCH  34  37
ENDBRANCH  32  33
ENDBRANCH   1  32
TORSDOF 18
ENDMDL
MODEL 2
REMARK VINA RESULT:     -13.4      3.939      8.737
REMARK SMILES Cc1cccc(CNC(=O)N[C@@H](CC2=c3ccccc3=NC2)C(=O)NCCCNC(=O)c2ccc(-c3c4nc(c(-c5cccc(S(=O)(=O)[O-])c5F)c5ccc([nH]5)c(-c5cccc(S(=O)(=O)[O-])c5F)c5nc(c(-c6cccc(S(=O)(=O)[O-])c6F)c6ccc3[nH]6)C=C5)C=C4)cc2)c1
REMARK SMILES IDX 27 1 26 2 25 3 23 4 24 5 12 7 11 8 8 9 9 10 10 12 7 14 6 15
REMARK SMILES IDX 1 16 2 17 3 18 95 19 4 20 5 21 13 22 14 23 15 24 22 25 16 26
REMARK SMILES IDX 20 27 21 28 17 29 19 30 18 31 28 32 29 33 30 34 31 36 32 37
REMARK SMILES IDX 33 38 94 39 34 40 93 41 35 42 36 43 37 44 87 45 38 46 92 47
REMARK SMILES IDX 86 48 88 49 39 50 91 51 85 52 84 53 40 55 72 56 52 57 71 58
REMARK SMILES IDX 53 59 56 60 70 61 89 62 54 63 55 64 69 66 90 67 57 68 41 69
REMARK SMILES IDX 42 70 50 71 43 72 45 73 51 74 44 75 46 76 47 77 48 78 49 79
REMARK SMILES IDX 73 80 74 81 82 82 75 83 77 84 83 85 76 86 78 87 79 88 80 89
REMARK SMILES IDX 81 90 58 91 59 92 67 93 60 94 62 95 68 96 61 97 63 98 64 99
REMARK SMILES IDX 65 100 66 101
REMARK H PARENT 25 6 8 11 11 13 29 35 88 54 56 65
REMARK Flexibility Score: inf
ROOT
ATOM      1  C   UNL A   1      32.887  28.574  26.990  1.00  0.00     0.042 C 
ENDROOT
BRANCH   1   2
ATOM      2  C   UNL A   1      32.533  27.153  26.555  1.00  0.00     0.117 C 
BRANCH   2   3
ATOM      3  N   UNL A   1      31.120  26.805  26.611  1.00  0.00    -0.354 N 
ATOM      4  C   UNL A   1      30.456  25.776  25.998  1.00  0.00     0.242 C 
ATOM      5  O   UNL A   1      29.421  25.366  26.540  1.00  0.00    -0.273 OA
ATOM      6  H   UNL A   1      30.562  27.394  27.167  1.00  0.00     0.163 HD
BRANCH   4   7
ATOM      7  C   UNL A   1      30.967  25.065  24.718  1.00  0.00     0.177 C 
BRANCH   7   8
ATOM      8  N   UNL A   1      30.721  23.623  24.798  1.00  0.00    -0.326 N 
ATOM      9  N   UNL A   1      32.805  22.765  25.505  1.00  0.00    -0.334 N 
ATOM     10  C   UNL A   1      31.473  22.684  25.398  1.00  0.00     0.315 C 
ATOM     11  H   UNL A   1      33.170  22.303  26.294  1.00  0.00     0.165 HD
ATOM     12  O   UNL A   1      30.899  21.708  25.885  1.00  0.00    -0.249 OA
ATOM     13  H   UNL A   1      29.903  23.301  24.356  1.00  0.00     0.166 HD
BRANCH   9  14
ATOM     14  C   UNL A   1      33.810  23.405  24.680  1.00  0.00     0.153 C 
BRANCH  14  15
ATOM     15  C   UNL A   1      35.214  22.918  24.950  1.00  0.00    -0.028 A 
ATOM     16  C   UNL A   1      37.092  19.588  24.882  1.00  0.00     0.044 C 
ATOM     17  C   UNL A   1      36.795  21.051  25.030  1.00  0.00    -0.051 A 
ATOM     18  C   UNL A   1      37.805  21.931  25.431  1.00  0.00     0.003 A 
ATOM     19  C   UNL A   1      35.506  21.552  24.795  1.00  0.00     0.009 A 
ATOM     20  C   UNL A   1      37.537  23.292  25.565  1.00  0.00     0.001 A 
ATOM     21  C   UNL A   1      36.254  23.784  25.317  1.00  0.00     0.005 A 
ENDBRANCH  14  15
ENDBRANCH   9  14
ENDBRANCH   7   8
BRANCH   7  22
ATOM     22  C   UNL A   1      30.585  25.678  23.339  1.00  0.00     0.068 C 
BRANCH  22  23
ATOM     23  C   UNL A   1      30.577  27.164  23.173  1.00  0.00    -0.037 C 
ATOM     24  C   UNL A   1      29.527  27.980  23.231  1.00  0.00     0.001 A 
ATOM     25  C   UNL A   1      31.814  27.940  22.832  1.00  0.00     0.174 C 
ATOM     26  C   UNL A   1      28.134  27.794  23.480  1.00  0.00     0.010 A 
ATOM     27  C   UNL A   1      30.061  29.232  22.664  1.00  0.00     0.065 A 
ATOM     28  N   UNL A   1      31.342  29.291  22.452  1.00  0.00    -0.280 NA
ATOM     29  C   UNL A   1      27.280  28.732  23.048  1.00  0.00     0.001 A 
ATOM     30  C   UNL A   1      29.060  30.242  22.258  1.00  0.00     0.028 A 
ATOM     31  C   UNL A   1      27.758  29.939  22.397  1.00  0.00     0.002 A 
ENDBRANCH  22  23
ENDBRANCH   7  22
ENDBRANCH   4   7
ENDBRANCH   2   3
ENDBRANCH   1   2
BRANCH   1  32
ATOM     32  C   UNL A   1      34.241  29.050  26.466  1.00  0.00     0.118 C 
BRANCH  32  33
ATOM     33  N   UNL A   1      34.564  30.427  26.891  1.00  0.00    -0.352 N 
ATOM     34  C   UNL A   1      35.355  30.886  27.940  1.00  0.00     0.251 C 
ATOM     35  H   UNL A   1      34.153  31.135  26.344  1.00  0.00     0.163 HD
ATOM     36  O   UNL A   1      35.112  31.978  28.434  1.00  0.00    -0.269 OA
BRANCH  34  37
ATOM     37  C   UNL A   1      36.499  30.073  28.391  1.00  0.00     0.039 A 
ATOM     38  C   UNL A   1      36.603  29.461  29.649  1.00  0.00     0.014 A 
ATOM     39  C   UNL A   1      37.572  30.026  27.522  1.00  0.00     0.014 A 
ATOM     40  C   UNL A   1      37.814  28.862  30.010  1.00  0.00     0.010 A 
ATOM     41  C   UNL A   1      38.590  29.171  27.734  1.00  0.00     0.010 A 
ATOM     42  C   UNL A   1      38.810  28.773  29.043  1.00  0.00    -0.014 A 
BRANCH  42  43
ATOM     43  C   UNL A   1      40.177  28.331  29.212  1.00  0.00     0.031 A 
ATOM     44  C   UNL A   1      40.491  26.928  28.956  1.00  0.00     0.074 A 
ATOM     45  C   UNL A   1      41.081  29.339  29.171  1.00  0.00     0.049 A 
ATOM     46  N   UNL A   1      41.595  26.360  29.285  1.00  0.00    -0.248 NA
ATOM     47  C   UNL A   1      39.522  26.025  28.339  1.00  0.00     0.031 C 
ATOM     48  C   UNL A   1      42.425  29.333  28.627  1.00  0.00     0.029 A 
ATOM     49  N   UNL A   1      40.903  30.674  29.581  1.00  0.00    -0.354 N 
ATOM     50  C   UNL A   1      41.614  25.162  28.599  1.00  0.00     0.074 A 
ATOM     51  C   UNL A   1      40.239  24.903  28.266  1.00  0.00     0.031 C 
ATOM     52  C   UNL A   1      43.030  30.486  28.975  1.00  0.00     0.029 A 
ATOM     53  C   UNL A   1      42.162  31.153  29.938  1.00  0.00     0.049 A 
ATOM     54  H   UNL A   1      40.054  31.172  29.610  1.00  0.00     0.167 HD
ATOM     55  C   UNL A   1      42.814  24.681  28.163  1.00  0.00     0.034 A 
ATOM     56  C   UNL A   1      42.487  31.412  31.241  1.00  0.00     0.034 A 
ATOM     57  C   UNL A   1      43.901  25.584  28.603  1.00  0.00     0.049 A 
ATOM     58  C   UNL A   1      43.524  30.434  31.769  1.00  0.00     0.074 A 
ATOM     59  C   UNL A   1      44.633  26.563  27.948  1.00  0.00     0.029 A 
ATOM     60  N   UNL A   1      44.109  25.800  29.964  1.00  0.00    -0.354 N 
ATOM     61  N   UNL A   1      43.974  29.400  31.113  1.00  0.00    -0.248 NA
ATOM     62  C   UNL A   1      44.125  30.544  33.093  1.00  0.00     0.031 C 
ATOM     63  C   UNL A   1      45.209  27.420  28.934  1.00  0.00     0.029 A 
ATOM     64  C   UNL A   1      44.861  26.947  30.189  1.00  0.00     0.049 A 
ATOM     65  H   UNL A   1      43.765  25.214  30.677  1.00  0.00     0.167 HD
ATOM     66  C   UNL A   1      44.763  28.630  31.922  1.00  0.00     0.074 A 
ATOM     67  C   UNL A   1      44.913  29.453  33.114  1.00  0.00     0.031 C 
ATOM     68  C   UNL A   1      45.162  27.366  31.563  1.00  0.00     0.034 A 
BRANCH  55  69
ATOM     69  C   UNL A   1      43.014  23.607  27.091  1.00  0.00     0.023 A 
ATOM     70  C   UNL A   1      43.672  24.007  25.906  1.00  0.00     0.012 A 
ATOM     71  C   UNL A   1      42.597  22.251  27.119  1.00  0.00     0.148 A 
ATOM     72  C   UNL A   1      43.853  23.152  24.810  1.00  0.00     0.002 A 
ATOM     73  C   UNL A   1      42.759  21.397  26.021  1.00  0.00     0.091 A 
ATOM     74  F   UNL A   1      42.069  21.727  28.220  1.00  0.00    -0.205 F 
ATOM     75  C   UNL A   1      43.384  21.848  24.860  1.00  0.00     0.022 A 
BRANCH  73  76
ATOM     76  S   UNL A   1      42.174  19.687  26.019  1.00  0.00     0.127 S 
ATOM     77  O   UNL A   1      42.841  19.135  24.838  1.00  0.00    -0.237 OA
ATOM     78  O   UNL A   1      42.682  19.182  27.293  1.00  0.00    -0.237 OA
ATOM     79  O   UNL A   1      40.721  19.742  25.913  1.00  0.00    -0.744 OA
ENDBRANCH  73  76
ENDBRANCH  55  69
BRANCH  56  80
ATOM     80  C   UNL A   1      41.357  31.965  32.055  1.00  0.00     0.023 A 
ATOM     81  C   UNL A   1      40.840  33.228  31.689  1.00  0.00     0.012 A 
ATOM     82  C   UNL A   1      40.562  31.106  32.836  1.00  0.00     0.148 A 
ATOM     83  C   UNL A   1      39.520  33.575  31.989  1.00  0.00     0.002 A 
ATOM     84  C   UNL A   1      39.224  31.422  33.055  1.00  0.00     0.091 A 
ATOM     85  F   UNL A   1      41.092  29.949  33.249  1.00  0.00    -0.205 F 
ATOM     86  C   UNL A   1      38.696  32.646  32.616  1.00  0.00     0.022 A 
BRANCH  84  87
ATOM     87  S   UNL A   1      38.042  30.214  33.671  1.00  0.00     0.127 S 
ATOM     88  O   UNL A   1      38.612  28.965  33.183  1.00  0.00    -0.237 OA
ATOM     89  O   UNL A   1      38.142  30.418  35.112  1.00  0.00    -0.237 OA
ATOM     90  O   UNL A   1      36.759  30.601  33.092  1.00  0.00    -0.744 OA
ENDBRANCH  84  87
ENDBRANCH  56  80
BRANCH  68  91
ATOM     91  C   UNL A   1      45.864  26.375  32.483  1.00  0.00     0.023 A 
ATOM     92  C   UNL A   1      47.263  26.306  32.602  1.00  0.00     0.012 A 
ATOM     93  C   UNL A   1      45.120  25.540  33.362  1.00  0.00     0.148 A 
ATOM     94  C   UNL A   1      47.896  25.405  33.466  1.00  0.00     0.002 A 
ATOM     95  C   UNL A   1      45.750  24.753  34.319  1.00  0.00     0.091 A 
ATOM     96  F   UNL A   1      43.785  25.474  33.260  1.00  0.00    -0.205 F 
ATOM     97  C   UNL A   1      47.140  24.645  34.343  1.00  0.00     0.022 A 
BRANCH  95  98
ATOM     98  S   UNL A   1      44.827  23.970  35.648  1.00  0.00     0.127 S 
ATOM     99  O   UNL A   1      45.898  23.416  36.472  1.00  0.00    -0.237 OA
ATOM    100  O   UNL A   1      44.124  25.108  36.245  1.00  0.00    -0.237 OA
ATOM    101  O   UNL A   1      43.953  23.004  34.997  1.00  0.00    -0.744 OA
ENDBRANCH  95  98
ENDBRANCH  68  91
ENDBRANCH  42  43
ENDBRANCH  34  37
ENDBRANCH  32  33
ENDBRANCH   1  32
TORSDOF 18
ENDMDL
MODEL 3
REMARK VINA RESULT:     -13.4      1.386      4.562
REMARK SMILES Cc1cccc(CNC(=O)N[C@@H](CC2=c3ccccc3=NC2)C(=O)NCCCNC(=O)c2ccc(-c3c4nc(c(-c5cccc(S(=O)(=O)[O-])c5F)c5ccc([nH]5)c(-c5cccc(S(=O)(=O)[O-])c5F)c5nc(c(-c6cccc(S(=O)(=O)[O-])c6F)c6ccc3[nH]6)C=C5)C=C4)cc2)c1
REMARK SMILES IDX 27 1 26 2 25 3 23 4 24 5 12 7 11 8 8 9 9 10 10 12 7 14 6 15
REMARK SMILES IDX 1 16 2 17 3 18 95 19 4 20 5 21 13 22 14 23 15 24 22 25 16 26
REMARK SMILES IDX 20 27 21 28 17 29 19 30 18 31 28 32 29 33 30 34 31 36 32 37
REMARK SMILES IDX 33 38 94 39 34 40 93 41 35 42 36 43 37 44 87 45 38 46 92 47
REMARK SMILES IDX 86 48 88 49 39 50 91 51 85 52 84 53 40 55 72 56 52 57 71 58
REMARK SMILES IDX 53 59 56 60 70 61 89 62 54 63 55 64 69 66 90 67 57 68 41 69
REMARK SMILES IDX 42 70 50 71 43 72 45 73 51 74 44 75 46 76 47 77 48 78 49 79
REMARK SMILES IDX 73 80 74 81 82 82 75 83 77 84 83 85 76 86 78 87 79 88 80 89
REMARK SMILES IDX 81 90 58 91 59 92 67 93 60 94 62 95 68 96 61 97 63 98 64 99
REMARK SMILES IDX 65 100 66 101
REMARK H PARENT 25 6 8 11 11 13 29 35 88 54 56 65
REMARK Flexibility Score: inf
ROOT
ATOM      1  C   UNL A   1      36.307  22.889  24.977  1.00  0.00     0.042 C 
ENDROOT
BRANCH   1   2
ATOM      2  C   UNL A   1      35.262  23.809  24.349  1.00  0.00     0.117 C 
BRANCH   2   3
ATOM      3  N   UNL A   1      34.760  23.405  23.044  1.00  0.00    -0.354 N 
ATOM      4  C   UNL A   1      33.530  23.622  22.482  1.00  0.00     0.242 C 
ATOM      5  O   UNL A   1      33.467  23.649  21.246  1.00  0.00    -0.273 OA
ATOM      6  H   UNL A   1      35.396  22.903  22.485  1.00  0.00     0.163 HD
BRANCH   4   7
ATOM      7  C   UNL A   1      32.246  23.900  23.306  1.00  0.00     0.177 C 
BRANCH   7   8
ATOM      8  N   UNL A   1      31.374  24.839  22.598  1.00  0.00    -0.326 N 
ATOM      9  N   UNL A   1      31.953  26.924  23.544  1.00  0.00    -0.334 N 
ATOM     10  C   UNL A   1      31.464  26.179  22.544  1.00  0.00     0.315 C 
ATOM     11  H   UNL A   1      32.367  27.766  23.247  1.00  0.00     0.165 HD
ATOM     12  O   UNL A   1      31.089  26.744  21.515  1.00  0.00    -0.249 OA
ATOM     13  H   UNL A   1      30.627  24.438  22.098  1.00  0.00     0.166 HD
BRANCH   9  14
ATOM     14  C   UNL A   1      31.988  26.724  24.979  1.00  0.00     0.153 C 
BRANCH  14  15
ATOM     15  C   UNL A   1      32.486  27.926  25.745  1.00  0.00    -0.028 A 
ATOM     16  C   UNL A   1      31.352  31.524  26.370  1.00  0.00     0.044 C 
ATOM     17  C   UNL A   1      32.151  30.256  26.419  1.00  0.00    -0.051 A 
ATOM     18  C   UNL A   1      33.343  30.210  27.148  1.00  0.00     0.003 A 
ATOM     19  C   UNL A   1      31.733  29.113  25.721  1.00  0.00     0.009 A 
ATOM     20  C   UNL A   1      34.088  29.033  27.202  1.00  0.00     0.001 A 
ATOM     21  C   UNL A   1      33.658  27.897  26.514  1.00  0.00     0.005 A 
ENDBRANCH  14  15
ENDBRANCH   9  14
ENDBRANCH   7   8
BRANCH   7  22
ATOM     22  C   UNL A   1      31.483  22.682  23.903  1.00  0.00     0.068 C 
BRANCH  22  23
ATOM     23  C   UNL A   1      32.253  21.582  24.562  1.00  0.00    -0.037 C 
ATOM     24  C   UNL A   1      32.534  20.381  24.065  1.00  0.00     0.001 A 
ATOM     25  C   UNL A   1      32.767  21.692  25.966  1.00  0.00     0.174 C 
ATOM     26  C   UNL A   1      32.270  19.731  22.822  1.00  0.00     0.010 A 
ATOM     27  C   UNL A   1      32.992  19.640  25.255  1.00  0.00     0.065 A 
ATOM     28  N   UNL A   1      33.180  20.321  26.344  1.00  0.00    -0.280 NA
ATOM     29  C   UNL A   1      32.301  18.391  22.785  1.00  0.00     0.001 A 
ATOM     30  C   UNL A   1      33.050  18.168  25.122  1.00  0.00     0.028 A 
ATOM     31  C   UNL A   1      32.654  17.617  23.962  1.00  0.00     0.002 A 
ENDBRANCH  22  23
ENDBRANCH   7  22
ENDBRANCH   4   7
ENDBRANCH   2   3
ENDBRANCH   1   2
BRANCH   1  32
ATOM     32  C   UNL A   1      37.620  23.596  25.306  1.00  0.00     0.118 C 
BRANCH  32  33
ATOM     33  N   UNL A   1      38.412  22.881  26.328  1.00  0.00    -0.352 N 
ATOM     34  C   UNL A   1      39.544  23.277  27.032  1.00  0.00     0.251 C 
ATOM     35  H   UNL A   1      38.086  21.978  26.544  1.00  0.00     0.163 HD
ATOM     36  O   UNL A   1      40.325  22.424  27.431  1.00  0.00    -0.269 OA
BRANCH  34  37
ATOM     37  C   UNL A   1      39.746  24.707  27.330  1.00  0.00     0.039 A 
ATOM     38  C   UNL A   1      40.389  25.621  26.482  1.00  0.00     0.014 A 
ATOM     39  C   UNL A   1      39.355  25.111  28.592  1.00  0.00     0.014 A 
ATOM     40  C   UNL A   1      40.664  26.906  26.959  1.00  0.00     0.010 A 
ATOM     41  C   UNL A   1      39.313  26.418  28.913  1.00  0.00     0.010 A 
ATOM     42  C   UNL A   1      40.151  27.262  28.202  1.00  0.00    -0.014 A 
BRANCH  42  43
ATOM     43  C   UNL A   1      40.413  28.466  28.960  1.00  0.00     0.031 A 
ATOM     44  C   UNL A   1      39.470  29.576  28.850  1.00  0.00     0.074 A 
ATOM     45  C   UNL A   1      41.256  28.277  30.003  1.00  0.00     0.049 A 
ATOM     46  N   UNL A   1      39.697  30.765  29.278  1.00  0.00    -0.248 NA
ATOM     47  C   UNL A   1      38.182  29.425  28.175  1.00  0.00     0.031 C 
ATOM     48  C   UNL A   1      41.244  28.909  31.308  1.00  0.00     0.029 A 
ATOM     49  N   UNL A   1      42.312  27.350  30.101  1.00  0.00    -0.354 N 
ATOM     50  C   UNL A   1      38.472  31.402  29.270  1.00  0.00     0.074 A 
ATOM     51  C   UNL A   1      37.664  30.641  28.355  1.00  0.00     0.031 C 
ATOM     52  C   UNL A   1      42.375  28.568  31.956  1.00  0.00     0.029 A 
ATOM     53  C   UNL A   1      43.236  27.892  30.993  1.00  0.00     0.049 A 
ATOM     54  H   UNL A   1      42.384  26.488  29.631  1.00  0.00     0.167 HD
ATOM     55  C   UNL A   1      38.212  32.326  30.240  1.00  0.00     0.034 A 
ATOM     56  C   UNL A   1      44.455  28.350  30.572  1.00  0.00     0.034 A 
ATOM     57  C   UNL A   1      39.402  32.487  31.104  1.00  0.00     0.049 A 
ATOM     58  C   UNL A   1      44.563  29.862  30.693  1.00  0.00     0.074 A 
ATOM     59  C   UNL A   1      39.722  32.004  32.364  1.00  0.00     0.029 A 
ATOM     60  N   UNL A   1      40.603  32.924  30.548  1.00  0.00    -0.354 N 
ATOM     61  N   UNL A   1      43.585  30.651  31.043  1.00  0.00    -0.248 NA
ATOM     62  C   UNL A   1      45.788  30.600  30.411  1.00  0.00     0.031 C 
ATOM     63  C   UNL A   1      41.139  32.076  32.520  1.00  0.00     0.029 A 
ATOM     64  C   UNL A   1      41.683  32.634  31.374  1.00  0.00     0.049 A 
ATOM     65  H   UNL A   1      40.678  33.380  29.679  1.00  0.00     0.167 HD
ATOM     66  C   UNL A   1      43.953  31.960  30.890  1.00  0.00     0.074 A 
ATOM     67  C   UNL A   1      45.378  31.868  30.601  1.00  0.00     0.031 C 
ATOM     68  C   UNL A   1      43.043  32.986  30.950  1.00  0.00     0.034 A 
BRANCH  55  69
ATOM     69  C   UNL A   1      36.828  32.851  30.631  1.00  0.00     0.023 A 
ATOM     70  C   UNL A   1      36.364  32.517  31.924  1.00  0.00     0.012 A 
ATOM     71  C   UNL A   1      35.926  33.616  29.847  1.00  0.00     0.148 A 
ATOM     72  C   UNL A   1      35.087  32.862  32.387  1.00  0.00     0.002 A 
ATOM     73  C   UNL A   1      34.642  33.948  30.297  1.00  0.00     0.091 A 
ATOM     74  F   UNL A   1      36.292  34.085  28.659  1.00  0.00    -0.205 F 
ATOM     75  C   UNL A   1      34.217  33.567  31.568  1.00  0.00     0.022 A 
BRANCH  73  76
ATOM     76  S   UNL A   1      33.460  34.866  29.283  1.00  0.00     0.127 S 
ATOM     77  O   UNL A   1      33.119  33.887  28.248  1.00  0.00    -0.237 OA
ATOM     78  O   UNL A   1      32.384  35.144  30.233  1.00  0.00    -0.237 OA
ATOM     79  O   UNL A   1      34.161  36.042  28.783  1.00  0.00    -0.744 OA
ENDBRANCH  73  76
ENDBRANCH  55  69
BRANCH  56  80
ATOM     80  C   UNL A   1      45.059  27.546  29.461  1.00  0.00     0.023 A 
ATOM     81  C   UNL A   1      45.400  26.203  29.732  1.00  0.00     0.012 A 
ATOM     82  C   UNL A   1      44.883  27.947  28.123  1.00  0.00     0.148 A 
ATOM     83  C   UNL A   1      45.444  25.254  28.706  1.00  0.00     0.002 A 
ATOM     84  C   UNL A   1      44.842  26.982  27.120  1.00  0.00     0.091 A 
ATOM     85  F   UNL A   1      44.644  29.239  27.871  1.00  0.00    -0.205 F 
ATOM     86  C   UNL A   1      45.103  25.633  27.412  1.00  0.00     0.022 A 
BRANCH  84  87
ATOM     87  S   UNL A   1      44.220  27.340  25.471  1.00  0.00     0.127 S 
ATOM     88  O   UNL A   1      43.686  26.046  25.068  1.00  0.00    -0.237 OA
ATOM     89  O   UNL A   1      43.219  28.362  25.752  1.00  0.00    -0.237 OA
ATOM     90  O   UNL A   1      45.378  27.817  24.719  1.00  0.00    -0.744 OA
ENDBRANCH  84  87
ENDBRANCH  56  80
BRANCH  68  91
ATOM     91  C   UNL A   1      43.335  34.438  30.593  1.00  0.00     0.023 A 
ATOM     92  C   UNL A   1      43.705  35.399  31.551  1.00  0.00     0.012 A 
ATOM     93  C   UNL A   1      43.358  34.866  29.237  1.00  0.00     0.148 A 
ATOM     94  C   UNL A   1      43.990  36.725  31.207  1.00  0.00     0.002 A 
ATOM     95  C   UNL A   1      43.783  36.144  28.889  1.00  0.00     0.091 A 
ATOM     96  F   UNL A   1      42.937  34.046  28.264  1.00  0.00    -0.205 F 
ATOM     97  C   UNL A   1      44.054  37.093  29.873  1.00  0.00     0.022 A 
BRANCH  95  98
ATOM     98  S   UNL A   1      44.146  36.580  27.182  1.00  0.00     0.127 S 
ATOM     99  O   UNL A   1      44.671  37.937  27.325  1.00  0.00    -0.237 OA
ATOM    100  O   UNL A   1      45.145  35.575  26.815  1.00  0.00    -0.237 OA
ATOM    101  O   UNL A   1      42.882  36.453  26.472  1.00  0.00    -0.744 OA
ENDBRANCH  95  98
ENDBRANCH  68  91
ENDBRANCH  42  43
ENDBRANCH  34  37
ENDBRANCH  32  33
ENDBRANCH   1  32
TORSDOF 18
ENDMDL
