MODEL 1
REMARK VINA RESULT:     -12.4      0.000      0.000
REMARK SMILES C#Cc1ccc2c(c1)C=C(C(=O)NCCCNC(=O)c1ccc(-c3c4nc(c(-c5cccc(S(=O)(=O)[O-])c5F)c5ccc([nH]5)c(-c5cccc(S(=O)(=O)[O-])c5F)c5nc(c(-c6cccc(S(=O)(=O)[O-])c6F)c6ccc3[nH]6)C=C5)C=C4)cc1)[C@@H](C(F)(F)F)O2
REMARK SMILES IDX 16 1 15 2 14 3 13 4 11 5 12 6 10 8 3 9 4 10 8 11 5 12 7 13
REMARK SMILES IDX 6 14 9 15 88 16 83 17 2 18 1 19 84 20 85 21 86 22 87 23
REMARK SMILES IDX 17 24 18 25 19 27 20 28 21 29 82 30 22 31 81 32 23 33 24 34
REMARK SMILES IDX 25 35 75 36 26 37 80 38 74 39 76 40 27 41 79 42 73 43 72 44
REMARK SMILES IDX 28 46 60 47 40 48 59 49 41 50 44 51 58 52 77 53 42 54 43 55
REMARK SMILES IDX 57 57 78 58 45 59 29 60 30 61 38 62 31 63 33 64 39 65 32 66
REMARK SMILES IDX 34 67 35 68 36 69 37 70 61 71 62 72 70 73 63 74 65 75 71 76
REMARK SMILES IDX 64 77 66 78 67 79 68 80 69 81 46 82 47 83 55 84 48 85 50 86
REMARK SMILES IDX 56 87 49 88 51 89 52 90 53 91 54 92
REMARK H PARENT 13 7 17 26 76 45 44 56
REMARK Flexibility Score: inf
ROOT
ATOM      1  C   UNL A   1      32.370  29.423  26.259  1.00  0.00     0.118 C 
ENDROOT
BRANCH   1   2
ATOM      2  C   UNL A   1      32.751  29.140  24.817  1.00  0.00     0.042 C 
BRANCH   2   3
ATOM      3  C   UNL A   1      31.525  28.952  23.944  1.00  0.00     0.118 C 
BRANCH   3   4
ATOM      4  N   UNL A   1      30.648  27.905  24.449  1.00  0.00    -0.352 N 
ATOM      5  C   UNL A   1      30.693  26.559  24.592  1.00  0.00     0.251 C 
ATOM      6  O   UNL A   1      29.706  26.047  25.130  1.00  0.00    -0.270 OA
ATOM      7  H   UNL A   1      29.795  28.275  24.773  1.00  0.00     0.163 HD
BRANCH   5   8
ATOM      8  C   UNL A   1      31.829  25.698  24.154  1.00  0.00     0.067 C 
ATOM      9  C   UNL A   1      36.206  23.845  25.030  1.00  0.00     0.025 A 
ATOM     10  C   UNL A   1      36.092  23.042  23.892  1.00  0.00     0.021 A 
ATOM     11  C   UNL A   1      35.157  24.692  25.406  1.00  0.00     0.029 A 
ATOM     12  C   UNL A   1      34.928  23.082  23.129  1.00  0.00     0.048 A 
ATOM     13  C   UNL A   1      33.989  24.738  24.637  1.00  0.00     0.018 A 
ATOM     14  C   UNL A   1      33.892  23.933  23.500  1.00  0.00     0.128 A 
ATOM     15  C   UNL A   1      32.854  25.571  25.017  1.00  0.00     0.025 C 
ATOM     16  O   UNL A   1      32.780  23.888  22.716  1.00  0.00    -0.475 OA
ATOM     17  C   UNL A   1      31.875  25.015  22.818  1.00  0.00     0.314 C 
BRANCH   9  18
ATOM     18  C   UNL A   1      37.399  23.778  25.813  1.00  0.00    -0.070 C 
ATOM     19  C   UNL A   1      38.390  23.747  26.494  1.00  0.00     0.010 C 
ENDBRANCH   9  18
BRANCH  17  20
ATOM     20  C   UNL A   1      32.166  25.999  21.668  1.00  0.00     0.429 C 
ATOM     21  F   UNL A   1      33.174  26.841  22.007  1.00  0.00    -0.167 F 
ATOM     22  F   UNL A   1      32.554  25.379  20.527  1.00  0.00    -0.167 F 
ATOM     23  F   UNL A   1      31.094  26.758  21.347  1.00  0.00    -0.167 F 
ENDBRANCH  17  20
ENDBRANCH   5   8
ENDBRANCH   3   4
ENDBRANCH   2   3
ENDBRANCH   1   2
BRANCH   1  24
ATOM     24  N   UNL A   1      32.204  30.857  26.516  1.00  0.00    -0.352 N 
ATOM     25  C   UNL A   1      33.001  31.737  27.211  1.00  0.00     0.251 C 
ATOM     26  H   UNL A   1      31.391  31.253  26.129  1.00  0.00     0.163 HD
ATOM     27  O   UNL A   1      32.572  32.847  27.506  1.00  0.00    -0.269 OA
BRANCH  25  28
ATOM     28  C   UNL A   1      34.353  31.313  27.617  1.00  0.00     0.039 A 
ATOM     29  C   UNL A   1      34.591  29.970  27.898  1.00  0.00     0.014 A 
ATOM     30  C   UNL A   1      35.362  32.261  27.794  1.00  0.00     0.014 A 
ATOM     31  C   UNL A   1      35.724  29.621  28.611  1.00  0.00     0.010 A 
ATOM     32  C   UNL A   1      36.573  31.871  28.370  1.00  0.00     0.010 A 
ATOM     33  C   UNL A   1      36.734  30.564  28.854  1.00  0.00    -0.014 A 
BRANCH  33  34
ATOM     34  C   UNL A   1      37.933  30.143  29.621  1.00  0.00     0.031 A 
ATOM     35  C   UNL A   1      38.114  30.543  31.061  1.00  0.00     0.074 A 
ATOM     36  C   UNL A   1      38.830  29.330  29.026  1.00  0.00     0.049 A 
ATOM     37  N   UNL A   1      39.087  30.228  31.878  1.00  0.00    -0.248 NA
ATOM     38  C   UNL A   1      37.084  31.403  31.671  1.00  0.00     0.031 C 
ATOM     39  C   UNL A   1      38.762  28.875  27.633  1.00  0.00     0.029 A 
ATOM     40  N   UNL A   1      39.958  28.725  29.514  1.00  0.00    -0.354 N 
ATOM     41  C   UNL A   1      38.812  30.883  33.072  1.00  0.00     0.074 A 
ATOM     42  C   UNL A   1      37.586  31.620  32.880  1.00  0.00     0.031 C 
ATOM     43  C   UNL A   1      39.767  28.022  27.397  1.00  0.00     0.029 A 
ATOM     44  C   UNL A   1      40.599  27.934  28.590  1.00  0.00     0.049 A 
ATOM     45  H   UNL A   1      40.279  28.845  30.437  1.00  0.00     0.167 HD
ATOM     46  C   UNL A   1      39.512  30.854  34.230  1.00  0.00     0.034 A 
ATOM     47  C   UNL A   1      41.744  27.232  28.674  1.00  0.00     0.034 A 
ATOM     48  C   UNL A   1      40.706  30.082  34.432  1.00  0.00     0.049 A 
ATOM     49  C   UNL A   1      42.510  27.239  29.961  1.00  0.00     0.074 A 
ATOM     50  C   UNL A   1      41.455  29.958  35.589  1.00  0.00     0.029 A 
ATOM     51  N   UNL A   1      41.327  29.312  33.464  1.00  0.00    -0.354 N 
ATOM     52  N   UNL A   1      42.195  27.813  31.095  1.00  0.00    -0.248 NA
ATOM     53  C   UNL A   1      43.777  26.497  29.989  1.00  0.00     0.031 C 
ATOM     54  C   UNL A   1      42.549  29.138  35.311  1.00  0.00     0.029 A 
ATOM     55  C   UNL A   1      42.460  28.722  33.993  1.00  0.00     0.049 A 
ATOM     56  H   UNL A   1      41.011  29.201  32.538  1.00  0.00     0.167 HD
ATOM     57  C   UNL A   1      43.215  27.489  31.979  1.00  0.00     0.074 A 
ATOM     58  C   UNL A   1      44.152  26.656  31.253  1.00  0.00     0.031 C 
ATOM     59  C   UNL A   1      43.361  27.860  33.272  1.00  0.00     0.034 A 
BRANCH  46  60
ATOM     60  C   UNL A   1      38.999  31.649  35.398  1.00  0.00     0.023 A 
ATOM     61  C   UNL A   1      38.153  31.032  36.341  1.00  0.00     0.012 A 
ATOM     62  C   UNL A   1      39.461  32.960  35.631  1.00  0.00     0.148 A 
ATOM     63  C   UNL A   1      37.772  31.709  37.498  1.00  0.00     0.002 A 
ATOM     64  C   UNL A   1      39.099  33.619  36.800  1.00  0.00     0.091 A 
ATOM     65  F   UNL A   1      40.261  33.524  34.715  1.00  0.00    -0.205 F 
ATOM     66  C   UNL A   1      38.255  32.995  37.733  1.00  0.00     0.022 A 
BRANCH  64  67
ATOM     67  S   UNL A   1      39.694  35.261  37.217  1.00  0.00     0.127 S 
ATOM     68  O   UNL A   1      41.136  35.033  37.316  1.00  0.00    -0.237 OA
ATOM     69  O   UNL A   1      39.279  36.041  36.053  1.00  0.00    -0.237 OA
ATOM     70  O   UNL A   1      39.042  35.623  38.466  1.00  0.00    -0.744 OA
ENDBRANCH  64  67
ENDBRANCH  46  60
BRANCH  47  71
ATOM     71  C   UNL A   1      42.205  26.457  27.493  1.00  0.00     0.023 A 
ATOM     72  C   UNL A   1      42.909  27.113  26.466  1.00  0.00     0.012 A 
ATOM     73  C   UNL A   1      42.027  25.061  27.430  1.00  0.00     0.148 A 
ATOM     74  C   UNL A   1      43.428  26.389  25.393  1.00  0.00     0.002 A 
ATOM     75  C   UNL A   1      42.575  24.342  26.377  1.00  0.00     0.091 A 
ATOM     76  F   UNL A   1      41.361  24.465  28.429  1.00  0.00    -0.205 F 
ATOM     77  C   UNL A   1      43.270  25.004  25.354  1.00  0.00     0.022 A 
BRANCH  75  78
ATOM     78  S   UNL A   1      42.496  22.550  26.282  1.00  0.00     0.127 S 
ATOM     79  O   UNL A   1      43.280  22.157  27.450  1.00  0.00    -0.237 OA
ATOM     80  O   UNL A   1      41.057  22.310  26.395  1.00  0.00    -0.237 OA
ATOM     81  O   UNL A   1      43.073  22.194  24.994  1.00  0.00    -0.744 OA
ENDBRANCH  75  78
ENDBRANCH  47  71
BRANCH  59  82
ATOM     82  C   UNL A   1      44.561  27.364  34.026  1.00  0.00     0.023 A 
ATOM     83  C   UNL A   1      45.730  28.147  34.059  1.00  0.00     0.012 A 
ATOM     84  C   UNL A   1      44.466  26.211  34.830  1.00  0.00     0.148 A 
ATOM     85  C   UNL A   1      46.789  27.792  34.892  1.00  0.00     0.002 A 
ATOM     86  C   UNL A   1      45.514  25.880  35.679  1.00  0.00     0.091 A 
ATOM     87  F   UNL A   1      43.339  25.488  34.775  1.00  0.00    -0.205 F 
ATOM     88  C   UNL A   1      46.676  26.669  35.712  1.00  0.00     0.022 A 
BRANCH  86  89
ATOM     89  S   UNL A   1      45.438  24.490  36.813  1.00  0.00     0.127 S 
ATOM     90  O   UNL A   1      46.745  24.569  37.465  1.00  0.00    -0.237 OA
ATOM     91  O   UNL A   1      44.306  24.850  37.666  1.00  0.00    -0.237 OA
ATOM     92  O   UNL A   1      45.234  23.305  35.991  1.00  0.00    -0.744 OA
ENDBRANCH  86  89
ENDBRANCH  59  82
ENDBRANCH  33  34
ENDBRANCH  25  28
ENDBRANCH   1  24
TORSDOF 15
ENDMDL
MODEL 2
REMARK VINA RESULT:     -12.4      4.908      9.968
REMARK SMILES C#Cc1ccc2c(c1)C=C(C(=O)NCCCNC(=O)c1ccc(-c3c4nc(c(-c5cccc(S(=O)(=O)[O-])c5F)c5ccc([nH]5)c(-c5cccc(S(=O)(=O)[O-])c5F)c5nc(c(-c6cccc(S(=O)(=O)[O-])c6F)c6ccc3[nH]6)C=C5)C=C4)cc1)[C@@H](C(F)(F)F)O2
REMARK SMILES IDX 16 1 15 2 14 3 13 4 11 5 12 6 10 8 3 9 4 10 8 11 5 12 7 13
REMARK SMILES IDX 6 14 9 15 88 16 83 17 2 18 1 19 84 20 85 21 86 22 87 23
REMARK SMILES IDX 17 24 18 25 19 27 20 28 21 29 82 30 22 31 81 32 23 33 24 34
REMARK SMILES IDX 25 35 75 36 26 37 80 38 74 39 76 40 27 41 79 42 73 43 72 44
REMARK SMILES IDX 28 46 60 47 40 48 59 49 41 50 44 51 58 52 77 53 42 54 43 55
REMARK SMILES IDX 57 57 78 58 45 59 29 60 30 61 38 62 31 63 33 64 39 65 32 66
REMARK SMILES IDX 34 67 35 68 36 69 37 70 61 71 62 72 70 73 63 74 65 75 71 76
REMARK SMILES IDX 64 77 66 78 67 79 68 80 69 81 46 82 47 83 55 84 48 85 50 86
REMARK SMILES IDX 56 87 49 88 51 89 52 90 53 91 54 92
REMARK H PARENT 13 7 17 26 76 45 44 56
REMARK Flexibility Score: inf
ROOT
ATOM      1  C   UNL A   1      36.462  22.087  25.085  1.00  0.00     0.118 C 
ENDROOT
BRANCH   1   2
ATOM      2  C   UNL A   1      35.262  21.942  26.004  1.00  0.00     0.042 C 
BRANCH   2   3
ATOM      3  C   UNL A   1      34.231  20.991  25.427  1.00  0.00     0.118 C 
BRANCH   3   4
ATOM      4  N   UNL A   1      33.744  21.434  24.127  1.00  0.00    -0.352 N 
ATOM      5  C   UNL A   1      33.095  22.513  23.628  1.00  0.00     0.251 C 
ATOM      6  O   UNL A   1      32.906  22.503  22.408  1.00  0.00    -0.270 OA
ATOM      7  H   UNL A   1      33.940  20.773  23.424  1.00  0.00     0.163 HD
BRANCH   5   8
ATOM      8  C   UNL A   1      32.618  23.668  24.443  1.00  0.00     0.067 C 
ATOM      9  C   UNL A   1      33.565  27.871  26.632  1.00  0.00     0.025 A 
ATOM     10  C   UNL A   1      32.206  28.027  26.917  1.00  0.00     0.021 A 
ATOM     11  C   UNL A   1      34.013  26.757  25.913  1.00  0.00     0.029 A 
ATOM     12  C   UNL A   1      31.293  27.071  26.482  1.00  0.00     0.048 A 
ATOM     13  C   UNL A   1      33.098  25.792  25.480  1.00  0.00     0.018 A 
ATOM     14  C   UNL A   1      31.744  25.960  25.776  1.00  0.00     0.128 A 
ATOM     15  C   UNL A   1      33.515  24.640  24.688  1.00  0.00     0.025 C 
ATOM     16  O   UNL A   1      30.780  25.091  25.363  1.00  0.00    -0.475 OA
ATOM     17  C   UNL A   1      31.228  23.761  25.001  1.00  0.00     0.314 C 
BRANCH   9  18
ATOM     18  C   UNL A   1      34.488  28.870  27.069  1.00  0.00    -0.070 C 
ATOM     19  C   UNL A   1      35.285  29.686  27.452  1.00  0.00     0.010 C 
ENDBRANCH   9  18
BRANCH  17  20
ATOM     20  C   UNL A   1      31.013  22.814  26.199  1.00  0.00     0.429 C 
ATOM     21  F   UNL A   1      32.047  22.911  27.071  1.00  0.00    -0.167 F 
ATOM     22  F   UNL A   1      29.891  23.100  26.904  1.00  0.00    -0.167 F 
ATOM     23  F   UNL A   1      30.915  21.518  25.828  1.00  0.00    -0.167 F 
ENDBRANCH  17  20
ENDBRANCH   5   8
ENDBRANCH   3   4
ENDBRANCH   2   3
ENDBRANCH   1   2
BRANCH   1  24
ATOM     24  N   UNL A   1      37.436  21.008  25.272  1.00  0.00    -0.352 N 
ATOM     25  C   UNL A   1      38.713  21.037  25.781  1.00  0.00     0.251 C 
ATOM     26  H   UNL A   1      37.125  20.119  24.987  1.00  0.00     0.163 HD
ATOM     27  O   UNL A   1      39.449  20.066  25.642  1.00  0.00    -0.269 OA
BRANCH  25  28
ATOM     28  C   UNL A   1      39.187  22.257  26.461  1.00  0.00     0.039 A 
ATOM     29  C   UNL A   1      38.633  23.487  26.119  1.00  0.00     0.014 A 
ATOM     30  C   UNL A   1      40.234  22.184  27.382  1.00  0.00     0.014 A 
ATOM     31  C   UNL A   1      39.299  24.647  26.471  1.00  0.00     0.010 A 
ATOM     32  C   UNL A   1      40.802  23.365  27.864  1.00  0.00     0.010 A 
ATOM     33  C   UNL A   1      40.391  24.605  27.352  1.00  0.00    -0.014 A 
BRANCH  33  34
ATOM     34  C   UNL A   1      41.072  25.876  27.704  1.00  0.00     0.031 A 
ATOM     35  C   UNL A   1      42.454  26.185  27.193  1.00  0.00     0.074 A 
ATOM     36  C   UNL A   1      40.401  26.789  28.435  1.00  0.00     0.049 A 
ATOM     37  N   UNL A   1      43.171  27.263  27.382  1.00  0.00    -0.248 NA
ATOM     38  C   UNL A   1      43.126  25.164  26.369  1.00  0.00     0.031 C 
ATOM     39  C   UNL A   1      39.055  26.604  28.989  1.00  0.00     0.029 A 
ATOM     40  N   UNL A   1      40.742  28.059  28.823  1.00  0.00    -0.354 N 
ATOM     41  C   UNL A   1      44.384  27.034  26.744  1.00  0.00     0.074 A 
ATOM     42  C   UNL A   1      44.317  25.713  26.166  1.00  0.00     0.031 C 
ATOM     43  C   UNL A   1      38.665  27.734  29.592  1.00  0.00     0.029 A 
ATOM     44  C   UNL A   1      39.760  28.694  29.545  1.00  0.00     0.049 A 
ATOM     45  H   UNL A   1      41.607  28.475  28.604  1.00  0.00     0.167 HD
ATOM     46  C   UNL A   1      45.449  27.861  26.636  1.00  0.00     0.034 A 
ATOM     47  C   UNL A   1      39.743  29.905  30.133  1.00  0.00     0.034 A 
ATOM     48  C   UNL A   1      45.495  29.192  27.173  1.00  0.00     0.049 A 
ATOM     49  C   UNL A   1      40.945  30.789  30.017  1.00  0.00     0.074 A 
ATOM     50  C   UNL A   1      46.518  30.118  27.071  1.00  0.00     0.029 A 
ATOM     51  N   UNL A   1      44.485  29.786  27.912  1.00  0.00    -0.354 N 
ATOM     52  N   UNL A   1      42.055  30.575  29.354  1.00  0.00    -0.248 NA
ATOM     53  C   UNL A   1      40.896  32.080  30.715  1.00  0.00     0.031 C 
ATOM     54  C   UNL A   1      46.141  31.261  27.776  1.00  0.00     0.029 A 
ATOM     55  C   UNL A   1      44.868  31.060  28.286  1.00  0.00     0.049 A 
ATOM     56  H   UNL A   1      43.625  29.363  28.138  1.00  0.00     0.167 HD
ATOM     57  C   UNL A   1      42.831  31.711  29.539  1.00  0.00     0.074 A 
ATOM     58  C   UNL A   1      42.060  32.617  30.365  1.00  0.00     0.031 C 
ATOM     59  C   UNL A   1      44.074  31.969  29.071  1.00  0.00     0.034 A 
BRANCH  46  60
ATOM     60  C   UNL A   1      46.656  27.381  25.879  1.00  0.00     0.023 A 
ATOM     61  C   UNL A   1      46.773  27.667  24.505  1.00  0.00     0.012 A 
ATOM     62  C   UNL A   1      47.729  26.766  26.556  1.00  0.00     0.148 A 
ATOM     63  C   UNL A   1      47.941  27.348  23.814  1.00  0.00     0.002 A 
ATOM     64  C   UNL A   1      48.900  26.475  25.867  1.00  0.00     0.091 A 
ATOM     65  F   UNL A   1      47.588  26.501  27.862  1.00  0.00    -0.205 F 
ATOM     66  C   UNL A   1      49.006  26.765  24.496  1.00  0.00     0.022 A 
BRANCH  64  67
ATOM     67  S   UNL A   1      50.343  25.759  26.658  1.00  0.00     0.127 S 
ATOM     68  O   UNL A   1      50.699  26.803  27.619  1.00  0.00    -0.237 OA
ATOM     69  O   UNL A   1      49.793  24.543  27.254  1.00  0.00    -0.237 OA
ATOM     70  O   UNL A   1      51.319  25.539  25.600  1.00  0.00    -0.744 OA
ENDBRANCH  64  67
ENDBRANCH  46  60
BRANCH  47  71
ATOM     71  C   UNL A   1      38.523  30.335  30.864  1.00  0.00     0.023 A 
ATOM     72  C   UNL A   1      38.362  29.976  32.215  1.00  0.00     0.012 A 
ATOM     73  C   UNL A   1      37.569  31.172  30.250  1.00  0.00     0.148 A 
ATOM     74  C   UNL A   1      37.269  30.444  32.944  1.00  0.00     0.002 A 
ATOM     75  C   UNL A   1      36.503  31.662  30.991  1.00  0.00     0.091 A 
ATOM     76  F   UNL A   1      37.756  31.504  28.965  1.00  0.00    -0.205 F 
ATOM     77  C   UNL A   1      36.347  31.295  32.336  1.00  0.00     0.022 A 
BRANCH  75  78
ATOM     78  S   UNL A   1      35.311  32.826  30.320  1.00  0.00     0.127 S 
ATOM     79  O   UNL A   1      34.679  32.029  29.270  1.00  0.00    -0.237 OA
ATOM     80  O   UNL A   1      34.467  33.091  31.485  1.00  0.00    -0.237 OA
ATOM     81  O   UNL A   1      36.086  33.968  29.856  1.00  0.00    -0.744 OA
ENDBRANCH  75  78
ENDBRANCH  47  71
BRANCH  59  82
ATOM     82  C   UNL A   1      44.702  33.291  29.406  1.00  0.00     0.023 A 
ATOM     83  C   UNL A   1      45.501  33.406  30.559  1.00  0.00     0.012 A 
ATOM     84  C   UNL A   1      44.633  34.360  28.491  1.00  0.00     0.148 A 
ATOM     85  C   UNL A   1      46.232  34.569  30.793  1.00  0.00     0.002 A 
ATOM     86  C   UNL A   1      45.387  35.504  28.716  1.00  0.00     0.091 A 
ATOM     87  F   UNL A   1      43.864  34.217  27.403  1.00  0.00    -0.205 F 
ATOM     88  C   UNL A   1      46.187  35.611  29.866  1.00  0.00     0.022 A 
BRANCH  86  89
ATOM     89  S   UNL A   1      45.442  36.872  27.554  1.00  0.00     0.127 S 
ATOM     90  O   UNL A   1      46.318  37.815  28.248  1.00  0.00    -0.237 OA
ATOM     91  O   UNL A   1      46.032  36.246  26.371  1.00  0.00    -0.237 OA
ATOM     92  O   UNL A   1      44.066  37.321  27.389  1.00  0.00    -0.744 OA
ENDBRANCH  86  89
ENDBRANCH  59  82
ENDBRANCH  33  34
ENDBRANCH  25  28
ENDBRANCH   1  24
TORSDOF 15
ENDMDL
MODEL 3
REMARK VINA RESULT:     -12.4      1.718      2.074
REMARK SMILES C#Cc1ccc2c(c1)C=C(C(=O)NCCCNC(=O)c1ccc(-c3c4nc(c(-c5cccc(S(=O)(=O)[O-])c5F)c5ccc([nH]5)c(-c5cccc(S(=O)(=O)[O-])c5F)c5nc(c(-c6cccc(S(=O)(=O)[O-])c6F)c6ccc3[nH]6)C=C5)C=C4)cc1)[C@@H](C(F)(F)F)O2
REMARK SMILES IDX 16 1 15 2 14 3 13 4 11 5 12 6 10 8 3 9 4 10 8 11 5 12 7 13
REMARK SMILES IDX 6 14 9 15 88 16 83 17 2 18 1 19 84 20 85 21 86 22 87 23
REMARK SMILES IDX 17 24 18 25 19 27 20 28 21 29 82 30 22 31 81 32 23 33 24 34
REMARK SMILES IDX 25 35 75 36 26 37 80 38 74 39 76 40 27 41 79 42 73 43 72 44
REMARK SMILES IDX 28 46 60 47 40 48 59 49 41 50 44 51 58 52 77 53 42 54 43 55
REMARK SMILES IDX 57 57 78 58 45 59 29 60 30 61 38 62 31 63 33 64 39 65 32 66
REMARK SMILES IDX 34 67 35 68 36 69 37 70 61 71 62 72 70 73 63 74 65 75 71 76
REMARK SMILES IDX 64 77 66 78 67 79 68 80 69 81 46 82 47 83 55 84 48 85 50 86
REMARK SMILES IDX 56 87 49 88 51 89 52 90 53 91 54 92
REMARK H PARENT 13 7 17 26 76 45 44 56
REMARK Flexibility Score: inf
ROOT
ATOM      1  C   UNL A   1      32.081  30.289  26.760  1.00  0.00     0.118 C 
ENDROOT
BRANCH   1   2
ATOM      2  C   UNL A   1      31.730  29.837  25.354  1.00  0.00     0.042 C 
BRANCH   2   3
ATOM      3  C   UNL A   1      32.946  29.304  24.621  1.00  0.00     0.118 C 
BRANCH   3   4
ATOM      4  N   UNL A   1      32.579  28.478  23.479  1.00  0.00    -0.352 N 
ATOM      5  C   UNL A   1      32.476  27.156  23.206  1.00  0.00     0.251 C 
ATOM      6  O   UNL A   1      32.071  26.875  22.074  1.00  0.00    -0.270 OA
ATOM      7  H   UNL A   1      32.342  29.028  22.697  1.00  0.00     0.163 HD
BRANCH   5   8
ATOM      8  C   UNL A   1      32.810  26.063  24.166  1.00  0.00     0.067 C 
ATOM      9  C   UNL A   1      35.624  22.327  25.380  1.00  0.00     0.025 A 
ATOM     10  C   UNL A   1      34.980  22.246  26.617  1.00  0.00     0.021 A 
ATOM     11  C   UNL A   1      35.269  23.322  24.462  1.00  0.00     0.029 A 
ATOM     12  C   UNL A   1      33.981  23.160  26.940  1.00  0.00     0.048 A 
ATOM     13  C   UNL A   1      34.261  24.238  24.782  1.00  0.00     0.018 A 
ATOM     14  C   UNL A   1      33.624  24.141  26.020  1.00  0.00     0.128 A 
ATOM     15  C   UNL A   1      33.892  25.319  23.875  1.00  0.00     0.025 C 
ATOM     16  O   UNL A   1      32.660  25.011  26.428  1.00  0.00    -0.475 OA
ATOM     17  C   UNL A   1      31.990  25.763  25.386  1.00  0.00     0.314 C 
BRANCH   9  18
ATOM     18  C   UNL A   1      36.660  21.393  25.071  1.00  0.00    -0.070 C 
ATOM     19  C   UNL A   1      37.523  20.588  24.840  1.00  0.00     0.010 C 
ENDBRANCH   9  18
BRANCH  17  20
ATOM     20  C   UNL A   1      30.659  25.065  25.040  1.00  0.00     0.429 C 
ATOM     21  F   UNL A   1      30.169  24.412  26.122  1.00  0.00    -0.167 F 
ATOM     22  F   UNL A   1      29.694  25.932  24.648  1.00  0.00    -0.167 F 
ATOM     23  F   UNL A   1      30.789  24.159  24.044  1.00  0.00    -0.167 F 
ENDBRANCH  17  20
ENDBRANCH   5   8
ENDBRANCH   3   4
ENDBRANCH   2   3
ENDBRANCH   1   2
BRANCH   1  24
ATOM     24  N   UNL A   1      32.039  31.748  26.899  1.00  0.00    -0.352 N 
ATOM     25  C   UNL A   1      32.942  32.616  27.467  1.00  0.00     0.251 C 
ATOM     26  H   UNL A   1      31.236  32.175  26.523  1.00  0.00     0.163 HD
ATOM     27  O   UNL A   1      32.617  33.778  27.686  1.00  0.00    -0.269 OA
BRANCH  25  28
ATOM     28  C   UNL A   1      34.281  32.121  27.834  1.00  0.00     0.039 A 
ATOM     29  C   UNL A   1      34.472  30.756  28.033  1.00  0.00     0.014 A 
ATOM     30  C   UNL A   1      35.325  33.021  28.054  1.00  0.00     0.014 A 
ATOM     31  C   UNL A   1      35.597  30.326  28.713  1.00  0.00     0.010 A 
ATOM     32  C   UNL A   1      36.526  32.554  28.593  1.00  0.00     0.010 A 
ATOM     33  C   UNL A   1      36.643  31.216  28.999  1.00  0.00    -0.014 A 
BRANCH  33  34
ATOM     34  C   UNL A   1      37.833  30.707  29.728  1.00  0.00     0.031 A 
ATOM     35  C   UNL A   1      38.084  31.083  31.164  1.00  0.00     0.074 A 
ATOM     36  C   UNL A   1      38.653  29.840  29.101  1.00  0.00     0.049 A 
ATOM     37  N   UNL A   1      39.056  30.697  31.949  1.00  0.00    -0.248 NA
ATOM     38  C   UNL A   1      37.134  32.008  31.809  1.00  0.00     0.031 C 
ATOM     39  C   UNL A   1      38.514  29.401  27.708  1.00  0.00     0.029 A 
ATOM     40  N   UNL A   1      39.752  29.155  29.552  1.00  0.00    -0.354 N 
ATOM     41  C   UNL A   1      38.863  31.360  33.155  1.00  0.00     0.074 A 
ATOM     42  C   UNL A   1      37.685  32.181  33.004  1.00  0.00     0.031 C 
ATOM     43  C   UNL A   1      39.450  28.483  27.437  1.00  0.00     0.029 A 
ATOM     44  C   UNL A   1      40.309  28.329  28.604  1.00  0.00     0.049 A 
ATOM     45  H   UNL A   1      40.107  29.246  30.466  1.00  0.00     0.167 HD
ATOM     46  C   UNL A   1      39.593  31.274  34.291  1.00  0.00     0.034 A 
ATOM     47  C   UNL A   1      41.405  27.549  28.651  1.00  0.00     0.034 A 
ATOM     48  C   UNL A   1      40.737  30.421  34.453  1.00  0.00     0.049 A 
ATOM     49  C   UNL A   1      42.207  27.494  29.914  1.00  0.00     0.074 A 
ATOM     50  C   UNL A   1      41.510  30.237  35.586  1.00  0.00     0.029 A 
ATOM     51  N   UNL A   1      41.275  29.617  33.462  1.00  0.00    -0.354 N 
ATOM     52  N   UNL A   1      41.967  28.080  31.060  1.00  0.00    -0.248 NA
ATOM     53  C   UNL A   1      43.421  26.666  29.900  1.00  0.00     0.031 C 
ATOM     54  C   UNL A   1      42.536  29.346  35.271  1.00  0.00     0.029 A 
ATOM     55  C   UNL A   1      42.379  28.947  33.953  1.00  0.00     0.049 A 
ATOM     56  H   UNL A   1      40.924  29.536  32.545  1.00  0.00     0.167 HD
ATOM     57  C   UNL A   1      42.987  27.680  31.911  1.00  0.00     0.074 A 
ATOM     58  C   UNL A   1      43.843  26.790  31.153  1.00  0.00     0.031 C 
ATOM     59  C   UNL A   1      43.197  28.031  33.201  1.00  0.00     0.034 A 
BRANCH  46  60
ATOM     60  C   UNL A   1      39.171  32.095  35.478  1.00  0.00     0.023 A 
ATOM     61  C   UNL A   1      39.358  33.491  35.459  1.00  0.00     0.012 A 
ATOM     62  C   UNL A   1      38.473  31.501  36.548  1.00  0.00     0.148 A 
ATOM     63  C   UNL A   1      38.856  34.285  36.489  1.00  0.00     0.002 A 
ATOM     64  C   UNL A   1      37.952  32.301  37.558  1.00  0.00     0.091 A 
ATOM     65  F   UNL A   1      38.314  30.170  36.543  1.00  0.00    -0.205 F 
ATOM     66  C   UNL A   1      38.144  33.693  37.529  1.00  0.00     0.022 A 
BRANCH  64  67
ATOM     67  S   UNL A   1      36.989  31.644  38.923  1.00  0.00     0.127 S 
ATOM     68  O   UNL A   1      37.923  31.793  40.039  1.00  0.00    -0.237 OA
ATOM     69  O   UNL A   1      35.847  32.555  38.958  1.00  0.00    -0.237 OA
ATOM     70  O   UNL A   1      36.670  30.268  38.569  1.00  0.00    -0.744 OA
ENDBRANCH  64  67
ENDBRANCH  46  60
BRANCH  47  71
ATOM     71  C   UNL A   1      41.776  26.753  27.452  1.00  0.00     0.023 A 
ATOM     72  C   UNL A   1      42.411  27.388  26.368  1.00  0.00     0.012 A 
ATOM     73  C   UNL A   1      41.583  25.358  27.423  1.00  0.00     0.148 A 
ATOM     74  C   UNL A   1      42.848  26.644  25.273  1.00  0.00     0.002 A 
ATOM     75  C   UNL A   1      42.051  24.619  26.345  1.00  0.00     0.091 A 
ATOM     76  F   UNL A   1      40.984  24.782  28.475  1.00  0.00    -0.205 F 
ATOM     77  C   UNL A   1      42.678  25.260  25.266  1.00  0.00     0.022 A 
BRANCH  75  78
ATOM     78  S   UNL A   1      41.951  22.827  26.283  1.00  0.00     0.127 S 
ATOM     79  O   UNL A   1      42.675  22.448  27.494  1.00  0.00    -0.237 OA
ATOM     80  O   UNL A   1      40.506  22.608  26.334  1.00  0.00    -0.237 OA
ATOM     81  O   UNL A   1      42.583  22.436  25.030  1.00  0.00    -0.744 OA
ENDBRANCH  75  78
ENDBRANCH  47  71
BRANCH  59  82
ATOM     82  C   UNL A   1      44.382  27.447  33.916  1.00  0.00     0.023 A 
ATOM     83  C   UNL A   1      45.596  28.159  33.936  1.00  0.00     0.012 A 
ATOM     84  C   UNL A   1      44.236  26.286  34.699  1.00  0.00     0.148 A 
ATOM     85  C   UNL A   1      46.651  27.723  34.736  1.00  0.00     0.002 A 
ATOM     86  C   UNL A   1      45.281  25.875  35.516  1.00  0.00     0.091 A 
ATOM     87  F   UNL A   1      43.066  25.633  34.657  1.00  0.00    -0.205 F 
ATOM     88  C   UNL A   1      46.488  26.592  35.536  1.00  0.00     0.022 A 
BRANCH  86  89
ATOM     89  S   UNL A   1      45.147  24.468  36.624  1.00  0.00     0.127 S 
ATOM     90  O   UNL A   1      46.512  24.369  37.141  1.00  0.00    -0.237 OA
ATOM     91  O   UNL A   1      44.159  24.935  37.595  1.00  0.00    -0.237 OA
ATOM     92  O   UNL A   1      44.718  23.344  35.804  1.00  0.00    -0.744 OA
ENDBRANCH  86  89
ENDBRANCH  59  82
ENDBRANCH  33  34
ENDBRANCH  25  28
ENDBRANCH   1  24
TORSDOF 15
ENDMDL
